AV-unprocessed.smi:2255|AV-procd|sdf|9125|dock5
  -GOLD-   2272012333D 1   1.00000     0.00000
 Structure written by MMmdl.
 46 47  0  0  0  0  0  0  0  0  1 V2000
  143.9254  132.5351  150.2779 C   0  0  0  0  0  0  0  0  0  0  0  0
  144.8616  132.1652  151.4090 C   0  0  0  0  0  0  0  0  0  0  0  0
  144.8627  130.8667  151.9550 C   0  0  0  0  0  0  0  0  0  0  0  0
  145.7528  130.5915  153.0085 C   0  0  0  0  0  0  0  0  0  0  0  0
  146.5982  131.6188  153.4701 C   0  0  0  0  0  0  0  0  0  0  0  0
  146.5352  132.8948  152.8662 C   0  0  0  0  0  0  0  0  0  0  0  0
  147.4228  133.8620  153.4077 N   0  0  0  0  0  0  0  0  0  0  0  0
  148.0298  133.8538  154.6077 C   0  0  0  0  0  0  0  0  0  0  0  0
  147.8693  132.9998  155.4802 O   0  0  0  0  0  0  0  0  0  0  0  0
  148.8429  134.9117  154.7430 N   0  0  0  0  0  0  0  0  0  0  0  0
  149.6673  135.2124  155.9123 C   0  0  0  0  0  0  0  0  0  0  0  0
  150.3794  136.5757  155.7821 C   0  0  0  0  0  0  0  0  0  0  0  0
  149.4718  137.7575  155.3844 C   0  0  0  0  0  0  0  0  0  0  0  0
  148.2492  137.6062  155.3877 O   0  0  0  0  0  0  0  0  0  0  0  0
  150.0432  138.9341  155.0263 N   0  0  0  0  0  0  0  0  0  0  0  0
  151.5000  139.1164  155.0547 C   0  0  0  0  0  0  0  0  0  0  0  0
  152.0177  139.4451  156.4702 C   0  0  0  0  0  0  0  0  0  0  0  0
  151.0904  140.3191  157.3434 C   0  0  0  0  0  0  0  0  0  0  0  0
  150.3926  141.4806  156.6081 C   0  0  0  0  0  0  0  0  0  0  0  0
  149.0938  141.0671  155.8844 C   0  0  0  0  0  0  0  0  0  0  0  0
  149.3080  140.1544  154.6628 C   0  0  0  0  0  0  0  0  0  0  0  0
  145.6734  133.1498  151.8503 N   0  0  0  0  0  0  0  0  0  0  0  0
  143.4113  131.6569  149.8866 H   0  0  0  0  0  0  0  0  0  0  0  0
  144.4788  132.9968  149.4598 H   0  0  0  0  0  0  0  0  0  0  0  0
  143.1738  133.2434  150.6279 H   0  0  0  0  0  0  0  0  0  0  0  0
  144.1993  130.1011  151.5798 H   0  0  0  0  0  0  0  0  0  0  0  0
  145.7863  129.6099  153.4574 H   0  0  0  0  0  0  0  0  0  0  0  0
  147.2865  131.4244  154.2798 H   0  0  0  0  0  0  0  0  0  0  0  0
  147.6323  134.6433  152.8049 H   0  0  0  0  0  0  0  0  0  0  0  0
  148.9048  135.5593  153.9710 H   0  0  0  0  0  0  0  0  0  0  0  0
  149.0067  135.2366  156.7790 H   0  0  0  0  0  0  0  0  0  0  0  0
  150.3948  134.4241  156.1144 H   0  0  0  0  0  0  0  0  0  0  0  0
  150.8731  136.8037  156.7271 H   0  0  0  0  0  0  0  0  0  0  0  0
  151.1630  136.4827  155.0302 H   0  0  0  0  0  0  0  0  0  0  0  0
  152.0108  138.2342  154.6648 H   0  0  0  0  0  0  0  0  0  0  0  0
  151.7944  139.9212  154.3806 H   0  0  0  0  0  0  0  0  0  0  0  0
  152.2107  138.5148  157.0058 H   0  0  0  0  0  0  0  0  0  0  0  0
  152.9882  139.9328  156.3745 H   0  0  0  0  0  0  0  0  0  0  0  0
  150.3365  139.6914  157.8202 H   0  0  0  0  0  0  0  0  0  0  0  0
  151.6859  140.7248  158.1619 H   0  0  0  0  0  0  0  0  0  0  0  0
  150.1306  142.2387  157.3470 H   0  0  0  0  0  0  0  0  0  0  0  0
  151.0826  141.9663  155.9172 H   0  0  0  0  0  0  0  0  0  0  0  0
  148.4200  140.5867  156.5943 H   0  0  0  0  0  0  0  0  0  0  0  0
  148.5769  141.9680  155.5520 H   0  0  0  0  0  0  0  0  0  0  0  0
  149.8484  140.7055  153.8923 H   0  0  0  0  0  0  0  0  0  0  0  0
  148.3479  139.9291  154.2008 H   0  0  0  0  0  0  0  0  0  0  0  0
  1  2  1  0  0  0  0
  1 23  1  0  0  0  0
  1 24  1  0  0  0  0
  1 25  1  0  0  0  0
  2 22  1  0  0  0  0
  2  3  2  0  0  0  0
  3  4  1  0  0  0  0
  3 26  1  0  0  0  0
  4  5  2  0  0  0  0
  4 27  1  0  0  0  0
  5  6  1  0  0  0  0
  5 28  1  0  0  0  0
  6  7  1  0  0  0  0
  6 22  2  0  0  0  0
  7  8  1  0  0  0  0
  7 29  1  0  0  0  0
  8  9  2  0  0  0  0
  8 10  1  0  0  0  0
 10 11  1  0  0  0  0
 10 30  1  0  0  0  0
 11 12  1  0  0  0  0
 11 31  1  0  0  0  0
 11 32  1  0  0  0  0
 12 13  1  0  0  0  0
 12 33  1  0  0  0  0
 12 34  1  0  0  0  0
 13 14  2  0  0  0  0
 13 15  1  0  0  0  0
 15 21  1  0  0  0  0
 15 16  1  0  0  0  0
 16 17  1  0  0  0  0
 16 35  1  0  0  0  0
 16 36  1  0  0  0  0
 17 18  1  0  0  0  0
 17 37  1  0  0  0  0
 17 38  1  0  0  0  0
 18 19  1  0  0  0  0
 18 39  1  0  0  0  0
 18 40  1  0  0  0  0
 19 20  1  0  0  0  0
 19 41  1  0  0  0  0
 19 42  1  0  0  0  0
 20 21  1  0  0  0  0
 20 43  1  0  0  0  0
 20 44  1  0  0  0  0
 21 45  1  0  0  0  0
 21 46  1  0  0  0  0
M  END
> <s_m_source_file>
AV-unprocessed.smi

> <i_m_source_file_index>
2255

> <i_lp_mmshare_version>
43012

> <i_f3d_flags>
0

> <s_epik_input>
W0NIM11jMVtjSF1bY0hdW2NIXWMobjEpW05IXUMoPU8pW05IXVtDSDJdW0NIMl1DKD1PKU4yW0NIMl1bQ0gyXVtDSDJdW0NIMl1bQ0gyXVtDSDJdMg==

> <s_epik_cmdline>
J2VwaWtfcHl0aG9uJywgJy1waCcsICc3LjAnLCAnLXRuJywgJzgnLCAnLW1hJywgJzIwMCcsICctbWV0YWxfYmluZGluZycsICctaW1hZScsICc8aW5maWxlLm1hZT4nLCAnLW9tYWUnLCAnPG91dGZpbGUubWFlPic=

> <r_lp_tautomer_probability>
1

> <r_epik_Ionization_Penalty>
7.16633e-05

> <r_epik_Ionization_Penalty_Charging>
0

> <r_epik_Ionization_Penalty_Neutral>
7.16633e-05

> <r_epik_State_Penalty>
-0

> <r_epik_Charging_Adjusted_Penalty>
0

> <i_epik_Tot_Q>
0

> <i_epik_Tot_abs_Q>
0

> <r_epik_Metal_State_Penalty>
-0

> <b_epik_Metal_Only>
0

> <s_lp_Force_Field>
OPLS_2005

> <r_lp_Energy>
24.0956

> <b_lp_Chiralities_Consistent>
1

> <s_lp_Variant>
AV-unprocessed.smi:2255-1

> <Gold.Version>
5.8.1

> <Gold.Id.Protein>
6NUR|6NUR_protein|mol2

> <Gold.PLP.Fitness>
45.6274

> <Gold.PLP.PLP>
-40.0912

> <Gold.PLP.part.hbond>
-2.0000

> <Gold.PLP.part.metal>
0.0000

> <Gold.PLP.part.buried>
-3.2589

> <Gold.PLP.part.nonpolar>
-35.3004

> <Gold.PLP.part.repulsive>
0.3042

> <Gold.PLP.ligand.clash>
0.0000

> <Gold.PLP.ligand.torsion>
0.2371

> <Gold.PLP.Chemscore.Hbond>
2.0000

> <Gold.PLP.Chemscore.CHOScore>
0.0000

> <Gold.PLP.Chemscore.Metal>
0.0000

> <Gold.Chemscore.Hbonds>
donor molecule, donor type, donor heavy atom, donor atom, acceptor molecule, acceptor atom, score
      L1  H     7    29       P1  7948  0.49
      L1  H    10    30       P1  7948  0.60

> <Gold.PLP.Chemscore.Internal.Correction>
0.0105

> <Gold.Rescore>
     Score         DG    S(hbond)    S(metal)    S(lipo)     H(rot)  DE(clash)    DE(int)     intcor
     13.54     -16.83       1.61        0.00      83.62       1.49       0.01       3.29       ----

> <Gold.Chemscore.Fitness>
13.5352

> <Gold.Chemscore.DG>
-16.8288

> <Gold.Chemscore.ZeroCoef>
-5.4800

> <Gold.Chemscore.Hbond>
1.6143

> <Gold.Chemscore.Metal>
0.0000

> <Gold.Chemscore.Lipo>
83.6172

> <Gold.Chemscore.Internal_Hbond>
0.0000

> <Gold.Chemscore.DEClash>
0.0073

> <Gold.Chemscore.DEInternal>
3.2862

> <Gold.Chemscore.Rot>
1.4946

> <Gold.Chemscore.Internal.Correction>
   9.000000E+99

> <Gold.Chemscore.Hbonds>
donor molecule, donor type, donor heavy atom, donor atom, acceptor molecule, acceptor atom, score
      L1  H     7    29       P1  7948  0.43
      L1  H    10    30       P1  7948  0.54

> <Gold.Chemscore.Hbond.Weighted>
-5.3916

> <Gold.Chemscore.Metal.Weighted>
-0.0000

> <Gold.Chemscore.Lipo.Weighted>
-9.7832

> <Gold.Chemscore.Internal_Hbond.Weighted>
0.0000

> <Gold.Chemscore.DEClash.Weighted>
0.0073

> <Gold.Chemscore.DEInternal.Weighted>
3.2862

> <Gold.Chemscore.Rot.Weighted>
3.8261

> <Gold.Chemscore.Internal.Correction.Weighted>
   9.000000E+99

> <Gold.Protein.RotatedTorsions>
[ 6907 6896 6895 6894 ] final -137.91 input  -60.11 | X-H torsion
[ 7974 7965 7964 7962 ] final   92.81 input  175.53 | X-H torsion
[ 8008 7997 7996 7995 ] final  125.63 input   59.86 | X-H torsion
[ 10167 10162 10161 10158 ] final  -95.47 input  -65.29 | X-H torsion
[ 10718 10713 10712 10709 ] final  154.64 input   66.30 | X-H torsion
[ 10763 10752 10751 10750 ] final -147.08 input  -60.55 | X-H torsion
[ 11005 11000 10999 10996 ] final   73.71 input  -57.11 | X-H torsion

> <Gold.Protein.ActiveResidues>
 VAL166  LYS551  ARG553  GLY616  TRP617  ASP618  TYR619  PRO620  LYS621  CYS622 
 ASP623  PHE694  ASN695  SER759  ASP760  ASP761  ALA762  ILE779  LEU786  VAL792 
 PHE793  MET794  SER795  GLU796  ALA797  LYS798  CYS799  TRP800  GLU811  SER814 

> <Gold.Protein.RotatedAtoms>
  151.0284  133.5813  159.2663 H   0  0  0  0  0  0  0  0  0  0  0  0  # atno 6907 bound_to 6896
  151.2904  135.0739  159.9212 H   0  0  0  0  0  0  0  0  0  0  0  0  # atno 6908 bound_to 6896
  152.5339  133.9983  159.7937 H   0  0  0  0  0  0  0  0  0  0  0  0  # atno 6909 bound_to 6896
  145.4873  139.2277  143.2849 H   0  0  0  0  0  0  0  0  0  0  0  0  # atno 7974 bound_to 7965
  156.2840  140.2712  156.1980 H   0  0  0  0  0  0  0  0  0  0  0  0  # atno 8008 bound_to 7997
  155.0390  140.0386  157.2520 H   0  0  0  0  0  0  0  0  0  0  0  0  # atno 8009 bound_to 7997
  154.7290  140.2703  155.6478 H   0  0  0  0  0  0  0  0  0  0  0  0  # atno 8010 bound_to 7997
  140.3038  143.3146  152.0220 H   0  0  0  0  0  0  0  0  0  0  0  0  # atno 10167 bound_to 10162
  157.2289  131.0735  151.1865 H   0  0  0  0  0  0  0  0  0  0  0  0  # atno 10718 bound_to 10713
  154.8304  135.3369  154.6763 H   0  0  0  0  0  0  0  0  0  0  0  0  # atno 10763 bound_to 10752
  153.7383  135.6947  153.4977 H   0  0  0  0  0  0  0  0  0  0  0  0  # atno 10764 bound_to 10752
  153.2262  135.4432  155.0496 H   0  0  0  0  0  0  0  0  0  0  0  0  # atno 10765 bound_to 10752
  139.9427  134.7370  156.1059 H   0  0  0  0  0  0  0  0  0  0  0  0  # atno 11005 bound_to 11000
  146.2305  140.5664  142.8977 LP  0  0  0  0  0  0  0  0  0  0  0  0  # atno 17320 bound_to 7965
  144.7854  140.5926  143.6577 LP  0  0  0  0  0  0  0  0  0  0  0  0  # atno 17321 bound_to 7965
  139.4909  144.6436  151.6826 LP  0  0  0  0  0  0  0  0  0  0  0  0  # atno 17342 bound_to 10162
  140.5628  144.0241  150.6178 LP  0  0  0  0  0  0  0  0  0  0  0  0  # atno 17343 bound_to 10162
  157.3498  130.7076  149.6434 LP  0  0  0  0  0  0  0  0  0  0  0  0  # atno 17370 bound_to 10713
  155.9677  130.4256  150.4659 LP  0  0  0  0  0  0  0  0  0  0  0  0  # atno 17371 bound_to 10713
  141.1067  133.6657  156.2880 LP  0  0  0  0  0  0  0  0  0  0  0  0  # atno 17394 bound_to 11000
  140.5912  134.5648  157.5500 LP  0  0  0  0  0  0  0  0  0  0  0  0  # atno 17395 bound_to 11000

$$$$
