AV-unprocessed.smi:2845|AV-procd|sdf|10945|dock6
  -GOLD-   2272015393D 1   1.00000     0.00000
 Structure written by MMmdl.
 42 44  0  0  0  0  0  0  0  0  1 V2000
  153.1660  142.7859  161.2118 C   0  0  0  0  0  0  0  0  0  0  0  0
  152.4591  142.3800  159.9306 C   0  0  0  0  0  0  0  0  0  0  0  0
  152.4788  141.0236  159.5347 C   0  0  0  0  0  0  0  0  0  0  0  0
  151.8352  140.6057  158.3492 C   0  0  0  0  0  0  0  0  0  0  0  0
  151.7309  139.3485  157.7788 N   0  0  0  0  0  0  0  0  0  0  0  0
  151.0152  139.6080  156.6885 C   0  0  0  0  0  0  0  0  0  0  0  0
  150.6424  140.8859  156.4846 N   0  0  0  0  0  0  0  0  0  0  0  0
  149.8649  141.4009  155.3714 C   0  0  0  0  0  0  0  0  0  0  0  0
  149.2116  140.2804  154.5404 C   0  0  2  0  0  0  0  0  0  0  0  0
  150.1443  139.7759  153.6025 O   0  0  0  0  0  0  0  0  0  0  0  0
  147.9479  140.7700  153.8082 C   0  0  0  0  0  0  0  0  0  0  0  0
  147.0741  141.5457  154.6698 N   0  0  0  0  0  0  0  0  0  0  0  0
  146.4403  142.7008  154.4464 C   0  0  0  0  0  0  0  0  0  0  0  0
  145.7255  143.1320  155.4774 N   0  0  0  0  0  0  0  0  0  0  0  0
  145.9842  142.1189  156.3538 C   0  0  0  0  0  0  0  0  0  0  0  0
  145.2797  142.1146  158.0324 S   0  0  2  0  0  0  0  0  0  0  0  0
  145.0976  143.9563  158.1597 C   0  0  0  0  0  0  0  0  0  0  0  0
  146.4212  141.7114  158.9682 O   0  0  0  0  0  0  0  0  0  0  0  0
  146.7840  141.1423  155.9295 N   0  0  0  0  0  0  0  0  0  0  0  0
  151.1651  141.5895  157.5647 C   0  0  0  0  0  0  0  0  0  0  0  0
  151.1391  142.9421  157.9479 C   0  0  0  0  0  0  0  0  0  0  0  0
  151.7874  143.3427  159.1350 C   0  0  0  0  0  0  0  0  0  0  0  0
  151.7548  144.8061  159.5392 C   0  0  0  0  0  0  0  0  0  0  0  0
  153.6288  141.9280  161.7004 H   0  0  0  0  0  0  0  0  0  0  0  0
  152.4599  143.2297  161.9140 H   0  0  0  0  0  0  0  0  0  0  0  0
  153.9500  143.5135  161.0012 H   0  0  0  0  0  0  0  0  0  0  0  0
  152.9912  140.2902  160.1399 H   0  0  0  0  0  0  0  0  0  0  0  0
  150.7465  138.8238  155.9959 H   0  0  0  0  0  0  0  0  0  0  0  0
  149.0992  142.0666  155.7719 H   0  0  0  0  0  0  0  0  0  0  0  0
  150.5130  142.0150  154.7448 H   0  0  0  0  0  0  0  0  0  0  0  0
  148.9373  139.4617  155.2072 H   0  0  0  0  0  0  0  0  0  0  0  0
  149.7566  139.8152  152.7413 H   0  0  0  0  0  0  0  0  0  0  0  0
  148.2261  141.3979  152.9608 H   0  0  0  0  0  0  0  0  0  0  0  0
  147.3883  139.9264  153.4004 H   0  0  0  0  0  0  0  0  0  0  0  0
  146.5078  143.2388  153.5122 H   0  0  0  0  0  0  0  0  0  0  0  0
  144.9585  144.4059  157.1762 H   0  0  0  0  0  0  0  0  0  0  0  0
  145.9857  144.3919  158.6178 H   0  0  0  0  0  0  0  0  0  0  0  0
  144.2334  144.2044  158.7756 H   0  0  0  0  0  0  0  0  0  0  0  0
  150.6272  143.6653  157.3304 H   0  0  0  0  0  0  0  0  0  0  0  0
  151.1837  145.4027  158.8272 H   0  0  0  0  0  0  0  0  0  0  0  0
  152.7654  145.2127  159.5820 H   0  0  0  0  0  0  0  0  0  0  0  0
  151.2918  144.9223  160.5193 H   0  0  0  0  0  0  0  0  0  0  0  0
  1  2  1  0  0  0  0
  1 24  1  0  0  0  0
  1 25  1  0  0  0  0
  1 26  1  0  0  0  0
  2 22  1  0  0  0  0
  2  3  2  0  0  0  0
  3  4  1  0  0  0  0
  3 27  1  0  0  0  0
  4 20  2  0  0  0  0
  4  5  1  0  0  0  0
  5  6  2  0  0  0  0
  6  7  1  0  0  0  0
  6 28  1  0  0  0  0
  7  8  1  0  0  0  0
  7 20  1  0  0  0  0
  8  9  1  0  0  0  0
  8 29  1  0  0  0  0
  8 30  1  0  0  0  0
  9 10  1  0  0  0  0
  9 11  1  0  0  0  0
  9 31  1  0  0  0  0
 10 32  1  0  0  0  0
 11 12  1  0  0  0  0
 11 33  1  0  0  0  0
 11 34  1  0  0  0  0
 12 19  1  0  0  0  0
 12 13  1  0  0  0  0
 13 14  2  0  0  0  0
 13 35  1  0  0  0  0
 14 15  1  0  0  0  0
 15 16  1  0  0  0  0
 15 19  2  0  0  0  0
 16 17  1  0  0  0  0
 16 18  2  0  0  0  0
 17 36  1  0  0  0  0
 17 37  1  0  0  0  0
 17 38  1  0  0  0  0
 20 21  1  0  0  0  0
 21 22  2  0  0  0  0
 21 39  1  0  0  0  0
 22 23  1  0  0  0  0
 23 40  1  0  0  0  0
 23 41  1  0  0  0  0
 23 42  1  0  0  0  0
M  END
> <s_m_source_file>
AV-unprocessed.smi

> <i_m_source_file_index>
2845

> <i_lp_mmshare_version>
43012

> <i_f3d_flags>
0

> <s_epik_input>
W0NIM11jKFtjSF0xKWMoW0NIM10pW2NIXWMoYzEyKW4oW2NIXW4yKVtDSDJdW0NASF0oW09IXSlbQ0gyXW4zW2NIXW5jKG4zKVtTQF0oPU8pW0NIM10=

> <s_epik_cmdline>
J2VwaWtfcHl0aG9uJywgJy1waCcsICc3LjAnLCAnLXRuJywgJzgnLCAnLW1hJywgJzIwMCcsICctbWV0YWxfYmluZGluZycsICctaW1hZScsICc8aW5maWxlLm1hZT4nLCAnLW9tYWUnLCAnPG91dGZpbGUubWFlPic=

> <r_lp_tautomer_probability>
1

> <r_epik_Ionization_Penalty>
0.0968684

> <r_epik_Ionization_Penalty_Charging>
0

> <r_epik_Ionization_Penalty_Neutral>
0.0968684

> <r_epik_State_Penalty>
0.0870047

> <r_epik_Charging_Adjusted_Penalty>
0.0870047

> <i_epik_Tot_Q>
0

> <i_epik_Tot_abs_Q>
0

> <r_epik_Metal_State_Penalty>
0.0746849

> <b_epik_Metal_Only>
0

> <s_lp_Force_Field>
OPLS_2005

> <r_lp_Energy>
9.81721

> <b_lp_Chiralities_Consistent>
1

> <s_lp_Variant>
AV-unprocessed.smi:2845-3

> <Gold.Version>
5.8.1

> <Gold.Id.Protein>
6NUR|6NUR_protein|mol2

> <Gold.PLP.Fitness>
52.2008

> <Gold.PLP.PLP>
-45.6605

> <Gold.PLP.part.hbond>
-2.9574

> <Gold.PLP.part.metal>
0.0000

> <Gold.PLP.part.buried>
-5.4098

> <Gold.PLP.part.nonpolar>
-38.4642

> <Gold.PLP.part.repulsive>
0.2630

> <Gold.PLP.ligand.clash>
0.0000

> <Gold.PLP.ligand.torsion>
1.1893

> <Gold.PLP.Chemscore.Hbond>
2.6249

> <Gold.PLP.Chemscore.CHOScore>
0.0000

> <Gold.PLP.Chemscore.Metal>
0.0000

> <Gold.Chemscore.Hbonds>
donor molecule, donor type, donor heavy atom, donor atom, acceptor molecule, acceptor atom, score
      L1  H    10    32       P1  7957  1.00
      P1  H  6934  6946       L1    18  0.78
      P1  H  7989  7998       L1    10  0.80

> <Gold.PLP.Chemscore.Internal.Correction>
1.0443

> <Gold.Rescore>
     Score         DG    S(hbond)    S(metal)    S(lipo)     H(rot)  DE(clash)    DE(int)     intcor
     16.61     -17.91       2.23        0.00     101.79       2.71       0.10       1.19       ----

> <Gold.Chemscore.Fitness>
16.6150

> <Gold.Chemscore.DG>
-17.9089

> <Gold.Chemscore.ZeroCoef>
-5.4800

> <Gold.Chemscore.Hbond>
2.2333

> <Gold.Chemscore.Metal>
0.0000

> <Gold.Chemscore.Lipo>
101.7895

> <Gold.Chemscore.Internal_Hbond>
0.0000

> <Gold.Chemscore.DEClash>
0.1044

> <Gold.Chemscore.DEInternal>
1.1894

> <Gold.Chemscore.Rot>
2.7108

> <Gold.Chemscore.Internal.Correction>
   9.000000E+99

> <Gold.Chemscore.Hbonds>
donor molecule, donor type, donor heavy atom, donor atom, acceptor molecule, acceptor atom, score
      L1  H    10    32       P1  7957  0.98
      P1  H  6934  6946       L1    18  0.75
      P1  H  7989  7998       L1    10  0.26

> <Gold.Chemscore.Hbond.Weighted>
-7.4591

> <Gold.Chemscore.Metal.Weighted>
-0.0000

> <Gold.Chemscore.Lipo.Weighted>
-11.9094

> <Gold.Chemscore.Internal_Hbond.Weighted>
0.0000

> <Gold.Chemscore.DEClash.Weighted>
0.1044

> <Gold.Chemscore.DEInternal.Weighted>
1.1894

> <Gold.Chemscore.Rot.Weighted>
6.9396

> <Gold.Chemscore.Internal.Correction.Weighted>
   9.000000E+99

> <Gold.Protein.RotatedTorsions>
[ 6907 6896 6895 6894 ] final   53.94 input  -60.11 | X-H torsion
[ 7974 7965 7964 7962 ] final -105.80 input  175.53 | X-H torsion
[ 8008 7997 7996 7995 ] final  -74.95 input   59.86 | X-H torsion
[ 10167 10162 10161 10158 ] final  -33.40 input  -65.29 | X-H torsion
[ 10718 10713 10712 10709 ] final   60.32 input   66.30 | X-H torsion
[ 10763 10752 10751 10750 ] final -104.18 input  -60.55 | X-H torsion
[ 11005 11000 10999 10996 ] final  -99.48 input  -57.11 | X-H torsion

> <Gold.Protein.ActiveResidues>
 VAL166  LYS551  ARG553  GLY616  TRP617  ASP618  TYR619  PRO620  LYS621  CYS622 
 ASP623  PHE694  ASN695  SER759  ASP760  ASP761  ALA762  ILE779  LEU786  VAL792 
 PHE793  MET794  SER795  GLU796  ALA797  LYS798  CYS799  TRP800  GLU811  SER814 

> <Gold.Protein.RotatedAtoms>
  152.3389  134.7161  160.0269 H   0  0  0  0  0  0  0  0  0  0  0  0  # atno 6907 bound_to 6896
  151.7553  133.3324  159.3411 H   0  0  0  0  0  0  0  0  0  0  0  0  # atno 6908 bound_to 6896
  150.7467  134.6087  159.6119 H   0  0  0  0  0  0  0  0  0  0  0  0  # atno 6909 bound_to 6896
  145.2259  140.9152  143.3232 H   0  0  0  0  0  0  0  0  0  0  0  0  # atno 7974 bound_to 7965
  154.5375  140.0752  156.8453 H   0  0  0  0  0  0  0  0  0  0  0  0  # atno 8008 bound_to 7997
  155.3248  140.3398  155.4222 H   0  0  0  0  0  0  0  0  0  0  0  0  # atno 8009 bound_to 7997
  156.1842  140.1663  156.8203 H   0  0  0  0  0  0  0  0  0  0  0  0  # atno 8010 bound_to 7997
  140.7205  143.3623  151.1938 H   0  0  0  0  0  0  0  0  0  0  0  0  # atno 10167 bound_to 10162
  157.5744  130.8932  149.9322 H   0  0  0  0  0  0  0  0  0  0  0  0  # atno 10718 bound_to 10713
  154.7860  135.4796  153.9946 H   0  0  0  0  0  0  0  0  0  0  0  0  # atno 10763 bound_to 10752
  153.1561  135.6800  153.8818 H   0  0  0  0  0  0  0  0  0  0  0  0  # atno 10764 bound_to 10752
  153.8447  135.3175  155.3406 H   0  0  0  0  0  0  0  0  0  0  0  0  # atno 10765 bound_to 10752
  141.1307  133.8324  157.0976 H   0  0  0  0  0  0  0  0  0  0  0  0  # atno 11005 bound_to 11000
  144.9722  139.3869  143.6303 LP  0  0  0  0  0  0  0  0  0  0  0  0  # atno 17320 bound_to 7965
  146.3365  139.8824  142.8822 LP  0  0  0  0  0  0  0  0  0  0  0  0  # atno 17321 bound_to 7965
  139.7178  143.9272  152.2973 LP  0  0  0  0  0  0  0  0  0  0  0  0  # atno 17342 bound_to 10162
  139.9019  144.6907  150.8656 LP  0  0  0  0  0  0  0  0  0  0  0  0  # atno 17343 bound_to 10162
  156.0789  130.3675  150.0621 LP  0  0  0  0  0  0  0  0  0  0  0  0  # atno 17370 bound_to 10713
  156.8769  130.9543  151.3603 LP  0  0  0  0  0  0  0  0  0  0  0  0  # atno 17371 bound_to 10713
  140.0353  134.9881  157.0859 LP  0  0  0  0  0  0  0  0  0  0  0  0  # atno 17394 bound_to 11000
  140.4220  134.1870  155.7165 LP  0  0  0  0  0  0  0  0  0  0  0  0  # atno 17395 bound_to 11000

$$$$
