AV-unprocessed.smi:2804|AV-procd|sdf|10809|dock9
  -GOLD-   2272015243D 1   1.00000     0.00000
 Structure written by MMmdl.
 35 36  0  0  0  0  0  0  0  0  1 V2000
  155.2700  140.1967  161.4935 C   0  0  0  0  0  0  0  0  0  0  0  0
  154.5320  140.9814  160.4044 C   0  0  0  0  0  0  0  0  0  0  0  0
  153.1427  140.3997  160.1001 C   0  0  0  0  0  0  0  0  0  0  0  0
  152.4143  141.2422  159.1555 N   0  0  0  0  0  0  0  0  0  0  0  0
  151.8920  140.8575  157.9675 C   0  0  0  0  0  0  0  0  0  0  0  0
  151.9312  139.7224  157.4927 O   0  0  0  0  0  0  0  0  0  0  0  0
  151.3343  141.9433  157.3815 N   0  0  0  0  0  0  0  0  0  0  0  0
  150.6763  141.9827  156.0763 C   0  0  0  0  0  0  0  0  0  0  0  0
  150.0260  140.6282  155.7235 C   0  0  2  0  0  0  0  0  0  0  0  0
  150.7641  140.0384  154.6707 O   0  0  0  0  0  0  0  0  0  0  0  0
  148.5643  140.7743  155.2569 C   0  0  0  0  0  0  0  0  0  0  0  0
  147.8387  141.3758  156.2000 F   0  0  0  0  0  0  0  0  0  0  0  0
  148.5184  141.5303  154.1601 F   0  0  0  0  0  0  0  0  0  0  0  0
  148.0335  139.5834  154.9767 F   0  0  0  0  0  0  0  0  0  0  0  0
  151.5207  143.0591  158.2110 C   0  0  0  0  0  0  0  0  0  0  0  0
  151.1512  144.4063  158.0504 C   0  0  0  0  0  0  0  0  0  0  0  0
  151.5060  145.3022  159.0862 C   0  0  0  0  0  0  0  0  0  0  0  0
  152.2074  144.8473  160.2329 C   0  0  0  0  0  0  0  0  0  0  0  0
  152.5683  143.4863  160.3688 C   0  0  0  0  0  0  0  0  0  0  0  0
  152.2017  142.6174  159.3263 C   0  0  0  0  0  0  0  0  0  0  0  0
  156.2489  140.6338  161.6912 H   0  0  0  0  0  0  0  0  0  0  0  0
  155.4225  139.1590  161.1956 H   0  0  0  0  0  0  0  0  0  0  0  0
  154.7090  140.1994  162.4285 H   0  0  0  0  0  0  0  0  0  0  0  0
  154.4346  142.0217  160.7171 H   0  0  0  0  0  0  0  0  0  0  0  0
  155.1356  140.9876  159.4960 H   0  0  0  0  0  0  0  0  0  0  0  0
  153.2398  139.3906  159.6963 H   0  0  0  0  0  0  0  0  0  0  0  0
  152.5641  140.3024  161.0193 H   0  0  0  0  0  0  0  0  0  0  0  0
  149.9102  142.7582  156.1180 H   0  0  0  0  0  0  0  0  0  0  0  0
  151.3696  142.3008  155.2971 H   0  0  0  0  0  0  0  0  0  0  0  0
  150.0518  139.9585  156.5843 H   0  0  0  0  0  0  0  0  0  0  0  0
  151.4429  139.4994  155.0471 H   0  0  0  0  0  0  0  0  0  0  0  0
  150.6227  144.7501  157.1738 H   0  0  0  0  0  0  0  0  0  0  0  0
  151.2422  146.3460  159.0017 H   0  0  0  0  0  0  0  0  0  0  0  0
  152.4710  145.5489  161.0106 H   0  0  0  0  0  0  0  0  0  0  0  0
  153.1057  143.1349  161.2371 H   0  0  0  0  0  0  0  0  0  0  0  0
  1  2  1  0  0  0  0
  1 21  1  0  0  0  0
  1 22  1  0  0  0  0
  1 23  1  0  0  0  0
  2  3  1  0  0  0  0
  2 24  1  0  0  0  0
  2 25  1  0  0  0  0
  3  4  1  0  0  0  0
  3 26  1  0  0  0  0
  3 27  1  0  0  0  0
  4 20  1  0  0  0  0
  4  5  1  0  0  0  0
  5  6  2  0  0  0  0
  5  7  1  0  0  0  0
  7  8  1  0  0  0  0
  7 15  1  0  0  0  0
  8  9  1  0  0  0  0
  8 28  1  0  0  0  0
  8 29  1  0  0  0  0
  9 10  1  0  0  0  0
  9 11  1  0  0  0  0
  9 30  1  0  0  0  0
 10 31  1  0  0  0  0
 11 12  1  0  0  0  0
 11 13  1  0  0  0  0
 11 14  1  0  0  0  0
 15 20  2  0  0  0  0
 15 16  1  0  0  0  0
 16 17  2  0  0  0  0
 16 32  1  0  0  0  0
 17 18  1  0  0  0  0
 17 33  1  0  0  0  0
 18 19  2  0  0  0  0
 18 34  1  0  0  0  0
 19 20  1  0  0  0  0
 19 35  1  0  0  0  0
M  END
> <s_m_source_file>
AV-unprocessed.smi

> <i_m_source_file_index>
2804

> <i_lp_mmshare_version>
43012

> <i_f3d_flags>
0

> <s_epik_input>
W2NIXTFbY0hdW2NIXVtjSF1jKGMxMiluKFtDSDJdW0NIMl1bQ0gzXSljKD1PKW4yW0NIMl1bQ0BIXShbT0hdKUMoRikoRilG

> <s_epik_cmdline>
J2VwaWtfcHl0aG9uJywgJy1waCcsICc3LjAnLCAnLXRuJywgJzgnLCAnLW1hJywgJzIwMCcsICctbWV0YWxfYmluZGluZycsICctaW1hZScsICc8aW5maWxlLm1hZT4nLCAnLW9tYWUnLCAnPG91dGZpbGUubWFlPic=

> <r_epik_Ionization_Penalty>
0.0117937

> <r_epik_Ionization_Penalty_Charging>
3.30828e-09

> <r_epik_Ionization_Penalty_Neutral>
0.0117937

> <r_epik_State_Penalty>
0.00909547

> <r_epik_Charging_Adjusted_Penalty>
0.00909547

> <i_epik_Tot_Q>
0

> <i_epik_Tot_abs_Q>
0

> <r_epik_Metal_State_Penalty>
0.00909547

> <b_epik_Metal_Only>
0

> <s_lp_Force_Field>
OPLS_2005

> <r_lp_Energy>
41.5992

> <b_lp_Chiralities_Consistent>
1

> <s_lp_Variant>
AV-unprocessed.smi:2804-1

> <Gold.Version>
5.8.1

> <Gold.Id.Protein>
6NUR|6NUR_protein|mol2

> <Gold.PLP.Fitness>
46.3964

> <Gold.PLP.PLP>
-45.5890

> <Gold.PLP.part.hbond>
-1.0000

> <Gold.PLP.part.metal>
0.0000

> <Gold.PLP.part.buried>
-4.8023

> <Gold.PLP.part.nonpolar>
-39.4350

> <Gold.PLP.part.repulsive>
0.0000

> <Gold.PLP.ligand.clash>
0.0000

> <Gold.PLP.ligand.torsion>
1.1107

> <Gold.PLP.Chemscore.Hbond>
1.0000

> <Gold.PLP.Chemscore.CHOScore>
0.0000

> <Gold.PLP.Chemscore.Metal>
0.0000

> <Gold.Chemscore.Hbonds>
donor molecule, donor type, donor heavy atom, donor atom, acceptor molecule, acceptor atom, score
      P1  H  7989  7998       L1    10  1.00

> <Gold.PLP.Chemscore.Internal.Correction>
0.0287

> <Gold.Rescore>
     Score         DG    S(hbond)    S(metal)    S(lipo)     H(rot)  DE(clash)    DE(int)     intcor
     13.50     -15.99       0.97        0.00     112.89       2.32       0.04       2.45       ----

> <Gold.Chemscore.Fitness>
13.5009

> <Gold.Chemscore.DG>
-15.9922

> <Gold.Chemscore.ZeroCoef>
-5.4800

> <Gold.Chemscore.Hbond>
0.9672

> <Gold.Chemscore.Metal>
0.0000

> <Gold.Chemscore.Lipo>
112.8926

> <Gold.Chemscore.Internal_Hbond>
0.0000

> <Gold.Chemscore.DEClash>
0.0434

> <Gold.Chemscore.DEInternal>
2.4479

> <Gold.Chemscore.Rot>
2.3152

> <Gold.Chemscore.Internal.Correction>
   9.000000E+99

> <Gold.Chemscore.Hbonds>
donor molecule, donor type, donor heavy atom, donor atom, acceptor molecule, acceptor atom, score
      P1  H  7989  7998       L1    10  0.30

> <Gold.Chemscore.Hbond.Weighted>
-3.2306

> <Gold.Chemscore.Metal.Weighted>
-0.0000

> <Gold.Chemscore.Lipo.Weighted>
-13.2084

> <Gold.Chemscore.Internal_Hbond.Weighted>
0.0000

> <Gold.Chemscore.DEClash.Weighted>
0.0434

> <Gold.Chemscore.DEInternal.Weighted>
2.4479

> <Gold.Chemscore.Rot.Weighted>
5.9268

> <Gold.Chemscore.Internal.Correction.Weighted>
   9.000000E+99

> <Gold.Protein.RotatedTorsions>
[ 6907 6896 6895 6894 ] final   96.08 input  -60.11 | X-H torsion
[ 7974 7965 7964 7962 ] final  -41.01 input  175.53 | X-H torsion
[ 8008 7997 7996 7995 ] final  -57.74 input   59.86 | X-H torsion
[ 10167 10162 10161 10158 ] final   99.66 input  -65.29 | X-H torsion
[ 10718 10713 10712 10709 ] final  105.80 input   66.30 | X-H torsion
[ 10763 10752 10751 10750 ] final  -89.20 input  -60.55 | X-H torsion
[ 11005 11000 10999 10996 ] final  163.61 input  -57.11 | X-H torsion

> <Gold.Protein.ActiveResidues>
 VAL166  LYS551  ARG553  GLY616  TRP617  ASP618  TYR619  PRO620  LYS621  CYS622 
 ASP623  PHE694  ASN695  SER759  ASP760  ASP761  ALA762  ILE779  LEU786  VAL792 
 PHE793  MET794  SER795  GLU796  ALA797  LYS798  CYS799  TRP800  GLU811  SER814 

> <Gold.Protein.RotatedAtoms>
  152.5438  134.0942  159.8289 H   0  0  0  0  0  0  0  0  0  0  0  0  # atno 6907 bound_to 6896
  151.1027  133.5224  159.2616 H   0  0  0  0  0  0  0  0  0  0  0  0  # atno 6908 bound_to 6896
  151.1972  135.0437  159.8911 H   0  0  0  0  0  0  0  0  0  0  0  0  # atno 6909 bound_to 6896
  146.0251  140.6802  142.9160 H   0  0  0  0  0  0  0  0  0  0  0  0  # atno 7974 bound_to 7965
  154.4280  140.1100  156.5845 H   0  0  0  0  0  0  0  0  0  0  0  0  # atno 8008 bound_to 7997
  155.6077  140.3494  155.4594 H   0  0  0  0  0  0  0  0  0  0  0  0  # atno 8009 bound_to 7997
  156.0124  140.1222  157.0430 H   0  0  0  0  0  0  0  0  0  0  0  0  # atno 8010 bound_to 7997
  139.7597  144.6958  151.0310 H   0  0  0  0  0  0  0  0  0  0  0  0  # atno 10167 bound_to 10162
  157.6692  131.0836  150.5911 H   0  0  0  0  0  0  0  0  0  0  0  0  # atno 10718 bound_to 10713
  154.6528  135.5349  153.7922 H   0  0  0  0  0  0  0  0  0  0  0  0  # atno 10763 bound_to 10752
  153.0396  135.6486  154.0991 H   0  0  0  0  0  0  0  0  0  0  0  0  # atno 10764 bound_to 10752
  154.0907  135.2940  155.3252 H   0  0  0  0  0  0  0  0  0  0  0  0  # atno 10765 bound_to 10752
  140.2375  134.8076  157.3378 H   0  0  0  0  0  0  0  0  0  0  0  0  # atno 11005 bound_to 11000
  144.7006  140.3635  143.7159 LP  0  0  0  0  0  0  0  0  0  0  0  0  # atno 17320 bound_to 7965
  145.7131  139.1690  143.2527 LP  0  0  0  0  0  0  0  0  0  0  0  0  # atno 17321 bound_to 7965
  140.7806  143.4711  151.0144 LP  0  0  0  0  0  0  0  0  0  0  0  0  # atno 17342 bound_to 10162
  139.8398  143.7579  152.3180 LP  0  0  0  0  0  0  0  0  0  0  0  0  # atno 17343 bound_to 10162
  156.6211  130.4406  149.5822 LP  0  0  0  0  0  0  0  0  0  0  0  0  # atno 17370 bound_to 10713
  156.2355  130.6820  151.1505 LP  0  0  0  0  0  0  0  0  0  0  0  0  # atno 17371 bound_to 10713
  140.1687  134.4636  155.7846 LP  0  0  0  0  0  0  0  0  0  0  0  0  # atno 17394 bound_to 11000
  141.2213  133.6932  156.7670 LP  0  0  0  0  0  0  0  0  0  0  0  0  # atno 17395 bound_to 11000

$$$$
