#       Name:                AV-unprocessed.smi:2554
#       Creating user name   scv26
#       Creation time:       Fri Mar 27 14:06:32 2020


#       File generated by GOLD software.
#

@<TRIPOS>MOLECULE
AV-unprocessed.smi:2554
    22    22     1
SMALL
NO_CHARGES


@<TRIPOS>ATOM
      1 ****        -1.2041  -2.1092  -0.5886 C.3            1 S1                 0.0000
      2 ****        -1.4408  -0.6377  -0.5063 C.2            1 S1                 0.0000
      3 ****        -2.7096  -0.0836  -0.4761 N.pl3          1 S1                 0.0000
      4 ****        -2.5644   1.2415  -0.3997 C.2            1 S1                 0.0000
      5 ****        -1.2948   1.6276  -0.3740 N.2            1 S1                 0.0000
      6 ****        -0.5721   0.4335  -0.4455 C.2            1 S1                 0.0000
      7 ****         0.9271   0.4404  -0.4385 C.3            1 S1                 0.0000
      8 ****         1.4950   0.6125   0.9767 C.3            1 S1                 0.0000
      9 ****         2.9672   0.6229   0.9676 N.4            1 S1                 1.0000
     10 ****        -3.5850  -0.5868  -0.5063 H              1 S1                 0.0000
     11 ****        -0.1430  -2.3464  -0.5145 H              1 S1                 0.0000
     12 ****        -1.5717  -2.5066  -1.5350 H              1 S1                 0.0000
     13 ****        -1.7193  -2.6298   0.2190 H              1 S1                 0.0000
     14 ****        -3.3961   1.9297  -0.3614 H              1 S1                 0.0000
     15 ****         1.3091  -0.4817  -0.8775 H              1 S1                 0.0000
     16 ****         1.2923   1.2461  -1.0766 H              1 S1                 0.0000
     17 ****         1.1430   1.5464   1.4163 H              1 S1                 0.0000
     18 ****         1.1543  -0.1973   1.6228 H              1 S1                 0.0000
     19 ****         3.3087   0.7404   1.9109 H              1 S1                 0.0000
     20 ****         3.2944   1.3875   0.3944 H              1 S1                 0.0000
     21 ****         3.3096  -0.2500   0.5924 H              1 S1                 0.0000
     22 ****        -0.9371   2.5597  -0.3166 LP             1 S1                 0.0000
@<TRIPOS>BOND
    1    1    2 1     
    2    1   11 1     
    3    1   12 1     
    4    1   13 1     
    5    2    6 2     
    6    2    3 1     
    7    3   10 1     
    8    3    4 1     
    9    4    5 2     
   10    4   14 1     
   11    5    6 1     
   12    6    7 1     
   13    7    8 1     
   14    7   15 1     
   15    7   16 1     
   16    8    9 1     
   17    8   17 1     
   18    8   18 1     
   19    9   19 1     
   20    9   20 1     
   21    9   21 1     
   22    5   22 1     
@<TRIPOS>SUBSTRUCTURE
      1 S1             1
@<TRIPOS>SET
LONE_PAIRS      STATIC     ATOMS    <user>   **** ""
1 22
DONOR_HYDROGENS      STATIC     ATOMS    <user>   **** ""
4 10 19 20 21
ATOM$BLUE        STATIC     ATOMS    COLORGROUP SYSTEM
1 22
ATOM$RED        STATIC     ATOMS    COLORGROUP SYSTEM
4 10 19 20 21
