AV-unprocessed.smi:834|AV-procd|sdf|3885|dock5
  -GOLD-   22720 1343D 1   1.00000     0.00000
 Structure written by MMmdl.
 38 39  0  0  0  0  0  0  0  0  2 V2000
  144.0940  134.5863  162.2461 C   0  0  0  0  0  0  0  0  0  0  0  0
  145.2749  135.1576  161.5393 C   0  0  0  0  0  0  0  0  0  0  0  0
  146.2631  134.4015  161.0552 N   0  0  0  0  0  0  0  0  0  0  0  0
  147.2492  135.1602  160.4415 N   0  0  0  0  0  0  0  0  0  0  0  0
  147.0003  136.4769  160.4805 C   0  0  0  0  0  0  0  0  0  0  0  0
  147.8306  137.3829  159.9385 N   0  5  0  0  0  0  0  0  0  0  0  0
  148.9234  136.9750  159.2537 C   0  0  0  0  0  0  0  0  0  0  0  0
  149.3544  135.8214  159.1857 O   0  0  0  0  0  0  0  0  0  0  0  0
  149.5590  137.9658  158.6121 N   0  0  0  0  0  0  0  0  0  0  0  0
  150.7679  137.8268  157.8067 C   0  0  0  0  0  0  0  0  0  0  0  0
  152.0125  137.6158  158.6914 C   0  0  0  0  0  0  0  0  0  0  0  0
  152.9480  138.8281  158.7399 C   0  0  0  0  0  0  0  0  0  0  0  0
  154.1091  138.7535  158.3356 O   0  0  0  0  0  0  0  0  0  0  0  0
  152.4164  139.9551  159.2379 N   0  0  0  0  0  0  0  0  0  0  0  0
  153.1193  141.2279  159.3758 C   0  0  0  0  0  0  0  0  0  0  0  0
  153.0135  141.7600  160.8181 C   0  0  0  0  0  0  0  0  0  0  0  0
  152.6180  143.2329  160.6986 C   0  0  0  0  0  0  0  0  0  0  0  0
  151.8050  143.3005  159.4100 C   0  0  0  0  0  0  0  0  0  0  0  0
  152.5073  142.3182  158.4722 C   0  0  0  0  0  0  0  0  0  0  0  0
  145.4812  136.8816  161.2796 S   0  0  0  0  0  0  0  0  0  0  0  0
  144.3446  134.3888  163.2883 H   0  0  0  0  0  0  0  0  0  0  0  0
  143.7852  133.6530  161.7748 H   0  0  0  0  0  0  0  0  0  0  0  0
  143.2587  135.2859  162.2124 H   0  0  0  0  0  0  0  0  0  0  0  0
  149.1702  138.8937  158.6938 H   0  0  0  0  0  0  0  0  0  0  0  0
  150.6516  137.0062  157.0961 H   0  0  0  0  0  0  0  0  0  0  0  0
  150.8759  138.7370  157.2162 H   0  0  0  0  0  0  0  0  0  0  0  0
  151.7034  137.3818  159.7109 H   0  0  0  0  0  0  0  0  0  0  0  0
  152.5811  136.7571  158.3318 H   0  0  0  0  0  0  0  0  0  0  0  0
  151.4555  139.9276  159.5471 H   0  0  0  0  0  0  0  0  0  0  0  0
  154.1712  141.0906  159.1177 H   0  0  0  0  0  0  0  0  0  0  0  0
  152.2341  141.2290  161.3670 H   0  0  0  0  0  0  0  0  0  0  0  0
  153.9426  141.6311  161.3743 H   0  0  0  0  0  0  0  0  0  0  0  0
  152.0623  143.5908  161.5657 H   0  0  0  0  0  0  0  0  0  0  0  0
  153.5137  143.8475  160.5992 H   0  0  0  0  0  0  0  0  0  0  0  0
  150.7853  142.9627  159.6002 H   0  0  0  0  0  0  0  0  0  0  0  0
  151.7517  144.3086  158.9980 H   0  0  0  0  0  0  0  0  0  0  0  0
  153.3095  142.8361  157.9449 H   0  0  0  0  0  0  0  0  0  0  0  0
  151.8288  141.9266  157.7131 H   0  0  0  0  0  0  0  0  0  0  0  0
  1  2  1  0  0  0  0
  1 21  1  0  0  0  0
  1 22  1  0  0  0  0
  1 23  1  0  0  0  0
  2 20  1  0  0  0  0
  2  3  2  0  0  0  0
  3  4  1  0  0  0  0
  4  5  2  0  0  0  0
  5  6  1  0  0  0  0
  5 20  1  0  0  0  0
  6  7  1  0  0  0  0
  7  8  2  0  0  0  0
  7  9  1  0  0  0  0
  9 10  1  0  0  0  0
  9 24  1  0  0  0  0
 10 11  1  0  0  0  0
 10 25  1  0  0  0  0
 10 26  1  0  0  0  0
 11 12  1  0  0  0  0
 11 27  1  0  0  0  0
 11 28  1  0  0  0  0
 12 13  2  0  0  0  0
 12 14  1  0  0  0  0
 14 15  1  0  0  0  0
 14 29  1  0  0  0  0
 15 19  1  0  0  0  0
 15 16  1  0  0  0  0
 15 30  1  0  0  0  0
 16 17  1  0  0  0  0
 16 31  1  0  0  0  0
 16 32  1  0  0  0  0
 17 18  1  0  0  0  0
 17 33  1  0  0  0  0
 17 34  1  0  0  0  0
 18 19  1  0  0  0  0
 18 35  1  0  0  0  0
 18 36  1  0  0  0  0
 19 37  1  0  0  0  0
 19 38  1  0  0  0  0
M  CHG  1   6  -1
M  END
> <s_m_source_file>
AV-unprocessed.smi

> <i_m_source_file_index>
834

> <i_lp_mmshare_version>
43012

> <i_f3d_flags>
0

> <s_epik_input>
W0NIM11jMW5uYyhzMSlbTkhdQyg9TylbTkhdW0NIMl1bQ0gyXUMoPU8pW05IXVtDSF0yW0NIMl1bQ0gyXVtDSDJdW0NIMl0y

> <s_epik_cmdline>
J2VwaWtfcHl0aG9uJywgJy1waCcsICc3LjAnLCAnLXRuJywgJzgnLCAnLW1hJywgJzIwMCcsICctbWV0YWxfYmluZGluZycsICctaW1hZScsICc8aW5maWxlLm1hZT4nLCAnLW9tYWUnLCAnPG91dGZpbGUubWFlPic=

> <r_lp_tautomer_probability>
1

> <r_epik_Ionization_Penalty>
3.40129

> <r_epik_Ionization_Penalty_Charging>
3.26946

> <r_epik_Ionization_Penalty_Neutral>
0.131835

> <r_epik_State_Penalty>
3.26707

> <r_epik_Charging_Adjusted_Penalty>
6.53653

> <i_epik_Tot_Q>
-1

> <i_epik_Tot_abs_Q>
1

> <r_epik_Metal_State_Penalty>
0.478667

> <b_epik_Metal_Only>
1

> <s_lp_Force_Field>
OPLS_2005

> <r_lp_Energy>
15.9775

> <b_lp_Chiralities_Consistent>
1

> <s_lp_Variant>
AV-unprocessed.smi:834-2

> <Gold.Version>
5.8.1

> <Gold.Id.Protein>
6NUR|6NUR_protein|mol2

> <Gold.PLP.Fitness>
50.0367

> <Gold.PLP.PLP>
-36.1709

> <Gold.PLP.part.hbond>
-4.0000

> <Gold.PLP.part.metal>
0.0000

> <Gold.PLP.part.buried>
-5.7545

> <Gold.PLP.part.nonpolar>
-26.9039

> <Gold.PLP.part.repulsive>
0.3545

> <Gold.PLP.ligand.clash>
0.0000

> <Gold.PLP.ligand.torsion>
0.4851

> <Gold.PLP.Chemscore.Hbond>
4.9072

> <Gold.PLP.Chemscore.CHOScore>
0.0000

> <Gold.PLP.Chemscore.Metal>
0.0000

> <Gold.Chemscore.Hbonds>
donor molecule, donor type, donor heavy atom, donor atom, acceptor molecule, acceptor atom, score
      P1  H  6896  6908       L1     8  1.00
      P1  H  6934  6947       L1     6  1.47
      P1  H  7997  8009       L1    13  1.00

> <Gold.PLP.Chemscore.Internal.Correction>
0.1143

> <Gold.Rescore>
     Score         DG    S(hbond)    S(metal)    S(lipo)     H(rot)  DE(clash)    DE(int)     intcor
     17.48     -19.89       2.89        0.00      83.32       1.95       0.08       2.33       ----

> <Gold.Chemscore.Fitness>
17.4780

> <Gold.Chemscore.DG>
-19.8884

> <Gold.Chemscore.ZeroCoef>
-5.4800

> <Gold.Chemscore.Hbond>
2.8864

> <Gold.Chemscore.Metal>
0.0000

> <Gold.Chemscore.Lipo>
83.3203

> <Gold.Chemscore.Internal_Hbond>
0.0000

> <Gold.Chemscore.DEClash>
0.0811

> <Gold.Chemscore.DEInternal>
2.3294

> <Gold.Chemscore.Rot>
1.9455

> <Gold.Chemscore.Internal.Correction>
   9.000000E+99

> <Gold.Chemscore.Hbonds>
donor molecule, donor type, donor heavy atom, donor atom, acceptor molecule, acceptor atom, score
      P1  H  6896  6908       L1     8  1.00
      P1  H  6934  6947       L1     6  0.18
      P1  H  7997  8009       L1    13  0.96

> <Gold.Chemscore.Hbond.Weighted>
-9.6405

> <Gold.Chemscore.Metal.Weighted>
-0.0000

> <Gold.Chemscore.Lipo.Weighted>
-9.7485

> <Gold.Chemscore.Internal_Hbond.Weighted>
0.0000

> <Gold.Chemscore.DEClash.Weighted>
0.0811

> <Gold.Chemscore.DEInternal.Weighted>
2.3294

> <Gold.Chemscore.Rot.Weighted>
4.9805

> <Gold.Chemscore.Internal.Correction.Weighted>
   9.000000E+99

> <Gold.Protein.RotatedTorsions>
[ 6907 6896 6895 6894 ] final  170.24 input  -60.11 | X-H torsion
[ 7974 7965 7964 7962 ] final  -58.78 input  175.53 | X-H torsion
[ 8008 7997 7996 7995 ] final  147.07 input   59.86 | X-H torsion
[ 10167 10162 10161 10158 ] final  -28.97 input  -65.29 | X-H torsion
[ 10718 10713 10712 10709 ] final   67.49 input   66.30 | X-H torsion
[ 10763 10752 10751 10750 ] final  -73.45 input  -60.55 | X-H torsion
[ 11005 11000 10999 10996 ] final -163.10 input  -57.11 | X-H torsion

> <Gold.Protein.ActiveResidues>
 VAL166  LYS551  ARG553  GLY616  TRP617  ASP618  TYR619  PRO620  LYS621  CYS622 
 ASP623  PHE694  ASN695  SER759  ASP760  ASP761  ALA762  ILE779  LEU786  VAL792 
 PHE793  MET794  SER795  GLU796  ALA797  LYS798  CYS799  TRP800  GLU811  SER814 

> <Gold.Protein.RotatedAtoms>
  151.8192  133.3392  159.3578 H   0  0  0  0  0  0  0  0  0  0  0  0  # atno 6907 bound_to 6896
  150.7300  134.5590  159.5842 H   0  0  0  0  0  0  0  0  0  0  0  0  # atno 6908 bound_to 6896
  152.3019  134.7602  160.0407 H   0  0  0  0  0  0  0  0  0  0  0  0  # atno 6909 bound_to 6896
  145.8352  140.8453  143.0063 H   0  0  0  0  0  0  0  0  0  0  0  0  # atno 7974 bound_to 7965
  156.2836  140.2165  156.5479 H   0  0  0  0  0  0  0  0  0  0  0  0  # atno 8008 bound_to 7997
  154.7315  140.0495  157.0753 H   0  0  0  0  0  0  0  0  0  0  0  0  # atno 8009 bound_to 7997
  155.0347  140.3139  155.4749 H   0  0  0  0  0  0  0  0  0  0  0  0  # atno 8010 bound_to 7997
  140.7265  143.3967  151.1336 H   0  0  0  0  0  0  0  0  0  0  0  0  # atno 10167 bound_to 10162
  157.6233  130.9324  150.0250 H   0  0  0  0  0  0  0  0  0  0  0  0  # atno 10718 bound_to 10713
  154.4597  135.5897  153.6247 H   0  0  0  0  0  0  0  0  0  0  0  0  # atno 10763 bound_to 10752
  152.9822  135.6041  154.3502 H   0  0  0  0  0  0  0  0  0  0  0  0  # atno 10764 bound_to 10752
  154.3372  135.2842  155.2420 H   0  0  0  0  0  0  0  0  0  0  0  0  # atno 10765 bound_to 10752
  140.6018  134.4939  157.5206 H   0  0  0  0  0  0  0  0  0  0  0  0  # atno 11005 bound_to 11000
  144.6737  140.0731  143.7472 LP  0  0  0  0  0  0  0  0  0  0  0  0  # atno 17320 bound_to 7965
  145.9527  139.2744  143.1203 LP  0  0  0  0  0  0  0  0  0  0  0  0  # atno 17321 bound_to 7965
  139.7580  143.8678  152.3093 LP  0  0  0  0  0  0  0  0  0  0  0  0  # atno 17342 bound_to 10162
  139.8554  144.7144  150.9163 LP  0  0  0  0  0  0  0  0  0  0  0  0  # atno 17343 bound_to 10162
  156.1391  130.3642  149.9610 LP  0  0  0  0  0  0  0  0  0  0  0  0  # atno 17370 bound_to 10713
  156.7655  130.9167  151.3643 LP  0  0  0  0  0  0  0  0  0  0  0  0  # atno 17371 bound_to 10713
  139.9229  134.8113  156.1156 LP  0  0  0  0  0  0  0  0  0  0  0  0  # atno 17394 bound_to 11000
  141.0867  133.6731  156.2451 LP  0  0  0  0  0  0  0  0  0  0  0  0  # atno 17395 bound_to 11000

$$$$
