AV-unprocessed.smi:2191|AV-procd|sdf|8895|dock2
  -GOLD-   2272012103D 1   1.00000     0.00000
 Structure written by MMmdl.
 37 39  0  0  0  0  0  0  0  0  2 V2000
  148.1304  138.9682  157.3985 O   0  0  0  0  0  0  0  0  0  0  0  0
  148.9931  138.7825  158.5033 C   0  0  1  0  0  0  0  0  0  0  0  0
  148.8668  137.3306  158.9864 C   0  0  0  0  0  0  0  0  0  0  0  0
  148.0364  137.3002  160.1400 O   0  0  0  0  0  0  0  0  0  0  0  0
  147.6651  136.0724  160.6447 C   0  0  0  0  0  0  0  0  0  0  0  0
  147.3419  136.0152  162.0164 C   0  0  0  0  0  0  0  0  0  0  0  0
  146.9539  134.8016  162.6161 C   0  0  0  0  0  0  0  0  0  0  0  0
  146.8833  133.6269  161.8448 C   0  0  0  0  0  0  0  0  0  0  0  0
  147.2005  133.6696  160.4745 C   0  0  0  0  0  0  0  0  0  0  0  0
  147.5895  134.8835  159.8750 C   0  0  0  0  0  0  0  0  0  0  0  0
  150.4366  139.1479  158.1017 C   0  0  0  0  0  0  0  0  0  0  0  0
  150.6417  140.5961  157.9699 N   0  0  0  0  0  0  0  0  0  0  0  0
  150.0793  141.4865  157.1084 C   0  0  0  0  0  0  0  0  0  0  0  0
  150.5970  142.7146  157.3907 N   0  3  0  0  0  0  0  0  0  0  0  0
  151.5039  142.6066  158.4475 C   0  0  0  0  0  0  0  0  0  0  0  0
  152.2775  143.5696  159.0880 C   0  0  0  0  0  0  0  0  0  0  0  0
  153.1030  143.1209  160.1401 C   0  0  0  0  0  0  0  0  0  0  0  0
  153.1393  141.7627  160.5183 C   0  0  0  0  0  0  0  0  0  0  0  0
  152.3520  140.7944  159.8608 C   0  0  0  0  0  0  0  0  0  0  0  0
  151.5379  141.2471  158.8235 C   0  0  0  0  0  0  0  0  0  0  0  0
  147.3053  138.5483  157.5879 H   0  0  0  0  0  0  0  0  0  0  0  0
  148.6518  139.4480  159.2969 H   0  0  0  0  0  0  0  0  0  0  0  0
  148.4179  136.7205  158.2004 H   0  0  0  0  0  0  0  0  0  0  0  0
  149.8544  136.9232  159.2101 H   0  0  0  0  0  0  0  0  0  0  0  0
  147.3936  136.9121  162.6164 H   0  0  0  0  0  0  0  0  0  0  0  0
  146.7107  134.7722  163.6679 H   0  0  0  0  0  0  0  0  0  0  0  0
  146.5859  132.6950  162.3028 H   0  0  0  0  0  0  0  0  0  0  0  0
  147.1453  132.7694  159.8805 H   0  0  0  0  0  0  0  0  0  0  0  0
  147.8234  134.8755  158.8213 H   0  0  0  0  0  0  0  0  0  0  0  0
  151.1550  138.7666  158.8284 H   0  0  0  0  0  0  0  0  0  0  0  0
  150.6930  138.6910  157.1447 H   0  0  0  0  0  0  0  0  0  0  0  0
  149.3521  141.2606  156.3419 H   0  0  0  0  0  0  0  0  0  0  0  0
  152.2521  144.6107  158.8012 H   0  0  0  0  0  0  0  0  0  0  0  0
  153.7209  143.8329  160.6680 H   0  0  0  0  0  0  0  0  0  0  0  0
  153.7839  141.4570  161.3298 H   0  0  0  0  0  0  0  0  0  0  0  0
  152.3843  139.7563  160.1580 H   0  0  0  0  0  0  0  0  0  0  0  0
  150.3470  143.5618  156.8970 H   0  0  0  0  0  0  0  0  0  0  0  0
  1  2  1  0  0  0  0
  1 21  1  0  0  0  0
  2  3  1  0  0  0  0
  2 11  1  0  0  0  0
  2 22  1  0  0  0  0
  3  4  1  0  0  0  0
  3 23  1  0  0  0  0
  3 24  1  0  0  0  0
  4  5  1  0  0  0  0
  5 10  1  0  0  0  0
  5  6  2  0  0  0  0
  6  7  1  0  0  0  0
  6 25  1  0  0  0  0
  7  8  2  0  0  0  0
  7 26  1  0  0  0  0
  8  9  1  0  0  0  0
  8 27  1  0  0  0  0
  9 10  2  0  0  0  0
  9 28  1  0  0  0  0
 10 29  1  0  0  0  0
 11 12  1  0  0  0  0
 11 30  1  0  0  0  0
 11 31  1  0  0  0  0
 12 20  1  0  0  0  0
 12 13  1  0  0  0  0
 13 14  2  0  0  0  0
 13 32  1  0  0  0  0
 14 15  1  0  0  0  0
 14 37  1  0  0  0  0
 15 20  2  0  0  0  0
 15 16  1  0  0  0  0
 16 17  2  0  0  0  0
 16 33  1  0  0  0  0
 17 18  1  0  0  0  0
 17 34  1  0  0  0  0
 18 19  2  0  0  0  0
 18 35  1  0  0  0  0
 19 20  1  0  0  0  0
 19 36  1  0  0  0  0
M  CHG  1  14   1
M  END
> <s_m_source_file>
AV-unprocessed.smi

> <i_m_source_file_index>
2191

> <i_lp_mmshare_version>
43012

> <i_f3d_flags>
0

> <s_epik_input>
W2NIXTFbY0hdW2NIXVtjSF1jKGMxMiluKFtjSF1uMilbQ0gyXVtDQEhdKFtPSF0pW0NIMl1PYzNbY0hdW2NIXVtjSF1bY0hdW2NIXTM=

> <s_epik_cmdline>
J2VwaWtfcHl0aG9uJywgJy1waCcsICc3LjAnLCAnLXRuJywgJzgnLCAnLW1hJywgJzIwMCcsICctbWV0YWxfYmluZGluZycsICctaW1hZScsICc8aW5maWxlLm1hZT4nLCAnLW9tYWUnLCAnPG91dGZpbGUubWFlPic=

> <r_lp_tautomer_probability>
1

> <r_epik_Ionization_Penalty>
1.35015

> <r_epik_Ionization_Penalty_Charging>
1.35015

> <r_epik_Ionization_Penalty_Neutral>
2.3993e-06

> <r_epik_State_Penalty>
1.42814

> <r_epik_Charging_Adjusted_Penalty>
2.77829

> <i_epik_Tot_Q>
1

> <i_epik_Tot_abs_Q>
1

> <r_epik_Metal_State_Penalty>
5.46522

> <b_epik_Metal_Only>
0

> <s_lp_Force_Field>
OPLS_2005

> <r_lp_Energy>
19.3108

> <b_lp_Chiralities_Consistent>
1

> <s_lp_Variant>
AV-unprocessed.smi:2191-4

> <Gold.Version>
5.8.1

> <Gold.Id.Protein>
6NUR|6NUR_protein|mol2

> <Gold.PLP.Fitness>
52.9801

> <Gold.PLP.PLP>
-46.5316

> <Gold.PLP.part.hbond>
-3.0000

> <Gold.PLP.part.metal>
0.0000

> <Gold.PLP.part.buried>
-4.8111

> <Gold.PLP.part.nonpolar>
-39.6546

> <Gold.PLP.part.repulsive>
0.0572

> <Gold.PLP.ligand.clash>
0.0000

> <Gold.PLP.ligand.torsion>
1.0762

> <Gold.PLP.Chemscore.Hbond>
2.8543

> <Gold.PLP.Chemscore.CHOScore>
0.0000

> <Gold.PLP.Chemscore.Metal>
0.0000

> <Gold.Chemscore.Hbonds>
donor molecule, donor type, donor heavy atom, donor atom, acceptor molecule, acceptor atom, score
      L1  H    14    37       P1  8028  1.01
      P1  H  6931  6943       L1     4  0.31
      P1  H  6934  6947       L1     4  0.64

> <Gold.PLP.Chemscore.Internal.Correction>
0.0379

> <Gold.Rescore>
     Score         DG    S(hbond)    S(metal)    S(lipo)     H(rot)  DE(clash)    DE(int)     intcor
     18.09     -18.97       1.70        0.00     117.14       2.31       0.07       0.81       ----

> <Gold.Chemscore.Fitness>
18.0880

> <Gold.Chemscore.DG>
-18.9691

> <Gold.Chemscore.ZeroCoef>
-5.4800

> <Gold.Chemscore.Hbond>
1.7022

> <Gold.Chemscore.Metal>
0.0000

> <Gold.Chemscore.Lipo>
117.1392

> <Gold.Chemscore.Internal_Hbond>
0.0000

> <Gold.Chemscore.DEClash>
0.0735

> <Gold.Chemscore.DEInternal>
0.8075

> <Gold.Chemscore.Rot>
2.3053

> <Gold.Chemscore.Internal.Correction>
   9.000000E+99

> <Gold.Chemscore.Hbonds>
donor molecule, donor type, donor heavy atom, donor atom, acceptor molecule, acceptor atom, score
      L1  H    14    37       P1  8028  0.50
      P1  H  6931  6943       L1     4  0.09
      P1  H  6934  6947       L1     4  0.59

> <Gold.Chemscore.Hbond.Weighted>
-5.6853

> <Gold.Chemscore.Metal.Weighted>
-0.0000

> <Gold.Chemscore.Lipo.Weighted>
-13.7053

> <Gold.Chemscore.Internal_Hbond.Weighted>
0.0000

> <Gold.Chemscore.DEClash.Weighted>
0.0735

> <Gold.Chemscore.DEInternal.Weighted>
0.8075

> <Gold.Chemscore.Rot.Weighted>
5.9015

> <Gold.Chemscore.Internal.Correction.Weighted>
   9.000000E+99

> <Gold.Protein.RotatedTorsions>
[ 6907 6896 6895 6894 ] final  -30.03 input  -60.11 | X-H torsion
[ 7974 7965 7964 7962 ] final -124.99 input  175.53 | X-H torsion
[ 8008 7997 7996 7995 ] final -129.86 input   59.86 | X-H torsion
[ 10167 10162 10161 10158 ] final  -12.72 input  -65.29 | X-H torsion
[ 10718 10713 10712 10709 ] final -146.33 input   66.30 | X-H torsion
[ 10763 10752 10751 10750 ] final  -46.98 input  -60.55 | X-H torsion
[ 11005 11000 10999 10996 ] final   38.51 input  -57.11 | X-H torsion

> <Gold.Protein.ActiveResidues>
 VAL166  LYS551  ARG553  GLY616  TRP617  ASP618  TYR619  PRO620  LYS621  CYS622 
 ASP623  PHE694  ASN695  SER759  ASP760  ASP761  ALA762  ILE779  LEU786  VAL792 
 PHE793  MET794  SER795  GLU796  ALA797  LYS798  CYS799  TRP800  GLU811  SER814 

> <Gold.Protein.RotatedAtoms>
  151.1111  135.0027  159.8493 H   0  0  0  0  0  0  0  0  0  0  0  0  # atno 6907 bound_to 6896
  152.5443  134.1835  159.8655 H   0  0  0  0  0  0  0  0  0  0  0  0  # atno 6908 bound_to 6896
  151.1886  133.4637  159.2628 H   0  0  0  0  0  0  0  0  0  0  0  0  # atno 6909 bound_to 6896
  145.0023  140.7831  143.4489 H   0  0  0  0  0  0  0  0  0  0  0  0  # atno 7974 bound_to 7965
  155.2862  140.0446  157.3019 H   0  0  0  0  0  0  0  0  0  0  0  0  # atno 8008 bound_to 7997
  154.5568  140.2334  155.8366 H   0  0  0  0  0  0  0  0  0  0  0  0  # atno 8009 bound_to 7997
  156.2014  140.3024  155.9541 H   0  0  0  0  0  0  0  0  0  0  0  0  # atno 8010 bound_to 7997
  140.7167  143.5502  150.9309 H   0  0  0  0  0  0  0  0  0  0  0  0  # atno 10167 bound_to 10162
  156.3935  130.7898  151.2102 H   0  0  0  0  0  0  0  0  0  0  0  0  # atno 10718 bound_to 10713
  154.0539  135.6627  153.4803 H   0  0  0  0  0  0  0  0  0  0  0  0  # atno 10763 bound_to 10752
  153.0453  135.5118  154.7724 H   0  0  0  0  0  0  0  0  0  0  0  0  # atno 10764 bound_to 10752
  154.6739  135.3034  154.9671 H   0  0  0  0  0  0  0  0  0  0  0  0  # atno 10765 bound_to 10752
  140.2119  134.3745  155.8045 H   0  0  0  0  0  0  0  0  0  0  0  0  # atno 11005 bound_to 11000
  145.2136  139.2193  143.5130 LP  0  0  0  0  0  0  0  0  0  0  0  0  # atno 17320 bound_to 7965
  146.3454  140.1979  142.8589 LP  0  0  0  0  0  0  0  0  0  0  0  0  # atno 17321 bound_to 7965
  139.9227  143.6587  152.3093 LP  0  0  0  0  0  0  0  0  0  0  0  0  # atno 17342 bound_to 10162
  139.7010  144.7635  151.1274 LP  0  0  0  0  0  0  0  0  0  0  0  0  # atno 17343 bound_to 10162
  157.7500  131.0308  150.4154 LP  0  0  0  0  0  0  0  0  0  0  0  0  # atno 17370 bound_to 10713
  156.4420  130.3993  149.6691 LP  0  0  0  0  0  0  0  0  0  0  0  0  # atno 17371 bound_to 10713
  141.2226  133.7147  156.8432 LP  0  0  0  0  0  0  0  0  0  0  0  0  # atno 17394 bound_to 11000
  140.1942  134.8944  157.3095 LP  0  0  0  0  0  0  0  0  0  0  0  0  # atno 17395 bound_to 11000

$$$$
