AV-unprocessed.smi:1480|AV-procd|sdf|5985|dock3
  -GOLD-   22720 6 73D 1   1.00000     0.00000
 Structure written by MMmdl.
 37 38  0  0  0  0  0  0  0  0  1 V2000
  151.7327  145.7810  160.2867 C   0  0  0  0  0  0  0  0  0  0  0  0
  151.8060  144.4346  159.7164 N   0  0  0  0  0  0  0  0  0  0  0  0
  151.1532  144.2777  158.4090 C   0  0  0  0  0  0  0  0  0  0  0  0
  151.5871  143.0151  157.6536 C   0  0  0  0  0  0  0  0  0  0  0  0
  151.5325  141.7987  158.5867 C   0  0  1  0  0  0  0  0  0  0  0  0
  151.9017  140.5150  157.8289 C   0  0  0  0  0  0  0  0  0  0  0  0
  152.9139  139.8901  158.1462 O   0  0  0  0  0  0  0  0  0  0  0  0
  151.0621  140.1590  156.8393 N   0  0  0  0  0  0  0  0  0  0  0  0
  151.1390  139.0394  155.9708 C   0  0  0  0  0  0  0  0  0  0  0  0
  151.7884  139.0011  154.7002 C   0  0  0  0  0  0  0  0  0  0  0  0
  151.5750  137.7198  154.2788 C   0  0  0  0  0  0  0  0  0  0  0  0
  150.8490  137.0737  155.2597 N   0  0  0  0  0  0  0  0  0  0  0  0
  150.3756  135.7001  155.2740 C   0  0  0  0  0  0  0  0  0  0  0  0
  148.8668  135.6310  155.5240 C   0  0  0  0  0  0  0  0  0  0  0  0
  148.0664  136.0575  154.5437 N   0  0  0  0  0  0  0  0  0  0  0  0
  148.4273  135.1971  156.5868 O   0  0  0  0  0  0  0  0  0  0  0  0
  150.5750  137.8901  156.3010 N   0  0  0  0  0  0  0  0  0  0  0  0
  152.4743  142.0241  159.7868 C   0  0  0  0  0  0  0  0  0  0  0  0
  152.3768  143.4242  160.4163 C   0  0  0  0  0  0  0  0  0  0  0  0
  152.8540  143.5869  161.5397 O   0  0  0  0  0  0  0  0  0  0  0  0
  151.2428  145.7630  161.2614 H   0  0  0  0  0  0  0  0  0  0  0  0
  151.1676  146.4669  159.6543 H   0  0  0  0  0  0  0  0  0  0  0  0
  152.7331  146.1963  160.4147 H   0  0  0  0  0  0  0  0  0  0  0  0
  150.0753  144.2511  158.5741 H   0  0  0  0  0  0  0  0  0  0  0  0
  151.3515  145.1493  157.7837 H   0  0  0  0  0  0  0  0  0  0  0  0
  150.9449  142.8670  156.7841 H   0  0  0  0  0  0  0  0  0  0  0  0
  152.6004  143.1526  157.2723 H   0  0  0  0  0  0  0  0  0  0  0  0
  150.5118  141.7006  158.9623 H   0  0  0  0  0  0  0  0  0  0  0  0
  150.2659  140.7622  156.6931 H   0  0  0  0  0  0  0  0  0  0  0  0
  152.3253  139.7731  154.1703 H   0  0  0  0  0  0  0  0  0  0  0  0
  151.8786  137.2175  153.3721 H   0  0  0  0  0  0  0  0  0  0  0  0
  150.6046  135.2233  154.3195 H   0  0  0  0  0  0  0  0  0  0  0  0
  150.9220  135.1541  156.0444 H   0  0  0  0  0  0  0  0  0  0  0  0
  147.0641  136.0312  154.6613 H   0  0  0  0  0  0  0  0  0  0  0  0
  148.4689  136.4053  153.6855 H   0  0  0  0  0  0  0  0  0  0  0  0
  152.2720  141.2788  160.5572 H   0  0  0  0  0  0  0  0  0  0  0  0
  153.5146  141.8828  159.4890 H   0  0  0  0  0  0  0  0  0  0  0  0
  1  2  1  0  0  0  0
  1 21  1  0  0  0  0
  1 22  1  0  0  0  0
  1 23  1  0  0  0  0
  2 19  1  0  0  0  0
  2  3  1  0  0  0  0
  3  4  1  0  0  0  0
  3 24  1  0  0  0  0
  3 25  1  0  0  0  0
  4  5  1  0  0  0  0
  4 26  1  0  0  0  0
  4 27  1  0  0  0  0
  5  6  1  0  0  0  0
  5 18  1  0  0  0  0
  5 28  1  0  0  0  0
  6  7  2  0  0  0  0
  6  8  1  0  0  0  0
  8  9  1  0  0  0  0
  8 29  1  0  0  0  0
  9 17  2  0  0  0  0
  9 10  1  0  0  0  0
 10 11  2  0  0  0  0
 10 30  1  0  0  0  0
 11 12  1  0  0  0  0
 11 31  1  0  0  0  0
 12 13  1  0  0  0  0
 12 17  1  0  0  0  0
 13 14  1  0  0  0  0
 13 32  1  0  0  0  0
 13 33  1  0  0  0  0
 14 15  1  0  0  0  0
 14 16  2  0  0  0  0
 15 34  1  0  0  0  0
 15 35  1  0  0  0  0
 18 19  1  0  0  0  0
 18 36  1  0  0  0  0
 18 37  1  0  0  0  0
 19 20  2  0  0  0  0
M  END
> <s_m_source_file>
AV-unprocessed.smi

> <i_m_source_file_index>
1480

> <i_lp_mmshare_version>
43012

> <i_f3d_flags>
0

> <s_epik_input>
W0NIM11OMVtDSDJdW0NIMl1bQ0BIXShbQ0gyXUMxPU8pQyg9TylbTkhdYzJbY0hdW2NIXW4objIpW0NIMl1DKD1PKVtOSDJd

> <s_epik_cmdline>
J2VwaWtfcHl0aG9uJywgJy1waCcsICc3LjAnLCAnLXRuJywgJzgnLCAnLW1hJywgJzIwMCcsICctbWV0YWxfYmluZGluZycsICctaW1hZScsICc8aW5maWxlLm1hZT4nLCAnLW9tYWUnLCAnPG91dGZpbGUubWFlPic=

> <r_lp_tautomer_probability>
1

> <r_epik_Ionization_Penalty>
3.93272e-06

> <r_epik_Ionization_Penalty_Charging>
0

> <r_epik_Ionization_Penalty_Neutral>
3.93272e-06

> <r_epik_State_Penalty>
-0

> <r_epik_Charging_Adjusted_Penalty>
0

> <i_epik_Tot_Q>
0

> <i_epik_Tot_abs_Q>
0

> <r_epik_Metal_State_Penalty>
-0

> <b_epik_Metal_Only>
0

> <s_lp_Force_Field>
OPLS_2005

> <r_lp_Energy>
17.1692

> <b_lp_Chiralities_Consistent>
1

> <s_lp_Variant>
AV-unprocessed.smi:1480-1

> <Gold.Version>
5.8.1

> <Gold.Id.Protein>
6NUR|6NUR_protein|mol2

> <Gold.PLP.Fitness>
44.4741

> <Gold.PLP.PLP>
-37.3593

> <Gold.PLP.part.hbond>
-2.0000

> <Gold.PLP.part.metal>
0.0000

> <Gold.PLP.part.buried>
-3.0529

> <Gold.PLP.part.nonpolar>
-33.7110

> <Gold.PLP.part.repulsive>
0.1981

> <Gold.PLP.ligand.clash>
0.0000

> <Gold.PLP.ligand.torsion>
0.9377

> <Gold.PLP.Chemscore.Hbond>
1.9920

> <Gold.PLP.Chemscore.CHOScore>
1.0000

> <Gold.PLP.Chemscore.Metal>
0.0000

> <Gold.Chemscore.Hbonds>
donor molecule, donor type, donor heavy atom, donor atom, acceptor molecule, acceptor atom, score
      L1  H    15    35       P1  7948  1.00
      P1  H  7997  8008       L1     7  0.98
      L1  C    11    31       P1  7949  1.00

> <Gold.PLP.Chemscore.Internal.Correction>
0.0142

> <Gold.Rescore>
     Score         DG    S(hbond)    S(metal)    S(lipo)     H(rot)  DE(clash)    DE(int)     intcor
     14.15     -15.50       1.96        0.00      74.01       2.03       0.40       0.95       ----

> <Gold.Chemscore.Fitness>
14.1522

> <Gold.Chemscore.DG>
-15.5034

> <Gold.Chemscore.ZeroCoef>
-5.4800

> <Gold.Chemscore.Hbond>
1.9619

> <Gold.Chemscore.Metal>
0.0000

> <Gold.Chemscore.Lipo>
74.0115

> <Gold.Chemscore.Internal_Hbond>
0.0000

> <Gold.Chemscore.DEClash>
0.3995

> <Gold.Chemscore.DEInternal>
0.9517

> <Gold.Chemscore.Rot>
2.0269

> <Gold.Chemscore.Internal.Correction>
   9.000000E+99

> <Gold.Chemscore.Hbonds>
donor molecule, donor type, donor heavy atom, donor atom, acceptor molecule, acceptor atom, score
      L1  H    15    35       P1  7948  0.97
      P1  H  7997  8008       L1     7  0.79

> <Gold.Chemscore.Hbond.Weighted>
-6.5528

> <Gold.Chemscore.Metal.Weighted>
-0.0000

> <Gold.Chemscore.Lipo.Weighted>
-8.6593

> <Gold.Chemscore.Internal_Hbond.Weighted>
0.0000

> <Gold.Chemscore.DEClash.Weighted>
0.3995

> <Gold.Chemscore.DEInternal.Weighted>
0.9517

> <Gold.Chemscore.Rot.Weighted>
5.1888

> <Gold.Chemscore.Internal.Correction.Weighted>
   9.000000E+99

> <Gold.Protein.RotatedTorsions>
[ 6907 6896 6895 6894 ] final  106.64 input  -60.11 | X-H torsion
[ 7974 7965 7964 7962 ] final  135.16 input  175.53 | X-H torsion
[ 8008 7997 7996 7995 ] final  -69.18 input   59.86 | X-H torsion
[ 10167 10162 10161 10158 ] final  -77.07 input  -65.29 | X-H torsion
[ 10718 10713 10712 10709 ] final -135.62 input   66.30 | X-H torsion
[ 10763 10752 10751 10750 ] final -123.87 input  -60.55 | X-H torsion
[ 11005 11000 10999 10996 ] final   71.55 input  -57.11 | X-H torsion

> <Gold.Protein.ActiveResidues>
 VAL166  LYS551  ARG553  GLY616  TRP617  ASP618  TYR619  PRO620  LYS621  CYS622 
 ASP623  PHE694  ASN695  SER759  ASP760  ASP761  ALA762  ILE779  LEU786  VAL792 
 PHE793  MET794  SER795  GLU796  ALA797  LYS798  CYS799  TRP800  GLU811  SER814 

> <Gold.Protein.RotatedAtoms>
  152.5186  133.9352  159.7599 H   0  0  0  0  0  0  0  0  0  0  0  0  # atno 6907 bound_to 6896
  150.9694  133.6352  159.2747 H   0  0  0  0  0  0  0  0  0  0  0  0  # atno 6908 bound_to 6896
  151.3569  135.0901  159.9474 H   0  0  0  0  0  0  0  0  0  0  0  0  # atno 6909 bound_to 6896
  144.9691  139.4625  143.5442 H   0  0  0  0  0  0  0  0  0  0  0  0  # atno 7974 bound_to 7965
  154.4920  140.0858  156.7615 H   0  0  0  0  0  0  0  0  0  0  0  0  # atno 8008 bound_to 7997
  155.4207  140.3445  155.4253 H   0  0  0  0  0  0  0  0  0  0  0  0  # atno 8009 bound_to 7997
  156.1343  140.1510  156.9006 H   0  0  0  0  0  0  0  0  0  0  0  0  # atno 8010 bound_to 7997
  140.4802  143.2404  151.8070 H   0  0  0  0  0  0  0  0  0  0  0  0  # atno 10167 bound_to 10162
  156.2682  130.7250  151.1208 H   0  0  0  0  0  0  0  0  0  0  0  0  # atno 10718 bound_to 10713
  154.8715  135.4083  154.3013 H   0  0  0  0  0  0  0  0  0  0  0  0  # atno 10763 bound_to 10752
  153.3872  135.7013  153.6527 H   0  0  0  0  0  0  0  0  0  0  0  0  # atno 10764 bound_to 10752
  153.5324  135.3665  155.2653 H   0  0  0  0  0  0  0  0  0  0  0  0  # atno 10765 bound_to 10752
  139.9538  134.7181  156.0801 H   0  0  0  0  0  0  0  0  0  0  0  0  # atno 11005 bound_to 11000
  146.3376  139.8891  142.8812 LP  0  0  0  0  0  0  0  0  0  0  0  0  # atno 17320 bound_to 7965
  145.2586  141.0069  143.3840 LP  0  0  0  0  0  0  0  0  0  0  0  0  # atno 17321 bound_to 7965
  139.4832  144.4782  151.9340 LP  0  0  0  0  0  0  0  0  0  0  0  0  # atno 17342 bound_to 10162
  140.3867  144.2667  150.5903 LP  0  0  0  0  0  0  0  0  0  0  0  0  # atno 17343 bound_to 10162
  157.7275  131.0639  150.5864 LP  0  0  0  0  0  0  0  0  0  0  0  0  # atno 17370 bound_to 10713
  156.5958  130.4341  149.5917 LP  0  0  0  0  0  0  0  0  0  0  0  0  # atno 17371 bound_to 10713
  141.1205  133.6614  156.3204 LP  0  0  0  0  0  0  0  0  0  0  0  0  # atno 17394 bound_to 11000
  140.5658  134.5889  157.5445 LP  0  0  0  0  0  0  0  0  0  0  0  0  # atno 17395 bound_to 11000

$$$$
