AV-unprocessed.smi:2083|AV-procd|sdf|8508|dock7
  -GOLD-   2272011223D 1   1.00000     0.00000
 Structure written by MMmdl.
 44 45  0  0  0  0  0  0  0  0  3 V2000
  150.7895  140.2032  155.3029 C   0  0  0  0  0  0  0  0  0  0  0  0
  150.8292  138.7220  155.1451 C   0  0  0  0  0  0  0  0  0  0  0  0
  149.9041  137.8055  154.7314 C   0  0  0  0  0  0  0  0  0  0  0  0
  150.6078  136.5751  154.8223 C   0  0  0  0  0  0  0  0  0  0  0  0
  149.9777  135.3529  154.4671 N   0  0  0  0  0  0  0  0  0  0  0  0
  150.0019  134.1734  155.1147 C   0  0  0  0  0  0  0  0  0  0  0  0
  150.6110  134.0618  156.1853 O   0  0  0  0  0  0  0  0  0  0  0  0
  149.3060  133.2083  154.4530 N   0  5  0  0  0  0  0  0  0  0  0  0
  148.2257  133.4659  153.5009 C   0  0  0  0  0  0  0  0  0  0  0  0
  146.9613  132.6522  153.8829 C   0  0  2  0  0  0  0  0  0  0  0  0
  147.2540  131.2144  154.3822 C   0  0  0  0  0  0  0  0  0  0  0  0
  145.9590  132.6897  152.7723 N   0  3  2  0  0  0  0  0  0  0  0  0
  146.1278  131.5867  151.7891 C   0  0  0  0  0  0  0  0  0  0  0  0
  144.9138  131.4983  150.8500 C   0  0  0  0  0  0  0  0  0  0  0  0
  144.6560  132.8382  150.1453 C   0  0  0  0  0  0  0  0  0  0  0  0
  144.5499  133.9939  151.1583 C   0  0  1  0  0  0  0  0  0  0  0  0
  143.2271  133.9827  151.9445 C   0  0  0  0  0  0  0  0  0  0  0  0
  145.7791  134.0061  152.0891 C   0  0  0  0  0  0  0  0  0  0  0  0
  151.8514  136.7285  155.2526 N   0  0  0  0  0  0  0  0  0  0  0  0
  151.9993  138.1047  155.4620 O   0  0  0  0  0  0  0  0  0  0  0  0
  149.7822  140.5859  155.1373 H   0  0  0  0  0  0  0  0  0  0  0  0
  151.4562  140.6852  154.5879 H   0  0  0  0  0  0  0  0  0  0  0  0
  151.1007  140.4937  156.3063 H   0  0  0  0  0  0  0  0  0  0  0  0
  148.8882  137.9876  154.4141 H   0  0  0  0  0  0  0  0  0  0  0  0
  149.4518  135.3685  153.6061 H   0  0  0  0  0  0  0  0  0  0  0  0
  147.9540  134.5228  153.4786 H   0  0  0  0  0  0  0  0  0  0  0  0
  148.5179  133.2192  152.4798 H   0  0  0  0  0  0  0  0  0  0  0  0
  146.5151  133.1869  154.7234 H   0  0  0  0  0  0  0  0  0  0  0  0
  147.8644  131.2156  155.2870 H   0  0  0  0  0  0  0  0  0  0  0  0
  147.7768  130.6071  153.6413 H   0  0  0  0  0  0  0  0  0  0  0  0
  146.3288  130.6968  154.6357 H   0  0  0  0  0  0  0  0  0  0  0  0
  147.0428  131.7429  151.2158 H   0  0  0  0  0  0  0  0  0  0  0  0
  146.2356  130.6330  152.3068 H   0  0  0  0  0  0  0  0  0  0  0  0
  145.0751  130.7148  150.1090 H   0  0  0  0  0  0  0  0  0  0  0  0
  144.0319  131.2016  151.4186 H   0  0  0  0  0  0  0  0  0  0  0  0
  145.4770  133.0400  149.4561 H   0  0  0  0  0  0  0  0  0  0  0  0
  143.7540  132.7784  149.5352 H   0  0  0  0  0  0  0  0  0  0  0  0
  144.5609  134.9248  150.5897 H   0  0  0  0  0  0  0  0  0  0  0  0
  143.1297  133.0942  152.5683 H   0  0  0  0  0  0  0  0  0  0  0  0
  142.3708  134.0104  151.2702 H   0  0  0  0  0  0  0  0  0  0  0  0
  143.1555  134.8515  152.5995 H   0  0  0  0  0  0  0  0  0  0  0  0
  145.6727  134.8110  152.8172 H   0  0  0  0  0  0  0  0  0  0  0  0
  146.6692  134.2352  151.5012 H   0  0  0  0  0  0  0  0  0  0  0  0
  145.0797  132.4965  153.2307 H   0  0  0  0  0  0  0  0  0  0  0  0
  1  2  1  0  0  0  0
  1 21  1  0  0  0  0
  1 22  1  0  0  0  0
  1 23  1  0  0  0  0
  2 20  1  0  0  0  0
  2  3  2  0  0  0  0
  3  4  1  0  0  0  0
  3 24  1  0  0  0  0
  4  5  1  0  0  0  0
  4 19  2  0  0  0  0
  5  6  1  0  0  0  0
  5 25  1  0  0  0  0
  6  7  2  0  0  0  0
  6  8  1  0  0  0  0
  8  9  1  0  0  0  0
  9 10  1  0  0  0  0
  9 26  1  0  0  0  0
  9 27  1  0  0  0  0
 10 11  1  0  0  0  0
 10 12  1  0  0  0  0
 10 28  1  0  0  0  0
 11 29  1  0  0  0  0
 11 30  1  0  0  0  0
 11 31  1  0  0  0  0
 12 18  1  0  0  0  0
 12 13  1  0  0  0  0
 12 44  1  0  0  0  0
 13 14  1  0  0  0  0
 13 32  1  0  0  0  0
 13 33  1  0  0  0  0
 14 15  1  0  0  0  0
 14 34  1  0  0  0  0
 14 35  1  0  0  0  0
 15 16  1  0  0  0  0
 15 36  1  0  0  0  0
 15 37  1  0  0  0  0
 16 17  1  0  0  0  0
 16 18  1  0  0  0  0
 16 38  1  0  0  0  0
 17 39  1  0  0  0  0
 17 40  1  0  0  0  0
 17 41  1  0  0  0  0
 18 42  1  0  0  0  0
 18 43  1  0  0  0  0
 19 20  1  0  0  0  0
M  CHG  1   8  -1
M  CHG  1  12   1
M  END
> <s_m_source_file>
AV-unprocessed.smi

> <i_m_source_file_index>
2083

> <i_lp_mmshare_version>
43012

> <i_f3d_flags>
0

> <s_epik_input>
W0NIM11jMVtjSF1jKG5vMSlbTkhdQyg9TylbTkhdW0NIMl1bQ0BIXShbQ0gzXSlOMltDSDJdW0NIMl1bQ0gyXVtDQEBIXShbQ0gzXSlbQ0gyXTI=

> <s_epik_cmdline>
J2VwaWtfcHl0aG9uJywgJy1waCcsICc3LjAnLCAnLXRuJywgJzgnLCAnLW1hJywgJzIwMCcsICctbWV0YWxfYmluZGluZycsICctaW1hZScsICc8aW5maWxlLm1hZT4nLCAnLW9tYWUnLCAnPG91dGZpbGUubWFlPic=

> <r_epik_Ionization_Penalty>
6.76934

> <r_epik_Ionization_Penalty_Charging>
6.76934

> <r_epik_Ionization_Penalty_Neutral>
5.77849e-06

> <r_epik_State_Penalty>
6.79457

> <r_epik_Charging_Adjusted_Penalty>
13.5639

> <i_epik_Tot_Q>
0

> <i_epik_Tot_abs_Q>
2

> <r_epik_Metal_State_Penalty>
2.72837

> <b_epik_Metal_Only>
1

> <s_lp_Force_Field>
OPLS_2005

> <r_lp_Energy>
20.5905

> <b_lp_Chiralities_Consistent>
1

> <s_lp_Variant>
AV-unprocessed.smi:2083-19

> <Gold.Version>
5.8.1

> <Gold.Id.Protein>
6NUR|6NUR_protein|mol2

> <Gold.PLP.Fitness>
36.1199

> <Gold.PLP.PLP>
-32.4628

> <Gold.PLP.part.hbond>
-2.6393

> <Gold.PLP.part.metal>
0.0000

> <Gold.PLP.part.buried>
-3.7553

> <Gold.PLP.part.nonpolar>
-26.1951

> <Gold.PLP.part.repulsive>
0.2902

> <Gold.PLP.ligand.clash>
0.0000

> <Gold.PLP.ligand.torsion>
1.0312

> <Gold.PLP.Chemscore.Hbond>
1.8500

> <Gold.PLP.Chemscore.CHOScore>
0.0000

> <Gold.PLP.Chemscore.Metal>
0.0000

> <Gold.Chemscore.Hbonds>
donor molecule, donor type, donor heavy atom, donor atom, acceptor molecule, acceptor atom, score
      L1  H     5    25       P1  7948  0.90
      P1  H 10752 10764       L1    19  1.00

> <Gold.PLP.Chemscore.Internal.Correction>
0.1694

> <Gold.Rescore>
     Score         DG    S(hbond)    S(metal)    S(lipo)     H(rot)  DE(clash)    DE(int)     intcor
     13.75     -14.85       1.41        0.00      73.11       1.52       0.05       1.05       ----

> <Gold.Chemscore.Fitness>
13.7527

> <Gold.Chemscore.DG>
-14.8541

> <Gold.Chemscore.ZeroCoef>
-5.4800

> <Gold.Chemscore.Hbond>
1.4099

> <Gold.Chemscore.Metal>
0.0000

> <Gold.Chemscore.Lipo>
73.1076

> <Gold.Chemscore.Internal_Hbond>
0.0000

> <Gold.Chemscore.DEClash>
0.0513

> <Gold.Chemscore.DEInternal>
1.0501

> <Gold.Chemscore.Rot>
1.5190

> <Gold.Chemscore.Internal.Correction>
   9.000000E+99

> <Gold.Chemscore.Hbonds>
donor molecule, donor type, donor heavy atom, donor atom, acceptor molecule, acceptor atom, score
      L1  H     5    25       P1  7948  0.17
      P1  H 10752 10764       L1    19  0.92

> <Gold.Chemscore.Hbond.Weighted>
-4.7092

> <Gold.Chemscore.Metal.Weighted>
-0.0000

> <Gold.Chemscore.Lipo.Weighted>
-8.5536

> <Gold.Chemscore.Internal_Hbond.Weighted>
0.0000

> <Gold.Chemscore.DEClash.Weighted>
0.0513

> <Gold.Chemscore.DEInternal.Weighted>
1.0501

> <Gold.Chemscore.Rot.Weighted>
3.8886

> <Gold.Chemscore.Internal.Correction.Weighted>
   9.000000E+99

> <Gold.Protein.RotatedTorsions>
[ 6907 6896 6895 6894 ] final  133.32 input  -60.11 | X-H torsion
[ 7974 7965 7964 7962 ] final   98.19 input  175.53 | X-H torsion
[ 8008 7997 7996 7995 ] final  -22.81 input   59.86 | X-H torsion
[ 10167 10162 10161 10158 ] final  109.26 input  -65.29 | X-H torsion
[ 10718 10713 10712 10709 ] final   46.42 input   66.30 | X-H torsion
[ 10763 10752 10751 10750 ] final  -53.24 input  -60.55 | X-H torsion
[ 11005 11000 10999 10996 ] final   70.89 input  -57.11 | X-H torsion

> <Gold.Protein.ActiveResidues>
 VAL166  LYS551  ARG553  GLY616  TRP617  ASP618  TYR619  PRO620  LYS621  CYS622 
 ASP623  PHE694  ASN695  SER759  ASP760  ASP761  ALA762  ILE779  LEU786  VAL792 
 PHE793  MET794  SER795  GLU796  ALA797  LYS798  CYS799  TRP800  GLU811  SER814 

> <Gold.Protein.RotatedAtoms>
  152.3232  133.5876  159.5758 H   0  0  0  0  0  0  0  0  0  0  0  0  # atno 6907 bound_to 6896
  150.7382  133.9979  159.3637 H   0  0  0  0  0  0  0  0  0  0  0  0  # atno 6908 bound_to 6896
  151.7862  135.0749  160.0432 H   0  0  0  0  0  0  0  0  0  0  0  0  # atno 6909 bound_to 6896
  145.4155  139.2328  143.3225 H   0  0  0  0  0  0  0  0  0  0  0  0  # atno 7974 bound_to 7965
  154.4622  140.1998  156.0214 H   0  0  0  0  0  0  0  0  0  0  0  0  # atno 8008 bound_to 7997
  156.0861  140.3264  155.7727 H   0  0  0  0  0  0  0  0  0  0  0  0  # atno 8009 bound_to 7997
  155.5033  140.0555  157.2926 H   0  0  0  0  0  0  0  0  0  0  0  0  # atno 8010 bound_to 7997
  139.6780  144.7120  151.1566 H   0  0  0  0  0  0  0  0  0  0  0  0  # atno 10167 bound_to 10162
  157.4479  130.8120  149.7759 H   0  0  0  0  0  0  0  0  0  0  0  0  # atno 10718 bound_to 10713
  154.1557  135.6483  153.4974 H   0  0  0  0  0  0  0  0  0  0  0  0  # atno 10763 bound_to 10752
  153.0125  135.5349  154.6762 H   0  0  0  0  0  0  0  0  0  0  0  0  # atno 10764 bound_to 10752
  154.6062  135.2949  155.0453 H   0  0  0  0  0  0  0  0  0  0  0  0  # atno 10765 bound_to 10752
  139.9573  134.7122  156.0725 H   0  0  0  0  0  0  0  0  0  0  0  0  # atno 11005 bound_to 11000
  146.2683  140.4872  142.8825 LP  0  0  0  0  0  0  0  0  0  0  0  0  # atno 17320 bound_to 7965
  144.8280  140.6660  143.6309 LP  0  0  0  0  0  0  0  0  0  0  0  0  # atno 17321 bound_to 7965
  140.7642  143.5742  150.8964 LP  0  0  0  0  0  0  0  0  0  0  0  0  # atno 17342 bound_to 10162
  139.9412  143.6380  152.3053 LP  0  0  0  0  0  0  0  0  0  0  0  0  # atno 17343 bound_to 10162
  155.9975  130.3899  150.2738 LP  0  0  0  0  0  0  0  0  0  0  0  0  # atno 17370 bound_to 10713
  157.0908  131.0169  151.3122 LP  0  0  0  0  0  0  0  0  0  0  0  0  # atno 17371 bound_to 10713
  141.1246  133.6603  156.3303 LP  0  0  0  0  0  0  0  0  0  0  0  0  # atno 17394 bound_to 11000
  140.5580  134.5962  157.5426 LP  0  0  0  0  0  0  0  0  0  0  0  0  # atno 17395 bound_to 11000

$$$$
