#       Name:                AV-unprocessed.smi:1517
#       Creating user name   scv26
#       Creation time:       Fri Mar 27 06:25:58 2020


#       File generated by GOLD software.
#

@<TRIPOS>MOLECULE
AV-unprocessed.smi:1517
    46    48     1
SMALL
NO_CHARGES


@<TRIPOS>ATOM
      1 ****        -3.3143  -1.3306   1.1999 O.3            1 S1                 0.0000
      2 ****        -2.5207  -0.1716   1.0707 C.3            1 S1                 0.0000
      3 ****        -2.5409   0.3054  -0.3866 C.3            1 S1                 0.0000
      4 ****        -1.7561   1.5117  -0.5703 N.pl3          1 S1                 0.0000
      5 ****        -0.3852   1.7392  -0.6005 C.2            1 S1                 0.0000
      6 ****         0.1642   2.9387  -0.7831 N.2            1 S1                 0.0000
      7 ****         1.5155   2.6542  -0.7279 C.ar           1 S1                 0.0000
      8 ****         2.6382   3.5039  -0.8514 C.ar           1 S1                 0.0000
      9 ****         3.9442   2.9794  -0.7593 C.ar           1 S1                 0.0000
     10 ****         4.1467   1.6010  -0.5415 C.ar           1 S1                 0.0000
     11 ****         3.0426   0.7360  -0.4156 C.ar           1 S1                 0.0000
     12 ****         1.7409   1.2637  -0.5101 C.ar           1 S1                 0.0000
     13 ****         0.4701   0.7016  -0.4369 N.pl3          1 S1                 0.0000
     14 ****         0.1636  -0.7084  -0.2302 C.3            1 S1                 0.0000
     15 ****         0.1627  -1.1055   1.2587 C.3            1 S1                 0.0000
     16 ****        -0.8018  -0.3444   1.9614 O.3            1 S1                 0.0000
     17 ****        -0.0454  -2.6054   1.4243 C.ar           1 S1                 0.0000
     18 ****        -1.3490  -3.1516   1.4389 C.ar           1 S1                 0.0000
     19 ****        -1.5382  -4.5398   1.5816 C.ar           1 S1                 0.0000
     20 ****        -0.4257  -5.3930   1.7060 C.ar           1 S1                 0.0000
     21 ****        -0.6074  -6.7279   1.8421 F              1 S1                 0.0000
     22 ****         0.8759  -4.8573   1.6847 C.ar           1 S1                 0.0000
     23 ****         1.0675  -3.4689   1.5415 C.ar           1 S1                 0.0000
     24 ****         2.3275  -2.9716   1.5113 F              1 S1                 0.0000
     25 ****        -3.2798  -1.6185   2.0992 H              1 S1                 0.0000
     26 ****        -2.9095   0.6003   1.7353 H              1 S1                 0.0000
     27 ****        -1.5038  -0.3998   1.3914 H              1 S1                 0.0000
     28 ****        -2.1515  -0.4716  -1.0453 H              1 S1                 0.0000
     29 ****        -3.5642   0.5085  -0.7029 H              1 S1                 0.0000
     30 ****        -2.3177   2.3397  -0.7071 H              1 S1                 0.0000
     31 ****         2.4942   4.5613  -1.0176 H              1 S1                 0.0000
     32 ****         4.7947   3.6382  -0.8560 H              1 S1                 0.0000
     33 ****         5.1506   1.2082  -0.4717 H              1 S1                 0.0000
     34 ****         3.1944  -0.3201  -0.2487 H              1 S1                 0.0000
     35 ****        -0.7936  -0.9464  -0.6953 H              1 S1                 0.0000
     36 ****         0.9110  -1.2941  -0.7670 H              1 S1                 0.0000
     37 ****         1.1282  -0.8417   1.6919 H              1 S1                 0.0000
     38 ****        -0.7050  -0.5169   2.8856 H              1 S1                 0.0000
     39 ****        -2.2115  -2.5090   1.3368 H              1 S1                 0.0000
     40 ****        -2.5375  -4.9501   1.5928 H              1 S1                 0.0000
     41 ****         1.7297  -5.5125   1.7756 H              1 S1                 0.0000
     42 ****        -2.9611  -2.0498   0.6016 LP             1 S1                 0.0000
     43 ****        -4.2594  -1.1221   0.9484 LP             1 S1                 0.0000
     44 ****        -0.2862   3.8203  -0.9242 LP             1 S1                 0.0000
     45 ****        -1.7199  -0.6060   1.6638 LP             1 S1                 0.0000
     46 ****        -0.6584   0.6291   1.7831 LP             1 S1                 0.0000
@<TRIPOS>BOND
    1    1    2 1     
    2    1   25 1     
    3    2    3 1     
    4    2   26 1     
    5    2   27 1     
    6    3    4 1     
    7    3   28 1     
    8    3   29 1     
    9    4    5 1     
   10    4   30 1     
   11    5   13 1     
   12    5    6 2     
   13    6    7 1     
   14    7   12 ar    
   15    7    8 ar    
   16    8    9 ar    
   17    8   31 1     
   18    9   10 ar    
   19    9   32 1     
   20   10   11 ar    
   21   10   33 1     
   22   11   12 ar    
   23   11   34 1     
   24   12   13 1     
   25   13   14 1     
   26   14   15 1     
   27   14   35 1     
   28   14   36 1     
   29   15   16 1     
   30   15   17 1     
   31   15   37 1     
   32   16   38 1     
   33   17   23 ar    
   34   17   18 ar    
   35   18   19 ar    
   36   18   39 1     
   37   19   20 ar    
   38   19   40 1     
   39   20   21 1     
   40   20   22 ar    
   41   22   23 ar    
   42   22   41 1     
   43   23   24 1     
   44    1   42 1     
   45    1   43 1     
   46    6   44 1     
   47   16   45 1     
   48   16   46 1     
@<TRIPOS>SUBSTRUCTURE
      1 S1             1
@<TRIPOS>SET
LONE_PAIRS      STATIC     ATOMS    <user>   **** ""
5 42 43 44 45 46
DONOR_HYDROGENS      STATIC     ATOMS    <user>   **** ""
3 25 30 38
ATOM$BLUE        STATIC     ATOMS    COLORGROUP SYSTEM
5 42 43 44 45 46
ATOM$RED        STATIC     ATOMS    COLORGROUP SYSTEM
3 25 30 38
