AV-unprocessed.smi:3331|AV-procd|sdf|12817|dock4
  -GOLD-   2272019193D 1   1.00000     0.00000
 Structure written by MMmdl.
 47 48  0  0  0  0  0  0  0  0  2 V2000
  147.0627  142.3826  154.1002 C   0  0  0  0  0  0  0  0  0  0  0  0
  147.9247  141.2196  154.6107 C   0  0  2  0  0  0  0  0  0  0  0  0
  149.3513  141.6915  154.9743 C   0  0  0  0  0  0  0  0  0  0  0  0
  150.2921  140.5276  155.3597 C   0  0  1  0  0  0  0  0  0  0  0  0
  150.0276  140.0131  156.7862 C   0  0  0  0  0  0  0  0  0  0  0  0
  150.2095  139.4118  154.2949 C   0  0  0  0  0  0  0  0  0  0  0  0
  148.8124  138.9822  154.1348 N   0  0  0  0  0  0  0  0  0  0  0  0
  148.2861  137.7918  154.5212 C   0  0  0  0  0  0  0  0  0  0  0  0
  148.9717  136.9224  155.0629 O   0  0  0  0  0  0  0  0  0  0  0  0
  146.7914  137.4937  154.2868 C   0  0  2  0  0  0  0  0  0  0  0  0
  146.0886  137.1841  155.6218 C   0  0  0  0  0  0  0  0  0  0  0  0
  146.6356  136.3711  153.3337 N   0  3  0  0  0  0  0  0  0  0  0  0
  145.3252  136.2830  152.6543 C   0  0  0  0  0  0  0  0  0  0  0  0
  145.4839  135.8422  151.1906 C   0  0  0  0  0  0  0  0  0  0  0  0
  145.3926  134.4003  151.0424 N   0  0  0  0  0  0  0  0  0  0  0  0
  144.3326  133.6517  150.5756 C   0  0  0  0  0  0  0  0  0  0  0  0
  144.7164  132.3417  150.6055 C   0  0  0  0  0  0  0  0  0  0  0  0
  146.0447  132.3891  151.1135 C   0  0  0  0  0  0  0  0  0  0  0  0
  146.4474  133.6231  151.3718 N   0  0  0  0  0  0  0  0  0  0  0  0
  147.9869  140.0671  153.5862 C   0  0  0  0  0  0  0  0  0  0  0  0
  147.4758  142.8117  153.1868 H   0  0  0  0  0  0  0  0  0  0  0  0
  146.9980  143.1783  154.8428 H   0  0  0  0  0  0  0  0  0  0  0  0
  146.0466  142.0523  153.8825 H   0  0  0  0  0  0  0  0  0  0  0  0
  147.4507  140.8388  155.5166 H   0  0  0  0  0  0  0  0  0  0  0  0
  149.7779  142.2066  154.1124 H   0  0  0  0  0  0  0  0  0  0  0  0
  149.3145  142.4304  155.7758 H   0  0  0  0  0  0  0  0  0  0  0  0
  151.3116  140.9152  155.3537 H   0  0  0  0  0  0  0  0  0  0  0  0
  149.0251  139.5990  156.8936 H   0  0  0  0  0  0  0  0  0  0  0  0
  150.1307  140.8165  157.5158 H   0  0  0  0  0  0  0  0  0  0  0  0
  150.7393  139.2335  157.0580 H   0  0  0  0  0  0  0  0  0  0  0  0
  150.5627  139.8003  153.3382 H   0  0  0  0  0  0  0  0  0  0  0  0
  150.9008  138.6054  154.5306 H   0  0  0  0  0  0  0  0  0  0  0  0
  146.3288  138.3571  153.8122 H   0  0  0  0  0  0  0  0  0  0  0  0
  146.2329  137.9847  156.3480 H   0  0  0  0  0  0  0  0  0  0  0  0
  146.4709  136.2648  156.0675 H   0  0  0  0  0  0  0  0  0  0  0  0
  145.0134  137.0658  155.4892 H   0  0  0  0  0  0  0  0  0  0  0  0
  147.3335  136.4943  152.6130 H   0  0  0  0  0  0  0  0  0  0  0  0
  144.6930  135.5706  153.1842 H   0  0  0  0  0  0  0  0  0  0  0  0
  144.8199  137.2492  152.6917 H   0  0  0  0  0  0  0  0  0  0  0  0
  144.7314  136.3164  150.5584 H   0  0  0  0  0  0  0  0  0  0  0  0
  146.4555  136.1613  150.8118 H   0  0  0  0  0  0  0  0  0  0  0  0
  143.4048  134.1080  150.2630 H   0  0  0  0  0  0  0  0  0  0  0  0
  144.1362  131.4798  150.3104 H   0  0  0  0  0  0  0  0  0  0  0  0
  146.7237  131.5699  151.2993 H   0  0  0  0  0  0  0  0  0  0  0  0
  146.9766  139.7426  153.3330 H   0  0  0  0  0  0  0  0  0  0  0  0
  148.4237  140.4167  152.6496 H   0  0  0  0  0  0  0  0  0  0  0  0
  146.8306  135.5021  153.8104 H   0  0  0  0  0  0  0  0  0  0  0  0
  1  2  1  0  0  0  0
  1 21  1  0  0  0  0
  1 22  1  0  0  0  0
  1 23  1  0  0  0  0
  2 20  1  0  0  0  0
  2  3  1  0  0  0  0
  2 24  1  0  0  0  0
  3  4  1  0  0  0  0
  3 25  1  0  0  0  0
  3 26  1  0  0  0  0
  4  5  1  0  0  0  0
  4  6  1  0  0  0  0
  4 27  1  0  0  0  0
  5 28  1  0  0  0  0
  5 29  1  0  0  0  0
  5 30  1  0  0  0  0
  6  7  1  0  0  0  0
  6 31  1  0  0  0  0
  6 32  1  0  0  0  0
  7  8  1  0  0  0  0
  7 20  1  0  0  0  0
  8  9  2  0  0  0  0
  8 10  1  0  0  0  0
 10 11  1  0  0  0  0
 10 12  1  0  0  0  0
 10 33  1  0  0  0  0
 11 34  1  0  0  0  0
 11 35  1  0  0  0  0
 11 36  1  0  0  0  0
 12 13  1  0  0  0  0
 12 37  1  0  0  0  0
 12 47  1  0  0  0  0
 13 14  1  0  0  0  0
 13 38  1  0  0  0  0
 13 39  1  0  0  0  0
 14 15  1  0  0  0  0
 14 40  1  0  0  0  0
 14 41  1  0  0  0  0
 15 19  1  0  0  0  0
 15 16  1  0  0  0  0
 16 17  2  0  0  0  0
 16 42  1  0  0  0  0
 17 18  1  0  0  0  0
 17 43  1  0  0  0  0
 18 19  2  0  0  0  0
 18 44  1  0  0  0  0
 20 45  1  0  0  0  0
 20 46  1  0  0  0  0
M  CHG  1  12   1
M  END
> <s_m_source_file>
AV-unprocessed.smi

> <i_m_source_file_index>
3331

> <i_lp_mmshare_version>
43012

> <i_f3d_flags>
0

> <s_epik_input>
W0NIM11bQ0BASF0xW0NIMl1bQ0BASF0oW0NIM10pW0NIMl1OKFtDSDJdMSlDKD1PKVtDQEhdKFtDSDNdKVtOSF1bQ0gyXVtDSDJdbjJbY0hdW2NIXVtjSF1uMg==

> <s_epik_cmdline>
J2VwaWtfcHl0aG9uJywgJy1waCcsICc3LjAnLCAnLXRuJywgJzgnLCAnLW1hJywgJzIwMCcsICctbWV0YWxfYmluZGluZycsICctaW1hZScsICc8aW5maWxlLm1hZT4nLCAnLW9tYWUnLCAnPG91dGZpbGUubWFlPic=

> <r_lp_tautomer_probability>
1

> <r_epik_Ionization_Penalty>
0.189706

> <r_epik_Ionization_Penalty_Charging>
0.189703

> <r_epik_Ionization_Penalty_Neutral>
2.45875e-06

> <r_epik_State_Penalty>
0.179341

> <r_epik_Charging_Adjusted_Penalty>
0.369044

> <i_epik_Tot_Q>
1

> <i_epik_Tot_abs_Q>
1

> <r_epik_Metal_State_Penalty>
0.179578

> <b_epik_Metal_Only>
0

> <s_lp_Force_Field>
OPLS_2005

> <r_lp_Energy>
28.246

> <b_lp_Chiralities_Consistent>
1

> <s_lp_Variant>
AV-unprocessed.smi:3331-1

> <Gold.Version>
5.8.1

> <Gold.Id.Protein>
6NUR|6NUR_protein|mol2

> <Gold.PLP.Fitness>
43.8618

> <Gold.PLP.PLP>
-33.6172

> <Gold.PLP.part.hbond>
-1.0000

> <Gold.PLP.part.metal>
0.0000

> <Gold.PLP.part.buried>
-0.7539

> <Gold.PLP.part.nonpolar>
-31.7823

> <Gold.PLP.part.repulsive>
0.3329

> <Gold.PLP.ligand.clash>
0.0000

> <Gold.PLP.ligand.torsion>
0.9076

> <Gold.PLP.Chemscore.Hbond>
2.0000

> <Gold.PLP.Chemscore.CHOScore>
2.0000

> <Gold.PLP.Chemscore.Metal>
0.0000

> <Gold.Chemscore.Hbonds>
donor molecule, donor type, donor heavy atom, donor atom, acceptor molecule, acceptor atom, score
      L1  H    12    37       P1  7948  2.00
      L1  C    16    42       P1 10186  1.00
      L1  C    18    44       P1 10747  0.89

> <Gold.PLP.Chemscore.Internal.Correction>
0.0598

> <Gold.Rescore>
     Score         DG    S(hbond)    S(metal)    S(lipo)     H(rot)  DE(clash)    DE(int)     intcor
     13.01     -13.69       0.98        0.00      79.97       1.73       0.06       0.62       ----

> <Gold.Chemscore.Fitness>
13.0092

> <Gold.Chemscore.DG>
-13.6887

> <Gold.Chemscore.ZeroCoef>
-5.4800

> <Gold.Chemscore.Hbond>
0.9790

> <Gold.Chemscore.Metal>
0.0000

> <Gold.Chemscore.Lipo>
79.9650

> <Gold.Chemscore.Internal_Hbond>
0.0000

> <Gold.Chemscore.DEClash>
0.0594

> <Gold.Chemscore.DEInternal>
0.6201

> <Gold.Chemscore.Rot>
1.7254

> <Gold.Chemscore.Internal.Correction>
   9.000000E+99

> <Gold.Chemscore.Hbonds>
donor molecule, donor type, donor heavy atom, donor atom, acceptor molecule, acceptor atom, score
      L1  H    12    37       P1  7948  0.98

> <Gold.Chemscore.Hbond.Weighted>
-3.2698

> <Gold.Chemscore.Metal.Weighted>
-0.0000

> <Gold.Chemscore.Lipo.Weighted>
-9.3559

> <Gold.Chemscore.Internal_Hbond.Weighted>
0.0000

> <Gold.Chemscore.DEClash.Weighted>
0.0594

> <Gold.Chemscore.DEInternal.Weighted>
0.6201

> <Gold.Chemscore.Rot.Weighted>
4.4170

> <Gold.Chemscore.Internal.Correction.Weighted>
   9.000000E+99

> <Gold.Protein.RotatedTorsions>
[ 6907 6896 6895 6894 ] final  117.13 input  -60.11 | X-H torsion
[ 7974 7965 7964 7962 ] final  -55.74 input  175.53 | X-H torsion
[ 8008 7997 7996 7995 ] final   89.01 input   59.86 | X-H torsion
[ 10167 10162 10161 10158 ] final  -81.61 input  -65.29 | X-H torsion
[ 10718 10713 10712 10709 ] final  -47.14 input   66.30 | X-H torsion
[ 10763 10752 10751 10750 ] final  168.57 input  -60.55 | X-H torsion
[ 11005 11000 10999 10996 ] final  156.62 input  -57.11 | X-H torsion

> <Gold.Protein.ActiveResidues>
 VAL166  LYS551  ARG553  GLY616  TRP617  ASP618  TYR619  PRO620  LYS621  CYS622 
 ASP623  PHE694  ASN695  SER759  ASP760  ASP761  ALA762  ILE779  LEU786  VAL792 
 PHE793  MET794  SER795  GLU796  ALA797  LYS798  CYS799  TRP800  GLU811  SER814 

> <Gold.Protein.RotatedAtoms>
  152.4632  133.7867  159.6879 H   0  0  0  0  0  0  0  0  0  0  0  0  # atno 6907 bound_to 6896
  150.8585  133.7669  159.3007 H   0  0  0  0  0  0  0  0  0  0  0  0  # atno 6908 bound_to 6896
  151.5242  135.1070  159.9938 H   0  0  0  0  0  0  0  0  0  0  0  0  # atno 6909 bound_to 6896
  145.8707  140.8218  142.9889 H   0  0  0  0  0  0  0  0  0  0  0  0  # atno 7974 bound_to 7965
  155.9948  140.3365  155.6788 H   0  0  0  0  0  0  0  0  0  0  0  0  # atno 8008 bound_to 7997
  155.6371  140.0691  157.2648 H   0  0  0  0  0  0  0  0  0  0  0  0  # atno 8009 bound_to 7997
  154.4230  140.1749  156.1521 H   0  0  0  0  0  0  0  0  0  0  0  0  # atno 8010 bound_to 7997
  140.4396  143.2519  151.8644 H   0  0  0  0  0  0  0  0  0  0  0  0  # atno 10167 bound_to 10162
  156.2114  130.4161  149.9110 H   0  0  0  0  0  0  0  0  0  0  0  0  # atno 10718 bound_to 10713
  154.3705  135.2753  155.2269 H   0  0  0  0  0  0  0  0  0  0  0  0  # atno 10763 bound_to 10752
  154.4419  135.5952  153.6138 H   0  0  0  0  0  0  0  0  0  0  0  0  # atno 10764 bound_to 10752
  152.9838  135.6021  154.3935 H   0  0  0  0  0  0  0  0  0  0  0  0  # atno 10765 bound_to 10752
  140.1692  134.8555  157.2669 H   0  0  0  0  0  0  0  0  0  0  0  0  # atno 11005 bound_to 11000
  144.6726  140.1235  143.7448 LP  0  0  0  0  0  0  0  0  0  0  0  0  # atno 17320 bound_to 7965
  145.9140  139.2504  143.1421 LP  0  0  0  0  0  0  0  0  0  0  0  0  # atno 17321 bound_to 7965
  139.4789  144.5243  151.8757 LP  0  0  0  0  0  0  0  0  0  0  0  0  # atno 17342 bound_to 10162
  140.4333  144.2086  150.5888 LP  0  0  0  0  0  0  0  0  0  0  0  0  # atno 17343 bound_to 10162
  156.6787  130.8849  151.3573 LP  0  0  0  0  0  0  0  0  0  0  0  0  # atno 17370 bound_to 10713
  157.7040  130.9364  150.0873 LP  0  0  0  0  0  0  0  0  0  0  0  0  # atno 17371 bound_to 10713
  140.2398  134.3810  155.7486 LP  0  0  0  0  0  0  0  0  0  0  0  0  # atno 17394 bound_to 11000
  141.2216  133.7259  156.8770 LP  0  0  0  0  0  0  0  0  0  0  0  0  # atno 17395 bound_to 11000

$$$$
