AV-unprocessed.smi:859|AV-procd|sdf|3964|dock7
  -GOLD-   22720 1433D 1   1.00000     0.00000
 Structure written by MMmdl.
 35 36  0  0  0  0  0  0  0  0  1 V2000
  152.5375  140.0788  157.6801 O   0  0  0  0  0  0  0  0  0  0  0  0
  151.5141  140.7638  157.6890 C   0  0  0  0  0  0  0  0  0  0  0  0
  150.4113  140.4483  156.9919 N   0  0  0  0  0  0  0  0  0  0  0  0
  150.2849  139.3117  156.0840 C   0  0  0  0  0  0  0  0  0  0  0  0
  150.0305  139.7641  154.6338 C   0  0  0  0  0  0  0  0  0  0  0  0
  148.7637  140.4554  154.4776 N   0  0  0  0  0  0  0  0  0  0  0  0
  147.7059  140.0913  153.6544 C   0  0  0  0  0  0  0  0  0  0  0  0
  146.7178  141.0304  153.8452 C   0  0  0  0  0  0  0  0  0  0  0  0
  147.1464  141.9806  154.7691 N   0  0  0  0  0  0  0  0  0  0  0  0
  148.3660  141.5746  155.0984 C   0  0  0  0  0  0  0  0  0  0  0  0
  151.4627  142.0647  158.5005 C   0  0  0  0  0  0  0  0  0  0  0  0
  151.2663  143.2780  157.5658 C   0  0  0  0  0  0  0  0  0  0  0  0
  151.2328  144.5964  158.3555 C   0  0  0  0  0  0  0  0  0  0  0  0
  152.4994  144.7655  159.2092 C   0  0  0  0  0  0  0  0  0  0  0  0
  152.7060  143.5615  160.1417 C   0  0  0  0  0  0  0  0  0  0  0  0
  152.7392  142.2433  159.3504 C   0  0  0  0  0  0  0  0  0  0  0  0
  149.6150  141.0653  157.0628 H   0  0  0  0  0  0  0  0  0  0  0  0
  151.1602  138.6619  156.1363 H   0  0  0  0  0  0  0  0  0  0  0  0
  149.4425  138.7100  156.4250 H   0  0  0  0  0  0  0  0  0  0  0  0
  150.8256  140.4368  154.3107 H   0  0  0  0  0  0  0  0  0  0  0  0
  150.0516  138.9083  153.9577 H   0  0  0  0  0  0  0  0  0  0  0  0
  147.7396  139.2141  153.0254 H   0  0  0  0  0  0  0  0  0  0  0  0
  145.7397  141.0952  153.3920 H   0  0  0  0  0  0  0  0  0  0  0  0
  148.9826  142.1005  155.8124 H   0  0  0  0  0  0  0  0  0  0  0  0
  150.6081  142.0150  159.1778 H   0  0  0  0  0  0  0  0  0  0  0  0
  152.0716  143.3216  156.8306 H   0  0  0  0  0  0  0  0  0  0  0  0
  150.3402  143.1698  156.9992 H   0  0  0  0  0  0  0  0  0  0  0  0
  151.1325  145.4378  157.6690 H   0  0  0  0  0  0  0  0  0  0  0  0
  150.3525  144.6162  158.9993 H   0  0  0  0  0  0  0  0  0  0  0  0
  153.3668  144.8752  158.5571 H   0  0  0  0  0  0  0  0  0  0  0  0
  152.4341  145.6831  159.7946 H   0  0  0  0  0  0  0  0  0  0  0  0
  153.6337  143.6812  160.7019 H   0  0  0  0  0  0  0  0  0  0  0  0
  151.9021  143.5268  160.8780 H   0  0  0  0  0  0  0  0  0  0  0  0
  152.8509  141.4067  160.0413 H   0  0  0  0  0  0  0  0  0  0  0  0
  153.6228  142.2347  158.7100 H   0  0  0  0  0  0  0  0  0  0  0  0
  1  2  2  0  0  0  0
  2  3  1  0  0  0  0
  2 11  1  0  0  0  0
  3  4  1  0  0  0  0
  3 17  1  0  0  0  0
  4  5  1  0  0  0  0
  4 18  1  0  0  0  0
  4 19  1  0  0  0  0
  5  6  1  0  0  0  0
  5 20  1  0  0  0  0
  5 21  1  0  0  0  0
  6 10  1  0  0  0  0
  6  7  1  0  0  0  0
  7  8  2  0  0  0  0
  7 22  1  0  0  0  0
  8  9  1  0  0  0  0
  8 23  1  0  0  0  0
  9 10  2  0  0  0  0
 10 24  1  0  0  0  0
 11 16  1  0  0  0  0
 11 12  1  0  0  0  0
 11 25  1  0  0  0  0
 12 13  1  0  0  0  0
 12 26  1  0  0  0  0
 12 27  1  0  0  0  0
 13 14  1  0  0  0  0
 13 28  1  0  0  0  0
 13 29  1  0  0  0  0
 14 15  1  0  0  0  0
 14 30  1  0  0  0  0
 14 31  1  0  0  0  0
 15 16  1  0  0  0  0
 15 32  1  0  0  0  0
 15 33  1  0  0  0  0
 16 34  1  0  0  0  0
 16 35  1  0  0  0  0
M  END
> <s_m_source_file>
AV-unprocessed.smi

> <i_m_source_file_index>
859

> <i_lp_mmshare_version>
43012

> <i_f3d_flags>
0

> <s_epik_input>
W0NIMl0xW0NIMl1bQ0gyXVtDSDJdW0NIMl1bQ0hdMUMoPU8pW05IXVtDSDJdW0NIMl1uMltjSF1bY0hdbltjSF0y

> <s_epik_cmdline>
J2VwaWtfcHl0aG9uJywgJy1waCcsICc3LjAnLCAnLXRuJywgJzgnLCAnLW1hJywgJzIwMCcsICctbWV0YWxfYmluZGluZycsICctaW1hZScsICc8aW5maWxlLm1hZT4nLCAnLW9tYWUnLCAnPG91dGZpbGUubWFlPic=

> <r_lp_tautomer_probability>
1

> <r_epik_Ionization_Penalty>
0.600603

> <r_epik_Ionization_Penalty_Charging>
0.600603

> <r_epik_Ionization_Penalty_Neutral>
2.01201e-08

> <r_epik_State_Penalty>
0.614954

> <r_epik_Charging_Adjusted_Penalty>
1.21556

> <i_epik_Tot_Q>
0

> <i_epik_Tot_abs_Q>
0

> <r_epik_Metal_State_Penalty>
0.301281

> <b_epik_Metal_Only>
0

> <s_lp_Force_Field>
OPLS_2005

> <r_lp_Energy>
12.3333

> <b_lp_Chiralities_Consistent>
1

> <s_lp_Variant>
AV-unprocessed.smi:859-2

> <Gold.Version>
5.8.1

> <Gold.Id.Protein>
6NUR|6NUR_protein|mol2

> <Gold.PLP.Fitness>
43.8334

> <Gold.PLP.PLP>
-34.4252

> <Gold.PLP.part.hbond>
-1.0000

> <Gold.PLP.part.metal>
0.0000

> <Gold.PLP.part.buried>
-0.3430

> <Gold.PLP.part.nonpolar>
-33.3020

> <Gold.PLP.part.repulsive>
0.1837

> <Gold.PLP.ligand.clash>
0.0000

> <Gold.PLP.ligand.torsion>
0.0526

> <Gold.PLP.Chemscore.Hbond>
1.0000

> <Gold.PLP.Chemscore.CHOScore>
2.1653

> <Gold.PLP.Chemscore.Metal>
0.0000

> <Gold.Chemscore.Hbonds>
donor molecule, donor type, donor heavy atom, donor atom, acceptor molecule, acceptor atom, score
      P1  H  7997  8010       L1     1  0.83
      L1  C     7    22       P1  7957  0.18
      L1  C     8    23       P1 10175  1.00
      L1  C    10    24       P1  8028  0.54

> <Gold.PLP.Chemscore.Internal.Correction>
0.0176

> <Gold.Rescore>
     Score         DG    S(hbond)    S(metal)    S(lipo)     H(rot)  DE(clash)    DE(int)     intcor
     15.22     -15.34       0.96        0.00      95.94       1.79       0.05       0.07       ----

> <Gold.Chemscore.Fitness>
15.2163

> <Gold.Chemscore.DG>
-15.3357

> <Gold.Chemscore.ZeroCoef>
-5.4800

> <Gold.Chemscore.Hbond>
0.9597

> <Gold.Chemscore.Metal>
0.0000

> <Gold.Chemscore.Lipo>
95.9442

> <Gold.Chemscore.Internal_Hbond>
0.0000

> <Gold.Chemscore.DEClash>
0.0465

> <Gold.Chemscore.DEInternal>
0.0729

> <Gold.Chemscore.Rot>
1.7872

> <Gold.Chemscore.Internal.Correction>
   9.000000E+99

> <Gold.Chemscore.Hbonds>
donor molecule, donor type, donor heavy atom, donor atom, acceptor molecule, acceptor atom, score
      P1  H  7997  8010       L1     1  0.80

> <Gold.Chemscore.Hbond.Weighted>
-3.2054

> <Gold.Chemscore.Metal.Weighted>
-0.0000

> <Gold.Chemscore.Lipo.Weighted>
-11.2255

> <Gold.Chemscore.Internal_Hbond.Weighted>
0.0000

> <Gold.Chemscore.DEClash.Weighted>
0.0465

> <Gold.Chemscore.DEInternal.Weighted>
0.0729

> <Gold.Chemscore.Rot.Weighted>
4.5751

> <Gold.Chemscore.Internal.Correction.Weighted>
   9.000000E+99

> <Gold.Protein.RotatedTorsions>
[ 6907 6896 6895 6894 ] final   56.75 input  -60.11 | X-H torsion
[ 7974 7965 7964 7962 ] final -135.16 input  175.53 | X-H torsion
[ 8008 7997 7996 7995 ] final   57.34 input   59.86 | X-H torsion
[ 10167 10162 10161 10158 ] final   88.11 input  -65.29 | X-H torsion
[ 10718 10713 10712 10709 ] final -177.41 input   66.30 | X-H torsion
[ 10763 10752 10751 10750 ] final   -1.58 input  -60.55 | X-H torsion
[ 11005 11000 10999 10996 ] final  -59.94 input  -57.11 | X-H torsion

> <Gold.Protein.ActiveResidues>
 VAL166  LYS551  ARG553  GLY616  TRP617  ASP618  TYR619  PRO620  LYS621  CYS622 
 ASP623  PHE694  ASN695  SER759  ASP760  ASP761  ALA762  ILE779  LEU786  VAL792 
 PHE793  MET794  SER795  GLU796  ALA797  LYS798  CYS799  TRP800  GLU811  SER814 

> <Gold.Protein.RotatedAtoms>
  152.3666  134.6795  160.0189 H   0  0  0  0  0  0  0  0  0  0  0  0  # atno 6907 bound_to 6896
  151.7101  133.3307  159.3296 H   0  0  0  0  0  0  0  0  0  0  0  0  # atno 6908 bound_to 6896
  150.7643  134.6474  159.6314 H   0  0  0  0  0  0  0  0  0  0  0  0  # atno 6909 bound_to 6896
  144.9038  140.6806  143.5068 H   0  0  0  0  0  0  0  0  0  0  0  0  # atno 7974 bound_to 7965
  155.5321  140.3482  155.4428 H   0  0  0  0  0  0  0  0  0  0  0  0  # atno 8008 bound_to 7997
  156.0711  140.1363  156.9854 H   0  0  0  0  0  0  0  0  0  0  0  0  # atno 8009 bound_to 7997
  154.4528  140.0965  156.6645 H   0  0  0  0  0  0  0  0  0  0  0  0  # atno 8010 bound_to 7997
  139.8705  144.6495  150.8954 H   0  0  0  0  0  0  0  0  0  0  0  0  # atno 10167 bound_to 10162
  156.8291  130.9647  151.3107 H   0  0  0  0  0  0  0  0  0  0  0  0  # atno 10718 bound_to 10713
  153.3467  135.6983  153.6822 H   0  0  0  0  0  0  0  0  0  0  0  0  # atno 10763 bound_to 10752
  153.5565  135.3543  155.2782 H   0  0  0  0  0  0  0  0  0  0  0  0  # atno 10764 bound_to 10752
  154.8646  135.4239  154.2693 H   0  0  0  0  0  0  0  0  0  0  0  0  # atno 10765 bound_to 10752
  141.1268  133.6619  156.5148 H   0  0  0  0  0  0  0  0  0  0  0  0  # atno 11005 bound_to 11000
  145.3570  139.1691  143.4404 LP  0  0  0  0  0  0  0  0  0  0  0  0  # atno 17320 bound_to 7965
  146.3123  140.3628  142.8666 LP  0  0  0  0  0  0  0  0  0  0  0  0  # atno 17321 bound_to 7965
  140.7761  143.3667  151.1725 LP  0  0  0  0  0  0  0  0  0  0  0  0  # atno 17342 bound_to 10162
  139.7288  143.9106  152.3012 LP  0  0  0  0  0  0  0  0  0  0  0  0  # atno 17343 bound_to 10162
  157.6416  130.8810  149.9460 LP  0  0  0  0  0  0  0  0  0  0  0  0  # atno 17370 bound_to 10713
  156.0945  130.3660  150.0333 LP  0  0  0  0  0  0  0  0  0  0  0  0  # atno 17371 bound_to 10713
  140.4340  134.7076  157.4957 LP  0  0  0  0  0  0  0  0  0  0  0  0  # atno 17394 bound_to 11000
  140.0274  134.6456  155.9153 LP  0  0  0  0  0  0  0  0  0  0  0  0  # atno 17395 bound_to 11000

$$$$
