#       Name:                AV-unprocessed.smi:49
#       Creating user name   scv26
#       Creation time:       Thu Mar 26 16:33:53 2020


#       File generated by GOLD software.
#

@<TRIPOS>MOLECULE
AV-unprocessed.smi:49
    32    33     1
SMALL
NO_CHARGES


@<TRIPOS>ATOM
      1 ****        -4.1824   1.5163   0.9489 C.3            1 S1                 0.0000
      2 ****        -3.6539   0.1043   0.6739 C.3            1 S1                 0.0000
      3 ****        -2.1624   0.0502   0.6210 C.2            1 S1                 0.0000
      4 ****        -1.4225   0.3463  -0.4421 N.2            1 S1                 0.0000
      5 ****        -0.1693   0.1616   0.0730 C.2            1 S1                 0.0000
      6 ****         1.0655   0.3228  -0.7612 C.3            1 S1                 0.0000
      7 ****         1.5527  -1.0204  -1.3391 C.3            1 S1                 0.0000
      8 ****         2.8970  -1.2578  -0.6567 C.3            1 S1                 0.0000
      9 ****         3.7936  -2.0040  -1.4516 O.3            1 S1                 0.0000
     10 ****         3.3904   0.1599  -0.3998 C.3            1 S1                 0.0000
     11 ****         2.1941   0.8949  -0.0167 N.3            1 S1                 0.0000
     12 ****        -0.1167  -0.2378   1.3450 N.2            1 S1                 0.0000
     13 ****        -1.4231  -0.2886   1.6789 N.pl3          1 S1                 0.0000
     14 ****         0.8225   0.9822  -1.5954 H              1 S1                 0.0000
     15 ****         2.7425  -1.7712   0.2938 H              1 S1                 0.0000
     16 ****        -1.7480  -0.5535   2.5977 H              1 S1                 0.0000
     17 ****        -5.2720   1.5236   0.9816 H              1 S1                 0.0000
     18 ****        -3.8676   2.2130   0.1713 H              1 S1                 0.0000
     19 ****        -3.8174   1.8932   1.9047 H              1 S1                 0.0000
     20 ****        -4.0084  -0.5821   1.4437 H              1 S1                 0.0000
     21 ****        -4.0502  -0.2607  -0.2744 H              1 S1                 0.0000
     22 ****         0.8552  -1.8446  -1.1827 H              1 S1                 0.0000
     23 ****         1.6926  -0.9123  -2.4157 H              1 S1                 0.0000
     24 ****         4.6078  -2.0943  -0.9803 H              1 S1                 0.0000
     25 ****         4.1620   0.2057   0.3691 H              1 S1                 0.0000
     26 ****         3.8036   0.5835  -1.3165 H              1 S1                 0.0000
     27 ****         2.3146   1.8702  -0.2697 H              1 S1                 0.0000
     28 ****        -1.7031   0.6256  -1.3604 LP             1 S1                 0.0000
     29 ****         3.9550  -1.5276  -2.3159 LP             1 S1                 0.0000
     30 ****         3.4085  -2.9082  -1.6363 LP             1 S1                 0.0000
     31 ****         2.0281   0.8308   0.9673 LP             1 S1                 0.0000
     32 ****         0.6844  -0.4459   1.9062 LP             1 S1                 0.0000
@<TRIPOS>BOND
    1    1    2 1     
    2    1   17 1     
    3    1   18 1     
    4    1   19 1     
    5    2    3 1     
    6    2   20 1     
    7    2   21 1     
    8    3   13 1     
    9    3    4 2     
   10    4    5 1     
   11    5    6 1     
   12    5   12 2     
   13    6   14 1     
   14    6   11 1     
   15    6    7 1     
   16    7    8 1     
   17    7   22 1     
   18    7   23 1     
   19    8   15 1     
   20    8    9 1     
   21    8   10 1     
   22    9   24 1     
   23   10   11 1     
   24   10   25 1     
   25   10   26 1     
   26   11   27 1     
   27   12   13 1     
   28   13   16 1     
   29    4   28 1     
   30    9   29 1     
   31    9   30 1     
   32   11   31 1     
   33   12   32 1     
@<TRIPOS>SUBSTRUCTURE
      1 S1             1
@<TRIPOS>SET
LONE_PAIRS      STATIC     ATOMS    <user>   **** ""
5 28 29 30 31 32
DONOR_HYDROGENS      STATIC     ATOMS    <user>   **** ""
3 24 27 16
ATOM$BLUE        STATIC     ATOMS    COLORGROUP SYSTEM
5 28 29 30 31 32
ATOM$RED        STATIC     ATOMS    COLORGROUP SYSTEM
3 24 27 16
