AV-unprocessed.smi:54|AV-procd|sdf|536|dock2
  -GOLD-   2262016413D 1   1.00000     0.00000
 Structure written by MMmdl.
 44 46  0  0  0  0  0  0  0  0  1 V2000
  145.1397  135.8065  161.9015 C   0  0  0  0  0  0  0  0  0  0  0  0
  146.5050  135.1253  161.7159 C   0  0  0  0  0  0  0  0  0  0  0  0
  147.2516  134.9972  163.0538 C   0  0  0  0  0  0  0  0  0  0  0  0
  147.3514  135.8898  160.6917 C   0  0  0  0  0  0  0  0  0  0  0  0
  147.6414  137.0774  160.8411 O   0  0  0  0  0  0  0  0  0  0  0  0
  147.7769  135.1186  159.5372 N   0  0  0  0  0  0  0  0  0  0  0  0
  148.5194  135.5465  158.4896 C   0  0  0  0  0  0  0  0  0  0  0  0
  148.7965  134.7892  157.4374 N   0  0  0  0  0  0  0  0  0  0  0  0
  149.5583  135.4022  156.4822 C   0  0  0  0  0  0  0  0  0  0  0  0
  150.0419  136.6933  156.5167 C   0  0  0  0  0  0  0  0  0  0  0  0
  150.7798  136.9591  155.3681 N   0  0  0  0  0  0  0  0  0  0  0  0
  150.7224  135.8464  154.6901 C   0  0  0  0  0  0  0  0  0  0  0  0
  149.9961  134.8506  155.2992 N   0  0  0  0  0  0  0  0  0  0  0  0
  149.7186  133.4593  154.8328 C   0  0  1  0  0  0  0  0  0  0  0  0
  148.9282  132.8158  155.7754 O   0  0  0  0  0  0  0  0  0  0  0  0
  148.2309  131.7466  155.1436 C   0  0  1  0  0  0  0  0  0  0  0  0
  146.8266  131.6613  155.7605 C   0  0  0  0  0  0  0  0  0  0  0  0
  146.0609  130.6748  155.1016 O   0  0  0  0  0  0  0  0  0  0  0  0
  148.2333  132.0664  153.6320 C   0  0  2  0  0  0  0  0  0  0  0  0
  148.9918  131.0868  152.9493 O   0  0  0  0  0  0  0  0  0  0  0  0
  148.9242  133.4207  153.5255 C   0  0  1  0  0  0  0  0  0  0  0  0
  147.9753  134.4680  153.4250 O   0  0  0  0  0  0  0  0  0  0  0  0
  149.7439  137.5279  157.6448 C   0  0  0  0  0  0  0  0  0  0  0  0
  150.0840  138.6924  157.8424 O   0  0  0  0  0  0  0  0  0  0  0  0
  148.9634  136.8644  158.6008 N   0  0  0  0  0  0  0  0  0  0  0  0
  150.6917  132.9707  154.7609 H   0  0  0  0  0  0  0  0  0  0  0  0
  148.7816  130.8273  155.3524 H   0  0  0  0  0  0  0  0  0  0  0  0
  147.2313  132.0829  153.2002 H   0  0  0  0  0  0  0  0  0  0  0  0
  149.6048  133.4916  152.6754 H   0  0  0  0  0  0  0  0  0  0  0  0
  144.6093  135.8954  160.9526 H   0  0  0  0  0  0  0  0  0  0  0  0
  145.2443  136.8086  162.3198 H   0  0  0  0  0  0  0  0  0  0  0  0
  144.5060  135.2311  162.5768 H   0  0  0  0  0  0  0  0  0  0  0  0
  146.3317  134.1195  161.3307 H   0  0  0  0  0  0  0  0  0  0  0  0
  148.2232  134.5195  162.9218 H   0  0  0  0  0  0  0  0  0  0  0  0
  146.6831  134.3916  163.7601 H   0  0  0  0  0  0  0  0  0  0  0  0
  147.4194  135.9712  163.5157 H   0  0  0  0  0  0  0  0  0  0  0  0
  147.4604  134.1610  159.5058 H   0  0  0  0  0  0  0  0  0  0  0  0
  151.2095  135.7243  153.7338 H   0  0  0  0  0  0  0  0  0  0  0  0
  146.8949  131.3919  156.8148 H   0  0  0  0  0  0  0  0  0  0  0  0
  146.3169  132.6236  155.7052 H   0  0  0  0  0  0  0  0  0  0  0  0
  145.2523  130.5554  155.5760 H   0  0  0  0  0  0  0  0  0  0  0  0
  149.0187  131.3147  152.0324 H   0  0  0  0  0  0  0  0  0  0  0  0
  148.2034  135.0069  152.6834 H   0  0  0  0  0  0  0  0  0  0  0  0
  148.7164  137.3917  159.4250 H   0  0  0  0  0  0  0  0  0  0  0  0
  1  2  1  0  0  0  0
  1 30  1  0  0  0  0
  1 31  1  0  0  0  0
  1 32  1  0  0  0  0
  2  3  1  0  0  0  0
  2  4  1  0  0  0  0
  2 33  1  0  0  0  0
  3 34  1  0  0  0  0
  3 35  1  0  0  0  0
  3 36  1  0  0  0  0
  4  5  2  0  0  0  0
  4  6  1  0  0  0  0
  6 37  1  0  0  0  0
  6  7  1  0  0  0  0
  7 25  1  0  0  0  0
  7  8  2  0  0  0  0
  8  9  1  0  0  0  0
  9 13  1  0  0  0  0
  9 10  2  0  0  0  0
 10 11  1  0  0  0  0
 10 23  1  0  0  0  0
 11 12  2  0  0  0  0
 12 13  1  0  0  0  0
 12 38  1  0  0  0  0
 13 14  1  0  0  0  0
 14 26  1  0  0  0  0
 14 21  1  0  0  0  0
 14 15  1  0  0  0  0
 15 16  1  0  0  0  0
 16 27  1  0  0  0  0
 16 17  1  0  0  0  0
 16 19  1  0  0  0  0
 17 18  1  0  0  0  0
 17 39  1  0  0  0  0
 17 40  1  0  0  0  0
 18 41  1  0  0  0  0
 19 28  1  0  0  0  0
 19 20  1  0  0  0  0
 19 21  1  0  0  0  0
 20 42  1  0  0  0  0
 21 29  1  0  0  0  0
 21 22  1  0  0  0  0
 22 43  1  0  0  0  0
 23 24  2  0  0  0  0
 23 25  1  0  0  0  0
 25 44  1  0  0  0  0
M  END
> <s_m_source_file>
AV-unprocessed.smi

> <i_m_source_file_index>
54

> <i_lp_mmshare_version>
43012

> <i_f3d_flags>
0

> <s_epik_input>
W0NIM11bQ0hdKFtDSDNdKUMoPU8pW05IXWMobjEpW25IXWMoPU8pYyhjMTIpbltjSF1uMltDQEBIXTNPW0NASF0oW0NIMl1bT0hdKVtDQEBIXShbT0hdKVtDQEhdM1tPSF0=

> <s_epik_cmdline>
J2VwaWtfcHl0aG9uJywgJy1waCcsICc3LjAnLCAnLXRuJywgJzgnLCAnLW1hJywgJzIwMCcsICctbWV0YWxfYmluZGluZycsICctaW1hZScsICc8aW5maWxlLm1hZT4nLCAnLW9tYWUnLCAnPG91dGZpbGUubWFlPic=

> <r_lp_tautomer_probability>
0.85571

> <r_epik_Ionization_Penalty>
0.0316551

> <r_epik_Ionization_Penalty_Charging>
0.0316043

> <r_epik_Ionization_Penalty_Neutral>
5.07097e-05

> <r_epik_State_Penalty>
3.15494e-07

> <r_epik_Charging_Adjusted_Penalty>
0.0316047

> <i_epik_Tot_Q>
0

> <i_epik_Tot_abs_Q>
0

> <r_epik_Metal_State_Penalty>
0.421206

> <b_epik_Metal_Only>
0

> <s_epik_Chemistry_Notes>
This compound contains an acetal/aminal-like group ( X-CH(R)-Y where X, Y are N, S, or O) that may be acid/base labile, releasing an aldehyde.

> <s_lp_Force_Field>
OPLS_2005

> <r_lp_Energy>
42.5501

> <b_lp_Chiralities_Consistent>
1

> <s_lp_Variant>
AV-unprocessed.smi:54-8

> <Gold.Version>
5.8.1

> <Gold.Id.Protein>
6NUR|6NUR_protein|mol2

> <Gold.PLP.Fitness>
44.6131

> <Gold.PLP.PLP>
-29.9403

> <Gold.PLP.part.hbond>
-5.2992

> <Gold.PLP.part.metal>
0.0000

> <Gold.PLP.part.buried>
-2.8902

> <Gold.PLP.part.nonpolar>
-22.1844

> <Gold.PLP.part.repulsive>
0.3148

> <Gold.PLP.ligand.clash>
0.0000

> <Gold.PLP.ligand.torsion>
0.0453

> <Gold.PLP.Chemscore.Hbond>
3.9077

> <Gold.PLP.Chemscore.CHOScore>
1.0000

> <Gold.PLP.Chemscore.Metal>
0.0000

> <Gold.Chemscore.Hbonds>
donor molecule, donor type, donor heavy atom, donor atom, acceptor molecule, acceptor atom, score
      L1  H    18    41       P1 10956  0.14
      L1  H    20    42       P1 10747  1.00
      L1  H    22    43       P1  7948  1.00
      P1  H  6931  6943       L1     5  0.73
      P1  H  6934  6947       L1     5  0.96
      L1  C    12    38       P1  7949  1.00

> <Gold.PLP.Chemscore.Internal.Correction>
0.0403

> <Gold.Rescore>
     Score         DG    S(hbond)    S(metal)    S(lipo)     H(rot)  DE(clash)    DE(int)     intcor
     10.28     -12.08       3.64        0.00      41.11       4.05       0.01       1.79       ----

> <Gold.Chemscore.Fitness>
10.2786

> <Gold.Chemscore.DG>
-12.0804

> <Gold.Chemscore.ZeroCoef>
-5.4800

> <Gold.Chemscore.Hbond>
3.6397

> <Gold.Chemscore.Metal>
0.0000

> <Gold.Chemscore.Lipo>
41.1109

> <Gold.Chemscore.Internal_Hbond>
0.0000

> <Gold.Chemscore.DEClash>
0.0073

> <Gold.Chemscore.DEInternal>
1.7945

> <Gold.Chemscore.Rot>
4.0493

> <Gold.Chemscore.Internal.Correction>
   9.000000E+99

> <Gold.Chemscore.Hbonds>
donor molecule, donor type, donor heavy atom, donor atom, acceptor molecule, acceptor atom, score
      L1  H    18    41       P1 10956  0.06
      L1  H    20    42       P1 10747  0.62
      L1  H    22    43       P1  7948  0.81
      P1  H  6931  6943       L1     5  0.70
      P1  H  6934  6947       L1     5  0.89

> <Gold.Chemscore.Hbond.Weighted>
-12.1567

> <Gold.Chemscore.Metal.Weighted>
-0.0000

> <Gold.Chemscore.Lipo.Weighted>
-4.8100

> <Gold.Chemscore.Internal_Hbond.Weighted>
0.0000

> <Gold.Chemscore.DEClash.Weighted>
0.0073

> <Gold.Chemscore.DEInternal.Weighted>
1.7945

> <Gold.Chemscore.Rot.Weighted>
10.3662

> <Gold.Chemscore.Internal.Correction.Weighted>
   9.000000E+99

> <Gold.Protein.RotatedTorsions>
[ 6907 6896 6895 6894 ] final  -58.96 input  -60.11 | X-H torsion
[ 7974 7965 7964 7962 ] final  -85.38 input  175.53 | X-H torsion
[ 8008 7997 7996 7995 ] final   77.27 input   59.86 | X-H torsion
[ 10167 10162 10161 10158 ] final  -15.80 input  -65.29 | X-H torsion
[ 10718 10713 10712 10709 ] final  -69.68 input   66.30 | X-H torsion
[ 10763 10752 10751 10750 ] final  -81.07 input  -60.55 | X-H torsion
[ 11005 11000 10999 10996 ] final  164.95 input  -57.11 | X-H torsion

> <Gold.Protein.ActiveResidues>
 VAL166  LYS551  ARG553  GLY616  TRP617  ASP618  TYR619  PRO620  LYS621  CYS622 
 ASP623  PHE694  ASN695  SER759  ASP760  ASP761  ALA762  ILE779  LEU786  VAL792 
 PHE793  MET794  SER795  GLU796  ALA797  LYS798  CYS799  TRP800  GLU811  SER814 

> <Gold.Protein.RotatedAtoms>
  150.7966  134.7030  159.6560 H   0  0  0  0  0  0  0  0  0  0  0  0  # atno 6907 bound_to 6896
  152.4079  134.6172  160.0051 H   0  0  0  0  0  0  0  0  0  0  0  0  # atno 6908 bound_to 6896
  151.6423  133.3288  159.3169 H   0  0  0  0  0  0  0  0  0  0  0  0  # atno 6909 bound_to 6896
  145.4941  140.9551  143.1796 H   0  0  0  0  0  0  0  0  0  0  0  0  # atno 7974 bound_to 7965
  155.8392  140.3463  155.5621 H   0  0  0  0  0  0  0  0  0  0  0  0  # atno 8008 bound_to 7997
  155.8159  140.0905  157.1897 H   0  0  0  0  0  0  0  0  0  0  0  0  # atno 8009 bound_to 7997
  154.4005  140.1439  156.3429 H   0  0  0  0  0  0  0  0  0  0  0  0  # atno 8010 bound_to 7997
  140.7224  143.5181  150.9666 H   0  0  0  0  0  0  0  0  0  0  0  0  # atno 10167 bound_to 10162
  156.0444  130.4317  150.2184 H   0  0  0  0  0  0  0  0  0  0  0  0  # atno 10718 bound_to 10713
  154.5590  135.5639  153.6990 H   0  0  0  0  0  0  0  0  0  0  0  0  # atno 10763 bound_to 10752
  153.0012  135.6269  154.2271 H   0  0  0  0  0  0  0  0  0  0  0  0  # atno 10764 bound_to 10752
  154.2208  135.2870  155.2905 H   0  0  0  0  0  0  0  0  0  0  0  0  # atno 10765 bound_to 10752
  140.2512  134.7975  157.3503 H   0  0  0  0  0  0  0  0  0  0  0  0  # atno 11005 bound_to 11000
  144.7817  139.6512  143.7151 LP  0  0  0  0  0  0  0  0  0  0  0  0  # atno 17320 bound_to 7965
  146.2266  139.5735  142.9583 LP  0  0  0  0  0  0  0  0  0  0  0  0  # atno 17321 bound_to 7965
  139.8898  143.6968  152.3147 LP  0  0  0  0  0  0  0  0  0  0  0  0  # atno 17342 bound_to 10162
  139.7279  144.7589  151.0849 LP  0  0  0  0  0  0  0  0  0  0  0  0  # atno 17343 bound_to 10162
  157.0275  130.9997  151.3322 LP  0  0  0  0  0  0  0  0  0  0  0  0  # atno 17370 bound_to 10713
  157.5301  130.8053  149.7907 LP  0  0  0  0  0  0  0  0  0  0  0  0  # atno 17371 bound_to 10713
  140.1556  134.4793  155.7930 LP  0  0  0  0  0  0  0  0  0  0  0  0  # atno 17394 bound_to 11000
  141.2201  133.6880  156.7455 LP  0  0  0  0  0  0  0  0  0  0  0  0  # atno 17395 bound_to 11000

$$$$
