AV-unprocessed.smi:144|AV-procd|sdf|1195|dock1
  -GOLD-   2262018353D 1   1.00000     0.00000
 Structure written by MMmdl.
 46 48  0  0  0  0  0  0  0  0  1 V2000
  148.1085  134.8994  154.5117 O   0  0  0  0  0  0  0  0  0  0  0  0
  148.9747  134.0314  154.6043 C   0  0  0  0  0  0  0  0  0  0  0  0
  150.2452  134.3477  155.4161 C   0  0  0  0  0  0  0  0  0  0  0  0
  150.2166  135.6363  156.1477 N   0  0  0  0  0  0  0  0  0  0  0  0
  149.7542  135.6501  157.4872 C   0  0  0  0  0  0  0  0  0  0  0  0
  149.3776  134.6177  158.0432 O   0  0  0  0  0  0  0  0  0  0  0  0
  149.7731  136.9510  158.1468 C   0  0  0  0  0  0  0  0  0  0  0  0
  149.3414  137.0599  159.4146 F   0  0  0  0  0  0  0  0  0  0  0  0
  150.2239  138.0492  157.5063 C   0  0  0  0  0  0  0  0  0  0  0  0
  150.6896  138.0174  156.2041 N   0  0  0  0  0  0  0  0  0  0  0  0
  151.2159  139.2543  155.5077 C   0  0  2  0  0  0  0  0  0  0  0  0
  151.1477  140.4722  156.4476 C   0  0  0  0  0  0  0  0  0  0  0  0
  150.4667  141.5170  155.5867 C   0  0  0  0  0  0  0  0  0  0  0  0
  149.5853  140.6584  154.6922 C   0  0  0  0  0  0  0  0  0  0  0  0
  150.4211  139.5475  154.3939 O   0  0  0  0  0  0  0  0  0  0  0  0
  150.6880  136.7989  155.4922 C   0  0  0  0  0  0  0  0  0  0  0  0
  151.1047  136.7483  154.3328 O   0  0  0  0  0  0  0  0  0  0  0  0
  148.8961  132.8184  154.0218 N   0  0  0  0  0  0  0  0  0  0  0  0
  147.8748  132.2845  153.1927 C   0  0  0  0  0  0  0  0  0  0  0  0
  147.8227  130.8816  153.0698 C   0  0  0  0  0  0  0  0  0  0  0  0
  146.8380  130.2644  152.2697 C   0  0  0  0  0  0  0  0  0  0  0  0
  146.7857  128.7505  152.1307 C   0  0  0  0  0  0  0  0  0  0  0  0
  145.5237  128.3426  152.2567 F   0  0  0  0  0  0  0  0  0  0  0  0
  147.2402  128.3802  150.9334 F   0  0  0  0  0  0  0  0  0  0  0  0
  147.5255  128.1477  153.0625 F   0  0  0  0  0  0  0  0  0  0  0  0
  145.8836  131.0641  151.6076 C   0  0  0  0  0  0  0  0  0  0  0  0
  145.9054  132.4689  151.7418 C   0  0  0  0  0  0  0  0  0  0  0  0
  144.8727  133.3325  151.0323 C   0  0  0  0  0  0  0  0  0  0  0  0
  144.1283  133.9924  151.9200 F   0  0  0  0  0  0  0  0  0  0  0  0
  145.4992  134.2156  150.2558 F   0  0  0  0  0  0  0  0  0  0  0  0
  144.0603  132.5960  150.2735 F   0  0  0  0  0  0  0  0  0  0  0  0
  146.9041  133.0750  152.5334 C   0  0  0  0  0  0  0  0  0  0  0  0
  150.4183  133.5218  156.1079 H   0  0  0  0  0  0  0  0  0  0  0  0
  151.0984  134.2988  154.7379 H   0  0  0  0  0  0  0  0  0  0  0  0
  150.2130  138.9806  158.0513 H   0  0  0  0  0  0  0  0  0  0  0  0
  152.2239  139.0033  155.1723 H   0  0  0  0  0  0  0  0  0  0  0  0
  150.5351  140.2416  157.3209 H   0  0  0  0  0  0  0  0  0  0  0  0
  152.1430  140.7677  156.7801 H   0  0  0  0  0  0  0  0  0  0  0  0
  149.9037  142.2490  156.1663 H   0  0  0  0  0  0  0  0  0  0  0  0
  151.2050  142.0486  154.9850 H   0  0  0  0  0  0  0  0  0  0  0  0
  148.6955  140.3268  155.2290 H   0  0  0  0  0  0  0  0  0  0  0  0
  149.2691  141.1768  153.7867 H   0  0  0  0  0  0  0  0  0  0  0  0
  149.7162  132.2380  154.1206 H   0  0  0  0  0  0  0  0  0  0  0  0
  148.5519  130.2772  153.5899 H   0  0  0  0  0  0  0  0  0  0  0  0
  145.1278  130.5908  150.9985 H   0  0  0  0  0  0  0  0  0  0  0  0
  146.8995  134.1493  152.6335 H   0  0  0  0  0  0  0  0  0  0  0  0
  1  2  2  0  0  0  0
  2  3  1  0  0  0  0
  2 18  1  0  0  0  0
  3  4  1  0  0  0  0
  3 33  1  0  0  0  0
  3 34  1  0  0  0  0
  4 16  1  0  0  0  0
  4  5  1  0  0  0  0
  5  6  2  0  0  0  0
  5  7  1  0  0  0  0
  7  8  1  0  0  0  0
  7  9  2  0  0  0  0
  9 10  1  0  0  0  0
  9 35  1  0  0  0  0
 10 11  1  0  0  0  0
 10 16  1  0  0  0  0
 11 15  1  0  0  0  0
 11 12  1  0  0  0  0
 11 36  1  0  0  0  0
 12 13  1  0  0  0  0
 12 37  1  0  0  0  0
 12 38  1  0  0  0  0
 13 14  1  0  0  0  0
 13 39  1  0  0  0  0
 13 40  1  0  0  0  0
 14 15  1  0  0  0  0
 14 41  1  0  0  0  0
 14 42  1  0  0  0  0
 16 17  2  0  0  0  0
 18 19  1  0  0  0  0
 18 43  1  0  0  0  0
 19 32  1  0  0  0  0
 19 20  2  0  0  0  0
 20 21  1  0  0  0  0
 20 44  1  0  0  0  0
 21 22  1  0  0  0  0
 21 26  2  0  0  0  0
 22 23  1  0  0  0  0
 22 24  1  0  0  0  0
 22 25  1  0  0  0  0
 26 27  1  0  0  0  0
 26 45  1  0  0  0  0
 27 28  1  0  0  0  0
 27 32  2  0  0  0  0
 28 29  1  0  0  0  0
 28 30  1  0  0  0  0
 28 31  1  0  0  0  0
 32 46  1  0  0  0  0
M  END
> <s_m_source_file>
AV-unprocessed.smi

> <i_m_source_file_index>
144

> <i_lp_mmshare_version>
43012

> <i_f3d_flags>
0

> <s_epik_input>
RkMoRikoRiljKFtjSF0xKVtjSF1jKEMoRikoRilGKVtjSF1jMVtOSF1DKD1PKVtDSDJdbjJjKD1PKWMoRilbY0hdbihjMj1PKVtDQEBIXTNbQ0gyXVtDSDJdW0NIMl1PMw==

> <s_epik_cmdline>
J2VwaWtfcHl0aG9uJywgJy1waCcsICc3LjAnLCAnLXRuJywgJzgnLCAnLW1hJywgJzIwMCcsICctbWV0YWxfYmluZGluZycsICctaW1hZScsICc8aW5maWxlLm1hZT4nLCAnLW9tYWUnLCAnPG91dGZpbGUubWFlPic=

> <r_lp_tautomer_probability>
1

> <r_epik_Ionization_Penalty>
3.68082e-06

> <r_epik_Ionization_Penalty_Charging>
3.88729e-08

> <r_epik_Ionization_Penalty_Neutral>
3.64194e-06

> <r_epik_State_Penalty>
-0

> <r_epik_Charging_Adjusted_Penalty>
3.88729e-08

> <i_epik_Tot_Q>
0

> <i_epik_Tot_abs_Q>
0

> <r_epik_Metal_State_Penalty>
-0

> <b_epik_Metal_Only>
0

> <s_epik_Chemistry_Notes>
This compound contains an acetal/aminal-like group ( X-CH(R)-Y where X, Y are N, S, or O) that may be acid/base labile, releasing an aldehyde.

> <s_lp_Force_Field>
OPLS_2005

> <r_lp_Energy>
34.4133

> <b_lp_Chiralities_Consistent>
1

> <s_lp_Variant>
AV-unprocessed.smi:144-1

> <Gold.Version>
5.8.1

> <Gold.Id.Protein>
6NUR|6NUR_protein|mol2

> <Gold.PLP.Fitness>
56.6759

> <Gold.PLP.PLP>
-51.7802

> <Gold.PLP.part.hbond>
-2.6115

> <Gold.PLP.part.metal>
0.0000

> <Gold.PLP.part.buried>
-3.5700

> <Gold.PLP.part.nonpolar>
-46.7349

> <Gold.PLP.part.repulsive>
1.4988

> <Gold.PLP.ligand.clash>
0.7381

> <Gold.PLP.ligand.torsion>
1.0991

> <Gold.PLP.Chemscore.Hbond>
2.0913

> <Gold.PLP.Chemscore.CHOScore>
0.0000

> <Gold.PLP.Chemscore.Metal>
0.0000

> <Gold.Chemscore.Hbonds>
donor molecule, donor type, donor heavy atom, donor atom, acceptor molecule, acceptor atom, score
      P1  H  6896  6907       L1     6  1.00
      P1  H  7989  7998       L1    15  0.29
      P1  H 10752 10763       L1    17  0.75

> <Gold.PLP.Chemscore.Internal.Correction>
1.5583

> <Gold.Rescore>
     Score         DG    S(hbond)    S(metal)    S(lipo)     H(rot)  DE(clash)    DE(int)     intcor
     11.65     -15.29       1.53        0.00      80.23       1.83       0.15       3.48       ----

> <Gold.Chemscore.Fitness>
11.6498

> <Gold.Chemscore.DG>
-15.2857

> <Gold.Chemscore.ZeroCoef>
-5.4800

> <Gold.Chemscore.Hbond>
1.5300

> <Gold.Chemscore.Metal>
0.0000

> <Gold.Chemscore.Lipo>
80.2271

> <Gold.Chemscore.Internal_Hbond>
0.0000

> <Gold.Chemscore.DEClash>
0.1544

> <Gold.Chemscore.DEInternal>
3.4815

> <Gold.Chemscore.Rot>
1.8325

> <Gold.Chemscore.Internal.Correction>
   9.000000E+99

> <Gold.Chemscore.Hbonds>
donor molecule, donor type, donor heavy atom, donor atom, acceptor molecule, acceptor atom, score
      P1  H  6896  6907       L1     6  0.55
      P1  H 10752 10763       L1    17  0.45

> <Gold.Chemscore.Hbond.Weighted>
-5.1102

> <Gold.Chemscore.Metal.Weighted>
-0.0000

> <Gold.Chemscore.Lipo.Weighted>
-9.3866

> <Gold.Chemscore.Internal_Hbond.Weighted>
0.0000

> <Gold.Chemscore.DEClash.Weighted>
0.1544

> <Gold.Chemscore.DEInternal.Weighted>
3.4815

> <Gold.Chemscore.Rot.Weighted>
4.6911

> <Gold.Chemscore.Internal.Correction.Weighted>
   9.000000E+99

> <Gold.Protein.RotatedTorsions>
[ 6907 6896 6895 6894 ] final  -90.13 input  -60.11 | X-H torsion
[ 7974 7965 7964 7962 ] final  -89.11 input  175.53 | X-H torsion
[ 8008 7997 7996 7995 ] final   19.77 input   59.86 | X-H torsion
[ 10167 10162 10161 10158 ] final  -98.35 input  -65.29 | X-H torsion
[ 10718 10713 10712 10709 ] final   26.13 input   66.30 | X-H torsion
[ 10763 10752 10751 10750 ] final   47.06 input  -60.55 | X-H torsion
[ 11005 11000 10999 10996 ] final  -51.48 input  -57.11 | X-H torsion

> <Gold.Protein.ActiveResidues>
 VAL166  LYS551  ARG553  GLY616  TRP617  ASP618  TYR619  PRO620  LYS621  CYS622 
 ASP623  PHE694  ASN695  SER759  ASP760  ASP761  ALA762  ILE779  LEU786  VAL792 
 PHE793  MET794  SER795  GLU796  ALA797  LYS798  CYS799  TRP800  GLU811  SER814 

> <Gold.Protein.RotatedAtoms>
  150.6879  134.2480  159.4499 H   0  0  0  0  0  0  0  0  0  0  0  0  # atno 6907 bound_to 6896
  152.0420  134.9703  160.0583 H   0  0  0  0  0  0  0  0  0  0  0  0  # atno 6908 bound_to 6896
  152.1201  133.4314  159.4708 H   0  0  0  0  0  0  0  0  0  0  0  0  # atno 6909 bound_to 6896
  145.4442  140.9559  143.2058 H   0  0  0  0  0  0  0  0  0  0  0  0  # atno 7974 bound_to 7965
  154.9257  140.3033  155.5193 H   0  0  0  0  0  0  0  0  0  0  0  0  # atno 8008 bound_to 7997
  156.3007  140.2363  156.4248 H   0  0  0  0  0  0  0  0  0  0  0  0  # atno 8009 bound_to 7997
  154.8287  140.0419  157.1450 H   0  0  0  0  0  0  0  0  0  0  0  0  # atno 8010 bound_to 7997
  140.2739  143.3326  152.0507 H   0  0  0  0  0  0  0  0  0  0  0  0  # atno 10167 bound_to 10162
  157.2027  130.6897  149.6195 H   0  0  0  0  0  0  0  0  0  0  0  0  # atno 10718 bound_to 10713
  152.9804  135.5988  154.3701 H   0  0  0  0  0  0  0  0  0  0  0  0  # atno 10763 bound_to 10752
  154.3375  135.2768  155.2441 H   0  0  0  0  0  0  0  0  0  0  0  0  # atno 10764 bound_to 10752
  154.4538  135.5983  153.6264 H   0  0  0  0  0  0  0  0  0  0  0  0  # atno 10765 bound_to 10752
  141.0873  133.6640  156.3884 H   0  0  0  0  0  0  0  0  0  0  0  0  # atno 11005 bound_to 11000
  144.8102  139.5976  143.7033 LP  0  0  0  0  0  0  0  0  0  0  0  0  # atno 17320 bound_to 7965
  146.2540  139.6261  142.9408 LP  0  0  0  0  0  0  0  0  0  0  0  0  # atno 17321 bound_to 7965
  139.4981  144.6637  151.6405 LP  0  0  0  0  0  0  0  0  0  0  0  0  # atno 17342 bound_to 10162
  140.5867  143.9852  150.6300 LP  0  0  0  0  0  0  0  0  0  0  0  0  # atno 17343 bound_to 10162
  155.9698  130.4577  150.5972 LP  0  0  0  0  0  0  0  0  0  0  0  0  # atno 17370 bound_to 10713
  157.3750  131.0772  151.1525 LP  0  0  0  0  0  0  0  0  0  0  0  0  # atno 17371 bound_to 10713
  140.5333  134.6191  157.5357 LP  0  0  0  0  0  0  0  0  0  0  0  0  # atno 17394 bound_to 11000
  139.9693  134.7319  156.0073 LP  0  0  0  0  0  0  0  0  0  0  0  0  # atno 17395 bound_to 11000

$$$$
