AV-unprocessed.smi:1292|AV-procd|sdf|5396|dock5
  -GOLD-   22720 4553D 1   1.00000     0.00000
 Structure written by MMmdl.
 40 41  0  0  0  0  0  0  0  0  1 V2000
  146.4876  141.9548  157.9061 C   0  0  0  0  0  0  0  0  0  0  0  0
  147.2668  141.4305  156.6922 C   0  0  1  0  0  0  0  0  0  0  0  0
  146.7628  142.0623  155.3851 C   0  0  0  0  0  0  0  0  0  0  0  0
  147.5429  141.5051  154.1881 C   0  0  0  0  0  0  0  0  0  0  0  0
  149.0622  141.6714  154.3645 C   0  0  0  0  0  0  0  0  0  0  0  0
  149.5297  141.1827  155.6785 N   0  0  0  0  0  0  0  0  0  0  0  0
  150.5449  139.7778  155.8264 S   0  0  0  0  0  0  0  0  0  0  0  0
  149.8927  138.7904  156.7005 O   0  0  0  0  0  0  0  0  0  0  0  0
  151.0040  139.4128  154.4778 O   0  0  0  0  0  0  0  0  0  0  0  0
  151.8962  140.4559  156.6598 N   0  0  0  0  0  0  0  0  0  0  0  0
  151.7465  141.3189  157.8327 C   0  0  0  0  0  0  0  0  0  0  0  0
  152.6640  140.8485  158.9719 C   0  0  0  0  0  0  0  0  0  0  0  0
  152.6973  141.8223  160.1373 C   0  0  0  0  0  0  0  0  0  0  0  0
  152.0438  143.0706  160.0540 C   0  0  0  0  0  0  0  0  0  0  0  0
  152.0838  143.9250  161.1726 C   0  0  0  0  0  0  0  0  0  0  0  0
  152.7721  143.5010  162.3256 C   0  0  0  0  0  0  0  0  0  0  0  0
  153.3941  142.2368  162.3077 C   0  0  0  0  0  0  0  0  0  0  0  0
  153.3617  141.4096  161.2406 N   0  0  0  0  0  0  0  0  0  0  0  0
  148.7800  141.6757  156.8491 C   0  0  0  0  0  0  0  0  0  0  0  0
  146.6113  143.0319  158.0220 H   0  0  0  0  0  0  0  0  0  0  0  0
  146.8286  141.4789  158.8259 H   0  0  0  0  0  0  0  0  0  0  0  0
  145.4213  141.7504  157.8059 H   0  0  0  0  0  0  0  0  0  0  0  0
  147.0974  140.3549  156.6406 H   0  0  0  0  0  0  0  0  0  0  0  0
  145.6983  141.8652  155.2543 H   0  0  0  0  0  0  0  0  0  0  0  0
  146.8775  143.1464  155.4267 H   0  0  0  0  0  0  0  0  0  0  0  0
  147.2964  140.4565  154.0412 H   0  0  0  0  0  0  0  0  0  0  0  0
  147.2254  142.0122  153.2767 H   0  0  0  0  0  0  0  0  0  0  0  0
  149.5919  141.1683  153.5565 H   0  0  0  0  0  0  0  0  0  0  0  0
  149.3194  142.7282  154.2872 H   0  0  0  0  0  0  0  0  0  0  0  0
  152.7023  140.6564  156.0683 H   0  0  0  0  0  0  0  0  0  0  0  0
  151.9954  142.3423  157.5605 H   0  0  0  0  0  0  0  0  0  0  0  0
  150.7085  141.3101  158.1648 H   0  0  0  0  0  0  0  0  0  0  0  0
  152.3245  139.8783  159.3371 H   0  0  0  0  0  0  0  0  0  0  0  0
  153.6764  140.6923  158.5966 H   0  0  0  0  0  0  0  0  0  0  0  0
  151.5171  143.3640  159.1577 H   0  0  0  0  0  0  0  0  0  0  0  0
  151.5924  144.8865  161.1475 H   0  0  0  0  0  0  0  0  0  0  0  0
  152.8212  144.1290  163.2028 H   0  0  0  0  0  0  0  0  0  0  0  0
  153.9298  141.8793  163.1745 H   0  0  0  0  0  0  0  0  0  0  0  0
  148.9776  142.7423  156.9624 H   0  0  0  0  0  0  0  0  0  0  0  0
  149.1492  141.1941  157.7548 H   0  0  0  0  0  0  0  0  0  0  0  0
  1  2  1  0  0  0  0
  1 20  1  0  0  0  0
  1 21  1  0  0  0  0
  1 22  1  0  0  0  0
  2 19  1  0  0  0  0
  2  3  1  0  0  0  0
  2 23  1  0  0  0  0
  3  4  1  0  0  0  0
  3 24  1  0  0  0  0
  3 25  1  0  0  0  0
  4  5  1  0  0  0  0
  4 26  1  0  0  0  0
  4 27  1  0  0  0  0
  5  6  1  0  0  0  0
  5 28  1  0  0  0  0
  5 29  1  0  0  0  0
  6  7  1  0  0  0  0
  6 19  1  0  0  0  0
  7  8  2  0  0  0  0
  7  9  2  0  0  0  0
  7 10  1  0  0  0  0
 10 11  1  0  0  0  0
 10 30  1  0  0  0  0
 11 12  1  0  0  0  0
 11 31  1  0  0  0  0
 11 32  1  0  0  0  0
 12 13  1  0  0  0  0
 12 33  1  0  0  0  0
 12 34  1  0  0  0  0
 13 18  1  0  0  0  0
 13 14  2  0  0  0  0
 14 15  1  0  0  0  0
 14 35  1  0  0  0  0
 15 16  2  0  0  0  0
 15 36  1  0  0  0  0
 16 17  1  0  0  0  0
 16 37  1  0  0  0  0
 17 18  2  0  0  0  0
 17 38  1  0  0  0  0
 19 39  1  0  0  0  0
 19 40  1  0  0  0  0
M  END
> <s_m_source_file>
AV-unprocessed.smi

> <i_m_source_file_index>
1292

> <i_lp_mmshare_version>
43012

> <i_f3d_flags>
0

> <s_epik_input>
W0NIM11bQ0BASF0xW0NIMl1bQ0gyXVtDSDJdTihbQ0gyXTEpUyg9TykoPU8pW05IXVtDSDJdW0NIMl1jMltjSF1bY0hdW2NIXVtjSF1uMg==

> <s_epik_cmdline>
J2VwaWtfcHl0aG9uJywgJy1waCcsICc3LjAnLCAnLXRuJywgJzgnLCAnLW1hJywgJzIwMCcsICctbWV0YWxfYmluZGluZycsICctaW1hZScsICc8aW5maWxlLm1hZT4nLCAnLW9tYWUnLCAnPG91dGZpbGUubWFlPic=

> <r_epik_Ionization_Penalty>
0.0252758

> <r_epik_Ionization_Penalty_Charging>
0

> <r_epik_Ionization_Penalty_Neutral>
0.0252758

> <r_epik_State_Penalty>
0.0138562

> <r_epik_Charging_Adjusted_Penalty>
0.0138562

> <i_epik_Tot_Q>
0

> <i_epik_Tot_abs_Q>
0

> <r_epik_Metal_State_Penalty>
0.204365

> <b_epik_Metal_Only>
0

> <s_lp_Force_Field>
OPLS_2005

> <r_lp_Energy>
8.19125

> <b_lp_Chiralities_Consistent>
1

> <s_lp_Variant>
AV-unprocessed.smi:1292-2

> <Gold.Version>
5.8.1

> <Gold.Id.Protein>
6NUR|6NUR_protein|mol2

> <Gold.PLP.Fitness>
41.7687

> <Gold.PLP.PLP>
-39.2411

> <Gold.PLP.part.hbond>
-1.0000

> <Gold.PLP.part.metal>
0.0000

> <Gold.PLP.part.buried>
-3.6270

> <Gold.PLP.part.nonpolar>
-33.6774

> <Gold.PLP.part.repulsive>
0.2674

> <Gold.PLP.ligand.clash>
0.0000

> <Gold.PLP.ligand.torsion>
1.7341

> <Gold.PLP.Chemscore.Hbond>
1.0000

> <Gold.PLP.Chemscore.CHOScore>
0.0000

> <Gold.PLP.Chemscore.Metal>
0.0000

> <Gold.Chemscore.Hbonds>
donor molecule, donor type, donor heavy atom, donor atom, acceptor molecule, acceptor atom, score
      P1  H  7989  7998       L1     9  1.00

> <Gold.PLP.Chemscore.Internal.Correction>
2.9957

> <Gold.Rescore>
     Score         DG    S(hbond)    S(metal)    S(lipo)     H(rot)  DE(clash)    DE(int)     intcor
     15.17     -16.90       0.98        0.00      98.30       1.30       0.05       1.68       ----

> <Gold.Chemscore.Fitness>
15.1692

> <Gold.Chemscore.DG>
-16.9042

> <Gold.Chemscore.ZeroCoef>
-5.4800

> <Gold.Chemscore.Hbond>
0.9763

> <Gold.Chemscore.Metal>
0.0000

> <Gold.Chemscore.Lipo>
98.3025

> <Gold.Chemscore.Internal_Hbond>
0.0000

> <Gold.Chemscore.DEClash>
0.0506

> <Gold.Chemscore.DEInternal>
1.6843

> <Gold.Chemscore.Rot>
1.3039

> <Gold.Chemscore.Internal.Correction>
   9.000000E+99

> <Gold.Chemscore.Hbonds>
donor molecule, donor type, donor heavy atom, donor atom, acceptor molecule, acceptor atom, score
      P1  H  7989  7998       L1     9  0.88

> <Gold.Chemscore.Hbond.Weighted>
-3.2607

> <Gold.Chemscore.Metal.Weighted>
-0.0000

> <Gold.Chemscore.Lipo.Weighted>
-11.5014

> <Gold.Chemscore.Internal_Hbond.Weighted>
0.0000

> <Gold.Chemscore.DEClash.Weighted>
0.0506

> <Gold.Chemscore.DEInternal.Weighted>
1.6843

> <Gold.Chemscore.Rot.Weighted>
3.3379

> <Gold.Chemscore.Internal.Correction.Weighted>
   9.000000E+99

> <Gold.Protein.RotatedTorsions>
[ 6907 6896 6895 6894 ] final  136.29 input  -60.11 | X-H torsion
[ 7974 7965 7964 7962 ] final  137.75 input  175.53 | X-H torsion
[ 8008 7997 7996 7995 ] final   23.95 input   59.86 | X-H torsion
[ 10167 10162 10161 10158 ] final   53.69 input  -65.29 | X-H torsion
[ 10718 10713 10712 10709 ] final   38.14 input   66.30 | X-H torsion
[ 10763 10752 10751 10750 ] final -121.15 input  -60.55 | X-H torsion
[ 11005 11000 10999 10996 ] final   -8.12 input  -57.11 | X-H torsion

> <Gold.Protein.ActiveResidues>
 VAL166  LYS551  ARG553  GLY616  TRP617  ASP618  TYR619  PRO620  LYS621  CYS622 
 ASP623  PHE694  ASN695  SER759  ASP760  ASP761  ALA762  ILE779  LEU786  VAL792 
 PHE793  MET794  SER795  GLU796  ALA797  LYS798  CYS799  TRP800  GLU811  SER814 

> <Gold.Protein.RotatedAtoms>
  152.2910  133.5561  159.5557 H   0  0  0  0  0  0  0  0  0  0  0  0  # atno 6907 bound_to 6896
  150.7235  134.0428  159.3780 H   0  0  0  0  0  0  0  0  0  0  0  0  # atno 6908 bound_to 6896
  151.8334  135.0614  160.0490 H   0  0  0  0  0  0  0  0  0  0  0  0  # atno 6909 bound_to 6896
  144.9438  139.4899  143.5559 H   0  0  0  0  0  0  0  0  0  0  0  0  # atno 7974 bound_to 7965
  154.9889  140.3111  155.4915 H   0  0  0  0  0  0  0  0  0  0  0  0  # atno 8008 bound_to 7997
  156.2943  140.2253  156.4932 H   0  0  0  0  0  0  0  0  0  0  0  0  # atno 8009 bound_to 7997
  154.7722  140.0451  157.1048 H   0  0  0  0  0  0  0  0  0  0  0  0  # atno 8010 bound_to 7997
  140.2381  144.3614  150.6390 H   0  0  0  0  0  0  0  0  0  0  0  0  # atno 10167 bound_to 10162
  157.3553  130.7620  149.7008 H   0  0  0  0  0  0  0  0  0  0  0  0  # atno 10718 bound_to 10713
  154.8661  135.4178  154.2574 H   0  0  0  0  0  0  0  0  0  0  0  0  # atno 10763 bound_to 10752
  153.3508  135.6998  153.6795 H   0  0  0  0  0  0  0  0  0  0  0  0  # atno 10764 bound_to 10752
  153.5736  135.3586  155.2820 H   0  0  0  0  0  0  0  0  0  0  0  0  # atno 10765 bound_to 10752
  140.7200  133.8836  155.8814 H   0  0  0  0  0  0  0  0  0  0  0  0  # atno 11005 bound_to 11000
  146.3296  139.8475  142.8879 LP  0  0  0  0  0  0  0  0  0  0  0  0  # atno 17320 bound_to 7965
  145.2950  141.0178  143.3641 LP  0  0  0  0  0  0  0  0  0  0  0  0  # atno 17321 bound_to 7965
  140.6134  143.2171  151.6840 LP  0  0  0  0  0  0  0  0  0  0  0  0  # atno 17342 bound_to 10162
  139.5087  144.3603  152.0568 LP  0  0  0  0  0  0  0  0  0  0  0  0  # atno 17343 bound_to 10162
  155.9728  130.4129  150.4056 LP  0  0  0  0  0  0  0  0  0  0  0  0  # atno 17370 bound_to 10713
  157.2124  131.0463  151.2591 LP  0  0  0  0  0  0  0  0  0  0  0  0  # atno 17371 bound_to 10713
  141.0011  134.1149  157.4316 LP  0  0  0  0  0  0  0  0  0  0  0  0  # atno 17394 bound_to 11000
  139.8850  135.0068  156.6408 LP  0  0  0  0  0  0  0  0  0  0  0  0  # atno 17395 bound_to 11000

$$$$
