AV-unprocessed.smi:461|AV-procd|sdf|2630|dock2
  -GOLD-   2262023 33D 1   1.00000     0.00000
 Structure written by MMmdl.
 33 34  0  0  0  0  0  0  0  0  1 V2000
  152.6253  139.0719  154.3319 C   0  0  0  0  0  0  0  0  0  0  0  0
  152.2863  138.7089  155.7086 N   0  0  0  0  0  0  0  0  0  0  0  0
  152.6089  139.6863  156.6359 N   0  0  0  0  0  0  0  0  0  0  0  0
  152.3487  139.4269  157.8838 C   0  0  0  0  0  0  0  0  0  0  0  0
  152.6004  140.2678  158.9601 N   0  0  0  0  0  0  0  0  0  0  0  0
  153.2023  141.5902  158.8690 C   0  0  0  0  0  0  0  0  0  0  0  0
  152.3968  142.6576  159.6299 C   0  0  2  0  0  0  0  0  0  0  0  0
  152.7402  144.0869  159.2211 C   0  0  0  0  0  0  0  0  0  0  0  0
  152.2624  144.9012  160.4098 C   0  0  0  0  0  0  0  0  0  0  0  0
  152.2871  143.9012  161.5699 C   0  0  0  0  0  0  0  0  0  0  0  0
  152.7251  142.6686  161.0105 O   0  0  0  0  0  0  0  0  0  0  0  0
  151.7085  138.1093  158.2914 C   0  0  0  0  0  0  0  0  0  0  0  0
  151.4691  137.8712  159.4790 O   0  0  0  0  0  0  0  0  0  0  0  0
  151.4310  137.2420  157.2786 N   0  0  0  0  0  0  0  0  0  0  0  0
  150.8065  135.9603  157.6537 C   0  0  0  0  0  0  0  0  0  0  0  0
  151.7099  137.4982  155.9667 C   0  0  0  0  0  0  0  0  0  0  0  0
  151.4643  136.6966  155.0619 O   0  0  0  0  0  0  0  0  0  0  0  0
  151.7344  139.0720  153.7026 H   0  0  0  0  0  0  0  0  0  0  0  0
  153.3412  138.3638  153.9123 H   0  0  0  0  0  0  0  0  0  0  0  0
  153.0714  140.0659  154.2653 H   0  0  0  0  0  0  0  0  0  0  0  0
  153.2372  141.8512  157.8110 H   0  0  0  0  0  0  0  0  0  0  0  0
  154.2372  141.5651  159.2136 H   0  0  0  0  0  0  0  0  0  0  0  0
  151.3243  142.4896  159.5121 H   0  0  0  0  0  0  0  0  0  0  0  0
  153.8199  144.1974  159.1101 H   0  0  0  0  0  0  0  0  0  0  0  0
  152.2708  144.3859  158.2836 H   0  0  0  0  0  0  0  0  0  0  0  0
  152.8987  145.7675  160.5921 H   0  0  0  0  0  0  0  0  0  0  0  0
  151.2453  145.2591  160.2455 H   0  0  0  0  0  0  0  0  0  0  0  0
  152.9609  144.2118  162.3687 H   0  0  0  0  0  0  0  0  0  0  0  0
  151.2902  143.7783  161.9947 H   0  0  0  0  0  0  0  0  0  0  0  0
  150.5130  135.3319  156.8120 H   0  0  0  0  0  0  0  0  0  0  0  0
  149.9000  136.1300  158.2376 H   0  0  0  0  0  0  0  0  0  0  0  0
  151.4925  135.3714  158.2645 H   0  0  0  0  0  0  0  0  0  0  0  0
  152.4310  139.9538  159.9051 H   0  0  0  0  0  0  0  0  0  0  0  0
  1 18  1  0  0  0  0
  1 19  1  0  0  0  0
  1 20  1  0  0  0  0
  1  2  1  0  0  0  0
  2 16  1  0  0  0  0
  2  3  1  0  0  0  0
  3  4  2  0  0  0  0
  4 12  1  0  0  0  0
  4  5  1  0  0  0  0
  5  6  1  0  0  0  0
  5 33  1  0  0  0  0
  6  7  1  0  0  0  0
  6 21  1  0  0  0  0
  6 22  1  0  0  0  0
  7 11  1  0  0  0  0
  7  8  1  0  0  0  0
  7 23  1  0  0  0  0
  8  9  1  0  0  0  0
  8 24  1  0  0  0  0
  8 25  1  0  0  0  0
  9 10  1  0  0  0  0
  9 26  1  0  0  0  0
  9 27  1  0  0  0  0
 10 11  1  0  0  0  0
 10 28  1  0  0  0  0
 10 29  1  0  0  0  0
 12 13  2  0  0  0  0
 12 14  1  0  0  0  0
 14 15  1  0  0  0  0
 14 16  1  0  0  0  0
 15 30  1  0  0  0  0
 15 31  1  0  0  0  0
 15 32  1  0  0  0  0
 16 17  2  0  0  0  0
M  END
> <s_m_source_file>
AV-unprocessed.smi

> <i_m_source_file_index>
461

> <i_lp_mmshare_version>
43012

> <i_f3d_flags>
0

> <s_epik_input>
Tz1jMW4oW0NIM10pYyg9TyljKG5uMVtDSDNdKVtOSF1bQ0gyXVtDQEBIXTJbQ0gyXVtDSDJdW0NIMl1PMg==

> <s_epik_cmdline>
J2VwaWtfcHl0aG9uJywgJy1waCcsICc3LjAnLCAnLXRuJywgJzgnLCAnLW1hJywgJzIwMCcsICctbWV0YWxfYmluZGluZycsICctaW1hZScsICc8aW5maWxlLm1hZT4nLCAnLW9tYWUnLCAnPG91dGZpbGUubWFlPic=

> <r_lp_tautomer_probability>
1

> <r_epik_Ionization_Penalty>
0.000103292

> <r_epik_Ionization_Penalty_Charging>
5.59445e-09

> <r_epik_Ionization_Penalty_Neutral>
0.000103287

> <r_epik_State_Penalty>
-0

> <r_epik_Charging_Adjusted_Penalty>
5.59445e-09

> <i_epik_Tot_Q>
0

> <i_epik_Tot_abs_Q>
0

> <r_epik_Metal_State_Penalty>
-0

> <b_epik_Metal_Only>
0

> <s_lp_Force_Field>
OPLS_2005

> <r_lp_Energy>
41.4084

> <b_lp_Chiralities_Consistent>
1

> <s_lp_Variant>
AV-unprocessed.smi:461-1

> <Gold.Version>
5.8.1

> <Gold.Id.Protein>
6NUR|6NUR_protein|mol2

> <Gold.PLP.Fitness>
37.4526

> <Gold.PLP.PLP>
-31.9349

> <Gold.PLP.part.hbond>
-3.0515

> <Gold.PLP.part.metal>
0.0000

> <Gold.PLP.part.buried>
-5.7890

> <Gold.PLP.part.nonpolar>
-23.7938

> <Gold.PLP.part.repulsive>
0.3129

> <Gold.PLP.ligand.clash>
0.0000

> <Gold.PLP.ligand.torsion>
0.2458

> <Gold.PLP.Chemscore.Hbond>
2.0000

> <Gold.PLP.Chemscore.CHOScore>
0.0000

> <Gold.PLP.Chemscore.Metal>
0.0000

> <Gold.Chemscore.Hbonds>
donor molecule, donor type, donor heavy atom, donor atom, acceptor molecule, acceptor atom, score
      P1  H  7997  8009       L1     3  1.00
      P1  H 10752 10764       L1    17  1.00

> <Gold.PLP.Chemscore.Internal.Correction>
0.0093

> <Gold.Rescore>
     Score         DG    S(hbond)    S(metal)    S(lipo)     H(rot)  DE(clash)    DE(int)     intcor
     16.21     -16.42       1.78        0.00      70.98       1.30       0.09       0.13       ----

> <Gold.Chemscore.Fitness>
16.2070

> <Gold.Chemscore.DG>
-16.4236

> <Gold.Chemscore.ZeroCoef>
-5.4800

> <Gold.Chemscore.Hbond>
1.7829

> <Gold.Chemscore.Metal>
0.0000

> <Gold.Chemscore.Lipo>
70.9832

> <Gold.Chemscore.Internal_Hbond>
0.0000

> <Gold.Chemscore.DEClash>
0.0871

> <Gold.Chemscore.DEInternal>
0.1295

> <Gold.Chemscore.Rot>
1.2954

> <Gold.Chemscore.Internal.Correction>
   9.000000E+99

> <Gold.Chemscore.Hbonds>
donor molecule, donor type, donor heavy atom, donor atom, acceptor molecule, acceptor atom, score
      P1  H  7997  8009       L1     3  0.52
      P1  H 10752 10764       L1    17  0.88

> <Gold.Chemscore.Hbond.Weighted>
-5.9549

> <Gold.Chemscore.Metal.Weighted>
-0.0000

> <Gold.Chemscore.Lipo.Weighted>
-8.3050

> <Gold.Chemscore.Internal_Hbond.Weighted>
0.0000

> <Gold.Chemscore.DEClash.Weighted>
0.0871

> <Gold.Chemscore.DEInternal.Weighted>
0.1295

> <Gold.Chemscore.Rot.Weighted>
3.3163

> <Gold.Chemscore.Internal.Correction.Weighted>
   9.000000E+99

> <Gold.Protein.RotatedTorsions>
[ 6907 6896 6895 6894 ] final -152.77 input  -60.11 | X-H torsion
[ 7974 7965 7964 7962 ] final -163.00 input  175.53 | X-H torsion
[ 8008 7997 7996 7995 ] final -167.57 input   59.86 | X-H torsion
[ 10167 10162 10161 10158 ] final    6.98 input  -65.29 | X-H torsion
[ 10718 10713 10712 10709 ] final   61.95 input   66.30 | X-H torsion
[ 10763 10752 10751 10750 ] final  -59.77 input  -60.55 | X-H torsion
[ 11005 11000 10999 10996 ] final   42.46 input  -57.11 | X-H torsion

> <Gold.Protein.ActiveResidues>
 VAL166  LYS551  ARG553  GLY616  TRP617  ASP618  TYR619  PRO620  LYS621  CYS622 
 ASP623  PHE694  ASN695  SER759  ASP760  ASP761  ALA762  ILE779  LEU786  VAL792 
 PHE793  MET794  SER795  GLU796  ALA797  LYS798  CYS799  TRP800  GLU811  SER814 

> <Gold.Protein.RotatedAtoms>
  151.2327  133.4441  159.2604 H   0  0  0  0  0  0  0  0  0  0  0  0  # atno 6907 bound_to 6896
  151.0779  134.9840  159.8351 H   0  0  0  0  0  0  0  0  0  0  0  0  # atno 6908 bound_to 6896
  152.5420  134.2269  159.8862 H   0  0  0  0  0  0  0  0  0  0  0  0  # atno 6909 bound_to 6896
  144.7339  140.3171  143.6177 H   0  0  0  0  0  0  0  0  0  0  0  0  # atno 7974 bound_to 7965
  155.8796  140.1006  157.1495 H   0  0  0  0  0  0  0  0  0  0  0  0  # atno 8008 bound_to 7997
  154.4004  140.1331  156.4243 H   0  0  0  0  0  0  0  0  0  0  0  0  # atno 8009 bound_to 7997
  155.7658  140.3462  155.5224 H   0  0  0  0  0  0  0  0  0  0  0  0  # atno 8010 bound_to 7997
  140.6397  143.7803  150.7410 H   0  0  0  0  0  0  0  0  0  0  0  0  # atno 10167 bound_to 10162
  157.5866  130.9023  149.9526 H   0  0  0  0  0  0  0  0  0  0  0  0  # atno 10718 bound_to 10713
  154.2588  135.6312  153.5267 H   0  0  0  0  0  0  0  0  0  0  0  0  # atno 10763 bound_to 10752
  152.9899  135.5582  154.5726 H   0  0  0  0  0  0  0  0  0  0  0  0  # atno 10764 bound_to 10752
  154.5271  135.2886  155.1188 H   0  0  0  0  0  0  0  0  0  0  0  0  # atno 10765 bound_to 10752
  140.1737  134.4190  155.8241 H   0  0  0  0  0  0  0  0  0  0  0  0  # atno 11005 bound_to 11000
  145.7606  139.1823  143.2269 LP  0  0  0  0  0  0  0  0  0  0  0  0  # atno 17320 bound_to 7965
  146.0989  140.7567  142.9559 LP  0  0  0  0  0  0  0  0  0  0  0  0  # atno 17321 bound_to 7965
  140.1431  143.4423  152.2180 LP  0  0  0  0  0  0  0  0  0  0  0  0  # atno 17342 bound_to 10162
  139.5607  144.7403  151.4164 LP  0  0  0  0  0  0  0  0  0  0  0  0  # atno 17343 bound_to 10162
  156.0915  130.3663  150.0385 LP  0  0  0  0  0  0  0  0  0  0  0  0  # atno 17370 bound_to 10713
  156.8516  130.9460  151.3625 LP  0  0  0  0  0  0  0  0  0  0  0  0  # atno 17371 bound_to 10713
  141.2219  133.6968  156.7809 LP  0  0  0  0  0  0  0  0  0  0  0  0  # atno 17394 bound_to 11000
  140.2347  134.8659  157.3513 LP  0  0  0  0  0  0  0  0  0  0  0  0  # atno 17395 bound_to 11000

$$$$
