AV-unprocessed.smi:3125|AV-procd|sdf|11909|dock9
  -GOLD-   2272017293D 1   1.00000     0.00000
 Structure written by MMmdl.
 28 29  0  0  0  0  0  0  0  0  2 V2000
  149.6373  139.1822  154.5096 C   0  0  0  0  0  0  0  0  0  0  0  0
  151.0449  139.0328  154.8259 N   0  0  0  0  0  0  0  0  0  0  0  0
  151.9473  138.2351  154.1343 C   0  0  0  0  0  0  0  0  0  0  0  0
  153.1613  138.3767  154.7603 C   0  0  0  0  0  0  0  0  0  0  0  0
  153.0258  139.2512  155.8320 N   0  0  0  0  0  0  0  0  0  0  0  0
  151.7458  139.6152  155.8205 C   0  0  0  0  0  0  0  0  0  0  0  0
  151.1460  140.5610  156.8240 C   0  0  1  0  0  0  0  0  0  0  0  0
  152.1841  141.0316  157.8610 C   0  0  0  0  0  0  0  0  0  0  0  0
  151.5477  142.0157  158.8546 C   0  0  0  0  0  0  0  0  0  0  0  0
  150.8780  143.1857  158.1151 C   0  0  0  0  0  0  0  0  0  0  0  0
  149.8832  142.6862  157.1411 N   0  3  0  0  0  0  0  0  0  0  0  0
  150.4674  141.7662  156.1402 C   0  0  0  0  0  0  0  0  0  0  0  0
  149.3726  138.5506  153.6608 H   0  0  0  0  0  0  0  0  0  0  0  0
  149.4242  140.2205  154.2546 H   0  0  0  0  0  0  0  0  0  0  0  0
  149.0320  138.8877  155.3674 H   0  0  0  0  0  0  0  0  0  0  0  0
  151.6585  137.6454  153.2764 H   0  0  0  0  0  0  0  0  0  0  0  0
  154.1117  137.9211  154.5248 H   0  0  0  0  0  0  0  0  0  0  0  0
  150.3665  140.0316  157.3716 H   0  0  0  0  0  0  0  0  0  0  0  0
  152.5964  140.1760  158.3970 H   0  0  0  0  0  0  0  0  0  0  0  0
  153.0216  141.5171  157.3577 H   0  0  0  0  0  0  0  0  0  0  0  0
  150.8081  141.4951  159.4647 H   0  0  0  0  0  0  0  0  0  0  0  0
  152.3049  142.3934  159.5423 H   0  0  0  0  0  0  0  0  0  0  0  0
  150.3815  143.8477  158.8249 H   0  0  0  0  0  0  0  0  0  0  0  0
  151.6262  143.7826  157.5912 H   0  0  0  0  0  0  0  0  0  0  0  0
  149.1585  142.1953  157.6450 H   0  0  0  0  0  0  0  0  0  0  0  0
  151.1847  142.3186  155.5311 H   0  0  0  0  0  0  0  0  0  0  0  0
  149.6766  141.4263  155.4708 H   0  0  0  0  0  0  0  0  0  0  0  0
  149.4703  143.4732  156.6611 H   0  0  0  0  0  0  0  0  0  0  0  0
  1  2  1  0  0  0  0
  1 13  1  0  0  0  0
  1 14  1  0  0  0  0
  1 15  1  0  0  0  0
  2  6  1  0  0  0  0
  2  3  1  0  0  0  0
  3  4  2  0  0  0  0
  3 16  1  0  0  0  0
  4  5  1  0  0  0  0
  4 17  1  0  0  0  0
  5  6  2  0  0  0  0
  6  7  1  0  0  0  0
  7 12  1  0  0  0  0
  7  8  1  0  0  0  0
  7 18  1  0  0  0  0
  8  9  1  0  0  0  0
  8 19  1  0  0  0  0
  8 20  1  0  0  0  0
  9 10  1  0  0  0  0
  9 21  1  0  0  0  0
  9 22  1  0  0  0  0
 10 11  1  0  0  0  0
 10 23  1  0  0  0  0
 10 24  1  0  0  0  0
 11 12  1  0  0  0  0
 11 25  1  0  0  0  0
 11 28  1  0  0  0  0
 12 26  1  0  0  0  0
 12 27  1  0  0  0  0
M  CHG  1  11   1
M  END
> <s_m_source_file>
AV-unprocessed.smi

> <i_m_source_file_index>
3125

> <i_lp_mmshare_version>
43012

> <i_f3d_flags>
0

> <s_epik_input>
W0NIM11uMVtjSF1bY0hdbmMxW0NAQEhdMltDSDJdW0NIMl1bQ0gyXVtOSF1bQ0gyXTI=

> <s_epik_cmdline>
J2VwaWtfcHl0aG9uJywgJy1waCcsICc3LjAnLCAnLXRuJywgJzgnLCAnLW1hJywgJzIwMCcsICctbWV0YWxfYmluZGluZycsICctaW1hZScsICc8aW5maWxlLm1hZT4nLCAnLW9tYWUnLCAnPG91dGZpbGUubWFlPic=

> <r_lp_tautomer_probability>
1

> <r_epik_Ionization_Penalty>
0.177191

> <r_epik_Ionization_Penalty_Charging>
0.177191

> <r_epik_Ionization_Penalty_Neutral>
7.05152e-14

> <r_epik_State_Penalty>
0.46716

> <r_epik_Charging_Adjusted_Penalty>
0.644351

> <i_epik_Tot_Q>
1

> <i_epik_Tot_abs_Q>
1

> <r_epik_Metal_State_Penalty>
0.000708398

> <b_epik_Metal_Only>
0

> <s_lp_Force_Field>
OPLS_2005

> <r_lp_Energy>
12.4076

> <b_lp_Chiralities_Consistent>
1

> <s_lp_Variant>
AV-unprocessed.smi:3125-4

> <Gold.Version>
5.8.1

> <Gold.Id.Protein>
6NUR|6NUR_protein|mol2

> <Gold.PLP.Fitness>
38.7191

> <Gold.PLP.PLP>
-26.7260

> <Gold.PLP.part.hbond>
-2.0000

> <Gold.PLP.part.metal>
0.0000

> <Gold.PLP.part.buried>
-4.0272

> <Gold.PLP.part.nonpolar>
-21.0096

> <Gold.PLP.part.repulsive>
0.0091

> <Gold.PLP.ligand.clash>
0.0000

> <Gold.PLP.ligand.torsion>
0.0165

> <Gold.PLP.Chemscore.Hbond>
3.0000

> <Gold.PLP.Chemscore.CHOScore>
1.0000

> <Gold.PLP.Chemscore.Metal>
0.0000

> <Gold.Chemscore.Hbonds>
donor molecule, donor type, donor heavy atom, donor atom, acceptor molecule, acceptor atom, score
      L1  H    11    28       P1  8028  2.00
      P1  H  7997  8008       L1     5  1.00
      L1  C     3    16       P1  7949  1.00

> <Gold.PLP.Chemscore.Internal.Correction>
0.0262

> <Gold.Rescore>
     Score         DG    S(hbond)    S(metal)    S(lipo)     H(rot)  DE(clash)    DE(int)     intcor
     17.01     -17.11       1.98        0.00      64.81       1.00       0.08       0.01       ----

> <Gold.Chemscore.Fitness>
17.0137

> <Gold.Chemscore.DG>
-17.1051

> <Gold.Chemscore.ZeroCoef>
-5.4800

> <Gold.Chemscore.Hbond>
1.9767

> <Gold.Chemscore.Metal>
0.0000

> <Gold.Chemscore.Lipo>
64.8106

> <Gold.Chemscore.Internal_Hbond>
0.0000

> <Gold.Chemscore.DEClash>
0.0779

> <Gold.Chemscore.DEInternal>
0.0135

> <Gold.Chemscore.Rot>
1.0000

> <Gold.Chemscore.Internal.Correction>
   9.000000E+99

> <Gold.Chemscore.Hbonds>
donor molecule, donor type, donor heavy atom, donor atom, acceptor molecule, acceptor atom, score
      L1  H    11    28       P1  8028  1.00
      P1  H  7997  8008       L1     5  0.88

> <Gold.Chemscore.Hbond.Weighted>
-6.6022

> <Gold.Chemscore.Metal.Weighted>
-0.0000

> <Gold.Chemscore.Lipo.Weighted>
-7.5828

> <Gold.Chemscore.Internal_Hbond.Weighted>
0.0000

> <Gold.Chemscore.DEClash.Weighted>
0.0779

> <Gold.Chemscore.DEInternal.Weighted>
0.0135

> <Gold.Chemscore.Rot.Weighted>
2.5600

> <Gold.Chemscore.Internal.Correction.Weighted>
   9.000000E+99

> <Gold.Protein.RotatedTorsions>
[ 6907 6896 6895 6894 ] final  126.67 input  -60.11 | X-H torsion
[ 7974 7965 7964 7962 ] final    5.02 input  175.53 | X-H torsion
[ 8008 7997 7996 7995 ] final  -30.59 input   59.86 | X-H torsion
[ 10167 10162 10161 10158 ] final  119.68 input  -65.29 | X-H torsion
[ 10718 10713 10712 10709 ] final -148.29 input   66.30 | X-H torsion
[ 10763 10752 10751 10750 ] final -167.41 input  -60.55 | X-H torsion
[ 11005 11000 10999 10996 ] final    4.46 input  -57.11 | X-H torsion

> <Gold.Protein.ActiveResidues>
 VAL166  LYS551  ARG553  GLY616  TRP617  ASP618  TYR619  PRO620  LYS621  CYS622 
 ASP623  PHE694  ASN695  SER759  ASP760  ASP761  ALA762  ILE779  LEU786  VAL792 
 PHE793  MET794  SER795  GLU796  ALA797  LYS798  CYS799  TRP800  GLU811  SER814 

> <Gold.Protein.RotatedAtoms>
  152.3883  133.6642  159.6216 H   0  0  0  0  0  0  0  0  0  0  0  0  # atno 6907 bound_to 6896
  150.7797  133.8998  159.3347 H   0  0  0  0  0  0  0  0  0  0  0  0  # atno 6908 bound_to 6896
  151.6790  135.0966  160.0264 H   0  0  0  0  0  0  0  0  0  0  0  0  # atno 6909 bound_to 6896
  146.2442  140.0447  142.8379 H   0  0  0  0  0  0  0  0  0  0  0  0  # atno 7974 bound_to 7965
  154.4245  140.1787  156.1431 H   0  0  0  0  0  0  0  0  0  0  0  0  # atno 8008 bound_to 7997
  155.9975  140.3363  155.6788 H   0  0  0  0  0  0  0  0  0  0  0  0  # atno 8009 bound_to 7997
  155.6288  140.0667  157.2646 H   0  0  0  0  0  0  0  0  0  0  0  0  # atno 8010 bound_to 7997
  139.6030  144.7062  151.3017 H   0  0  0  0  0  0  0  0  0  0  0  0  # atno 10167 bound_to 10162
  156.4184  130.8016  151.2238 H   0  0  0  0  0  0  0  0  0  0  0  0  # atno 10718 bound_to 10713
  154.6734  135.2943  154.9711 H   0  0  0  0  0  0  0  0  0  0  0  0  # atno 10763 bound_to 10752
  154.0730  135.6615  153.4831 H   0  0  0  0  0  0  0  0  0  0  0  0  # atno 10764 bound_to 10752
  153.0501  135.5179  154.7742 H   0  0  0  0  0  0  0  0  0  0  0  0  # atno 10765 bound_to 10752
  140.5816  134.0007  155.8050 H   0  0  0  0  0  0  0  0  0  0  0  0  # atno 11005 bound_to 11000
  145.1038  140.9362  143.4697 LP  0  0  0  0  0  0  0  0  0  0  0  0  # atno 17320 bound_to 7965
  145.0646  139.3079  143.5863 LP  0  0  0  0  0  0  0  0  0  0  0  0  # atno 17321 bound_to 7965
  140.7264  143.6991  150.7859 LP  0  0  0  0  0  0  0  0  0  0  0  0  # atno 17342 bound_to 10162
  140.0571  143.5191  152.2646 LP  0  0  0  0  0  0  0  0  0  0  0  0  # atno 17343 bound_to 10162
  157.7508  131.0236  150.3839 LP  0  0  0  0  0  0  0  0  0  0  0  0  # atno 17370 bound_to 10713
  156.4152  130.3942  149.6863 LP  0  0  0  0  0  0  0  0  0  0  0  0  # atno 17371 bound_to 10713
  141.0992  133.9795  157.3107 LP  0  0  0  0  0  0  0  0  0  0  0  0  # atno 17394 bound_to 11000
  139.9314  135.0199  156.8414 LP  0  0  0  0  0  0  0  0  0  0  0  0  # atno 17395 bound_to 11000

$$$$
