AV-unprocessed.smi:3002|AV-procd|sdf|11434|dock3
  -GOLD-   2272016363D 1   1.00000     0.00000
 Structure written by MMmdl.
 34 35  0  0  0  0  0  0  0  0  1 V2000
  151.3848  137.6515  154.4169 C   0  0  0  0  0  0  0  0  0  0  0  0
  150.6736  138.4618  155.5195 C   0  0  1  0  0  0  0  0  0  0  0  0
  151.6593  139.0750  156.5262 C   0  0  0  0  0  0  0  0  0  0  0  0
  152.7745  139.4508  156.1635 O   0  0  0  0  0  0  0  0  0  0  0  0
  151.2332  139.1693  157.7958 N   0  0  0  0  0  0  0  0  0  0  0  0
  152.0085  139.7210  158.9018 C   0  0  0  0  0  0  0  0  0  0  0  0
  152.3066  141.2235  158.7220 C   0  0  2  0  0  0  0  0  0  0  0  0
  153.1810  141.8177  159.8466 C   0  0  0  0  0  0  0  0  0  0  0  0
  153.1622  143.3442  159.7248 C   0  0  0  0  0  0  0  0  0  0  0  0
  151.4828  143.7682  159.1318 S   0  0  0  0  0  0  0  0  0  0  0  0
  150.6467  144.1661  160.2744 O   0  0  0  0  0  0  0  0  0  0  0  0
  151.5952  144.6237  157.9408 O   0  0  0  0  0  0  0  0  0  0  0  0
  151.0239  142.0658  158.6273 C   0  0  0  0  0  0  0  0  0  0  0  0
  149.8034  139.4957  154.9723 N   0  0  0  0  0  0  0  0  0  0  0  0
  148.6307  139.3849  154.3441 C   0  0  0  0  0  0  0  0  0  0  0  0
  148.0823  140.5462  154.0161 N   0  0  0  0  0  0  0  0  0  0  0  0
  149.0294  141.3944  154.5160 C   0  0  0  0  0  0  0  0  0  0  0  0
  150.0749  140.8180  155.1082 N   0  0  0  0  0  0  0  0  0  0  0  0
  151.9890  136.8514  154.8460 H   0  0  0  0  0  0  0  0  0  0  0  0
  152.0441  138.2726  153.8093 H   0  0  0  0  0  0  0  0  0  0  0  0
  150.6594  137.1887  153.7471 H   0  0  0  0  0  0  0  0  0  0  0  0
  150.0358  137.7654  156.0667 H   0  0  0  0  0  0  0  0  0  0  0  0
  150.3037  138.8391  158.0106 H   0  0  0  0  0  0  0  0  0  0  0  0
  151.4808  139.5503  159.8418 H   0  0  0  0  0  0  0  0  0  0  0  0
  152.9418  139.1612  158.9688 H   0  0  0  0  0  0  0  0  0  0  0  0
  152.8487  141.3631  157.7854 H   0  0  0  0  0  0  0  0  0  0  0  0
  152.7625  141.5354  160.8135 H   0  0  0  0  0  0  0  0  0  0  0  0
  154.2011  141.4334  159.8161 H   0  0  0  0  0  0  0  0  0  0  0  0
  153.3728  143.8541  160.6650 H   0  0  0  0  0  0  0  0  0  0  0  0
  153.8793  143.6808  158.9756 H   0  0  0  0  0  0  0  0  0  0  0  0
  150.5974  142.0739  157.6240 H   0  0  0  0  0  0  0  0  0  0  0  0
  150.2639  141.7086  159.3226 H   0  0  0  0  0  0  0  0  0  0  0  0
  148.1664  138.4345  154.1249 H   0  0  0  0  0  0  0  0  0  0  0  0
  148.9424  142.4689  154.4471 H   0  0  0  0  0  0  0  0  0  0  0  0
  1  2  1  0  0  0  0
  1 19  1  0  0  0  0
  1 20  1  0  0  0  0
  1 21  1  0  0  0  0
  2  3  1  0  0  0  0
  2 14  1  0  0  0  0
  2 22  1  0  0  0  0
  3  4  2  0  0  0  0
  3  5  1  0  0  0  0
  5  6  1  0  0  0  0
  5 23  1  0  0  0  0
  6  7  1  0  0  0  0
  6 24  1  0  0  0  0
  6 25  1  0  0  0  0
  7 13  1  0  0  0  0
  7  8  1  0  0  0  0
  7 26  1  0  0  0  0
  8  9  1  0  0  0  0
  8 27  1  0  0  0  0
  8 28  1  0  0  0  0
  9 10  1  0  0  0  0
  9 29  1  0  0  0  0
  9 30  1  0  0  0  0
 10 11  2  0  0  0  0
 10 12  2  0  0  0  0
 10 13  1  0  0  0  0
 13 31  1  0  0  0  0
 13 32  1  0  0  0  0
 14 18  1  0  0  0  0
 14 15  1  0  0  0  0
 15 16  2  0  0  0  0
 15 33  1  0  0  0  0
 16 17  1  0  0  0  0
 17 18  2  0  0  0  0
 17 34  1  0  0  0  0
M  END
> <s_m_source_file>
AV-unprocessed.smi

> <i_m_source_file_index>
3002

> <i_lp_mmshare_version>
43012

> <i_f3d_flags>
0

> <s_epik_input>
bjFbY0hdbltjSF1uMVtDQEhdKFtDSDNdKUMoPU8pW05IXVtDSDJdW0NAQEhdKFtDSDJdMilbQ0gyXVtDSDJdUzIoPU8pPU8=

> <s_epik_cmdline>
J2VwaWtfcHl0aG9uJywgJy1waCcsICc3LjAnLCAnLXRuJywgJzgnLCAnLW1hJywgJzIwMCcsICctbWV0YWxfYmluZGluZycsICctaW1hZScsICc8aW5maWxlLm1hZT4nLCAnLW9tYWUnLCAnPG91dGZpbGUubWFlPic=

> <r_lp_tautomer_probability>
1

> <r_epik_Ionization_Penalty>
1.1748e-05

> <r_epik_Ionization_Penalty_Charging>
0

> <r_epik_Ionization_Penalty_Neutral>
1.1748e-05

> <r_epik_State_Penalty>
-0

> <r_epik_Charging_Adjusted_Penalty>
0

> <i_epik_Tot_Q>
0

> <i_epik_Tot_abs_Q>
0

> <r_epik_Metal_State_Penalty>
-0

> <b_epik_Metal_Only>
0

> <s_lp_Force_Field>
OPLS_2005

> <r_lp_Energy>
11.4636

> <b_lp_Chiralities_Consistent>
1

> <s_lp_Variant>
AV-unprocessed.smi:3002-2

> <Gold.Version>
5.8.1

> <Gold.Id.Protein>
6NUR|6NUR_protein|mol2

> <Gold.PLP.Fitness>
39.7763

> <Gold.PLP.PLP>
-34.5715

> <Gold.PLP.part.hbond>
-2.6461

> <Gold.PLP.part.metal>
0.0000

> <Gold.PLP.part.buried>
-3.1627

> <Gold.PLP.part.nonpolar>
-28.2216

> <Gold.PLP.part.repulsive>
1.0803

> <Gold.PLP.ligand.clash>
0.0000

> <Gold.PLP.ligand.torsion>
1.0551

> <Gold.PLP.Chemscore.Hbond>
1.4118

> <Gold.PLP.Chemscore.CHOScore>
0.9922

> <Gold.PLP.Chemscore.Metal>
0.0000

> <Gold.Chemscore.Hbonds>
donor molecule, donor type, donor heavy atom, donor atom, acceptor molecule, acceptor atom, score
      P1  H  7989  7998       L1    18  0.32
      P1  H  7997  8010       L1     4  1.00
      L1  C    17    34       P1  8028  0.98

> <Gold.PLP.Chemscore.Internal.Correction>
0.1029

> <Gold.Rescore>
     Score         DG    S(hbond)    S(metal)    S(lipo)     H(rot)  DE(clash)    DE(int)     intcor
      9.01      -9.66       1.00        0.00      59.64       2.39       0.00       0.65       ----

> <Gold.Chemscore.Fitness>
9.0094

> <Gold.Chemscore.DG>
-9.6565

> <Gold.Chemscore.ZeroCoef>
-5.4800

> <Gold.Chemscore.Hbond>
0.9966

> <Gold.Chemscore.Metal>
0.0000

> <Gold.Chemscore.Lipo>
59.6418

> <Gold.Chemscore.Internal_Hbond>
0.0000

> <Gold.Chemscore.DEClash>
0.0000

> <Gold.Chemscore.DEInternal>
0.6471

> <Gold.Chemscore.Rot>
2.3946

> <Gold.Chemscore.Internal.Correction>
   9.000000E+99

> <Gold.Chemscore.Hbonds>
donor molecule, donor type, donor heavy atom, donor atom, acceptor molecule, acceptor atom, score
      P1  H  7989  7998       L1    18  0.02
      P1  H  7997  8010       L1     4  1.00

> <Gold.Chemscore.Hbond.Weighted>
-3.3286

> <Gold.Chemscore.Metal.Weighted>
-0.0000

> <Gold.Chemscore.Lipo.Weighted>
-6.9781

> <Gold.Chemscore.Internal_Hbond.Weighted>
0.0000

> <Gold.Chemscore.DEClash.Weighted>
0.0000

> <Gold.Chemscore.DEInternal.Weighted>
0.6471

> <Gold.Chemscore.Rot.Weighted>
6.1301

> <Gold.Chemscore.Internal.Correction.Weighted>
   9.000000E+99

> <Gold.Protein.RotatedTorsions>
[ 6907 6896 6895 6894 ] final  151.88 input  -60.11 | X-H torsion
[ 7974 7965 7964 7962 ] final  -70.02 input  175.53 | X-H torsion
[ 8008 7997 7996 7995 ] final   88.58 input   59.86 | X-H torsion
[ 10167 10162 10161 10158 ] final  171.05 input  -65.29 | X-H torsion
[ 10718 10713 10712 10709 ] final   81.11 input   66.30 | X-H torsion
[ 10763 10752 10751 10750 ] final    2.80 input  -60.55 | X-H torsion
[ 11005 11000 10999 10996 ] final -121.34 input  -57.11 | X-H torsion

> <Gold.Protein.ActiveResidues>
 VAL166  LYS551  ARG553  GLY616  TRP617  ASP618  TYR619  PRO620  LYS621  CYS622 
 ASP623  PHE694  ASN695  SER759  ASP760  ASP761  ALA762  ILE779  LEU786  VAL792 
 PHE793  MET794  SER795  GLU796  ALA797  LYS798  CYS799  TRP800  GLU811  SER814 

> <Gold.Protein.RotatedAtoms>
  152.0944  133.4217  159.4558 H   0  0  0  0  0  0  0  0  0  0  0  0  # atno 6907 bound_to 6896
  150.6863  134.2833  159.4645 H   0  0  0  0  0  0  0  0  0  0  0  0  # atno 6908 bound_to 6896
  152.0688  134.9546  160.0625 H   0  0  0  0  0  0  0  0  0  0  0  0  # atno 6909 bound_to 6896
  145.6963  140.9134  143.0755 H   0  0  0  0  0  0  0  0  0  0  0  0  # atno 7974 bound_to 7965
  155.9895  140.3370  155.6739 H   0  0  0  0  0  0  0  0  0  0  0  0  # atno 8008 bound_to 7997
  155.6440  140.0698  157.2627 H   0  0  0  0  0  0  0  0  0  0  0  0  # atno 8009 bound_to 7997
  154.4215  140.1737  156.1591 H   0  0  0  0  0  0  0  0  0  0  0  0  # atno 8010 bound_to 7997
  139.5035  144.3528  151.9905 H   0  0  0  0  0  0  0  0  0  0  0  0  # atno 10167 bound_to 10162
  157.6824  130.9989  150.2179 H   0  0  0  0  0  0  0  0  0  0  0  0  # atno 10718 bound_to 10713
  153.2912  135.6948  153.7291 H   0  0  0  0  0  0  0  0  0  0  0  0  # atno 10763 bound_to 10752
  153.6242  135.3422  155.3021 H   0  0  0  0  0  0  0  0  0  0  0  0  # atno 10764 bound_to 10752
  154.8524  135.4393  154.1995 H   0  0  0  0  0  0  0  0  0  0  0  0  # atno 10765 bound_to 10752
  141.0077  134.0310  157.3455 H   0  0  0  0  0  0  0  0  0  0  0  0  # atno 11005 bound_to 11000
  144.6981  139.8888  143.7452 LP  0  0  0  0  0  0  0  0  0  0  0  0  # atno 17320 bound_to 7965
  146.0837  139.3825  143.0448 LP  0  0  0  0  0  0  0  0  0  0  0  0  # atno 17321 bound_to 7965
  140.2965  144.3695  150.6073 LP  0  0  0  0  0  0  0  0  0  0  0  0  # atno 17342 bound_to 10162
  140.5906  143.2168  151.7259 LP  0  0  0  0  0  0  0  0  0  0  0  0  # atno 17343 bound_to 10162
  156.2836  130.3736  149.7910 LP  0  0  0  0  0  0  0  0  0  0  0  0  # atno 17370 bound_to 10713
  156.5591  130.8375  151.3323 LP  0  0  0  0  0  0  0  0  0  0  0  0  # atno 17371 bound_to 10713
  139.9072  135.0182  156.7539 LP  0  0  0  0  0  0  0  0  0  0  0  0  # atno 17394 bound_to 11000
  140.6785  133.9495  155.7897 LP  0  0  0  0  0  0  0  0  0  0  0  0  # atno 17395 bound_to 11000

$$$$
