#       Name:                AV-unprocessed.smi:2770
#       Creating user name   scv26
#       Creation time:       Fri Mar 27 15:10:47 2020


#       File generated by GOLD software.
#

@<TRIPOS>MOLECULE
AV-unprocessed.smi:2770
    40    41     1
SMALL
NO_CHARGES


@<TRIPOS>ATOM
      1 ****        -4.3580  -3.4790   0.6245 C.3            1 S1                 0.0000
      2 ****        -2.9490  -3.1181   0.5960 N.am           1 S1                 0.0000
      3 ****        -2.4914  -1.8583   0.5602 C.2            1 S1                 0.0000
      4 ****        -3.2322  -0.8744   0.5572 O.2            1 S1                 0.0000
      5 ****        -0.9675  -1.6970   0.5220 C.3            1 S1                 0.0000
      6 ****        -0.5233  -0.3604  -0.1130 C.3            1 S1                 0.0000
      7 ****         0.9267  -0.2316  -0.0374 N.3            1 S1                 0.0000
      8 ****         1.4262   0.8958  -0.7044 C.ar           1 S1                 0.0000
      9 ****         2.2849   0.7130  -1.8086 C.ar           1 S1                 0.0000
     10 ****         2.7819   1.8496  -2.4752 C.ar           1 S1                 0.0000
     11 ****         2.4049   3.1257  -2.0156 C.ar           1 S1                 0.0000
     12 ****         1.5422   3.2083  -0.9028 C.ar           1 S1                 0.0000
     13 ****         1.1000   4.5501  -0.3583 C.3            1 S1                 0.0000
     14 ****         1.0619   2.1223  -0.2585 N.ar           1 S1                 0.0000
     15 ****         1.4261  -0.3700   1.3245 C.3            1 S1                 0.0000
     16 ****         0.9399  -1.6986   1.9280 C.3            1 S1                 0.0000
     17 ****        -0.4823  -1.7637   1.8618 O.3            1 S1                 0.0000
     18 ****        -4.4638  -4.5638   0.6287 H              1 S1                 0.0000
     19 ****        -4.8768  -3.0889  -0.2522 H              1 S1                 0.0000
     20 ****        -4.8415  -3.0853   1.5193 H              1 S1                 0.0000
     21 ****        -2.2774  -3.8721   0.6019 H              1 S1                 0.0000
     22 ****        -0.5491  -2.5268  -0.0516 H              1 S1                 0.0000
     23 ****        -0.8394  -0.3149  -1.1561 H              1 S1                 0.0000
     24 ****        -0.9888   0.4806   0.4039 H              1 S1                 0.0000
     25 ****         2.5575  -0.2782  -2.1402 H              1 S1                 0.0000
     26 ****         3.4409   1.7443  -3.3244 H              1 S1                 0.0000
     27 ****         2.7703   4.0159  -2.5061 H              1 S1                 0.0000
     28 ****         1.5180   5.3713  -0.9411 H              1 S1                 0.0000
     29 ****         1.4271   4.6649   0.6754 H              1 S1                 0.0000
     30 ****         0.0130   4.6312  -0.3868 H              1 S1                 0.0000
     31 ****         2.5161  -0.3337   1.3252 H              1 S1                 0.0000
     32 ****         1.0747   0.4643   1.9334 H              1 S1                 0.0000
     33 ****         1.3776  -2.5485   1.4017 H              1 S1                 0.0000
     34 ****         1.2516  -1.7750   2.9697 H              1 S1                 0.0000
     35 ****        -4.2245  -0.9956   0.5822 LP             1 S1                 0.0000
     36 ****        -2.8414   0.0457   0.5297 LP             1 S1                 0.0000
     37 ****         1.2968  -1.0085  -0.5468 LP             1 S1                 0.0000
     38 ****         0.4525   2.2213   0.5281 LP             1 S1                 0.0000
     39 ****        -0.7838  -2.6253   2.2701 LP             1 S1                 0.0000
     40 ****        -0.8634  -0.9980   2.3799 LP             1 S1                 0.0000
@<TRIPOS>BOND
    1    1    2 1     
    2    1   18 1     
    3    1   19 1     
    4    1   20 1     
    5    2    3 am    
    6    2   21 1     
    7    3    4 2     
    8    3    5 1     
    9    5   17 1     
   10    5    6 1     
   11    5   22 1     
   12    6    7 1     
   13    6   23 1     
   14    6   24 1     
   15    7    8 1     
   16    7   15 1     
   17    8   14 ar    
   18    8    9 ar    
   19    9   10 ar    
   20    9   25 1     
   21   10   11 ar    
   22   10   26 1     
   23   11   12 ar    
   24   11   27 1     
   25   12   13 1     
   26   12   14 ar    
   27   13   28 1     
   28   13   29 1     
   29   13   30 1     
   30   15   16 1     
   31   15   31 1     
   32   15   32 1     
   33   16   17 1     
   34   16   33 1     
   35   16   34 1     
   36    4   35 1     
   37    4   36 1     
   38    7   37 1     
   39   14   38 1     
   40   17   39 1     
   41   17   40 1     
@<TRIPOS>SUBSTRUCTURE
      1 S1             1
@<TRIPOS>SET
LONE_PAIRS      STATIC     ATOMS    <user>   **** ""
6 35 36 37 38 39 40
DONOR_HYDROGENS      STATIC     ATOMS    <user>   **** ""
1 21
ATOM$BLUE        STATIC     ATOMS    COLORGROUP SYSTEM
6 35 36 37 38 39 40
ATOM$RED        STATIC     ATOMS    COLORGROUP SYSTEM
1 21
