AV-unprocessed.smi:213|AV-procd|sdf|1645|dock9
  -GOLD-   2262020 23D 1   1.00000     0.00000
 Structure written by MMmdl.
 58 61  0  0  0  0  0  0  0  0  1 V2000
  150.8292  141.4047  156.3767 C   0  0  0  0  0  0  0  0  0  0  0  0
  150.3646  140.9657  157.7762 C   0  0  2  0  0  0  0  0  0  0  0  0
  151.4105  141.2812  158.8691 C   0  0  0  0  0  0  0  0  0  0  0  0
  151.3127  142.6121  159.4692 N   0  0  0  0  0  0  0  0  0  0  0  0
  152.3483  142.8566  160.4717 C   0  0  0  0  0  0  0  0  0  0  0  0
  152.2468  144.2714  161.0690 C   0  0  0  0  0  0  0  0  0  0  0  0
  152.3065  145.2397  160.0268 O   0  0  0  0  0  0  0  0  0  0  0  0
  151.2822  145.0615  159.0540 C   0  0  0  0  0  0  0  0  0  0  0  0
  151.3891  143.6514  158.4483 C   0  0  0  0  0  0  0  0  0  0  0  0
  150.0088  139.5433  157.7884 N   0  0  0  0  0  0  0  0  0  0  0  0
  150.6305  138.6309  158.7464 C   0  0  0  0  0  0  0  0  0  0  0  0
  148.8187  139.1764  157.2461 C   0  0  0  0  0  0  0  0  0  0  0  0
  147.7423  139.0100  158.0604 N   0  0  0  0  0  0  0  0  0  0  0  0
  146.5610  138.6427  157.5549 C   0  0  0  0  0  0  0  0  0  0  0  0
  146.2406  138.3836  156.2861 N   0  0  0  0  0  0  0  0  0  0  0  0
  147.3181  138.5368  155.4649 C   0  0  0  0  0  0  0  0  0  0  0  0
  148.6300  138.9294  155.8553 C   0  0  0  0  0  0  0  0  0  0  0  0
  149.4617  138.9597  154.7407 N   0  0  0  0  0  0  0  0  0  0  0  0
  148.6856  138.6141  153.7503 C   0  0  0  0  0  0  0  0  0  0  0  0
  147.3845  138.3327  154.0988 N   0  0  0  0  0  0  0  0  0  0  0  0
  146.3171  137.9036  153.2126 C   0  0  0  0  0  0  0  0  0  0  0  0
  145.8331  136.4748  153.5316 C   0  0  2  0  0  0  0  0  0  0  0  0
  146.9511  135.6089  153.5882 O   0  0  0  0  0  0  0  0  0  0  0  0
  144.8409  135.9422  152.4813 C   0  0  1  0  0  0  0  0  0  0  0  0
  145.4699  135.6333  151.1209 C   0  0  0  0  0  0  0  0  0  0  0  0
  144.5056  134.6143  150.5606 C   0  0  0  0  0  0  0  0  0  0  0  0
  144.1589  133.8027  151.8046 C   0  0  0  0  0  0  0  0  0  0  0  0
  144.2842  134.6990  152.9061 O   0  0  0  0  0  0  0  0  0  0  0  0
  150.9965  142.4813  156.3395 H   0  0  0  0  0  0  0  0  0  0  0  0
  150.0756  141.1677  155.6251 H   0  0  0  0  0  0  0  0  0  0  0  0
  151.7600  140.9198  156.0832 H   0  0  0  0  0  0  0  0  0  0  0  0
  149.4722  141.5415  158.0077 H   0  0  0  0  0  0  0  0  0  0  0  0
  151.3473  140.5284  159.6567 H   0  0  0  0  0  0  0  0  0  0  0  0
  152.4019  141.1662  158.4288 H   0  0  0  0  0  0  0  0  0  0  0  0
  152.2729  142.1344  161.2834 H   0  0  0  0  0  0  0  0  0  0  0  0
  153.3350  142.7236  160.0247 H   0  0  0  0  0  0  0  0  0  0  0  0
  151.3177  144.3873  161.6292 H   0  0  0  0  0  0  0  0  0  0  0  0
  153.0656  144.4482  161.7666 H   0  0  0  0  0  0  0  0  0  0  0  0
  150.3038  145.2119  159.5130 H   0  0  0  0  0  0  0  0  0  0  0  0
  151.3919  145.8182  158.2769 H   0  0  0  0  0  0  0  0  0  0  0  0
  152.3290  143.5645  157.9009 H   0  0  0  0  0  0  0  0  0  0  0  0
  150.5902  143.5135  157.7189 H   0  0  0  0  0  0  0  0  0  0  0  0
  150.6191  137.6081  158.3680 H   0  0  0  0  0  0  0  0  0  0  0  0
  150.0997  138.6520  159.6988 H   0  0  0  0  0  0  0  0  0  0  0  0
  151.6689  138.9006  158.9345 H   0  0  0  0  0  0  0  0  0  0  0  0
  145.7586  138.5385  158.2704 H   0  0  0  0  0  0  0  0  0  0  0  0
  149.0465  138.5414  152.7344 H   0  0  0  0  0  0  0  0  0  0  0  0
  145.4948  138.6139  153.3045 H   0  0  0  0  0  0  0  0  0  0  0  0
  146.6703  137.9665  152.1824 H   0  0  0  0  0  0  0  0  0  0  0  0
  145.3539  136.4672  154.5115 H   0  0  0  0  0  0  0  0  0  0  0  0
  147.5795  135.8910  152.9412 H   0  0  0  0  0  0  0  0  0  0  0  0
  144.0172  136.6451  152.3445 H   0  0  0  0  0  0  0  0  0  0  0  0
  145.5727  136.5163  150.4892 H   0  0  0  0  0  0  0  0  0  0  0  0
  146.4565  135.1838  151.2436 H   0  0  0  0  0  0  0  0  0  0  0  0
  143.6155  135.1134  150.1749 H   0  0  0  0  0  0  0  0  0  0  0  0
  144.9347  134.0098  149.7609 H   0  0  0  0  0  0  0  0  0  0  0  0
  143.1590  133.3714  151.7530 H   0  0  0  0  0  0  0  0  0  0  0  0
  144.8724  132.9890  151.9405 H   0  0  0  0  0  0  0  0  0  0  0  0
  1  2  1  0  0  0  0
  1 29  1  0  0  0  0
  1 30  1  0  0  0  0
  1 31  1  0  0  0  0
  2  3  1  0  0  0  0
  2 10  1  0  0  0  0
  2 32  1  0  0  0  0
  3  4  1  0  0  0  0
  3 33  1  0  0  0  0
  3 34  1  0  0  0  0
  4  9  1  0  0  0  0
  4  5  1  0  0  0  0
  5  6  1  0  0  0  0
  5 35  1  0  0  0  0
  5 36  1  0  0  0  0
  6  7  1  0  0  0  0
  6 37  1  0  0  0  0
  6 38  1  0  0  0  0
  7  8  1  0  0  0  0
  8  9  1  0  0  0  0
  8 39  1  0  0  0  0
  8 40  1  0  0  0  0
  9 41  1  0  0  0  0
  9 42  1  0  0  0  0
 10 11  1  0  0  0  0
 10 12  1  0  0  0  0
 11 43  1  0  0  0  0
 11 44  1  0  0  0  0
 11 45  1  0  0  0  0
 12 17  1  0  0  0  0
 12 13  2  0  0  0  0
 13 14  1  0  0  0  0
 14 15  2  0  0  0  0
 14 46  1  0  0  0  0
 15 16  1  0  0  0  0
 16 20  1  0  0  0  0
 16 17  2  0  0  0  0
 17 18  1  0  0  0  0
 18 19  2  0  0  0  0
 19 20  1  0  0  0  0
 19 47  1  0  0  0  0
 20 21  1  0  0  0  0
 21 22  1  0  0  0  0
 21 48  1  0  0  0  0
 21 49  1  0  0  0  0
 22 23  1  0  0  0  0
 22 24  1  0  0  0  0
 22 50  1  0  0  0  0
 23 51  1  0  0  0  0
 24 28  1  0  0  0  0
 24 25  1  0  0  0  0
 24 52  1  0  0  0  0
 25 26  1  0  0  0  0
 25 53  1  0  0  0  0
 25 54  1  0  0  0  0
 26 27  1  0  0  0  0
 26 55  1  0  0  0  0
 26 56  1  0  0  0  0
 27 28  1  0  0  0  0
 27 57  1  0  0  0  0
 27 58  1  0  0  0  0
M  END
> <s_m_source_file>
AV-unprocessed.smi

> <i_m_source_file_index>
213

> <i_lp_mmshare_version>
43012

> <i_f3d_flags>
0

> <s_epik_input>
W0NIMl0xW0NIMl1PW0NIMl1bQ0gyXU4xW0NIMl1bQ0BASF0oW0NIM10pTihbQ0gzXSljKG5bY0hdbjIpYyhjMjMpbltjSF1uM1tDSDJdW0NASF0oW09IXSlbQ0BASF00W0NIMl1bQ0gyXVtDSDJdTzQ=

> <s_epik_cmdline>
J2VwaWtfcHl0aG9uJywgJy1waCcsICc3LjAnLCAnLXRuJywgJzgnLCAnLW1hJywgJzIwMCcsICctbWV0YWxfYmluZGluZycsICctaW1hZScsICc8aW5maWxlLm1hZT4nLCAnLW9tYWUnLCAnPG91dGZpbGUubWFlPic=

> <r_lp_tautomer_probability>
1

> <r_epik_Ionization_Penalty>
0.423322

> <r_epik_Ionization_Penalty_Charging>
0

> <r_epik_Ionization_Penalty_Neutral>
0.423322

> <r_epik_State_Penalty>
0.569486

> <r_epik_Charging_Adjusted_Penalty>
0.569486

> <i_epik_Tot_Q>
0

> <i_epik_Tot_abs_Q>
0

> <r_epik_Metal_State_Penalty>
0.568671

> <b_epik_Metal_Only>
0

> <s_lp_Force_Field>
OPLS_2005

> <r_lp_Energy>
51.3499

> <b_lp_Chiralities_Consistent>
1

> <s_lp_Variant>
AV-unprocessed.smi:213-13

> <Gold.Version>
5.8.1

> <Gold.Id.Protein>
6NUR|6NUR_protein|mol2

> <Gold.PLP.Fitness>
42.3513

> <Gold.PLP.PLP>
-38.1227

> <Gold.PLP.part.hbond>
-1.7643

> <Gold.PLP.part.metal>
0.0000

> <Gold.PLP.part.buried>
-5.0600

> <Gold.PLP.part.nonpolar>
-31.9202

> <Gold.PLP.part.repulsive>
0.3289

> <Gold.PLP.ligand.clash>
0.0000

> <Gold.PLP.ligand.torsion>
2.1370

> <Gold.PLP.Chemscore.Hbond>
1.0000

> <Gold.PLP.Chemscore.CHOScore>
1.5392

> <Gold.PLP.Chemscore.Metal>
0.0000

> <Gold.Chemscore.Hbonds>
donor molecule, donor type, donor heavy atom, donor atom, acceptor molecule, acceptor atom, score
      L1  H    23    51       P1  7948  1.00
      L1  C    19    47       P1  7948  0.68
      L1  C    19    47       P1  7957  1.00

> <Gold.PLP.Chemscore.Internal.Correction>
0.8850

> <Gold.Rescore>
     Score         DG    S(hbond)    S(metal)    S(lipo)     H(rot)  DE(clash)    DE(int)     intcor
     10.71     -12.81       1.00        0.00      94.08       2.74       0.06       2.04       ----

> <Gold.Chemscore.Fitness>
10.7128

> <Gold.Chemscore.DG>
-12.8132

> <Gold.Chemscore.ZeroCoef>
-5.4800

> <Gold.Chemscore.Hbond>
0.9983

> <Gold.Chemscore.Metal>
0.0000

> <Gold.Chemscore.Lipo>
94.0820

> <Gold.Chemscore.Internal_Hbond>
0.0000

> <Gold.Chemscore.DEClash>
0.0605

> <Gold.Chemscore.DEInternal>
2.0399

> <Gold.Chemscore.Rot>
2.7378

> <Gold.Chemscore.Internal.Correction>
   9.000000E+99

> <Gold.Chemscore.Hbonds>
donor molecule, donor type, donor heavy atom, donor atom, acceptor molecule, acceptor atom, score
      L1  H    23    51       P1  7948  1.00

> <Gold.Chemscore.Hbond.Weighted>
-3.3342

> <Gold.Chemscore.Metal.Weighted>
-0.0000

> <Gold.Chemscore.Lipo.Weighted>
-11.0076

> <Gold.Chemscore.Internal_Hbond.Weighted>
0.0000

> <Gold.Chemscore.DEClash.Weighted>
0.0605

> <Gold.Chemscore.DEInternal.Weighted>
2.0399

> <Gold.Chemscore.Rot.Weighted>
7.0087

> <Gold.Chemscore.Internal.Correction.Weighted>
   9.000000E+99

> <Gold.Protein.RotatedTorsions>
[ 6907 6896 6895 6894 ] final   94.36 input  -60.11 | X-H torsion
[ 7974 7965 7964 7962 ] final   87.47 input  175.53 | X-H torsion
[ 8008 7997 7996 7995 ] final  161.62 input   59.86 | X-H torsion
[ 10167 10162 10161 10158 ] final   54.05 input  -65.29 | X-H torsion
[ 10718 10713 10712 10709 ] final   80.34 input   66.30 | X-H torsion
[ 10763 10752 10751 10750 ] final  -26.60 input  -60.55 | X-H torsion
[ 11005 11000 10999 10996 ] final -169.65 input  -57.11 | X-H torsion

> <Gold.Protein.ActiveResidues>
 VAL166  LYS551  ARG553  GLY616  TRP617  ASP618  TYR619  PRO620  LYS621  CYS622 
 ASP623  PHE694  ASN695  SER759  ASP760  ASP761  ALA762  ILE779  LEU786  VAL792 
 PHE793  MET794  SER795  GLU796  ALA797  LYS798  CYS799  TRP800  GLU811  SER814 

> <Gold.Protein.RotatedAtoms>
  152.5450  134.1206  159.8397 H   0  0  0  0  0  0  0  0  0  0  0  0  # atno 6907 bound_to 6896
  151.1263  133.5061  159.2608 H   0  0  0  0  0  0  0  0  0  0  0  0  # atno 6908 bound_to 6896
  151.1724  135.0334  159.8812 H   0  0  0  0  0  0  0  0  0  0  0  0  # atno 6909 bound_to 6896
  145.5585  139.2302  143.2472 H   0  0  0  0  0  0  0  0  0  0  0  0  # atno 7974 bound_to 7965
  156.2090  140.1772  156.7737 H   0  0  0  0  0  0  0  0  0  0  0  0  # atno 8008 bound_to 7997
  154.5695  140.0685  156.8973 H   0  0  0  0  0  0  0  0  0  0  0  0  # atno 8009 bound_to 7997
  155.2699  140.3342  155.4268 H   0  0  0  0  0  0  0  0  0  0  0  0  # atno 8010 bound_to 7997
  140.2343  144.3653  150.6403 H   0  0  0  0  0  0  0  0  0  0  0  0  # atno 10167 bound_to 10162
  157.6803  130.9955  150.2065 H   0  0  0  0  0  0  0  0  0  0  0  0  # atno 10718 bound_to 10713
  153.7185  135.6946  153.5019 H   0  0  0  0  0  0  0  0  0  0  0  0  # atno 10763 bound_to 10752
  153.2221  135.4366  155.0499 H   0  0  0  0  0  0  0  0  0  0  0  0  # atno 10764 bound_to 10752
  154.8292  135.3463  154.6720 H   0  0  0  0  0  0  0  0  0  0  0  0  # atno 10765 bound_to 10752
  140.5284  134.5640  157.5068 H   0  0  0  0  0  0  0  0  0  0  0  0  # atno 11005 bound_to 11000
  146.1867  140.6410  142.9164 LP  0  0  0  0  0  0  0  0  0  0  0  0  # atno 17320 bound_to 7965
  144.7494  140.5153  143.6812 LP  0  0  0  0  0  0  0  0  0  0  0  0  # atno 17321 bound_to 7965
  140.6162  143.2172  151.6787 LP  0  0  0  0  0  0  0  0  0  0  0  0  # atno 17342 bound_to 10162
  139.5099  144.3560  152.0607 LP  0  0  0  0  0  0  0  0  0  0  0  0  # atno 17343 bound_to 10162
  156.2745  130.3726  149.7997 LP  0  0  0  0  0  0  0  0  0  0  0  0  # atno 17370 bound_to 10713
  156.5704  130.8422  151.3355 LP  0  0  0  0  0  0  0  0  0  0  0  0  # atno 17371 bound_to 10713
  139.9567  134.7522  156.0325 LP  0  0  0  0  0  0  0  0  0  0  0  0  # atno 17394 bound_to 11000
  141.1295  133.6590  156.3426 LP  0  0  0  0  0  0  0  0  0  0  0  0  # atno 17395 bound_to 11000

$$$$
