AV-unprocessed.smi:3140|AV-procd|sdf|11960|dock2
  -GOLD-   2272017363D 1   1.00000     0.00000
 Structure written by MMmdl.
 37 38  0  0  0  0  0  0  0  0  1 V2000
  151.1970  139.0609  154.8898 C   0  0  0  0  0  0  0  0  0  0  0  0
  150.6111  139.9346  156.0107 C   0  0  2  0  0  0  0  0  0  0  0  0
  149.9520  141.2332  155.4772 C   0  0  0  0  0  0  0  0  0  0  0  0
  148.7257  141.0111  154.7265 N   0  0  0  0  0  0  0  0  0  0  0  0
  147.7944  141.9384  154.3083 C   0  0  0  0  0  0  0  0  0  0  0  0
  146.8187  141.2610  153.6349 C   0  0  0  0  0  0  0  0  0  0  0  0
  147.2501  139.9062  153.6879 C   0  0  0  0  0  0  0  0  0  0  0  0
  148.3932  139.7609  154.3368 N   0  0  0  0  0  0  0  0  0  0  0  0
  151.6867  140.2142  156.9550 N   0  0  0  0  0  0  0  0  0  0  0  0
  151.3697  141.3073  157.8634 C   0  0  0  0  0  0  0  0  0  0  0  0
  152.6167  141.6745  158.6855 C   0  0  0  0  0  0  0  0  0  0  0  0
  152.3488  142.7644  159.6234 N   0  0  0  0  0  0  0  0  0  0  0  0
  152.5121  142.5664  161.0540 C   0  0  0  0  0  0  0  0  0  0  0  0
  152.1460  143.9111  161.7001 C   0  0  0  0  0  0  0  0  0  0  0  0
  151.7913  144.8606  160.5501 C   0  0  0  0  0  0  0  0  0  0  0  0
  151.9474  144.0012  159.3079 C   0  0  0  0  0  0  0  0  0  0  0  0
  151.7275  144.4245  158.1740 O   0  0  0  0  0  0  0  0  0  0  0  0
  150.4390  138.8255  154.1422 H   0  0  0  0  0  0  0  0  0  0  0  0
  151.5707  138.1156  155.2844 H   0  0  0  0  0  0  0  0  0  0  0  0
  152.0258  139.5535  154.3800 H   0  0  0  0  0  0  0  0  0  0  0  0
  149.8510  139.3434  156.5231 H   0  0  0  0  0  0  0  0  0  0  0  0
  149.7107  141.8830  156.3191 H   0  0  0  0  0  0  0  0  0  0  0  0
  150.6417  141.8073  154.8585 H   0  0  0  0  0  0  0  0  0  0  0  0
  147.9011  142.9909  154.5259 H   0  0  0  0  0  0  0  0  0  0  0  0
  145.9326  141.6707  153.1733 H   0  0  0  0  0  0  0  0  0  0  0  0
  146.7716  139.0305  153.2748 H   0  0  0  0  0  0  0  0  0  0  0  0
  151.8889  139.3856  157.4959 H   0  0  0  0  0  0  0  0  0  0  0  0
  151.0102  142.1828  157.3246 H   0  0  0  0  0  0  0  0  0  0  0  0
  150.5664  140.9894  158.5287 H   0  0  0  0  0  0  0  0  0  0  0  0
  152.9470  140.8020  159.2513 H   0  0  0  0  0  0  0  0  0  0  0  0
  153.4461  141.9394  158.0282 H   0  0  0  0  0  0  0  0  0  0  0  0
  151.8581  141.7667  161.4035 H   0  0  0  0  0  0  0  0  0  0  0  0
  153.5424  142.2884  161.2800 H   0  0  0  0  0  0  0  0  0  0  0  0
  151.3011  143.7955  162.3799 H   0  0  0  0  0  0  0  0  0  0  0  0
  152.9816  144.3008  162.2828 H   0  0  0  0  0  0  0  0  0  0  0  0
  150.7690  145.2310  160.6313 H   0  0  0  0  0  0  0  0  0  0  0  0
  152.4709  145.7124  160.5060 H   0  0  0  0  0  0  0  0  0  0  0  0
  1  2  1  0  0  0  0
  1 18  1  0  0  0  0
  1 19  1  0  0  0  0
  1 20  1  0  0  0  0
  2  3  1  0  0  0  0
  2  9  1  0  0  0  0
  2 21  1  0  0  0  0
  3  4  1  0  0  0  0
  3 22  1  0  0  0  0
  3 23  1  0  0  0  0
  4  8  1  0  0  0  0
  4  5  1  0  0  0  0
  5  6  2  0  0  0  0
  5 24  1  0  0  0  0
  6  7  1  0  0  0  0
  6 25  1  0  0  0  0
  7  8  2  0  0  0  0
  7 26  1  0  0  0  0
  9 10  1  0  0  0  0
  9 27  1  0  0  0  0
 10 11  1  0  0  0  0
 10 28  1  0  0  0  0
 10 29  1  0  0  0  0
 11 12  1  0  0  0  0
 11 30  1  0  0  0  0
 11 31  1  0  0  0  0
 12 16  1  0  0  0  0
 12 13  1  0  0  0  0
 13 14  1  0  0  0  0
 13 32  1  0  0  0  0
 13 33  1  0  0  0  0
 14 15  1  0  0  0  0
 14 34  1  0  0  0  0
 14 35  1  0  0  0  0
 15 16  1  0  0  0  0
 15 36  1  0  0  0  0
 15 37  1  0  0  0  0
 16 17  2  0  0  0  0
M  END
> <s_m_source_file>
AV-unprocessed.smi

> <i_m_source_file_index>
3140

> <i_lp_mmshare_version>
43012

> <i_f3d_flags>
0

> <s_epik_input>
bjFbY0hdW2NIXVtjSF1uMVtDSDJdW0NAQEhdKFtDSDNdKVtOSF1bQ0gyXVtDSDJdTjJbQ0gyXVtDSDJdW0NIMl1DMj1P

> <s_epik_cmdline>
J2VwaWtfcHl0aG9uJywgJy1waCcsICc3LjAnLCAnLXRuJywgJzgnLCAnLW1hJywgJzIwMCcsICctbWV0YWxfYmluZGluZycsICctaW1hZScsICc8aW5maWxlLm1hZT4nLCAnLW9tYWUnLCAnPG91dGZpbGUubWFlPic=

> <r_lp_tautomer_probability>
1

> <r_epik_Ionization_Penalty>
2.53587

> <r_epik_Ionization_Penalty_Charging>
0

> <r_epik_Ionization_Penalty_Neutral>
2.53587

> <r_epik_State_Penalty>
2.70334

> <r_epik_Charging_Adjusted_Penalty>
2.70334

> <i_epik_Tot_Q>
0

> <i_epik_Tot_abs_Q>
0

> <r_epik_Metal_State_Penalty>
2.7033

> <b_epik_Metal_Only>
0

> <s_lp_Force_Field>
OPLS_2005

> <r_lp_Energy>
23.3858

> <b_lp_Chiralities_Consistent>
1

> <s_lp_Variant>
AV-unprocessed.smi:3140-3

> <Gold.Version>
5.8.1

> <Gold.Id.Protein>
6NUR|6NUR_protein|mol2

> <Gold.PLP.Fitness>
46.7277

> <Gold.PLP.PLP>
-44.3413

> <Gold.PLP.part.hbond>
0.0000

> <Gold.PLP.part.metal>
0.0000

> <Gold.PLP.part.buried>
-3.9885

> <Gold.PLP.part.nonpolar>
-37.5035

> <Gold.PLP.part.repulsive>
0.2312

> <Gold.PLP.ligand.clash>
0.0000

> <Gold.PLP.ligand.torsion>
0.3404

> <Gold.PLP.Chemscore.Hbond>
0.0000

> <Gold.PLP.Chemscore.CHOScore>
1.0000

> <Gold.PLP.Chemscore.Metal>
0.0000

> <Gold.Chemscore.Hbonds>
donor molecule, donor type, donor heavy atom, donor atom, acceptor molecule, acceptor atom, score
      L1  C     5    24       P1  8028  1.00

> <Gold.PLP.Chemscore.Internal.Correction>
0.0672

> <Gold.Rescore>
     Score         DG    S(hbond)    S(metal)    S(lipo)     H(rot)  DE(clash)    DE(int)     intcor
     11.05     -11.48       0.00        0.00      94.46       1.97       0.06       0.37       ----

> <Gold.Chemscore.Fitness>
11.0550

> <Gold.Chemscore.DG>
-11.4832

> <Gold.Chemscore.ZeroCoef>
-5.4800

> <Gold.Chemscore.Hbond>
0.0000

> <Gold.Chemscore.Metal>
0.0000

> <Gold.Chemscore.Lipo>
94.4613

> <Gold.Chemscore.Internal_Hbond>
0.0000

> <Gold.Chemscore.DEClash>
0.0557

> <Gold.Chemscore.DEInternal>
0.3726

> <Gold.Chemscore.Rot>
1.9722

> <Gold.Chemscore.Internal.Correction>
   9.000000E+99

> <Gold.Chemscore.Hbond.Weighted>
-0.0000

> <Gold.Chemscore.Metal.Weighted>
-0.0000

> <Gold.Chemscore.Lipo.Weighted>
-11.0520

> <Gold.Chemscore.Internal_Hbond.Weighted>
0.0000

> <Gold.Chemscore.DEClash.Weighted>
0.0557

> <Gold.Chemscore.DEInternal.Weighted>
0.3726

> <Gold.Chemscore.Rot.Weighted>
5.0487

> <Gold.Chemscore.Internal.Correction.Weighted>
   9.000000E+99

> <Gold.Protein.RotatedTorsions>
[ 6907 6896 6895 6894 ] final   22.07 input  -60.11 | X-H torsion
[ 7974 7965 7964 7962 ] final   63.12 input  175.53 | X-H torsion
[ 8008 7997 7996 7995 ] final -102.09 input   59.86 | X-H torsion
[ 10167 10162 10161 10158 ] final -113.10 input  -65.29 | X-H torsion
[ 10718 10713 10712 10709 ] final  -78.64 input   66.30 | X-H torsion
[ 10763 10752 10751 10750 ] final -167.88 input  -60.55 | X-H torsion
[ 11005 11000 10999 10996 ] final  -80.96 input  -57.11 | X-H torsion

> <Gold.Protein.ActiveResidues>
 VAL166  LYS551  ARG553  GLY616  TRP617  ASP618  TYR619  PRO620  LYS621  CYS622 
 ASP623  PHE694  ASN695  SER759  ASP760  ASP761  ALA762  ILE779  LEU786  VAL792 
 PHE793  MET794  SER795  GLU796  ALA797  LYS798  CYS799  TRP800  GLU811  SER814 

> <Gold.Protein.RotatedAtoms>
  151.9215  135.0296  160.0522 H   0  0  0  0  0  0  0  0  0  0  0  0  # atno 6907 bound_to 6896
  152.2195  133.4968  159.5163 H   0  0  0  0  0  0  0  0  0  0  0  0  # atno 6908 bound_to 6896
  150.6996  134.1278  159.4101 H   0  0  0  0  0  0  0  0  0  0  0  0  # atno 6909 bound_to 6896
  145.8655  139.3343  143.0793 H   0  0  0  0  0  0  0  0  0  0  0  0  # atno 7974 bound_to 7965
  154.8518  140.0430  157.1609 H   0  0  0  0  0  0  0  0  0  0  0  0  # atno 8008 bound_to 7997
  154.8935  140.2990  155.5337 H   0  0  0  0  0  0  0  0  0  0  0  0  # atno 8009 bound_to 7997
  156.2996  140.2389  156.3953 H   0  0  0  0  0  0  0  0  0  0  0  0  # atno 8010 bound_to 7997
  140.1155  143.4489  152.1725 H   0  0  0  0  0  0  0  0  0  0  0  0  # atno 10167 bound_to 10162
  156.0112  130.4524  150.3528 H   0  0  0  0  0  0  0  0  0  0  0  0  # atno 10718 bound_to 10713
  154.6687  135.2936  154.9771 H   0  0  0  0  0  0  0  0  0  0  0  0  # atno 10763 bound_to 10752
  154.0806  135.6605  153.4841 H   0  0  0  0  0  0  0  0  0  0  0  0  # atno 10764 bound_to 10752
  153.0473  135.5196  154.7672 H   0  0  0  0  0  0  0  0  0  0  0  0  # atno 10765 bound_to 10752
  141.1667  133.7174  156.8351 H   0  0  0  0  0  0  0  0  0  0  0  0  # atno 11005 bound_to 11000
  145.9198  140.9123  143.0411 LP  0  0  0  0  0  0  0  0  0  0  0  0  # atno 17320 bound_to 7965
  144.6726  140.1273  143.7446 LP  0  0  0  0  0  0  0  0  0  0  0  0  # atno 17321 bound_to 7965
  139.5596  144.7397  151.4193 LP  0  0  0  0  0  0  0  0  0  0  0  0  # atno 17342 bound_to 10162
  140.6902  143.7880  150.7244 LP  0  0  0  0  0  0  0  0  0  0  0  0  # atno 17343 bound_to 10162
  157.1619  131.0347  151.2836 LP  0  0  0  0  0  0  0  0  0  0  0  0  # atno 17370 bound_to 10713
  157.4303  130.7487  149.6985 LP  0  0  0  0  0  0  0  0  0  0  0  0  # atno 17371 bound_to 10713
  140.2023  134.8888  157.3183 LP  0  0  0  0  0  0  0  0  0  0  0  0  # atno 17394 bound_to 11000
  140.2174  134.4065  155.7582 LP  0  0  0  0  0  0  0  0  0  0  0  0  # atno 17395 bound_to 11000

$$$$
