AV-unprocessed.smi:556|AV-procd|sdf|2913|dock4
  -GOLD-   2262023403D 1   1.00000     0.00000
 Structure written by MMmdl.
 38 39  0  0  0  0  0  0  0  0  1 V2000
  148.4176  140.9006  154.9344 C   0  0  0  0  0  0  0  0  0  0  0  0
  148.1114  142.0648  155.8921 C   0  0  1  0  0  0  0  0  0  0  0  0
  146.6321  142.5037  155.8658 C   0  0  0  0  0  0  0  0  0  0  0  0
  145.8047  141.5667  156.5377 O   0  0  0  0  0  0  0  0  0  0  0  0
  146.1659  141.4377  157.9034 C   0  0  0  0  0  0  0  0  0  0  0  0
  147.5941  140.8836  157.9969 C   0  0  0  0  0  0  0  0  0  0  0  0
  148.5443  141.7446  157.2722 N   0  0  0  0  0  0  0  0  0  0  0  0
  149.7174  142.1261  157.8440 C   0  0  0  0  0  0  0  0  0  0  0  0
  150.2116  141.5582  158.8194 O   0  0  0  0  0  0  0  0  0  0  0  0
  150.3274  143.1663  157.2490 N   0  0  0  0  0  0  0  0  0  0  0  0
  151.5987  143.7484  157.6622 C   0  0  0  0  0  0  0  0  0  0  0  0
  151.4473  144.6001  158.9330 C   0  0  0  0  0  0  0  0  0  0  0  0
  152.0782  143.9293  160.1207 C   0  0  0  0  0  0  0  0  0  0  0  0
  152.6830  142.6414  160.1792 C   0  0  0  0  0  0  0  0  0  0  0  0
  153.1393  142.3414  161.3844 N   0  0  0  0  0  0  0  0  0  0  0  0
  152.8459  143.4240  162.1336 N   0  0  0  0  0  0  0  0  0  0  0  0
  153.2053  143.4407  163.5355 C   0  0  0  0  0  0  0  0  0  0  0  0
  152.2064  144.3982  161.3979 C   0  0  0  0  0  0  0  0  0  0  0  0
  148.1656  141.1645  153.9071 H   0  0  0  0  0  0  0  0  0  0  0  0
  147.8490  140.0068  155.1915 H   0  0  0  0  0  0  0  0  0  0  0  0
  149.4764  140.6410  154.9561 H   0  0  0  0  0  0  0  0  0  0  0  0
  148.6523  142.9281  155.5043 H   0  0  0  0  0  0  0  0  0  0  0  0
  146.5203  143.4839  156.3326 H   0  0  0  0  0  0  0  0  0  0  0  0
  146.2849  142.6105  154.8380 H   0  0  0  0  0  0  0  0  0  0  0  0
  146.0817  142.3984  158.4144 H   0  0  0  0  0  0  0  0  0  0  0  0
  145.4673  140.7561  158.3887 H   0  0  0  0  0  0  0  0  0  0  0  0
  147.8453  140.7663  159.0519 H   0  0  0  0  0  0  0  0  0  0  0  0
  147.6316  139.8815  157.5691 H   0  0  0  0  0  0  0  0  0  0  0  0
  149.8768  143.5809  156.4462 H   0  0  0  0  0  0  0  0  0  0  0  0
  152.3385  142.9604  157.8131 H   0  0  0  0  0  0  0  0  0  0  0  0
  151.9667  144.3670  156.8430 H   0  0  0  0  0  0  0  0  0  0  0  0
  151.8959  145.5800  158.7651 H   0  0  0  0  0  0  0  0  0  0  0  0
  150.3901  144.7879  159.1241 H   0  0  0  0  0  0  0  0  0  0  0  0
  152.8004  141.9183  159.3857 H   0  0  0  0  0  0  0  0  0  0  0  0
  153.0872  144.4465  163.9395 H   0  0  0  0  0  0  0  0  0  0  0  0
  154.2438  143.1309  163.6576 H   0  0  0  0  0  0  0  0  0  0  0  0
  152.5596  142.7578  164.0883 H   0  0  0  0  0  0  0  0  0  0  0  0
  151.8949  145.3340  161.8384 H   0  0  0  0  0  0  0  0  0  0  0  0
  1  2  1  0  0  0  0
  1 19  1  0  0  0  0
  1 20  1  0  0  0  0
  1 21  1  0  0  0  0
  2  7  1  0  0  0  0
  2  3  1  0  0  0  0
  2 22  1  0  0  0  0
  3  4  1  0  0  0  0
  3 23  1  0  0  0  0
  3 24  1  0  0  0  0
  4  5  1  0  0  0  0
  5  6  1  0  0  0  0
  5 25  1  0  0  0  0
  5 26  1  0  0  0  0
  6  7  1  0  0  0  0
  6 27  1  0  0  0  0
  6 28  1  0  0  0  0
  7  8  1  0  0  0  0
  8  9  2  0  0  0  0
  8 10  1  0  0  0  0
 10 11  1  0  0  0  0
 10 29  1  0  0  0  0
 11 12  1  0  0  0  0
 11 30  1  0  0  0  0
 11 31  1  0  0  0  0
 12 13  1  0  0  0  0
 12 32  1  0  0  0  0
 12 33  1  0  0  0  0
 13 18  2  0  0  0  0
 13 14  1  0  0  0  0
 14 15  2  0  0  0  0
 14 34  1  0  0  0  0
 15 16  1  0  0  0  0
 16 17  1  0  0  0  0
 16 18  1  0  0  0  0
 17 35  1  0  0  0  0
 17 36  1  0  0  0  0
 17 37  1  0  0  0  0
 18 38  1  0  0  0  0
M  END
> <s_m_source_file>
AV-unprocessed.smi

> <i_m_source_file_index>
556

> <i_lp_mmshare_version>
43012

> <i_f3d_flags>
0

> <s_epik_input>
W0NIM11bQ0BASF0xW0NIMl1PW0NIMl1bQ0gyXU4xQyg9TylbTkhdW0NIMl1bQ0gyXWMyW2NIXW5uKFtDSDNdKVtjSF0y

> <s_epik_cmdline>
J2VwaWtfcHl0aG9uJywgJy1waCcsICc3LjAnLCAnLXRuJywgJzgnLCAnLW1hJywgJzIwMCcsICctbWV0YWxfYmluZGluZycsICctaW1hZScsICc8aW5maWxlLm1hZT4nLCAnLW9tYWUnLCAnPG91dGZpbGUubWFlPic=

> <r_lp_tautomer_probability>
1

> <r_epik_Ionization_Penalty>
0.000536334

> <r_epik_Ionization_Penalty_Charging>
0

> <r_epik_Ionization_Penalty_Neutral>
0.000536334

> <r_epik_State_Penalty>
-0

> <r_epik_Charging_Adjusted_Penalty>
0

> <i_epik_Tot_Q>
0

> <i_epik_Tot_abs_Q>
0

> <r_epik_Metal_State_Penalty>
-0

> <b_epik_Metal_Only>
0

> <s_lp_Force_Field>
OPLS_2005

> <r_lp_Energy>
28.9332

> <b_lp_Chiralities_Consistent>
1

> <s_lp_Variant>
AV-unprocessed.smi:556-2

> <Gold.Version>
5.8.1

> <Gold.Id.Protein>
6NUR|6NUR_protein|mol2

> <Gold.PLP.Fitness>
41.7376

> <Gold.PLP.PLP>
-39.9314

> <Gold.PLP.part.hbond>
-1.0000

> <Gold.PLP.part.metal>
0.0000

> <Gold.PLP.part.buried>
-4.6697

> <Gold.PLP.part.nonpolar>
-34.0785

> <Gold.PLP.part.repulsive>
0.0575

> <Gold.PLP.ligand.clash>
0.0000

> <Gold.PLP.ligand.torsion>
0.6072

> <Gold.PLP.Chemscore.Hbond>
1.0000

> <Gold.PLP.Chemscore.CHOScore>
0.0000

> <Gold.PLP.Chemscore.Metal>
0.0000

> <Gold.Chemscore.Hbonds>
donor molecule, donor type, donor heavy atom, donor atom, acceptor molecule, acceptor atom, score
      L1  H    10    29       P1  8028  1.00

> <Gold.PLP.Chemscore.Internal.Correction>
0.0205

> <Gold.Rescore>
     Score         DG    S(hbond)    S(metal)    S(lipo)     H(rot)  DE(clash)    DE(int)     intcor
     14.88     -15.70       0.90        0.00      92.41       1.40       0.14       0.68       ----

> <Gold.Chemscore.Fitness>
14.8780

> <Gold.Chemscore.DG>
-15.6981

> <Gold.Chemscore.ZeroCoef>
-5.4800

> <Gold.Chemscore.Hbond>
0.8955

> <Gold.Chemscore.Metal>
0.0000

> <Gold.Chemscore.Lipo>
92.4055

> <Gold.Chemscore.Internal_Hbond>
0.0000

> <Gold.Chemscore.DEClash>
0.1448

> <Gold.Chemscore.DEInternal>
0.6753

> <Gold.Chemscore.Rot>
1.4001

> <Gold.Chemscore.Internal.Correction>
   9.000000E+99

> <Gold.Chemscore.Hbonds>
donor molecule, donor type, donor heavy atom, donor atom, acceptor molecule, acceptor atom, score
      L1  H    10    29       P1  8028  0.98

> <Gold.Chemscore.Hbond.Weighted>
-2.9909

> <Gold.Chemscore.Metal.Weighted>
-0.0000

> <Gold.Chemscore.Lipo.Weighted>
-10.8114

> <Gold.Chemscore.Internal_Hbond.Weighted>
0.0000

> <Gold.Chemscore.DEClash.Weighted>
0.1448

> <Gold.Chemscore.DEInternal.Weighted>
0.6753

> <Gold.Chemscore.Rot.Weighted>
3.5842

> <Gold.Chemscore.Internal.Correction.Weighted>
   9.000000E+99

> <Gold.Protein.RotatedTorsions>
[ 6907 6896 6895 6894 ] final  -74.59 input  -60.11 | X-H torsion
[ 7974 7965 7964 7962 ] final   71.92 input  175.53 | X-H torsion
[ 8008 7997 7996 7995 ] final   28.74 input   59.86 | X-H torsion
[ 10167 10162 10161 10158 ] final   72.02 input  -65.29 | X-H torsion
[ 10718 10713 10712 10709 ] final -146.51 input   66.30 | X-H torsion
[ 10763 10752 10751 10750 ] final   48.97 input  -60.55 | X-H torsion
[ 11005 11000 10999 10996 ] final   87.76 input  -57.11 | X-H torsion

> <Gold.Protein.ActiveResidues>
 VAL166  LYS551  ARG553  GLY616  TRP617  ASP618  TYR619  PRO620  LYS621  CYS622 
 ASP623  PHE694  ASN695  SER759  ASP760  ASP761  ALA762  ILE779  LEU786  VAL792 
 PHE793  MET794  SER795  GLU796  ALA797  LYS798  CYS799  TRP800  GLU811  SER814 

> <Gold.Protein.RotatedAtoms>
  150.7088  134.4847  159.5486 H   0  0  0  0  0  0  0  0  0  0  0  0  # atno 6907 bound_to 6896
  152.2477  134.8162  160.0460 H   0  0  0  0  0  0  0  0  0  0  0  0  # atno 6908 bound_to 6896
  151.8921  133.3483  159.3838 H   0  0  0  0  0  0  0  0  0  0  0  0  # atno 6909 bound_to 6896
  145.7598  139.2795  143.1383 H   0  0  0  0  0  0  0  0  0  0  0  0  # atno 7974 bound_to 7965
  155.0634  140.3192  155.4653 H   0  0  0  0  0  0  0  0  0  0  0  0  # atno 8008 bound_to 7997
  156.2807  140.2125  156.5706 H   0  0  0  0  0  0  0  0  0  0  0  0  # atno 8009 bound_to 7997
  154.7113  140.0498  157.0540 H   0  0  0  0  0  0  0  0  0  0  0  0  # atno 8010 bound_to 7997
  140.0398  144.5398  150.7443 H   0  0  0  0  0  0  0  0  0  0  0  0  # atno 10167 bound_to 10162
  156.3958  130.7909  151.2115 H   0  0  0  0  0  0  0  0  0  0  0  0  # atno 10718 bound_to 10713
  152.9789  135.5927  154.4013 H   0  0  0  0  0  0  0  0  0  0  0  0  # atno 10763 bound_to 10752
  154.3658  135.2767  155.2296 H   0  0  0  0  0  0  0  0  0  0  0  0  # atno 10764 bound_to 10752
  154.4273  135.6044  153.6102 H   0  0  0  0  0  0  0  0  0  0  0  0  # atno 10765 bound_to 10752
  139.8912  134.8443  156.2905 H   0  0  0  0  0  0  0  0  0  0  0  0  # atno 11005 bound_to 11000
  146.0275  140.8289  142.9892 LP  0  0  0  0  0  0  0  0  0  0  0  0  # atno 17320 bound_to 7965
  144.6833  140.2720  143.7304 LP  0  0  0  0  0  0  0  0  0  0  0  0  # atno 17321 bound_to 7965
  140.7265  143.2642  151.4102 LP  0  0  0  0  0  0  0  0  0  0  0  0  # atno 17342 bound_to 10162
  139.6021  144.1273  152.2209 LP  0  0  0  0  0  0  0  0  0  0  0  0  # atno 17343 bound_to 10162
  157.7501  131.0302  150.4125 LP  0  0  0  0  0  0  0  0  0  0  0  0  # atno 17370 bound_to 10713
  156.4395  130.3988  149.6707 LP  0  0  0  0  0  0  0  0  0  0  0  0  # atno 17371 bound_to 10713
  140.9979  133.7169  156.0915 LP  0  0  0  0  0  0  0  0  0  0  0  0  # atno 17394 bound_to 11000
  140.7537  134.4016  157.5537 LP  0  0  0  0  0  0  0  0  0  0  0  0  # atno 17395 bound_to 11000

$$$$
