AV-unprocessed.smi:2404|AV-procd|sdf|9511|dock9
  -GOLD-   2272013143D 1   1.00000     0.00000
 Structure written by MMmdl.
 42 42  0  0  0  0  0  0  0  0  2 V2000
  147.9722  136.7516  155.0422 C   0  0  0  0  0  0  0  0  0  0  0  0
  148.7790  137.4082  156.1783 C   0  0  0  0  0  0  0  0  0  0  0  0
  150.2817  137.0074  156.2803 C   0  0  0  0  0  0  0  0  0  0  0  0
  151.0419  137.3021  154.9445 C   0  0  0  0  0  0  0  0  0  0  0  0
  151.0611  138.7689  154.4808 C   0  0  0  0  0  0  0  0  0  0  0  0
  150.9158  137.8029  157.4639 C   0  0  0  0  0  0  0  0  0  0  0  0
  150.6234  139.2344  157.4156 N   0  0  0  0  0  0  0  0  0  0  0  0
  151.4825  140.2279  157.6895 C   0  0  0  0  0  0  0  0  0  0  0  0
  152.6886  140.0614  157.8694 O   0  0  0  0  0  0  0  0  0  0  0  0
  150.8769  141.6275  157.8142 C   0  0  0  0  0  0  0  0  0  0  0  0
  151.4284  142.3306  158.9638 N   0  0  0  0  0  0  0  0  0  0  0  0
  151.3582  141.7533  160.1832 N   0  0  0  0  0  0  0  0  0  0  0  0
  151.9822  142.5925  160.9927 C   0  0  0  0  0  0  0  0  0  0  0  0
  152.1227  142.2476  162.4455 C   0  0  0  0  0  0  0  0  0  0  0  0
  152.4524  143.7498  160.3114 C   0  0  0  0  0  0  0  0  0  0  0  0
  152.0843  143.5486  159.0112 C   0  0  0  0  0  0  0  0  0  0  0  0
  152.3103  144.3978  157.8036 C   0  0  0  0  0  0  0  0  0  0  0  0
  150.3783  135.4876  156.6098 C   0  0  0  0  0  0  0  0  0  0  0  0
  151.5063  134.9794  156.8021 O   0  0  0  0  0  0  0  0  0  0  0  0
  149.3032  134.8511  156.6831 O   0  5  0  0  0  0  0  0  0  0  0  0
  146.9333  137.0797  155.0761 H   0  0  0  0  0  0  0  0  0  0  0  0
  147.9703  135.6641  155.1183 H   0  0  0  0  0  0  0  0  0  0  0  0
  148.3632  137.0208  154.0616 H   0  0  0  0  0  0  0  0  0  0  0  0
  148.6963  138.4904  156.0785 H   0  0  0  0  0  0  0  0  0  0  0  0
  148.2766  137.1833  157.1204 H   0  0  0  0  0  0  0  0  0  0  0  0
  152.0766  136.9682  155.0260 H   0  0  0  0  0  0  0  0  0  0  0  0
  150.6180  136.7050  154.1361 H   0  0  0  0  0  0  0  0  0  0  0  0
  151.6292  138.8634  153.5553 H   0  0  0  0  0  0  0  0  0  0  0  0
  151.5317  139.4235  155.2130 H   0  0  0  0  0  0  0  0  0  0  0  0
  150.0584  139.1455  154.2824 H   0  0  0  0  0  0  0  0  0  0  0  0
  150.6215  137.3727  158.4214 H   0  0  0  0  0  0  0  0  0  0  0  0
  152.0019  137.7046  157.4366 H   0  0  0  0  0  0  0  0  0  0  0  0
  149.6534  139.4843  157.2810 H   0  0  0  0  0  0  0  0  0  0  0  0
  151.0767  142.2092  156.9136 H   0  0  0  0  0  0  0  0  0  0  0  0
  149.7931  141.5511  157.9143 H   0  0  0  0  0  0  0  0  0  0  0  0
  152.6330  143.0414  162.9912 H   0  0  0  0  0  0  0  0  0  0  0  0
  152.7012  141.3323  162.5747 H   0  0  0  0  0  0  0  0  0  0  0  0
  151.1482  142.0974  162.9107 H   0  0  0  0  0  0  0  0  0  0  0  0
  152.9926  144.5933  160.7145 H   0  0  0  0  0  0  0  0  0  0  0  0
  152.7711  145.3472  158.0768 H   0  0  0  0  0  0  0  0  0  0  0  0
  151.3699  144.6151  157.2972 H   0  0  0  0  0  0  0  0  0  0  0  0
  152.9707  143.8974  157.0949 H   0  0  0  0  0  0  0  0  0  0  0  0
  1  2  1  0  0  0  0
  1 21  1  0  0  0  0
  1 22  1  0  0  0  0
  1 23  1  0  0  0  0
  2  3  1  0  0  0  0
  2 24  1  0  0  0  0
  2 25  1  0  0  0  0
  3  4  1  0  0  0  0
  3  6  1  0  0  0  0
  3 18  1  0  0  0  0
  4  5  1  0  0  0  0
  4 26  1  0  0  0  0
  4 27  1  0  0  0  0
  5 28  1  0  0  0  0
  5 29  1  0  0  0  0
  5 30  1  0  0  0  0
  6  7  1  0  0  0  0
  6 31  1  0  0  0  0
  6 32  1  0  0  0  0
  7  8  1  0  0  0  0
  7 33  1  0  0  0  0
  8  9  2  0  0  0  0
  8 10  1  0  0  0  0
 10 11  1  0  0  0  0
 10 34  1  0  0  0  0
 10 35  1  0  0  0  0
 11 16  1  0  0  0  0
 11 12  1  0  0  0  0
 12 13  2  0  0  0  0
 13 14  1  0  0  0  0
 13 15  1  0  0  0  0
 14 36  1  0  0  0  0
 14 37  1  0  0  0  0
 14 38  1  0  0  0  0
 15 16  2  0  0  0  0
 15 39  1  0  0  0  0
 16 17  1  0  0  0  0
 17 40  1  0  0  0  0
 17 41  1  0  0  0  0
 17 42  1  0  0  0  0
 18 19  2  0  0  0  0
 18 20  1  0  0  0  0
M  CHG  1  20  -1
M  END
> <s_m_source_file>
AV-unprocessed.smi

> <i_m_source_file_index>
2404

> <i_lp_mmshare_version>
43012

> <i_f3d_flags>
0

> <s_epik_input>
W0NIM11bQ0gyXUMoW0NIMl1bQ0gzXSkoQyg9TylbT0hdKVtDSDJdW05IXUMoPU8pW0NIMl1uMW5jKFtDSDNdKVtjSF1jMVtDSDNd

> <s_epik_cmdline>
J2VwaWtfcHl0aG9uJywgJy1waCcsICc3LjAnLCAnLXRuJywgJzgnLCAnLW1hJywgJzIwMCcsICctbWV0YWxfYmluZGluZycsICctaW1hZScsICc8aW5maWxlLm1hZT4nLCAnLW9tYWUnLCAnPG91dGZpbGUubWFlPic=

> <r_lp_tautomer_probability>
1

> <r_epik_Ionization_Penalty>
0.00271888

> <r_epik_Ionization_Penalty_Charging>
0.00235221

> <r_epik_Ionization_Penalty_Neutral>
0.000366676

> <r_epik_State_Penalty>
-0

> <r_epik_Charging_Adjusted_Penalty>
0.00235221

> <i_epik_Tot_Q>
-1

> <i_epik_Tot_abs_Q>
1

> <r_epik_Metal_State_Penalty>
-0

> <b_epik_Metal_Only>
0

> <s_lp_Force_Field>
OPLS_2005

> <r_lp_Energy>
2.14996

> <b_lp_Chiralities_Consistent>
1

> <s_lp_Variant>
AV-unprocessed.smi:2404-1

> <Gold.Version>
5.8.1

> <Gold.Id.Protein>
6NUR|6NUR_protein|mol2

> <Gold.PLP.Fitness>
44.2901

> <Gold.PLP.PLP>
-36.1952

> <Gold.PLP.part.hbond>
-2.6068

> <Gold.PLP.part.metal>
0.0000

> <Gold.PLP.part.buried>
-3.8226

> <Gold.PLP.part.nonpolar>
-28.5970

> <Gold.PLP.part.repulsive>
0.0210

> <Gold.PLP.ligand.clash>
0.0000

> <Gold.PLP.ligand.torsion>
0.5028

> <Gold.PLP.Chemscore.Hbond>
3.0000

> <Gold.PLP.Chemscore.CHOScore>
0.0000

> <Gold.PLP.Chemscore.Metal>
0.0000

> <Gold.Chemscore.Hbonds>
donor molecule, donor type, donor heavy atom, donor atom, acceptor molecule, acceptor atom, score
      P1  H  7997  8010       L1     9  0.90

> <Gold.PLP.Chemscore.Internal.Correction>
0.1006

> <Gold.Rescore>
     Score         DG    S(hbond)    S(metal)    S(lipo)     H(rot)  DE(clash)    DE(int)     intcor
     13.16     -16.10       1.89        0.00      89.58       2.42       0.02       2.93       ----

> <Gold.Chemscore.Fitness>
13.1551

> <Gold.Chemscore.DG>
-16.1047

> <Gold.Chemscore.ZeroCoef>
-5.4800

> <Gold.Chemscore.Hbond>
1.8950

> <Gold.Chemscore.Metal>
0.0000

> <Gold.Chemscore.Lipo>
89.5751

> <Gold.Chemscore.Internal_Hbond>
0.0000

> <Gold.Chemscore.DEClash>
0.0243

> <Gold.Chemscore.DEInternal>
2.9253

> <Gold.Chemscore.Rot>
2.4159

> <Gold.Chemscore.Internal.Correction>
   9.000000E+99

> <Gold.Chemscore.Hbonds>
donor molecule, donor type, donor heavy atom, donor atom, acceptor molecule, acceptor atom, score
      P1  H  7997  8010       L1     9  0.82
      P1  H 10752 10765       L1    19  0.06

> <Gold.Chemscore.Hbond.Weighted>
-6.3292

> <Gold.Chemscore.Metal.Weighted>
-0.0000

> <Gold.Chemscore.Lipo.Weighted>
-10.4803

> <Gold.Chemscore.Internal_Hbond.Weighted>
0.0000

> <Gold.Chemscore.DEClash.Weighted>
0.0243

> <Gold.Chemscore.DEInternal.Weighted>
2.9253

> <Gold.Chemscore.Rot.Weighted>
6.1848

> <Gold.Chemscore.Internal.Correction.Weighted>
   9.000000E+99

> <Gold.Protein.RotatedTorsions>
[ 6907 6896 6895 6894 ] final   85.07 input  -60.11 | X-H torsion
[ 7974 7965 7964 7962 ] final  -67.96 input  175.53 | X-H torsion
[ 8008 7997 7996 7995 ] final   57.19 input   59.86 | X-H torsion
[ 10167 10162 10161 10158 ] final   37.62 input  -65.29 | X-H torsion
[ 10718 10713 10712 10709 ] final -179.50 input   66.30 | X-H torsion
[ 10763 10752 10751 10750 ] final -149.66 input  -60.55 | X-H torsion
[ 11005 11000 10999 10996 ] final -112.03 input  -57.11 | X-H torsion

> <Gold.Protein.ActiveResidues>
 VAL166  LYS551  ARG553  GLY616  TRP617  ASP618  TYR619  PRO620  LYS621  CYS622 
 ASP623  PHE694  ASN695  SER759  ASP760  ASP761  ALA762  ILE779  LEU786  VAL792 
 PHE793  MET794  SER795  GLU796  ALA797  LYS798  CYS799  TRP800  GLU811  SER814 

> <Gold.Protein.RotatedAtoms>
  152.5366  134.2644  159.8947 H   0  0  0  0  0  0  0  0  0  0  0  0  # atno 6907 bound_to 6896
  151.2602  133.4299  159.2623 H   0  0  0  0  0  0  0  0  0  0  0  0  # atno 6908 bound_to 6896
  151.0459  134.9654  159.8243 H   0  0  0  0  0  0  0  0  0  0  0  0  # atno 6909 bound_to 6896
  145.7225  140.9032  143.0622 H   0  0  0  0  0  0  0  0  0  0  0  0  # atno 7974 bound_to 7965
  155.5297  140.3482  155.4424 H   0  0  0  0  0  0  0  0  0  0  0  0  # atno 8008 bound_to 7997
  156.0727  140.1367  156.9836 H   0  0  0  0  0  0  0  0  0  0  0  0  # atno 8009 bound_to 7997
  154.4536  140.0962  156.6668 H   0  0  0  0  0  0  0  0  0  0  0  0  # atno 8010 bound_to 7997
  140.4015  144.1717  150.6134 H   0  0  0  0  0  0  0  0  0  0  0  0  # atno 10167 bound_to 10162
  156.8600  130.9748  151.3084 H   0  0  0  0  0  0  0  0  0  0  0  0  # atno 10718 bound_to 10713
  154.8164  135.3303  154.7163 H   0  0  0  0  0  0  0  0  0  0  0  0  # atno 10763 bound_to 10752
  153.7803  135.6919  153.4894 H   0  0  0  0  0  0  0  0  0  0  0  0  # atno 10764 bound_to 10752
  153.1985  135.4525  155.0185 H   0  0  0  0  0  0  0  0  0  0  0  0  # atno 10765 bound_to 10752
  141.0699  133.9397  157.2505 H   0  0  0  0  0  0  0  0  0  0  0  0  # atno 11005 bound_to 11000
  144.6913  139.9222  143.7468 LP  0  0  0  0  0  0  0  0  0  0  0  0  # atno 17320 bound_to 7965
  146.0612  139.3606  143.0580 LP  0  0  0  0  0  0  0  0  0  0  0  0  # atno 17321 bound_to 7965
  140.4735  143.2404  151.9056 LP  0  0  0  0  0  0  0  0  0  0  0  0  # atno 17342 bound_to 10162
  139.4784  144.5345  151.8619 LP  0  0  0  0  0  0  0  0  0  0  0  0  # atno 17343 bound_to 10162
  157.6255  130.8688  149.9183 LP  0  0  0  0  0  0  0  0  0  0  0  0  # atno 17370 bound_to 10713
  156.0782  130.3676  150.0634 LP  0  0  0  0  0  0  0  0  0  0  0  0  # atno 17371 bound_to 10713
  139.9513  135.0175  156.9002 LP  0  0  0  0  0  0  0  0  0  0  0  0  # atno 17394 bound_to 11000
  140.5695  134.0457  155.7425 LP  0  0  0  0  0  0  0  0  0  0  0  0  # atno 17395 bound_to 11000

$$$$
