AV-unprocessed.smi:2948|AV-procd|sdf|11283|dock8
  -GOLD-   2272016173D 1   1.00000     0.00000
 Structure written by MMmdl.
 32 33  0  0  0  0  0  0  0  0  1 V2000
  152.2361  138.0177  154.4536 C   0  0  0  0  0  0  0  0  0  0  0  0
  150.9742  138.8056  154.8117 C   0  0  0  0  0  0  0  0  0  0  0  0
  151.3321  140.1580  155.0328 O   0  0  0  0  0  0  0  0  0  0  0  0
  150.2981  140.9151  155.6396 C   0  0  0  0  0  0  0  0  0  0  0  0
  149.8873  140.2642  156.9687 C   0  0  0  0  0  0  0  0  0  0  0  0
  150.9392  140.3583  157.9720 N   0  0  0  0  0  0  0  0  0  0  0  0
  151.5400  139.3626  158.6762 C   0  0  0  0  0  0  0  0  0  0  0  0
  151.1819  137.9126  158.5112 C   0  0  0  0  0  0  0  0  0  0  0  0
  151.8525  137.0710  159.4260 O   0  0  0  0  0  0  0  0  0  0  0  0
  152.4745  139.7557  159.5444 N   0  0  0  0  0  0  0  0  0  0  0  0
  152.4952  141.1253  159.3763 C   0  0  0  0  0  0  0  0  0  0  0  0
  153.2824  142.1160  160.0059 C   0  0  0  0  0  0  0  0  0  0  0  0
  153.1261  143.4753  159.6644 C   0  0  0  0  0  0  0  0  0  0  0  0
  152.1824  143.8624  158.6910 C   0  0  0  0  0  0  0  0  0  0  0  0
  151.3879  142.8909  158.0522 C   0  0  0  0  0  0  0  0  0  0  0  0
  151.5474  141.5353  158.3976 C   0  0  0  0  0  0  0  0  0  0  0  0
  152.0026  136.9684  154.2723 H   0  0  0  0  0  0  0  0  0  0  0  0
  152.9684  138.0639  155.2600 H   0  0  0  0  0  0  0  0  0  0  0  0
  152.7037  138.4176  153.5534 H   0  0  0  0  0  0  0  0  0  0  0  0
  150.2485  138.7342  154.0001 H   0  0  0  0  0  0  0  0  0  0  0  0
  150.5135  138.3870  155.7076 H   0  0  0  0  0  0  0  0  0  0  0  0
  150.6410  141.9356  155.8183 H   0  0  0  0  0  0  0  0  0  0  0  0
  149.4360  140.9729  154.9739 H   0  0  0  0  0  0  0  0  0  0  0  0
  148.9938  140.7542  157.3568 H   0  0  0  0  0  0  0  0  0  0  0  0
  149.6107  139.2208  156.8225 H   0  0  0  0  0  0  0  0  0  0  0  0
  150.1063  137.8004  158.6485 H   0  0  0  0  0  0  0  0  0  0  0  0
  151.4161  137.5559  157.5105 H   0  0  0  0  0  0  0  0  0  0  0  0
  152.1449  137.5945  160.1561 H   0  0  0  0  0  0  0  0  0  0  0  0
  154.0088  141.8292  160.7518 H   0  0  0  0  0  0  0  0  0  0  0  0
  153.7338  144.2239  160.1510 H   0  0  0  0  0  0  0  0  0  0  0  0
  152.0696  144.9055  158.4345 H   0  0  0  0  0  0  0  0  0  0  0  0
  150.6656  143.1844  157.3051 H   0  0  0  0  0  0  0  0  0  0  0  0
  1  2  1  0  0  0  0
  1 17  1  0  0  0  0
  1 18  1  0  0  0  0
  1 19  1  0  0  0  0
  2  3  1  0  0  0  0
  2 20  1  0  0  0  0
  2 21  1  0  0  0  0
  3  4  1  0  0  0  0
  4  5  1  0  0  0  0
  4 22  1  0  0  0  0
  4 23  1  0  0  0  0
  5  6  1  0  0  0  0
  5 24  1  0  0  0  0
  5 25  1  0  0  0  0
  6 16  1  0  0  0  0
  6  7  1  0  0  0  0
  7  8  1  0  0  0  0
  7 10  2  0  0  0  0
  8  9  1  0  0  0  0
  8 26  1  0  0  0  0
  8 27  1  0  0  0  0
  9 28  1  0  0  0  0
 10 11  1  0  0  0  0
 11 16  2  0  0  0  0
 11 12  1  0  0  0  0
 12 13  2  0  0  0  0
 12 29  1  0  0  0  0
 13 14  1  0  0  0  0
 13 30  1  0  0  0  0
 14 15  2  0  0  0  0
 14 31  1  0  0  0  0
 15 16  1  0  0  0  0
 15 32  1  0  0  0  0
M  END
> <s_m_source_file>
AV-unprocessed.smi

> <i_m_source_file_index>
2948

> <i_lp_mmshare_version>
43012

> <i_f3d_flags>
0

> <s_epik_input>
W0NIM11bQ0gyXU9bQ0gyXVtDSDJdbihjKG4xKVtDSDJdW09IXSljKGMxMilbY0hdW2NIXVtjSF1bY0hdMg==

> <s_epik_cmdline>
J2VwaWtfcHl0aG9uJywgJy1waCcsICc3LjAnLCAnLXRuJywgJzgnLCAnLW1hJywgJzIwMCcsICctbWV0YWxfYmluZGluZycsICctaW1hZScsICc8aW5maWxlLm1hZT4nLCAnLW9tYWUnLCAnPG91dGZpbGUubWFlPic=

> <r_epik_Ionization_Penalty>
0.0599051

> <r_epik_Ionization_Penalty_Charging>
0

> <r_epik_Ionization_Penalty_Neutral>
0.0599051

> <r_epik_State_Penalty>
0.0518308

> <r_epik_Charging_Adjusted_Penalty>
0.0518308

> <i_epik_Tot_Q>
0

> <i_epik_Tot_abs_Q>
0

> <r_epik_Metal_State_Penalty>
5.4163e-05

> <b_epik_Metal_Only>
0

> <s_lp_Force_Field>
OPLS_2005

> <r_lp_Energy>
7.3767

> <b_lp_Chiralities_Consistent>
1

> <s_lp_Variant>
AV-unprocessed.smi:2948-1

> <Gold.Version>
5.8.1

> <Gold.Id.Protein>
6NUR|6NUR_protein|mol2

> <Gold.PLP.Fitness>
41.8085

> <Gold.PLP.PLP>
-36.0230

> <Gold.PLP.part.hbond>
-2.0000

> <Gold.PLP.part.metal>
0.0000

> <Gold.PLP.part.buried>
-4.9675

> <Gold.PLP.part.nonpolar>
-29.2249

> <Gold.PLP.part.repulsive>
0.0497

> <Gold.PLP.ligand.clash>
0.0000

> <Gold.PLP.ligand.torsion>
0.1001

> <Gold.PLP.Chemscore.Hbond>
1.9913

> <Gold.PLP.Chemscore.CHOScore>
0.0000

> <Gold.PLP.Chemscore.Metal>
0.0000

> <Gold.Chemscore.Hbonds>
donor molecule, donor type, donor heavy atom, donor atom, acceptor molecule, acceptor atom, score
      P1  H  6896  6907       L1     9  1.00
      P1  H  7989  7998       L1     3  1.00

> <Gold.PLP.Chemscore.Internal.Correction>
0.0119

> <Gold.Rescore>
     Score         DG    S(hbond)    S(metal)    S(lipo)     H(rot)  DE(clash)    DE(int)     intcor
     16.29     -16.50       1.74        0.00      93.25       2.22       0.01       0.21       ----

> <Gold.Chemscore.Fitness>
16.2882

> <Gold.Chemscore.DG>
-16.5050

> <Gold.Chemscore.ZeroCoef>
-5.4800

> <Gold.Chemscore.Hbond>
1.7375

> <Gold.Chemscore.Metal>
0.0000

> <Gold.Chemscore.Lipo>
93.2502

> <Gold.Chemscore.Internal_Hbond>
0.0000

> <Gold.Chemscore.DEClash>
0.0057

> <Gold.Chemscore.DEInternal>
0.2111

> <Gold.Chemscore.Rot>
2.2221

> <Gold.Chemscore.Internal.Correction>
   9.000000E+99

> <Gold.Chemscore.Hbonds>
donor molecule, donor type, donor heavy atom, donor atom, acceptor molecule, acceptor atom, score
      P1  H  6896  6907       L1     9  0.72
      P1  H  7989  7998       L1     3  0.39

> <Gold.Chemscore.Hbond.Weighted>
-5.8033

> <Gold.Chemscore.Metal.Weighted>
-0.0000

> <Gold.Chemscore.Lipo.Weighted>
-10.9103

> <Gold.Chemscore.Internal_Hbond.Weighted>
0.0000

> <Gold.Chemscore.DEClash.Weighted>
0.0057

> <Gold.Chemscore.DEInternal.Weighted>
0.2111

> <Gold.Chemscore.Rot.Weighted>
5.6886

> <Gold.Chemscore.Internal.Correction.Weighted>
   9.000000E+99

> <Gold.Protein.RotatedTorsions>
[ 6907 6896 6895 6894 ] final    4.61 input  -60.11 | X-H torsion
[ 7974 7965 7964 7962 ] final  164.63 input  175.53 | X-H torsion
[ 8008 7997 7996 7995 ] final  -13.74 input   59.86 | X-H torsion
[ 10167 10162 10161 10158 ] final  -27.54 input  -65.29 | X-H torsion
[ 10718 10713 10712 10709 ] final  133.13 input   66.30 | X-H torsion
[ 10763 10752 10751 10750 ] final   70.22 input  -60.55 | X-H torsion
[ 11005 11000 10999 10996 ] final   -6.13 input  -57.11 | X-H torsion

> <Gold.Protein.ActiveResidues>
 VAL166  LYS551  ARG553  GLY616  TRP617  ASP618  TYR619  PRO620  LYS621  CYS622 
 ASP623  PHE694  ASN695  SER759  ASP760  ASP761  ALA762  ILE779  LEU786  VAL792 
 PHE793  MET794  SER795  GLU796  ALA797  LYS798  CYS799  TRP800  GLU811  SER814 

> <Gold.Protein.RotatedAtoms>
  151.6441  135.1009  160.0147 H   0  0  0  0  0  0  0  0  0  0  0  0  # atno 6907 bound_to 6896
  152.4038  133.6853  159.6347 H   0  0  0  0  0  0  0  0  0  0  0  0  # atno 6908 bound_to 6896
  150.7934  133.8662  159.3287 H   0  0  0  0  0  0  0  0  0  0  0  0  # atno 6909 bound_to 6896
  144.7537  139.8354  143.6357 H   0  0  0  0  0  0  0  0  0  0  0  0  # atno 7974 bound_to 7965
  154.5268  140.2241  155.8876 H   0  0  0  0  0  0  0  0  0  0  0  0  # atno 8008 bound_to 7997
  156.1721  140.3119  155.8957 H   0  0  0  0  0  0  0  0  0  0  0  0  # atno 8009 bound_to 7997
  155.3536  140.0457  157.3037 H   0  0  0  0  0  0  0  0  0  0  0  0  # atno 8010 bound_to 7997
  140.7276  143.4084  151.1146 H   0  0  0  0  0  0  0  0  0  0  0  0  # atno 10167 bound_to 10162
  157.4803  131.1085  150.9690 H   0  0  0  0  0  0  0  0  0  0  0  0  # atno 10718 bound_to 10713
  153.0330  135.5182  154.7408 H   0  0  0  0  0  0  0  0  0  0  0  0  # atno 10763 bound_to 10752
  154.6408  135.2912  155.0108 H   0  0  0  0  0  0  0  0  0  0  0  0  # atno 10764 bound_to 10752
  154.1026  135.6634  153.4923 H   0  0  0  0  0  0  0  0  0  0  0  0  # atno 10765 bound_to 10752
  140.6986  133.9009  155.8668 H   0  0  0  0  0  0  0  0  0  0  0  0  # atno 11005 bound_to 11000
  146.1520  139.4606  143.0043 LP  0  0  0  0  0  0  0  0  0  0  0  0  # atno 17320 bound_to 7965
  145.6855  141.0179  143.1584 LP  0  0  0  0  0  0  0  0  0  0  0  0  # atno 17321 bound_to 7965
  139.7714  143.8488  152.3121 LP  0  0  0  0  0  0  0  0  0  0  0  0  # atno 17342 bound_to 10162
  139.8408  144.7211  150.9333 LP  0  0  0  0  0  0  0  0  0  0  0  0  # atno 17343 bound_to 10162
  157.0425  130.5755  149.5358 LP  0  0  0  0  0  0  0  0  0  0  0  0  # atno 17370 bound_to 10713
  156.0118  130.5210  150.8012 LP  0  0  0  0  0  0  0  0  0  0  0  0  # atno 17371 bound_to 10713
  141.0182  134.0926  157.4149 LP  0  0  0  0  0  0  0  0  0  0  0  0  # atno 17394 bound_to 11000
  139.8903  135.0111  156.6727 LP  0  0  0  0  0  0  0  0  0  0  0  0  # atno 17395 bound_to 11000

$$$$
