AV-unprocessed.smi:72|AV-procd|sdf|696|dock2
  -GOLD-   2262017 13D 1   1.00000     0.00000
 Structure written by MMmdl.
 30 31  0  0  0  0  0  0  0  0  2 V2000
  152.8050  143.9980  160.1811 N   0  0  0  0  0  0  0  0  0  0  0  0
  152.0544  143.0722  159.4869 C   0  0  0  0  0  0  0  0  0  0  0  0
  151.1919  143.5431  158.5130 N   0  3  0  0  0  0  0  0  0  0  0  0
  150.3940  142.7784  157.7552 C   0  0  0  0  0  0  0  0  0  0  0  0
  150.4073  141.4724  157.9278 N   0  0  0  0  0  0  0  0  0  0  0  0
  149.5450  140.5559  157.0949 C   0  0  1  0  0  0  0  0  0  0  0  0
  148.7257  141.3411  156.2801 O   0  0  0  0  0  0  0  0  0  0  0  0
  149.1362  141.2389  154.9185 C   0  0  2  0  0  0  0  0  0  0  0  0
  147.9459  141.5383  153.9951 C   0  0  0  0  0  0  0  0  0  0  0  0
  147.5901  142.9004  154.0986 O   0  0  0  0  0  0  0  0  0  0  0  0
  149.6234  139.7925  154.8485 C   0  0  1  0  0  0  0  0  0  0  0  0
  150.4278  139.5258  153.7149 O   0  0  0  0  0  0  0  0  0  0  0  0
  150.3701  139.6349  156.1683 C   0  0  1  0  0  0  0  0  0  0  0  0
  151.7323  140.0232  156.0567 O   0  0  0  0  0  0  0  0  0  0  0  0
  151.2702  140.8947  158.8939 C   0  0  0  0  0  0  0  0  0  0  0  0
  151.3080  139.6739  159.0447 O   0  0  0  0  0  0  0  0  0  0  0  0
  152.0626  141.7771  159.6425 N   0  0  0  0  0  0  0  0  0  0  0  0
  148.9028  140.0167  157.7932 H   0  0  0  0  0  0  0  0  0  0  0  0
  149.9700  141.9149  154.7202 H   0  0  0  0  0  0  0  0  0  0  0  0
  148.7640  139.1199  154.8386 H   0  0  0  0  0  0  0  0  0  0  0  0
  150.3283  138.6087  156.5352 H   0  0  0  0  0  0  0  0  0  0  0  0
  153.4601  143.7448  160.9075 H   0  0  0  0  0  0  0  0  0  0  0  0
  152.7661  144.9936  160.0172 H   0  0  0  0  0  0  0  0  0  0  0  0
  149.7571  143.2472  157.0175 H   0  0  0  0  0  0  0  0  0  0  0  0
  148.2183  141.3487  152.9565 H   0  0  0  0  0  0  0  0  0  0  0  0
  147.0913  140.9024  154.2277 H   0  0  0  0  0  0  0  0  0  0  0  0
  148.1833  143.3207  154.7027 H   0  0  0  0  0  0  0  0  0  0  0  0
  149.8979  139.6271  152.9388 H   0  0  0  0  0  0  0  0  0  0  0  0
  152.2699  139.2473  156.1112 H   0  0  0  0  0  0  0  0  0  0  0  0
  151.1644  144.5414  158.3627 H   0  0  0  0  0  0  0  0  0  0  0  0
  1  2  1  0  0  0  0
  1 22  1  0  0  0  0
  1 23  1  0  0  0  0
  2 17  2  0  0  0  0
  2  3  1  0  0  0  0
  3  4  2  0  0  0  0
  3 30  1  0  0  0  0
  4  5  1  0  0  0  0
  4 24  1  0  0  0  0
  5  6  1  0  0  0  0
  5 15  1  0  0  0  0
  6 18  1  0  0  0  0
  6 13  1  0  0  0  0
  6  7  1  0  0  0  0
  7  8  1  0  0  0  0
  8 19  1  0  0  0  0
  8  9  1  0  0  0  0
  8 11  1  0  0  0  0
  9 10  1  0  0  0  0
  9 25  1  0  0  0  0
  9 26  1  0  0  0  0
 10 27  1  0  0  0  0
 11 20  1  0  0  0  0
 11 12  1  0  0  0  0
 11 13  1  0  0  0  0
 12 28  1  0  0  0  0
 13 21  1  0  0  0  0
 13 14  1  0  0  0  0
 14 29  1  0  0  0  0
 15 16  2  0  0  0  0
 15 17  1  0  0  0  0
M  CHG  1   3   1
M  END
> <s_m_source_file>
AV-unprocessed.smi

> <i_m_source_file_index>
72

> <i_lp_mmshare_version>
43012

> <i_f3d_flags>
0

> <s_epik_input>
W05IMl1jMW5bY0hdbihjKD1PKW4xKVtDQEBIXTJPW0NASF0oW0NIMl1bT0hdKVtDQEBIXShbT0hdKVtDQEhdMltPSF0=

> <s_epik_cmdline>
J2VwaWtfcHl0aG9uJywgJy1waCcsICc3LjAnLCAnLXRuJywgJzgnLCAnLW1hJywgJzIwMCcsICctbWV0YWxfYmluZGluZycsICctaW1hZScsICc8aW5maWxlLm1hZT4nLCAnLW9tYWUnLCAnPG91dGZpbGUubWFlPic=

> <r_lp_tautomer_probability>
4.77166e-05

> <r_epik_Ionization_Penalty>
0.104979

> <r_epik_Ionization_Penalty_Charging>
0.0999619

> <r_epik_Ionization_Penalty_Neutral>
0.00501745

> <r_epik_State_Penalty>
2.51541

> <r_epik_Charging_Adjusted_Penalty>
2.61537

> <i_epik_Tot_Q>
1

> <i_epik_Tot_abs_Q>
1

> <r_epik_Metal_State_Penalty>
3.53763

> <b_epik_Metal_Only>
0

> <s_epik_Chemistry_Notes>
This compound contains an acetal/aminal-like group ( X-CH(R)-Y where X, Y are N, S, or O) that may be acid/base labile, releasing an aldehyde.

> <s_lp_Force_Field>
OPLS_2005

> <r_lp_Energy>
36.6563

> <b_lp_Chiralities_Consistent>
1

> <s_lp_Variant>
AV-unprocessed.smi:72-34

> <Gold.Version>
5.8.1

> <Gold.Id.Protein>
6NUR|6NUR_protein|mol2

> <Gold.PLP.Fitness>
34.5868

> <Gold.PLP.PLP>
-22.7285

> <Gold.PLP.part.hbond>
-4.5560

> <Gold.PLP.part.metal>
0.0000

> <Gold.PLP.part.buried>
-1.4466

> <Gold.PLP.part.nonpolar>
-16.8420

> <Gold.PLP.part.repulsive>
0.1442

> <Gold.PLP.ligand.clash>
0.0000

> <Gold.PLP.ligand.torsion>
0.0693

> <Gold.PLP.Chemscore.Hbond>
2.9600

> <Gold.PLP.Chemscore.CHOScore>
1.0000

> <Gold.PLP.Chemscore.Metal>
0.0000

> <Gold.Chemscore.Hbonds>
donor molecule, donor type, donor heavy atom, donor atom, acceptor molecule, acceptor atom, score
      L1  H    10    27       P1  8028  1.00
      L1  H    12    28       P1  7957  1.00
      P1  H  7989  7998       L1    12  0.96
      L1  C     4    24       P1  8028  1.00

> <Gold.PLP.Chemscore.Internal.Correction>
0.1170

> <Gold.Rescore>
     Score         DG    S(hbond)    S(metal)    S(lipo)     H(rot)  DE(clash)    DE(int)     intcor
      3.70      -5.25       2.20        0.00      24.37       4.08       1.18       0.37       ----

> <Gold.Chemscore.Fitness>
3.7025

> <Gold.Chemscore.DG>
-5.2515

> <Gold.Chemscore.ZeroCoef>
-5.4800

> <Gold.Chemscore.Hbond>
2.2037

> <Gold.Chemscore.Metal>
0.0000

> <Gold.Chemscore.Lipo>
24.3726

> <Gold.Chemscore.Internal_Hbond>
0.0000

> <Gold.Chemscore.DEClash>
1.1773

> <Gold.Chemscore.DEInternal>
0.3717

> <Gold.Chemscore.Rot>
4.0783

> <Gold.Chemscore.Internal.Correction>
   9.000000E+99

> <Gold.Chemscore.Hbonds>
donor molecule, donor type, donor heavy atom, donor atom, acceptor molecule, acceptor atom, score
      L1  H    10    27       P1  8028  0.93
      L1  H    12    28       P1  7957  0.97
      P1  H  7989  7998       L1    12  0.19

> <Gold.Chemscore.Hbond.Weighted>
-7.3603

> <Gold.Chemscore.Metal.Weighted>
-0.0000

> <Gold.Chemscore.Lipo.Weighted>
-2.8516

> <Gold.Chemscore.Internal_Hbond.Weighted>
0.0000

> <Gold.Chemscore.DEClash.Weighted>
1.1773

> <Gold.Chemscore.DEInternal.Weighted>
0.3717

> <Gold.Chemscore.Rot.Weighted>
10.4404

> <Gold.Chemscore.Internal.Correction.Weighted>
   9.000000E+99

> <Gold.Protein.RotatedTorsions>
[ 6907 6896 6895 6894 ] final  169.88 input  -60.11 | X-H torsion
[ 7974 7965 7964 7962 ] final    0.61 input  175.53 | X-H torsion
[ 8008 7997 7996 7995 ] final  141.93 input   59.86 | X-H torsion
[ 10167 10162 10161 10158 ] final  -46.06 input  -65.29 | X-H torsion
[ 10718 10713 10712 10709 ] final  172.50 input   66.30 | X-H torsion
[ 10763 10752 10751 10750 ] final -124.90 input  -60.55 | X-H torsion
[ 11005 11000 10999 10996 ] final   11.01 input  -57.11 | X-H torsion

> <Gold.Protein.ActiveResidues>
 VAL166  LYS551  ARG553  GLY616  TRP617  ASP618  TYR619  PRO620  LYS621  CYS622 
 ASP623  PHE694  ASN695  SER759  ASP760  ASP761  ALA762  ILE779  LEU786  VAL792 
 PHE793  MET794  SER795  GLU796  ALA797  LYS798  CYS799  TRP800  GLU811  SER814 

> <Gold.Protein.RotatedAtoms>
  151.8250  133.3400  159.3595 H   0  0  0  0  0  0  0  0  0  0  0  0  # atno 6907 bound_to 6896
  150.7282  134.5538  159.5817 H   0  0  0  0  0  0  0  0  0  0  0  0  # atno 6908 bound_to 6896
  152.2978  134.7647  160.0415 H   0  0  0  0  0  0  0  0  0  0  0  0  # atno 6909 bound_to 6896
  146.2435  140.1111  142.8344 H   0  0  0  0  0  0  0  0  0  0  0  0  # atno 7974 bound_to 7965
  156.2958  140.2302  156.4644 H   0  0  0  0  0  0  0  0  0  0  0  0  # atno 8008 bound_to 7997
  154.7990  140.0449  157.1279 H   0  0  0  0  0  0  0  0  0  0  0  0  # atno 8009 bound_to 7997
  154.9556  140.3047  155.5058 H   0  0  0  0  0  0  0  0  0  0  0  0  # atno 8010 bound_to 7997
  140.6833  143.2849  151.3729 H   0  0  0  0  0  0  0  0  0  0  0  0  # atno 10167 bound_to 10162
  156.9780  131.0110  151.2889 H   0  0  0  0  0  0  0  0  0  0  0  0  # atno 10718 bound_to 10713
  154.8729  135.4048  154.3181 H   0  0  0  0  0  0  0  0  0  0  0  0  # atno 10763 bound_to 10752
  153.4014  135.7018  153.6429 H   0  0  0  0  0  0  0  0  0  0  0  0  # atno 10764 bound_to 10752
  153.5170  135.3695  155.2585 H   0  0  0  0  0  0  0  0  0  0  0  0  # atno 10765 bound_to 10752
  140.5080  134.0680  155.7811 H   0  0  0  0  0  0  0  0  0  0  0  0  # atno 11005 bound_to 11000
  145.0486  140.9000  143.5009 LP  0  0  0  0  0  0  0  0  0  0  0  0  # atno 17320 bound_to 7965
  145.1205  139.2697  143.5591 LP  0  0  0  0  0  0  0  0  0  0  0  0  # atno 17321 bound_to 7965
  139.6171  144.0981  152.2356 LP  0  0  0  0  0  0  0  0  0  0  0  0  # atno 17342 bound_to 10162
  140.0414  144.6005  150.7408 LP  0  0  0  0  0  0  0  0  0  0  0  0  # atno 17343 bound_to 10162
  157.5546  130.8205  149.8188 LP  0  0  0  0  0  0  0  0  0  0  0  0  # atno 17370 bound_to 10713
  156.0256  130.3781  150.1834 LP  0  0  0  0  0  0  0  0  0  0  0  0  # atno 17371 bound_to 10713
  141.1400  133.9154  157.2346 LP  0  0  0  0  0  0  0  0  0  0  0  0  # atno 17394 bound_to 11000
  139.9675  135.0138  156.9425 LP  0  0  0  0  0  0  0  0  0  0  0  0  # atno 17395 bound_to 11000

$$$$
