AV-unprocessed.smi:2333|AV-procd|sdf|9320|dock1
  -GOLD-   2272012543D 1   1.00000     0.00000
 Structure written by MMmdl.
 37 38  0  0  0  0  0  0  0  0  1 V2000
  152.0814  144.3290  160.2749 C   0  0  0  0  0  0  0  0  0  0  0  0
  151.9915  143.2690  159.1913 C   0  0  0  0  0  0  0  0  0  0  0  0
  151.2056  143.6020  158.0849 N   0  0  0  0  0  0  0  0  0  0  0  0
  151.0819  142.7654  157.1072 C   0  0  0  0  0  0  0  0  0  0  0  0
  151.7218  141.5128  157.1172 N   0  0  0  0  0  0  0  0  0  0  0  0
  151.5000  140.6447  155.9420 C   0  0  0  0  0  0  0  0  0  0  0  0
  150.0066  140.4347  155.5472 C   0  0  0  0  0  0  0  0  0  0  0  0
  149.2630  140.3559  156.7495 O   0  0  0  0  0  0  0  0  0  0  0  0
  149.4927  141.6894  154.7977 C   0  0  0  0  0  0  0  0  0  0  0  0
  148.0359  141.5591  154.3170 C   0  0  0  0  0  0  0  0  0  0  0  0
  147.8433  140.3025  153.4581 C   0  0  0  0  0  0  0  0  0  0  0  0
  148.2834  139.0462  154.2215 C   0  0  0  0  0  0  0  0  0  0  0  0
  149.7411  139.1606  154.7032 C   0  0  0  0  0  0  0  0  0  0  0  0
  152.4764  141.0964  158.1757 C   0  0  0  0  0  0  0  0  0  0  0  0
  152.9942  139.9787  158.2046 O   0  0  0  0  0  0  0  0  0  0  0  0
  152.6250  142.0673  159.2720 C   0  0  0  0  0  0  0  0  0  0  0  0
  153.4973  141.6512  160.4499 C   0  0  0  0  0  0  0  0  0  0  0  0
  151.7314  143.9320  161.2282 H   0  0  0  0  0  0  0  0  0  0  0  0
  151.4699  145.1991  160.0320 H   0  0  0  0  0  0  0  0  0  0  0  0
  153.1114  144.6665  160.3939 H   0  0  0  0  0  0  0  0  0  0  0  0
  150.4834  142.9819  156.2208 H   0  0  0  0  0  0  0  0  0  0  0  0
  152.0659  141.0177  155.0857 H   0  0  0  0  0  0  0  0  0  0  0  0
  151.9511  139.6691  156.1338 H   0  0  0  0  0  0  0  0  0  0  0  0
  149.2100  139.4492  157.0102 H   0  0  0  0  0  0  0  0  0  0  0  0
  149.5926  142.5742  155.4281 H   0  0  0  0  0  0  0  0  0  0  0  0
  150.1231  141.8703  153.9259 H   0  0  0  0  0  0  0  0  0  0  0  0
  147.3622  141.5250  155.1740 H   0  0  0  0  0  0  0  0  0  0  0  0
  147.7564  142.4441  153.7446 H   0  0  0  0  0  0  0  0  0  0  0  0
  146.7982  140.2110  153.1606 H   0  0  0  0  0  0  0  0  0  0  0  0
  148.4213  140.3942  152.5376 H   0  0  0  0  0  0  0  0  0  0  0  0
  147.6235  138.8859  155.0746 H   0  0  0  0  0  0  0  0  0  0  0  0
  148.1748  138.1691  153.5827 H   0  0  0  0  0  0  0  0  0  0  0  0
  150.3940  139.1672  153.8297 H   0  0  0  0  0  0  0  0  0  0  0  0
  149.9960  138.2642  155.2700 H   0  0  0  0  0  0  0  0  0  0  0  0
  154.5038  141.4108  160.1054 H   0  0  0  0  0  0  0  0  0  0  0  0
  153.0830  140.7636  160.9289 H   0  0  0  0  0  0  0  0  0  0  0  0
  153.5888  142.4237  161.2116 H   0  0  0  0  0  0  0  0  0  0  0  0
  1  2  1  0  0  0  0
  1 18  1  0  0  0  0
  1 19  1  0  0  0  0
  1 20  1  0  0  0  0
  2 16  2  0  0  0  0
  2  3  1  0  0  0  0
  3  4  2  0  0  0  0
  4  5  1  0  0  0  0
  4 21  1  0  0  0  0
  5  6  1  0  0  0  0
  5 14  1  0  0  0  0
  6  7  1  0  0  0  0
  6 22  1  0  0  0  0
  6 23  1  0  0  0  0
  7 13  1  0  0  0  0
  7  8  1  0  0  0  0
  7  9  1  0  0  0  0
  8 24  1  0  0  0  0
  9 10  1  0  0  0  0
  9 25  1  0  0  0  0
  9 26  1  0  0  0  0
 10 11  1  0  0  0  0
 10 27  1  0  0  0  0
 10 28  1  0  0  0  0
 11 12  1  0  0  0  0
 11 29  1  0  0  0  0
 11 30  1  0  0  0  0
 12 13  1  0  0  0  0
 12 31  1  0  0  0  0
 12 32  1  0  0  0  0
 13 33  1  0  0  0  0
 13 34  1  0  0  0  0
 14 15  2  0  0  0  0
 14 16  1  0  0  0  0
 16 17  1  0  0  0  0
 17 35  1  0  0  0  0
 17 36  1  0  0  0  0
 17 37  1  0  0  0  0
M  END
> <s_m_source_file>
AV-unprocessed.smi

> <i_m_source_file_index>
2333

> <i_lp_mmshare_version>
43012

> <i_f3d_flags>
0

> <s_epik_input>
W0NIM11jMW5bY0hdbihjKD1PKWMxW0NIM10pW0NIMl1DMihbT0hdKVtDSDJdW0NIMl1bQ0gyXVtDSDJdW0NIMl0y

> <s_epik_cmdline>
J2VwaWtfcHl0aG9uJywgJy1waCcsICc3LjAnLCAnLXRuJywgJzgnLCAnLW1hJywgJzIwMCcsICctbWV0YWxfYmluZGluZycsICctaW1hZScsICc8aW5maWxlLm1hZT4nLCAnLW9tYWUnLCAnPG91dGZpbGUubWFlPic=

> <r_lp_tautomer_probability>
1

> <r_epik_Ionization_Penalty>
0.000179312

> <r_epik_Ionization_Penalty_Charging>
2.41041e-07

> <r_epik_Ionization_Penalty_Neutral>
0.000179071

> <r_epik_State_Penalty>
-0

> <r_epik_Charging_Adjusted_Penalty>
2.41041e-07

> <i_epik_Tot_Q>
0

> <i_epik_Tot_abs_Q>
0

> <r_epik_Metal_State_Penalty>
-0

> <b_epik_Metal_Only>
0

> <s_lp_Force_Field>
OPLS_2005

> <r_lp_Energy>
24.9482

> <b_lp_Chiralities_Consistent>
1

> <s_lp_Variant>
AV-unprocessed.smi:2333-1

> <Gold.Version>
5.8.1

> <Gold.Id.Protein>
6NUR|6NUR_protein|mol2

> <Gold.PLP.Fitness>
39.7429

> <Gold.PLP.PLP>
-34.4142

> <Gold.PLP.part.hbond>
-1.0000

> <Gold.PLP.part.metal>
0.0000

> <Gold.PLP.part.buried>
0.1869

> <Gold.PLP.part.nonpolar>
-31.1657

> <Gold.PLP.part.repulsive>
0.1240

> <Gold.PLP.ligand.clash>
0.0000

> <Gold.PLP.ligand.torsion>
0.3637

> <Gold.PLP.Chemscore.Hbond>
1.0000

> <Gold.PLP.Chemscore.CHOScore>
1.0000

> <Gold.PLP.Chemscore.Metal>
0.0000

> <Gold.Chemscore.Hbonds>
donor molecule, donor type, donor heavy atom, donor atom, acceptor molecule, acceptor atom, score
      P1  H  7997  8008       L1    15  1.00
      L1  C     4    21       P1  8028  1.00

> <Gold.PLP.Chemscore.Internal.Correction>
0.0561

> <Gold.Rescore>
     Score         DG    S(hbond)    S(metal)    S(lipo)     H(rot)  DE(clash)    DE(int)     intcor
     11.59     -14.26       0.83        0.00      88.15       1.69       0.28       2.39       ----

> <Gold.Chemscore.Fitness>
11.5941

> <Gold.Chemscore.DG>
-14.2559

> <Gold.Chemscore.ZeroCoef>
-5.4800

> <Gold.Chemscore.Hbond>
0.8346

> <Gold.Chemscore.Metal>
0.0000

> <Gold.Chemscore.Lipo>
88.1505

> <Gold.Chemscore.Internal_Hbond>
0.0000

> <Gold.Chemscore.DEClash>
0.2756

> <Gold.Chemscore.DEInternal>
2.3863

> <Gold.Chemscore.Rot>
1.6895

> <Gold.Chemscore.Internal.Correction>
   9.000000E+99

> <Gold.Chemscore.Hbonds>
donor molecule, donor type, donor heavy atom, donor atom, acceptor molecule, acceptor atom, score
      P1  H  7997  8008       L1    15  0.47

> <Gold.Chemscore.Hbond.Weighted>
-2.7875

> <Gold.Chemscore.Metal.Weighted>
-0.0000

> <Gold.Chemscore.Lipo.Weighted>
-10.3136

> <Gold.Chemscore.Internal_Hbond.Weighted>
0.0000

> <Gold.Chemscore.DEClash.Weighted>
0.2756

> <Gold.Chemscore.DEInternal.Weighted>
2.3863

> <Gold.Chemscore.Rot.Weighted>
4.3252

> <Gold.Chemscore.Internal.Correction.Weighted>
   9.000000E+99

> <Gold.Protein.RotatedTorsions>
[ 6907 6896 6895 6894 ] final   66.75 input  -60.11 | X-H torsion
[ 7974 7965 7964 7962 ] final  114.95 input  175.53 | X-H torsion
[ 8008 7997 7996 7995 ] final  -75.41 input   59.86 | X-H torsion
[ 10167 10162 10161 10158 ] final  101.86 input  -65.29 | X-H torsion
[ 10718 10713 10712 10709 ] final -105.46 input   66.30 | X-H torsion
[ 10763 10752 10751 10750 ] final  -66.37 input  -60.55 | X-H torsion
[ 11005 11000 10999 10996 ] final  -12.30 input  -57.11 | X-H torsion

> <Gold.Protein.ActiveResidues>
 VAL166  LYS551  ARG553  GLY616  TRP617  ASP618  TYR619  PRO620  LYS621  CYS622 
 ASP623  PHE694  ASN695  SER759  ASP760  ASP761  ALA762  ILE779  LEU786  VAL792 
 PHE793  MET794  SER795  GLU796  ALA797  LYS798  CYS799  TRP800  GLU811  SER814 

> <Gold.Protein.RotatedAtoms>
  152.4503  134.5408  159.9838 H   0  0  0  0  0  0  0  0  0  0  0  0  # atno 6907 bound_to 6896
  151.5482  133.3416  159.2956 H   0  0  0  0  0  0  0  0  0  0  0  0  # atno 6908 bound_to 6896
  150.8430  134.7761  159.7011 H   0  0  0  0  0  0  0  0  0  0  0  0  # atno 6909 bound_to 6896
  145.1980  139.2966  143.4333 H   0  0  0  0  0  0  0  0  0  0  0  0  # atno 7974 bound_to 7965
  154.5415  140.0744  156.8517 H   0  0  0  0  0  0  0  0  0  0  0  0  # atno 8008 bound_to 7997
  155.3172  140.3394  155.4224 H   0  0  0  0  0  0  0  0  0  0  0  0  # atno 8009 bound_to 7997
  156.1878  140.1675  156.8137 H   0  0  0  0  0  0  0  0  0  0  0  0  # atno 8010 bound_to 7997
  139.7401  144.7013  151.0589 H   0  0  0  0  0  0  0  0  0  0  0  0  # atno 10167 bound_to 10162
  156.0347  130.5565  150.7542 H   0  0  0  0  0  0  0  0  0  0  0  0  # atno 10718 bound_to 10713
  154.3589  135.6120  153.5680 H   0  0  0  0  0  0  0  0  0  0  0  0  # atno 10763 bound_to 10752
  152.9794  135.5810  154.4656 H   0  0  0  0  0  0  0  0  0  0  0  0  # atno 10764 bound_to 10752
  154.4390  135.2849  155.1838 H   0  0  0  0  0  0  0  0  0  0  0  0  # atno 10765 bound_to 10752
  140.7643  133.8489  155.9152 H   0  0  0  0  0  0  0  0  0  0  0  0  # atno 11005 bound_to 11000
  146.3423  140.2215  142.8591 LP  0  0  0  0  0  0  0  0  0  0  0  0  # atno 17320 bound_to 7965
  144.9975  140.8602  143.5302 LP  0  0  0  0  0  0  0  0  0  0  0  0  # atno 17321 bound_to 7965
  140.7784  143.4935  150.9862 LP  0  0  0  0  0  0  0  0  0  0  0  0  # atno 17342 bound_to 10162
  139.8623  143.7298  152.3172 LP  0  0  0  0  0  0  0  0  0  0  0  0  # atno 17343 bound_to 10162
  157.5079  131.0923  151.0235 LP  0  0  0  0  0  0  0  0  0  0  0  0  # atno 17370 bound_to 10713
  157.0598  130.5821  149.5384 LP  0  0  0  0  0  0  0  0  0  0  0  0  # atno 17371 bound_to 10713
  140.9633  134.1626  157.4636 LP  0  0  0  0  0  0  0  0  0  0  0  0  # atno 17394 bound_to 11000
  139.8765  134.9953  156.5735 LP  0  0  0  0  0  0  0  0  0  0  0  0  # atno 17395 bound_to 11000

$$$$
