AV-unprocessed.smi:1356|AV-procd|sdf|5541|dock8
  -GOLD-   22720 5133D 1   1.00000     0.00000
 Structure written by MMmdl.
 41 42  0  0  0  0  0  0  0  0  1 V2000
  150.0903  131.7992  155.9308 C   0  0  0  0  0  0  0  0  0  0  0  0
  149.4991  132.1752  154.5832 C   0  0  1  0  0  0  0  0  0  0  0  0
  148.0980  132.7304  154.5080 C   0  0  0  0  0  0  0  0  0  0  0  0
  149.2698  133.6074  154.1165 C   0  0  1  0  0  0  0  0  0  0  0  0
  149.6481  134.7297  155.0233 C   0  0  0  0  0  0  0  0  0  0  0  0
  150.0033  134.5444  156.1872 O   0  0  0  0  0  0  0  0  0  0  0  0
  149.6206  135.9406  154.4454 N   0  0  0  0  0  0  0  0  0  0  0  0
  149.9617  137.1924  155.1115 C   0  0  0  0  0  0  0  0  0  0  0  0
  151.3343  137.7194  154.6476 C   0  0  0  0  0  0  0  0  0  0  0  0
  151.6801  139.1039  155.2055 C   0  0  0  0  0  0  0  0  0  0  0  0
  152.8086  139.5786  155.0714 O   0  0  0  0  0  0  0  0  0  0  0  0
  150.6843  139.7450  155.8360 N   0  0  0  0  0  0  0  0  0  0  0  0
  150.7934  141.0583  156.4606 C   0  0  0  0  0  0  0  0  0  0  0  0
  151.6732  141.0218  157.7216 C   0  0  0  0  0  0  0  0  0  0  0  0
  151.6782  142.3508  158.4528 C   0  0  0  0  0  0  0  0  0  0  0  0
  152.4667  142.5335  159.6089 C   0  0  0  0  0  0  0  0  0  0  0  0
  152.4261  143.7828  160.2580 C   0  0  0  0  0  0  0  0  0  0  0  0
  151.6027  144.7953  159.7292 C   0  0  0  0  0  0  0  0  0  0  0  0
  150.8527  144.5122  158.5703 C   0  0  0  0  0  0  0  0  0  0  0  0
  150.8834  143.3176  157.9409 N   0  0  0  0  0  0  0  0  0  0  0  0
  149.7005  132.4344  156.7269 H   0  0  0  0  0  0  0  0  0  0  0  0
  151.1756  131.8975  155.9047 H   0  0  0  0  0  0  0  0  0  0  0  0
  149.8425  130.7650  156.1690 H   0  0  0  0  0  0  0  0  0  0  0  0
  149.7911  131.4866  153.7927 H   0  0  0  0  0  0  0  0  0  0  0  0
  147.4525  132.3797  153.7054 H   0  0  0  0  0  0  0  0  0  0  0  0
  147.5887  132.9412  155.4470 H   0  0  0  0  0  0  0  0  0  0  0  0
  149.4438  133.7869  153.0573 H   0  0  0  0  0  0  0  0  0  0  0  0
  149.3363  135.9987  153.4782 H   0  0  0  0  0  0  0  0  0  0  0  0
  149.1794  137.9326  154.9326 H   0  0  0  0  0  0  0  0  0  0  0  0
  149.9744  137.0071  156.1861 H   0  0  0  0  0  0  0  0  0  0  0  0
  152.1182  137.0206  154.9420 H   0  0  0  0  0  0  0  0  0  0  0  0
  151.3581  137.7761  153.5581 H   0  0  0  0  0  0  0  0  0  0  0  0
  149.7889  139.2831  155.9001 H   0  0  0  0  0  0  0  0  0  0  0  0
  151.2226  141.7420  155.7278 H   0  0  0  0  0  0  0  0  0  0  0  0
  149.7997  141.4420  156.6986 H   0  0  0  0  0  0  0  0  0  0  0  0
  151.3258  140.2443  158.4032 H   0  0  0  0  0  0  0  0  0  0  0  0
  152.6983  140.7599  157.4558 H   0  0  0  0  0  0  0  0  0  0  0  0
  153.0857  141.7357  159.9923 H   0  0  0  0  0  0  0  0  0  0  0  0
  153.0144  143.9609  161.1457 H   0  0  0  0  0  0  0  0  0  0  0  0
  151.5461  145.7653  160.2007 H   0  0  0  0  0  0  0  0  0  0  0  0
  150.2100  145.2651  158.1385 H   0  0  0  0  0  0  0  0  0  0  0  0
  1  2  1  0  0  0  0
  1 21  1  0  0  0  0
  1 22  1  0  0  0  0
  1 23  1  0  0  0  0
  2  4  1  0  0  0  0
  2  3  1  0  0  0  0
  2 24  1  0  0  0  0
  3  4  1  0  0  0  0
  3 25  1  0  0  0  0
  3 26  1  0  0  0  0
  4  5  1  0  0  0  0
  4 27  1  0  0  0  0
  5  6  2  0  0  0  0
  5  7  1  0  0  0  0
  7  8  1  0  0  0  0
  7 28  1  0  0  0  0
  8  9  1  0  0  0  0
  8 29  1  0  0  0  0
  8 30  1  0  0  0  0
  9 10  1  0  0  0  0
  9 31  1  0  0  0  0
  9 32  1  0  0  0  0
 10 11  2  0  0  0  0
 10 12  1  0  0  0  0
 12 13  1  0  0  0  0
 12 33  1  0  0  0  0
 13 14  1  0  0  0  0
 13 34  1  0  0  0  0
 13 35  1  0  0  0  0
 14 15  1  0  0  0  0
 14 36  1  0  0  0  0
 14 37  1  0  0  0  0
 15 20  1  0  0  0  0
 15 16  2  0  0  0  0
 16 17  1  0  0  0  0
 16 38  1  0  0  0  0
 17 18  2  0  0  0  0
 17 39  1  0  0  0  0
 18 19  1  0  0  0  0
 18 40  1  0  0  0  0
 19 20  2  0  0  0  0
 19 41  1  0  0  0  0
M  END
> <s_m_source_file>
AV-unprocessed.smi

> <i_m_source_file_index>
1356

> <i_lp_mmshare_version>
43012

> <i_f3d_flags>
0

> <s_epik_input>
W0NIM11bQ0BASF0xW0NIMl1bQ0BIXTFDKD1PKVtOSF1bQ0gyXVtDSDJdQyg9TylbTkhdW0NIMl1bQ0gyXWMyW2NIXVtjSF1bY0hdW2NIXW4y

> <s_epik_cmdline>
J2VwaWtfcHl0aG9uJywgJy1waCcsICc3LjAnLCAnLXRuJywgJzgnLCAnLW1hJywgJzIwMCcsICctbWV0YWxfYmluZGluZycsICctaW1hZScsICc8aW5maWxlLm1hZT4nLCAnLW9tYWUnLCAnPG91dGZpbGUubWFlPic=

> <r_epik_Ionization_Penalty>
0.0258005

> <r_epik_Ionization_Penalty_Charging>
0

> <r_epik_Ionization_Penalty_Neutral>
0.0258005

> <r_epik_State_Penalty>
0.0210245

> <r_epik_Charging_Adjusted_Penalty>
0.0210245

> <i_epik_Tot_Q>
0

> <i_epik_Tot_abs_Q>
0

> <r_epik_Metal_State_Penalty>
0.0201445

> <b_epik_Metal_Only>
0

> <s_lp_Force_Field>
OPLS_2005

> <r_lp_Energy>
8.2515

> <b_lp_Chiralities_Consistent>
1

> <s_lp_Variant>
AV-unprocessed.smi:1356-2

> <Gold.Version>
5.8.1

> <Gold.Id.Protein>
6NUR|6NUR_protein|mol2

> <Gold.PLP.Fitness>
52.1574

> <Gold.PLP.PLP>
-43.4327

> <Gold.PLP.part.hbond>
-3.3984

> <Gold.PLP.part.metal>
0.0000

> <Gold.PLP.part.buried>
-5.7759

> <Gold.PLP.part.nonpolar>
-35.8329

> <Gold.PLP.part.repulsive>
0.3080

> <Gold.PLP.ligand.clash>
0.0000

> <Gold.PLP.ligand.torsion>
0.3241

> <Gold.PLP.Chemscore.Hbond>
2.0573

> <Gold.PLP.Chemscore.CHOScore>
1.0186

> <Gold.PLP.Chemscore.Metal>
0.0000

> <Gold.Chemscore.Hbonds>
donor molecule, donor type, donor heavy atom, donor atom, acceptor molecule, acceptor atom, score
      L1  H     7    28       P1  7948  1.00
      P1  H  7989  7998       L1    11  0.01
      P1  H  7997  8009       L1    11  1.00
      L1  C    19    41       P1  8028  0.06
      L1  C    19    41       P1  8029  0.85

> <Gold.PLP.Chemscore.Internal.Correction>
0.1451

> <Gold.Rescore>
     Score         DG    S(hbond)    S(metal)    S(lipo)     H(rot)  DE(clash)    DE(int)     intcor
     16.96     -18.97       1.96        0.00     106.77       2.18       0.05       1.95       ----

> <Gold.Chemscore.Fitness>
16.9571

> <Gold.Chemscore.DG>
-18.9657

> <Gold.Chemscore.ZeroCoef>
-5.4800

> <Gold.Chemscore.Hbond>
1.9646

> <Gold.Chemscore.Metal>
0.0000

> <Gold.Chemscore.Lipo>
106.7745

> <Gold.Chemscore.Internal_Hbond>
0.0000

> <Gold.Chemscore.DEClash>
0.0548

> <Gold.Chemscore.DEInternal>
1.9537

> <Gold.Chemscore.Rot>
2.1753

> <Gold.Chemscore.Internal.Correction>
   9.000000E+99

> <Gold.Chemscore.Hbonds>
donor molecule, donor type, donor heavy atom, donor atom, acceptor molecule, acceptor atom, score
      L1  H     7    28       P1  7948  0.65
      P1  H  7997  8009       L1    11  0.99

> <Gold.Chemscore.Hbond.Weighted>
-6.5617

> <Gold.Chemscore.Metal.Weighted>
-0.0000

> <Gold.Chemscore.Lipo.Weighted>
-12.4926

> <Gold.Chemscore.Internal_Hbond.Weighted>
0.0000

> <Gold.Chemscore.DEClash.Weighted>
0.0548

> <Gold.Chemscore.DEInternal.Weighted>
1.9537

> <Gold.Chemscore.Rot.Weighted>
5.5687

> <Gold.Chemscore.Internal.Correction.Weighted>
   9.000000E+99

> <Gold.Protein.RotatedTorsions>
[ 6907 6896 6895 6894 ] final   39.12 input  -60.11 | X-H torsion
[ 7974 7965 7964 7962 ] final -154.45 input  175.53 | X-H torsion
[ 8008 7997 7996 7995 ] final -147.08 input   59.86 | X-H torsion
[ 10167 10162 10161 10158 ] final  -30.50 input  -65.29 | X-H torsion
[ 10718 10713 10712 10709 ] final -116.19 input   66.30 | X-H torsion
[ 10763 10752 10751 10750 ] final -149.36 input  -60.55 | X-H torsion
[ 11005 11000 10999 10996 ] final  113.13 input  -57.11 | X-H torsion

> <Gold.Protein.ActiveResidues>
 VAL166  LYS551  ARG553  GLY616  TRP617  ASP618  TYR619  PRO620  LYS621  CYS622 
 ASP623  PHE694  ASN695  SER759  ASP760  ASP761  ALA762  ILE779  LEU786  VAL792 
 PHE793  MET794  SER795  GLU796  ALA797  LYS798  CYS799  TRP800  GLU811  SER814 

> <Gold.Protein.RotatedAtoms>
  152.1655  134.8877  160.0538 H   0  0  0  0  0  0  0  0  0  0  0  0  # atno 6907 bound_to 6896
  151.9857  133.3768  159.4133 H   0  0  0  0  0  0  0  0  0  0  0  0  # atno 6908 bound_to 6896
  150.6894  134.3913  159.5121 H   0  0  0  0  0  0  0  0  0  0  0  0  # atno 6909 bound_to 6896
  144.7689  140.4386  143.5922 H   0  0  0  0  0  0  0  0  0  0  0  0  # atno 7974 bound_to 7965
  155.5697  140.0633  157.2809 H   0  0  0  0  0  0  0  0  0  0  0  0  # atno 8008 bound_to 7997
  154.4365  140.1871  156.0912 H   0  0  0  0  0  0  0  0  0  0  0  0  # atno 8009 bound_to 7997
  156.0385  140.3298  155.7221 H   0  0  0  0  0  0  0  0  0  0  0  0  # atno 8010 bound_to 7997
  140.7248  143.3844  151.1543 H   0  0  0  0  0  0  0  0  0  0  0  0  # atno 10167 bound_to 10162
  156.0947  130.6122  150.9004 H   0  0  0  0  0  0  0  0  0  0  0  0  # atno 10718 bound_to 10713
  154.8182  135.3311  154.7116 H   0  0  0  0  0  0  0  0  0  0  0  0  # atno 10763 bound_to 10752
  153.7753  135.6922  153.4903 H   0  0  0  0  0  0  0  0  0  0  0  0  # atno 10764 bound_to 10752
  153.2017  135.4514  155.0222 H   0  0  0  0  0  0  0  0  0  0  0  0  # atno 10765 bound_to 10752
  139.8945  134.9544  156.6692 H   0  0  0  0  0  0  0  0  0  0  0  0  # atno 11005 bound_to 11000
  145.6385  139.1546  143.2929 LP  0  0  0  0  0  0  0  0  0  0  0  0  # atno 17320 bound_to 7965
  146.1819  140.6483  142.9185 LP  0  0  0  0  0  0  0  0  0  0  0  0  # atno 17321 bound_to 7965
  139.7438  143.8883  152.3057 LP  0  0  0  0  0  0  0  0  0  0  0  0  # atno 17342 bound_to 10162
  139.8714  144.7066  150.8983 LP  0  0  0  0  0  0  0  0  0  0  0  0  # atno 17343 bound_to 10162
  157.6105  131.0936  150.8804 LP  0  0  0  0  0  0  0  0  0  0  0  0  # atno 17370 bound_to 10713
  156.8944  130.5224  149.5285 LP  0  0  0  0  0  0  0  0  0  0  0  0  # atno 17371 bound_to 10713
  140.7386  133.8997  155.8262 LP  0  0  0  0  0  0  0  0  0  0  0  0  # atno 17394 bound_to 11000
  141.0096  134.1039  157.4235 LP  0  0  0  0  0  0  0  0  0  0  0  0  # atno 17395 bound_to 11000

$$$$
