AV-unprocessed.smi:2152|AV-procd|sdf|8763|dock6
  -GOLD-   2272011543D 1   1.00000     0.00000
 Structure written by MMmdl.
 41 42  0  0  0  0  0  0  0  0  1 V2000
  151.8484  144.3820  158.5498 C   0  0  0  0  0  0  0  0  0  0  0  0
  152.6906  143.7877  159.6920 C   0  0  1  0  0  0  0  0  0  0  0  0
  151.9486  143.8640  161.0429 C   0  0  0  0  0  0  0  0  0  0  0  0
  152.8086  143.3170  162.1935 C   0  0  0  0  0  0  0  0  0  0  0  0
  153.2774  141.8824  161.9089 C   0  0  0  0  0  0  0  0  0  0  0  0
  154.0210  141.7971  160.5650 C   0  0  0  0  0  0  0  0  0  0  0  0
  153.1751  142.3465  159.3950 C   0  0  1  0  0  0  0  0  0  0  0  0
  152.0472  141.4610  159.1041 N   0  0  0  0  0  0  0  0  0  0  0  0
  152.1354  140.1630  158.7778 C   0  0  0  0  0  0  0  0  0  0  0  0
  153.2055  139.5655  158.6571 O   0  0  0  0  0  0  0  0  0  0  0  0
  150.8048  139.4384  158.5370 C   0  0  0  0  0  0  0  0  0  0  0  0
  150.8631  138.5000  157.4089 N   0  0  0  0  0  0  0  0  0  0  0  0
  151.1118  138.9753  156.1340 C   0  0  0  0  0  0  0  0  0  0  0  0
  151.1932  138.1800  155.0453 C   0  0  0  0  0  0  0  0  0  0  0  0
  151.0180  136.7377  155.1596 C   0  0  0  0  0  0  0  0  0  0  0  0
  151.0943  135.9677  154.2010 O   0  0  0  0  0  0  0  0  0  0  0  0
  150.7568  136.2779  156.4705 N   0  0  0  0  0  0  0  0  0  0  0  0
  150.5914  134.8484  156.6314 C   0  0  0  0  0  0  0  0  0  0  0  0
  150.6791  137.1138  157.6091 C   0  0  0  0  0  0  0  0  0  0  0  0
  150.4649  136.6721  158.7407 O   0  0  0  0  0  0  0  0  0  0  0  0
  150.9080  143.8463  158.4183 H   0  0  0  0  0  0  0  0  0  0  0  0
  152.3895  144.3444  157.6039 H   0  0  0  0  0  0  0  0  0  0  0  0
  151.6056  145.4264  158.7472 H   0  0  0  0  0  0  0  0  0  0  0  0
  153.5813  144.4119  159.7799 H   0  0  0  0  0  0  0  0  0  0  0  0
  151.6717  144.8968  161.2572 H   0  0  0  0  0  0  0  0  0  0  0  0
  151.0149  143.3031  160.9880 H   0  0  0  0  0  0  0  0  0  0  0  0
  153.6758  143.9623  162.3390 H   0  0  0  0  0  0  0  0  0  0  0  0
  152.2430  143.3451  163.1253 H   0  0  0  0  0  0  0  0  0  0  0  0
  153.9275  141.5390  162.7138 H   0  0  0  0  0  0  0  0  0  0  0  0
  152.4187  141.2096  161.8997 H   0  0  0  0  0  0  0  0  0  0  0  0
  154.9465  142.3699  160.6349 H   0  0  0  0  0  0  0  0  0  0  0  0
  154.3210  140.7666  160.3709 H   0  0  0  0  0  0  0  0  0  0  0  0
  153.8089  142.3861  158.5070 H   0  0  0  0  0  0  0  0  0  0  0  0
  151.1258  141.8683  159.1719 H   0  0  0  0  0  0  0  0  0  0  0  0
  150.4964  138.9109  159.4417 H   0  0  0  0  0  0  0  0  0  0  0  0
  150.0366  140.1923  158.3598 H   0  0  0  0  0  0  0  0  0  0  0  0
  151.2539  140.0378  155.9985 H   0  0  0  0  0  0  0  0  0  0  0  0
  151.3939  138.6159  154.0775 H   0  0  0  0  0  0  0  0  0  0  0  0
  150.2468  134.6003  157.6347 H   0  0  0  0  0  0  0  0  0  0  0  0
  151.5636  134.3924  156.4372 H   0  0  0  0  0  0  0  0  0  0  0  0
  149.8441  134.5175  155.9078 H   0  0  0  0  0  0  0  0  0  0  0  0
  1  2  1  0  0  0  0
  1 21  1  0  0  0  0
  1 22  1  0  0  0  0
  1 23  1  0  0  0  0
  2  7  1  0  0  0  0
  2  3  1  0  0  0  0
  2 24  1  0  0  0  0
  3  4  1  0  0  0  0
  3 25  1  0  0  0  0
  3 26  1  0  0  0  0
  4  5  1  0  0  0  0
  4 27  1  0  0  0  0
  4 28  1  0  0  0  0
  5  6  1  0  0  0  0
  5 29  1  0  0  0  0
  5 30  1  0  0  0  0
  6  7  1  0  0  0  0
  6 31  1  0  0  0  0
  6 32  1  0  0  0  0
  7  8  1  0  0  0  0
  7 33  1  0  0  0  0
  8  9  1  0  0  0  0
  8 34  1  0  0  0  0
  9 10  2  0  0  0  0
  9 11  1  0  0  0  0
 11 12  1  0  0  0  0
 11 35  1  0  0  0  0
 11 36  1  0  0  0  0
 12 19  1  0  0  0  0
 12 13  1  0  0  0  0
 13 14  2  0  0  0  0
 13 37  1  0  0  0  0
 14 15  1  0  0  0  0
 14 38  1  0  0  0  0
 15 16  2  0  0  0  0
 15 17  1  0  0  0  0
 17 18  1  0  0  0  0
 17 19  1  0  0  0  0
 18 39  1  0  0  0  0
 18 40  1  0  0  0  0
 18 41  1  0  0  0  0
 19 20  2  0  0  0  0
M  END
> <s_m_source_file>
AV-unprocessed.smi

> <i_m_source_file_index>
2152

> <i_lp_mmshare_version>
43012

> <i_f3d_flags>
0

> <s_epik_input>
W0NIM11bQ0BASF0xW0NIMl1bQ0gyXVtDSDJdW0NIMl1bQ0BIXTFbTkhdQyg9TylbQ0gyXW4yW2NIXVtjSF1jKD1PKW4oW0NIM10pYzI9Tw==

> <s_epik_cmdline>
J2VwaWtfcHl0aG9uJywgJy1waCcsICc3LjAnLCAnLXRuJywgJzgnLCAnLW1hJywgJzIwMCcsICctbWV0YWxfYmluZGluZycsICctaW1hZScsICc8aW5maWxlLm1hZT4nLCAnLW9tYWUnLCAnPG91dGZpbGUubWFlPic=

> <r_lp_tautomer_probability>
1

> <r_epik_Ionization_Penalty>
3.20555e-08

> <r_epik_Ionization_Penalty_Charging>
1.30086e-08

> <r_epik_Ionization_Penalty_Neutral>
1.90469e-08

> <r_epik_State_Penalty>
-0

> <r_epik_Charging_Adjusted_Penalty>
1.30086e-08

> <i_epik_Tot_Q>
0

> <i_epik_Tot_abs_Q>
0

> <r_epik_Metal_State_Penalty>
-0

> <b_epik_Metal_Only>
0

> <s_lp_Force_Field>
OPLS_2005

> <r_lp_Energy>
17.5723

> <b_lp_Chiralities_Consistent>
1

> <s_lp_Variant>
AV-unprocessed.smi:2152-2

> <Gold.Version>
5.8.1

> <Gold.Id.Protein>
6NUR|6NUR_protein|mol2

> <Gold.PLP.Fitness>
44.7044

> <Gold.PLP.PLP>
-39.3338

> <Gold.PLP.part.hbond>
-2.1961

> <Gold.PLP.part.metal>
0.0000

> <Gold.PLP.part.buried>
-5.8088

> <Gold.PLP.part.nonpolar>
-33.0342

> <Gold.PLP.part.repulsive>
1.7520

> <Gold.PLP.ligand.clash>
0.0000

> <Gold.PLP.ligand.torsion>
0.3065

> <Gold.PLP.Chemscore.Hbond>
1.9913

> <Gold.PLP.Chemscore.CHOScore>
0.0000

> <Gold.PLP.Chemscore.Metal>
0.0000

> <Gold.Chemscore.Hbonds>
donor molecule, donor type, donor heavy atom, donor atom, acceptor molecule, acceptor atom, score
      P1  H  6896  6909       L1    20  0.99
      P1  H 10752 10763       L1    16  0.90

> <Gold.PLP.Chemscore.Internal.Correction>
0.0100

> <Gold.Rescore>
     Score         DG    S(hbond)    S(metal)    S(lipo)     H(rot)  DE(clash)    DE(int)     intcor
     19.31     -19.88       1.86        0.00     103.30       1.52       0.23       0.34       ----

> <Gold.Chemscore.Fitness>
19.3077

> <Gold.Chemscore.DG>
-19.8767

> <Gold.Chemscore.ZeroCoef>
-5.4800

> <Gold.Chemscore.Hbond>
1.8601

> <Gold.Chemscore.Metal>
0.0000

> <Gold.Chemscore.Lipo>
103.2974

> <Gold.Chemscore.Internal_Hbond>
0.0000

> <Gold.Chemscore.DEClash>
0.2295

> <Gold.Chemscore.DEInternal>
0.3396

> <Gold.Chemscore.Rot>
1.5242

> <Gold.Chemscore.Internal.Correction>
   9.000000E+99

> <Gold.Chemscore.Hbonds>
donor molecule, donor type, donor heavy atom, donor atom, acceptor molecule, acceptor atom, score
      P1  H  6896  6909       L1    20  0.90
      P1  H 10752 10763       L1    16  0.18

> <Gold.Chemscore.Hbond.Weighted>
-6.2128

> <Gold.Chemscore.Metal.Weighted>
-0.0000

> <Gold.Chemscore.Lipo.Weighted>
-12.0858

> <Gold.Chemscore.Internal_Hbond.Weighted>
0.0000

> <Gold.Chemscore.DEClash.Weighted>
0.2295

> <Gold.Chemscore.DEInternal.Weighted>
0.3396

> <Gold.Chemscore.Rot.Weighted>
3.9019

> <Gold.Chemscore.Internal.Correction.Weighted>
   9.000000E+99

> <Gold.Protein.RotatedTorsions>
[ 6907 6896 6895 6894 ] final   88.64 input  -60.11 | X-H torsion
[ 7974 7965 7964 7962 ] final -112.74 input  175.53 | X-H torsion
[ 8008 7997 7996 7995 ] final -159.20 input   59.86 | X-H torsion
[ 10167 10162 10161 10158 ] final  153.95 input  -65.29 | X-H torsion
[ 10718 10713 10712 10709 ] final -136.23 input   66.30 | X-H torsion
[ 10763 10752 10751 10750 ] final   42.62 input  -60.55 | X-H torsion
[ 11005 11000 10999 10996 ] final   71.80 input  -57.11 | X-H torsion

> <Gold.Protein.ActiveResidues>
 VAL166  LYS551  ARG553  GLY616  TRP617  ASP618  TYR619  PRO620  LYS621  CYS622 
 ASP623  PHE694  ASN695  SER759  ASP760  ASP761  ALA762  ILE779  LEU786  VAL792 
 PHE793  MET794  SER795  GLU796  ALA797  LYS798  CYS799  TRP800  GLU811  SER814 

> <Gold.Protein.RotatedAtoms>
  152.5427  134.2091  159.8742 H   0  0  0  0  0  0  0  0  0  0  0  0  # atno 6907 bound_to 6896
  151.2074  133.4568  159.2605 H   0  0  0  0  0  0  0  0  0  0  0  0  # atno 6908 bound_to 6896
  151.0929  134.9940  159.8467 H   0  0  0  0  0  0  0  0  0  0  0  0  # atno 6909 bound_to 6896
  145.1404  140.8774  143.3705 H   0  0  0  0  0  0  0  0  0  0  0  0  # atno 7974 bound_to 7965
  155.7590  140.0836  157.2164 H   0  0  0  0  0  0  0  0  0  0  0  0  # atno 8008 bound_to 7997
  154.4005  140.1546  156.2867 H   0  0  0  0  0  0  0  0  0  0  0  0  # atno 8009 bound_to 7997
  155.8858  140.3418  155.5923 H   0  0  0  0  0  0  0  0  0  0  0  0  # atno 8010 bound_to 7997
  139.4825  144.5229  151.7847 H   0  0  0  0  0  0  0  0  0  0  0  0  # atno 10167 bound_to 10162
  156.2748  130.7286  151.1265 H   0  0  0  0  0  0  0  0  0  0  0  0  # atno 10718 bound_to 10713
  152.9879  135.6126  154.2979 H   0  0  0  0  0  0  0  0  0  0  0  0  # atno 10763 bound_to 10752
  154.2701  135.2780  155.2743 H   0  0  0  0  0  0  0  0  0  0  0  0  # atno 10764 bound_to 10752
  154.5130  135.5836  153.6676 H   0  0  0  0  0  0  0  0  0  0  0  0  # atno 10765 bound_to 10752
  139.9524  134.7203  156.0831 H   0  0  0  0  0  0  0  0  0  0  0  0  # atno 11005 bound_to 11000
  145.0538  139.3160  143.5915 LP  0  0  0  0  0  0  0  0  0  0  0  0  # atno 17320 bound_to 7965
  146.3505  139.9956  142.8681 LP  0  0  0  0  0  0  0  0  0  0  0  0  # atno 17321 bound_to 7965
  140.4745  144.1538  150.5923 LP  0  0  0  0  0  0  0  0  0  0  0  0  # atno 17342 bound_to 10162
  140.4345  143.2553  151.9552 LP  0  0  0  0  0  0  0  0  0  0  0  0  # atno 17343 bound_to 10162
  157.7296  131.0623  150.5768 LP  0  0  0  0  0  0  0  0  0  0  0  0  # atno 17370 bound_to 10713
  156.5868  130.4319  149.5954 LP  0  0  0  0  0  0  0  0  0  0  0  0  # atno 17371 bound_to 10713
  141.1190  133.6619  156.3166 LP  0  0  0  0  0  0  0  0  0  0  0  0  # atno 17394 bound_to 11000
  140.5687  134.5862  157.5452 LP  0  0  0  0  0  0  0  0  0  0  0  0  # atno 17395 bound_to 11000

$$$$
