AV-unprocessed.smi:667|AV-procd|sdf|3258|dock6
  -GOLD-   22720 0213D 1   1.00000     0.00000
 Structure written by MMmdl.
 48 49  0  0  0  0  0  0  0  0  1 V2000
  152.7089  143.4628  161.7257 C   0  0  0  0  0  0  0  0  0  0  0  0
  153.5884  142.2448  161.7238 C   0  0  0  0  0  0  0  0  0  0  0  0
  154.1980  141.8800  162.8394 N   0  0  0  0  0  0  0  0  0  0  0  0
  154.8891  140.7710  162.5072 N   0  0  0  0  0  0  0  0  0  0  0  0
  155.6837  140.0987  163.5168 C   0  0  0  0  0  0  0  0  0  0  0  0
  154.7138  140.4331  161.1794 C   0  0  0  0  0  0  0  0  0  0  0  0
  155.3702  139.2383  160.5664 C   0  0  0  0  0  0  0  0  0  0  0  0
  153.8749  141.3687  160.6357 C   0  0  0  0  0  0  0  0  0  0  0  0
  153.3584  141.4664  159.2201 C   0  0  0  0  0  0  0  0  0  0  0  0
  152.6102  140.1943  158.8059 C   0  0  0  0  0  0  0  0  0  0  0  0
  153.2444  139.2125  158.4213 O   0  0  0  0  0  0  0  0  0  0  0  0
  151.2684  140.2293  158.8510 N   0  0  0  0  0  0  0  0  0  0  0  0
  150.3806  139.1616  158.4077 C   0  0  0  0  0  0  0  0  0  0  0  0
  150.1436  139.2091  156.8839 C   0  0  1  0  0  0  0  0  0  0  0  0
  149.3343  140.4298  156.4512 C   0  0  0  0  0  0  0  0  0  0  0  0
  150.3132  141.2575  155.6260 C   0  0  0  0  0  0  0  0  0  0  0  0
  151.1529  140.2774  155.0441 O   0  0  0  0  0  0  0  0  0  0  0  0
  151.4446  139.3244  156.0571 C   0  0  2  0  0  0  0  0  0  0  0  0
  151.9802  138.0115  155.4393 C   0  0  0  0  0  0  0  0  0  0  0  0
  153.2226  138.2792  154.5758 C   0  0  0  0  0  0  0  0  0  0  0  0
  150.9195  137.2372  154.6352 C   0  0  0  0  0  0  0  0  0  0  0  0
  151.7334  143.2391  161.2941 H   0  0  0  0  0  0  0  0  0  0  0  0
  153.1548  144.2653  161.1382 H   0  0  0  0  0  0  0  0  0  0  0  0
  152.5425  143.8420  162.7345 H   0  0  0  0  0  0  0  0  0  0  0  0
  156.7036  139.9675  163.1553 H   0  0  0  0  0  0  0  0  0  0  0  0
  155.2521  139.1205  163.7300 H   0  0  0  0  0  0  0  0  0  0  0  0
  155.7101  140.6827  164.4378 H   0  0  0  0  0  0  0  0  0  0  0  0
  155.0422  139.0923  159.5373 H   0  0  0  0  0  0  0  0  0  0  0  0
  155.1281  138.3332  161.1238 H   0  0  0  0  0  0  0  0  0  0  0  0
  156.4542  139.3536  160.5595 H   0  0  0  0  0  0  0  0  0  0  0  0
  152.6780  142.3104  159.1045 H   0  0  0  0  0  0  0  0  0  0  0  0
  154.1741  141.6425  158.5180 H   0  0  0  0  0  0  0  0  0  0  0  0
  150.8308  141.0746  159.1884 H   0  0  0  0  0  0  0  0  0  0  0  0
  150.7891  138.1926  158.6994 H   0  0  0  0  0  0  0  0  0  0  0  0
  149.4337  139.2668  158.9384 H   0  0  0  0  0  0  0  0  0  0  0  0
  149.5806  138.3216  156.5971 H   0  0  0  0  0  0  0  0  0  0  0  0
  148.5033  140.1110  155.8205 H   0  0  0  0  0  0  0  0  0  0  0  0
  148.9163  140.9967  157.2839 H   0  0  0  0  0  0  0  0  0  0  0  0
  149.8181  141.8667  154.8696 H   0  0  0  0  0  0  0  0  0  0  0  0
  150.9053  141.9142  156.2656 H   0  0  0  0  0  0  0  0  0  0  0  0
  152.2200  139.7624  156.6889 H   0  0  0  0  0  0  0  0  0  0  0  0
  152.3023  137.3662  156.2565 H   0  0  0  0  0  0  0  0  0  0  0  0
  152.9830  138.9167  153.7242 H   0  0  0  0  0  0  0  0  0  0  0  0
  153.6408  137.3497  154.1888 H   0  0  0  0  0  0  0  0  0  0  0  0
  154.0051  138.7742  155.1517 H   0  0  0  0  0  0  0  0  0  0  0  0
  150.5459  137.8261  153.7970 H   0  0  0  0  0  0  0  0  0  0  0  0
  150.0654  136.9536  155.2486 H   0  0  0  0  0  0  0  0  0  0  0  0
  151.3380  136.3166  154.2275 H   0  0  0  0  0  0  0  0  0  0  0  0
  1  2  1  0  0  0  0
  1 22  1  0  0  0  0
  1 23  1  0  0  0  0
  1 24  1  0  0  0  0
  2  8  1  0  0  0  0
  2  3  2  0  0  0  0
  3  4  1  0  0  0  0
  4  5  1  0  0  0  0
  4  6  1  0  0  0  0
  5 25  1  0  0  0  0
  5 26  1  0  0  0  0
  5 27  1  0  0  0  0
  6  7  1  0  0  0  0
  6  8  2  0  0  0  0
  7 28  1  0  0  0  0
  7 29  1  0  0  0  0
  7 30  1  0  0  0  0
  8  9  1  0  0  0  0
  9 10  1  0  0  0  0
  9 31  1  0  0  0  0
  9 32  1  0  0  0  0
 10 11  2  0  0  0  0
 10 12  1  0  0  0  0
 12 13  1  0  0  0  0
 12 33  1  0  0  0  0
 13 14  1  0  0  0  0
 13 34  1  0  0  0  0
 13 35  1  0  0  0  0
 14 18  1  0  0  0  0
 14 15  1  0  0  0  0
 14 36  1  0  0  0  0
 15 16  1  0  0  0  0
 15 37  1  0  0  0  0
 15 38  1  0  0  0  0
 16 17  1  0  0  0  0
 16 39  1  0  0  0  0
 16 40  1  0  0  0  0
 17 18  1  0  0  0  0
 18 19  1  0  0  0  0
 18 41  1  0  0  0  0
 19 20  1  0  0  0  0
 19 21  1  0  0  0  0
 19 42  1  0  0  0  0
 20 43  1  0  0  0  0
 20 44  1  0  0  0  0
 20 45  1  0  0  0  0
 21 46  1  0  0  0  0
 21 47  1  0  0  0  0
 21 48  1  0  0  0  0
M  END
> <s_m_source_file>
AV-unprocessed.smi

> <i_m_source_file_index>
667

> <i_lp_mmshare_version>
43012

> <i_f3d_flags>
0

> <s_epik_input>
W0NIM11jMW5uKFtDSDNdKWMoW0NIM10pYzFbQ0gyXUMoPU8pW05IXVtDSDJdW0NAQEhdMltDSDJdW0NIMl1PW0NASF0yW0NIXShbQ0gzXSlbQ0gzXQ==

> <s_epik_cmdline>
J2VwaWtfcHl0aG9uJywgJy1waCcsICc3LjAnLCAnLXRuJywgJzgnLCAnLW1hJywgJzIwMCcsICctbWV0YWxfYmluZGluZycsICctaW1hZScsICc8aW5maWxlLm1hZT4nLCAnLW9tYWUnLCAnPG91dGZpbGUubWFlPic=

> <r_lp_tautomer_probability>
1

> <r_epik_Ionization_Penalty>
0.00315488

> <r_epik_Ionization_Penalty_Charging>
0

> <r_epik_Ionization_Penalty_Neutral>
0.00315488

> <r_epik_State_Penalty>
0.00222269

> <r_epik_Charging_Adjusted_Penalty>
0.00222269

> <i_epik_Tot_Q>
0

> <i_epik_Tot_abs_Q>
0

> <r_epik_Metal_State_Penalty>
-0

> <b_epik_Metal_Only>
0

> <s_lp_Force_Field>
OPLS_2005

> <r_lp_Energy>
15.0171

> <b_lp_Chiralities_Consistent>
1

> <s_lp_Variant>
AV-unprocessed.smi:667-4

> <Gold.Version>
5.8.1

> <Gold.Id.Protein>
6NUR|6NUR_protein|mol2

> <Gold.PLP.Fitness>
46.3303

> <Gold.PLP.PLP>
-41.4252

> <Gold.PLP.part.hbond>
-3.0000

> <Gold.PLP.part.metal>
0.0000

> <Gold.PLP.part.buried>
-2.4738

> <Gold.PLP.part.nonpolar>
-34.6751

> <Gold.PLP.part.repulsive>
0.2465

> <Gold.PLP.ligand.clash>
0.0000

> <Gold.PLP.ligand.torsion>
0.5505

> <Gold.PLP.Chemscore.Hbond>
1.9920

> <Gold.PLP.Chemscore.CHOScore>
0.0000

> <Gold.PLP.Chemscore.Metal>
0.0000

> <Gold.Chemscore.Hbonds>
donor molecule, donor type, donor heavy atom, donor atom, acceptor molecule, acceptor atom, score
      P1  H  7989  7998       L1    17  1.00
      P1  H  7997  8008       L1    11  0.73

> <Gold.PLP.Chemscore.Internal.Correction>
0.0301

> <Gold.Rescore>
     Score         DG    S(hbond)    S(metal)    S(lipo)     H(rot)  DE(clash)    DE(int)     intcor
     19.06     -21.05       1.84        0.00     113.82       1.52       0.33       1.66       ----

> <Gold.Chemscore.Fitness>
19.0581

> <Gold.Chemscore.DG>
-21.0532

> <Gold.Chemscore.ZeroCoef>
-5.4800

> <Gold.Chemscore.Hbond>
1.8414

> <Gold.Chemscore.Metal>
0.0000

> <Gold.Chemscore.Lipo>
113.8244

> <Gold.Chemscore.Internal_Hbond>
0.0000

> <Gold.Chemscore.DEClash>
0.3325

> <Gold.Chemscore.DEInternal>
1.6626

> <Gold.Chemscore.Rot>
1.5213

> <Gold.Chemscore.Internal.Correction>
   9.000000E+99

> <Gold.Chemscore.Hbonds>
donor molecule, donor type, donor heavy atom, donor atom, acceptor molecule, acceptor atom, score
      P1  H  7989  7998       L1    17  0.59
      P1  H  7997  8008       L1    11  0.36

> <Gold.Chemscore.Hbond.Weighted>
-6.1502

> <Gold.Chemscore.Metal.Weighted>
-0.0000

> <Gold.Chemscore.Lipo.Weighted>
-13.3175

> <Gold.Chemscore.Internal_Hbond.Weighted>
0.0000

> <Gold.Chemscore.DEClash.Weighted>
0.3325

> <Gold.Chemscore.DEInternal.Weighted>
1.6626

> <Gold.Chemscore.Rot.Weighted>
3.8945

> <Gold.Chemscore.Internal.Correction.Weighted>
   9.000000E+99

> <Gold.Protein.RotatedTorsions>
[ 6907 6896 6895 6894 ] final   15.63 input  -60.11 | X-H torsion
[ 7974 7965 7964 7962 ] final   60.59 input  175.53 | X-H torsion
[ 8008 7997 7996 7995 ] final -102.36 input   59.86 | X-H torsion
[ 10167 10162 10161 10158 ] final  165.29 input  -65.29 | X-H torsion
[ 10718 10713 10712 10709 ] final -136.37 input   66.30 | X-H torsion
[ 10763 10752 10751 10750 ] final   99.30 input  -60.55 | X-H torsion
[ 11005 11000 10999 10996 ] final  174.16 input  -57.11 | X-H torsion

> <Gold.Protein.ActiveResidues>
 VAL166  LYS551  ARG553  GLY616  TRP617  ASP618  TYR619  PRO620  LYS621  CYS622 
 ASP623  PHE694  ASN695  SER759  ASP760  ASP761  ALA762  ILE779  LEU786  VAL792 
 PHE793  MET794  SER795  GLU796  ALA797  LYS798  CYS799  TRP800  GLU811  SER814 

> <Gold.Protein.RotatedAtoms>
  151.8211  135.0651  160.0424 H   0  0  0  0  0  0  0  0  0  0  0  0  # atno 6907 bound_to 6896
  152.2950  133.5594  159.5590 H   0  0  0  0  0  0  0  0  0  0  0  0  # atno 6908 bound_to 6896
  150.7247  134.0290  159.3769 H   0  0  0  0  0  0  0  0  0  0  0  0  # atno 6909 bound_to 6896
  145.8943  139.3534  143.0630 H   0  0  0  0  0  0  0  0  0  0  0  0  # atno 7974 bound_to 7965
  154.8555  140.0429  157.1632 H   0  0  0  0  0  0  0  0  0  0  0  0  # atno 8008 bound_to 7997
  154.8896  140.2984  155.5358 H   0  0  0  0  0  0  0  0  0  0  0  0  # atno 8009 bound_to 7997
  156.2997  140.2396  156.3910 H   0  0  0  0  0  0  0  0  0  0  0  0  # atno 8010 bound_to 7997
  139.4903  144.4147  151.9258 H   0  0  0  0  0  0  0  0  0  0  0  0  # atno 10167 bound_to 10162
  156.2763  130.7295  151.1278 H   0  0  0  0  0  0  0  0  0  0  0  0  # atno 10718 bound_to 10713
  153.2997  135.4118  155.1242 H   0  0  0  0  0  0  0  0  0  0  0  0  # atno 10763 bound_to 10752
  154.8545  135.3538  154.5868 H   0  0  0  0  0  0  0  0  0  0  0  0  # atno 10764 bound_to 10752
  153.6293  135.7061  153.5339 H   0  0  0  0  0  0  0  0  0  0  0  0  # atno 10765 bound_to 10752
  140.3483  134.7217  157.4250 H   0  0  0  0  0  0  0  0  0  0  0  0  # atno 11005 bound_to 11000
  145.8869  140.9328  143.0572 LP  0  0  0  0  0  0  0  0  0  0  0  0  # atno 17320 bound_to 7965
  144.6732  140.0854  143.7467 LP  0  0  0  0  0  0  0  0  0  0  0  0  # atno 17321 bound_to 7965
  140.3589  144.2997  150.5936 LP  0  0  0  0  0  0  0  0  0  0  0  0  # atno 17342 bound_to 10162
  140.5420  143.2222  151.8069 LP  0  0  0  0  0  0  0  0  0  0  0  0  # atno 17343 bound_to 10162
  157.7300  131.0619  150.5746 LP  0  0  0  0  0  0  0  0  0  0  0  0  # atno 17370 bound_to 10713
  156.5847  130.4313  149.5962 LP  0  0  0  0  0  0  0  0  0  0  0  0  # atno 17371 bound_to 10713
  140.0724  134.5844  155.8627 LP  0  0  0  0  0  0  0  0  0  0  0  0  # atno 17394 bound_to 11000
  141.2019  133.6622  156.5978 LP  0  0  0  0  0  0  0  0  0  0  0  0  # atno 17395 bound_to 11000

$$$$
