AV-unprocessed.smi:781|AV-procd|sdf|3708|dock2
  -GOLD-   22720 1133D 1   1.00000     0.00000
 Structure written by MMmdl.
 38 40  0  0  0  0  0  0  0  0  1 V2000
  146.6281  133.9722  162.4836 C   0  0  0  0  0  0  0  0  0  0  0  0
  147.2272  135.0552  161.6531 C   0  0  0  0  0  0  0  0  0  0  0  0
  147.9841  135.0431  160.5153 C   0  0  0  0  0  0  0  0  0  0  0  0
  148.2080  136.4231  160.2653 C   0  0  0  0  0  0  0  0  0  0  0  0
  148.9685  136.8457  159.1455 N   0  0  0  0  0  0  0  0  0  0  0  0
  148.7476  137.9142  158.3611 C   0  0  0  0  0  0  0  0  0  0  0  0
  147.8300  138.7225  158.5033 O   0  0  0  0  0  0  0  0  0  0  0  0
  149.6668  138.0020  157.3898 N   0  0  0  0  0  0  0  0  0  0  0  0
  149.7194  139.0594  156.3796 C   0  0  1  0  0  0  0  0  0  0  0  0
  149.6576  140.4881  156.9806 C   0  0  1  0  0  0  0  0  0  0  0  0
  150.6784  140.6592  158.1257 C   0  0  0  0  0  0  0  0  0  0  0  0
  152.0242  140.6461  157.3791 C   0  0  0  0  0  0  0  0  0  0  0  0
  151.5997  140.5060  155.9019 C   0  0  2  0  0  0  0  0  0  0  0  0
  150.3130  141.3232  155.8854 C   0  0  0  0  0  0  0  0  0  0  0  0
  151.0535  139.0929  155.5817 C   0  0  1  0  0  0  0  0  0  0  0  0
  152.0357  137.9191  155.7967 C   0  0  0  0  0  0  0  0  0  0  0  0
  151.5786  136.7675  155.1200 O   0  0  0  0  0  0  0  0  0  0  0  0
  147.6388  137.2069  161.1683 N   0  0  0  0  0  0  0  0  0  0  0  0
  147.0062  136.3342  162.0616 O   0  0  0  0  0  0  0  0  0  0  0  0
  147.1606  133.0321  162.3394 H   0  0  0  0  0  0  0  0  0  0  0  0
  145.5835  133.8144  162.2161 H   0  0  0  0  0  0  0  0  0  0  0  0
  146.6720  134.2249  163.5431 H   0  0  0  0  0  0  0  0  0  0  0  0
  148.3217  134.1839  159.9552 H   0  0  0  0  0  0  0  0  0  0  0  0
  149.7670  136.2724  158.9176 H   0  0  0  0  0  0  0  0  0  0  0  0
  150.3865  137.2960  157.3473 H   0  0  0  0  0  0  0  0  0  0  0  0
  148.8954  138.9190  155.6772 H   0  0  0  0  0  0  0  0  0  0  0  0
  148.6489  140.8024  157.2506 H   0  0  0  0  0  0  0  0  0  0  0  0
  150.5328  141.6189  158.6237 H   0  0  0  0  0  0  0  0  0  0  0  0
  150.6138  139.8873  158.8923 H   0  0  0  0  0  0  0  0  0  0  0  0
  152.5497  141.5888  157.5367 H   0  0  0  0  0  0  0  0  0  0  0  0
  152.6853  139.8495  157.7165 H   0  0  0  0  0  0  0  0  0  0  0  0
  152.3590  140.8472  155.1976 H   0  0  0  0  0  0  0  0  0  0  0  0
  149.7819  141.2812  154.9327 H   0  0  0  0  0  0  0  0  0  0  0  0
  150.4588  142.3685  156.1642 H   0  0  0  0  0  0  0  0  0  0  0  0
  150.7898  139.0832  154.5223 H   0  0  0  0  0  0  0  0  0  0  0  0
  153.0442  138.1562  155.4598 H   0  0  0  0  0  0  0  0  0  0  0  0
  152.1058  137.6813  156.8585 H   0  0  0  0  0  0  0  0  0  0  0  0
  150.6575  136.6578  155.3006 H   0  0  0  0  0  0  0  0  0  0  0  0
  1  2  1  0  0  0  0
  1 20  1  0  0  0  0
  1 21  1  0  0  0  0
  1 22  1  0  0  0  0
  2 19  1  0  0  0  0
  2  3  2  0  0  0  0
  3  4  1  0  0  0  0
  3 23  1  0  0  0  0
  4  5  1  0  0  0  0
  4 18  2  0  0  0  0
  5  6  1  0  0  0  0
  5 24  1  0  0  0  0
  6  7  2  0  0  0  0
  6  8  1  0  0  0  0
  8  9  1  0  0  0  0
  8 25  1  0  0  0  0
  9 15  1  0  0  0  0
  9 10  1  0  0  0  0
  9 26  1  0  0  0  0
 10 14  1  0  0  0  0
 10 11  1  0  0  0  0
 10 27  1  0  0  0  0
 11 12  1  0  0  0  0
 11 28  1  0  0  0  0
 11 29  1  0  0  0  0
 12 13  1  0  0  0  0
 12 30  1  0  0  0  0
 12 31  1  0  0  0  0
 13 14  1  0  0  0  0
 13 15  1  0  0  0  0
 13 32  1  0  0  0  0
 14 33  1  0  0  0  0
 14 34  1  0  0  0  0
 15 16  1  0  0  0  0
 15 35  1  0  0  0  0
 16 17  1  0  0  0  0
 16 36  1  0  0  0  0
 16 37  1  0  0  0  0
 17 38  1  0  0  0  0
 18 19  1  0  0  0  0
M  END
> <s_m_source_file>
AV-unprocessed.smi

> <i_m_source_file_index>
781

> <i_lp_mmshare_version>
43012

> <i_f3d_flags>
0

> <s_epik_input>
W0NIM11jMVtjSF1jKG5vMSlbTkhdQyg9TylbTkhdW0NASF0oW0NAQEhdMjMpW0NASF0oW0NIMl1bT0hdKVtDQEBIXShbQ0gyXTMpW0NIMl1bQ0gyXTI=

> <s_epik_cmdline>
J2VwaWtfcHl0aG9uJywgJy1waCcsICc3LjAnLCAnLXRuJywgJzgnLCAnLW1hJywgJzIwMCcsICctbWV0YWxfYmluZGluZycsICctaW1hZScsICc8aW5maWxlLm1hZT4nLCAnLW9tYWUnLCAnPG91dGZpbGUubWFlPic=

> <r_lp_tautomer_probability>
1

> <r_epik_Ionization_Penalty>
2.32222e-05

> <r_epik_Ionization_Penalty_Charging>
0

> <r_epik_Ionization_Penalty_Neutral>
2.32222e-05

> <r_epik_State_Penalty>
-0

> <r_epik_Charging_Adjusted_Penalty>
0

> <i_epik_Tot_Q>
0

> <i_epik_Tot_abs_Q>
0

> <r_epik_Metal_State_Penalty>
-0

> <b_epik_Metal_Only>
0

> <s_lp_Force_Field>
OPLS_2005

> <r_lp_Energy>
48.8521

> <b_lp_Chiralities_Consistent>
1

> <s_lp_Variant>
AV-unprocessed.smi:781-2

> <Gold.Version>
5.8.1

> <Gold.Id.Protein>
6NUR|6NUR_protein|mol2

> <Gold.PLP.Fitness>
37.3549

> <Gold.PLP.PLP>
-29.9613

> <Gold.PLP.part.hbond>
-4.0000

> <Gold.PLP.part.metal>
0.0000

> <Gold.PLP.part.buried>
-4.5078

> <Gold.PLP.part.nonpolar>
-21.2516

> <Gold.PLP.part.repulsive>
0.2144

> <Gold.PLP.ligand.clash>
0.0000

> <Gold.PLP.ligand.torsion>
0.5203

> <Gold.PLP.Chemscore.Hbond>
2.8080

> <Gold.PLP.Chemscore.CHOScore>
0.0000

> <Gold.PLP.Chemscore.Metal>
0.0000

> <Gold.Chemscore.Hbonds>
donor molecule, donor type, donor heavy atom, donor atom, acceptor molecule, acceptor atom, score
      P1  H  6931  6943       L1    18  0.91
      P1  H  6934  6947       L1    18  0.88
      P1  H 10752 10765       L1    17  1.00

> <Gold.PLP.Chemscore.Internal.Correction>
0.0101

> <Gold.Rescore>
     Score         DG    S(hbond)    S(metal)    S(lipo)     H(rot)  DE(clash)    DE(int)     intcor
     14.66     -16.82       2.62        0.00      62.85       1.86       0.05       2.11       ----

> <Gold.Chemscore.Fitness>
14.6583

> <Gold.Chemscore.DG>
-16.8184

> <Gold.Chemscore.ZeroCoef>
-5.4800

> <Gold.Chemscore.Hbond>
2.6176

> <Gold.Chemscore.Metal>
0.0000

> <Gold.Chemscore.Lipo>
62.8548

> <Gold.Chemscore.Internal_Hbond>
0.0000

> <Gold.Chemscore.DEClash>
0.0458

> <Gold.Chemscore.DEInternal>
2.1142

> <Gold.Chemscore.Rot>
1.8587

> <Gold.Chemscore.Internal.Correction>
   9.000000E+99

> <Gold.Chemscore.Hbonds>
donor molecule, donor type, donor heavy atom, donor atom, acceptor molecule, acceptor atom, score
      P1  H  6931  6943       L1    18  0.46
      P1  H  6934  6947       L1    18  0.86
      P1  H 10752 10765       L1    17  0.90

> <Gold.Chemscore.Hbond.Weighted>
-8.7427

> <Gold.Chemscore.Metal.Weighted>
-0.0000

> <Gold.Chemscore.Lipo.Weighted>
-7.3540

> <Gold.Chemscore.Internal_Hbond.Weighted>
0.0000

> <Gold.Chemscore.DEClash.Weighted>
0.0458

> <Gold.Chemscore.DEInternal.Weighted>
2.1142

> <Gold.Chemscore.Rot.Weighted>
4.7583

> <Gold.Chemscore.Internal.Correction.Weighted>
   9.000000E+99

> <Gold.Protein.RotatedTorsions>
[ 6907 6896 6895 6894 ] final  -56.54 input  -60.11 | X-H torsion
[ 7974 7965 7964 7962 ] final  125.49 input  175.53 | X-H torsion
[ 8008 7997 7996 7995 ] final   77.18 input   59.86 | X-H torsion
[ 10167 10162 10161 10158 ] final  -51.09 input  -65.29 | X-H torsion
[ 10718 10713 10712 10709 ] final  144.37 input   66.30 | X-H torsion
[ 10763 10752 10751 10750 ] final  169.90 input  -60.55 | X-H torsion
[ 11005 11000 10999 10996 ] final  142.91 input  -57.11 | X-H torsion

> <Gold.Protein.ActiveResidues>
 VAL166  LYS551  ARG553  GLY616  TRP617  ASP618  TYR619  PRO620  LYS621  CYS622 
 ASP623  PHE694  ASN695  SER759  ASP760  ASP761  ALA762  ILE779  LEU786  VAL792 
 PHE793  MET794  SER795  GLU796  ALA797  LYS798  CYS799  TRP800  GLU811  SER814 

> <Gold.Protein.RotatedAtoms>
  150.8159  134.7341  159.6729 H   0  0  0  0  0  0  0  0  0  0  0  0  # atno 6907 bound_to 6896
  152.4278  134.5832  159.9963 H   0  0  0  0  0  0  0  0  0  0  0  0  # atno 6908 bound_to 6896
  151.6029  133.3317  159.3087 H   0  0  0  0  0  0  0  0  0  0  0  0  # atno 6909 bound_to 6896
  145.0724  139.3720  143.4951 H   0  0  0  0  0  0  0  0  0  0  0  0  # atno 7974 bound_to 7965
  155.8379  140.3463  155.5613 H   0  0  0  0  0  0  0  0  0  0  0  0  # atno 8008 bound_to 7997
  155.8172  140.0907  157.1889 H   0  0  0  0  0  0  0  0  0  0  0  0  # atno 8009 bound_to 7997
  154.4004  140.1437  156.3444 H   0  0  0  0  0  0  0  0  0  0  0  0  # atno 8010 bound_to 7997
  140.6606  143.2633  151.4453 H   0  0  0  0  0  0  0  0  0  0  0  0  # atno 10167 bound_to 10162
  157.3580  131.0961  151.0941 H   0  0  0  0  0  0  0  0  0  0  0  0  # atno 10718 bound_to 10713
  154.3899  135.2754  155.2161 H   0  0  0  0  0  0  0  0  0  0  0  0  # atno 10763 bound_to 10752
  154.4232  135.5995  153.6026 H   0  0  0  0  0  0  0  0  0  0  0  0  # atno 10764 bound_to 10752
  152.9832  135.5977  154.4152 H   0  0  0  0  0  0  0  0  0  0  0  0  # atno 10765 bound_to 10752
  140.0513  134.9254  157.1022 H   0  0  0  0  0  0  0  0  0  0  0  0  # atno 11005 bound_to 11000
  146.3529  140.0475  142.8638 LP  0  0  0  0  0  0  0  0  0  0  0  0  # atno 17320 bound_to 7965
  145.1276  140.9499  143.4563 LP  0  0  0  0  0  0  0  0  0  0  0  0  # atno 17321 bound_to 7965
  139.5838  144.1649  152.2003 LP  0  0  0  0  0  0  0  0  0  0  0  0  # atno 17342 bound_to 10162
  140.0982  144.5562  150.7007 LP  0  0  0  0  0  0  0  0  0  0  0  0  # atno 17343 bound_to 10162
  157.2091  130.6430  149.5767 LP  0  0  0  0  0  0  0  0  0  0  0  0  # atno 17370 bound_to 10713
  155.9732  130.4666  150.6294 LP  0  0  0  0  0  0  0  0  0  0  0  0  # atno 17371 bound_to 10713
  140.3913  134.2181  155.7166 LP  0  0  0  0  0  0  0  0  0  0  0  0  # atno 17394 bound_to 11000
  141.1931  133.8157  157.0810 LP  0  0  0  0  0  0  0  0  0  0  0  0  # atno 17395 bound_to 11000

$$$$
