AV-unprocessed.smi:21|AV-procd|sdf|126|dock5
  -GOLD-   2262015303D 1   1.00000     0.00000
 Structure written by MMmdl.
 62 65  0  0  0  0  0  0  0  0  2 V2000
  144.3727  133.2042  150.1424 C   0  0  0  0  0  0  0  0  0  0  0  0
  144.1419  133.8372  151.3906 O   0  0  0  0  0  0  0  0  0  0  0  0
  145.2731  134.5352  151.8898 C   0  0  2  0  0  0  0  0  0  0  0  0
  145.0191  135.0140  153.3151 C   0  0  0  0  0  0  0  0  0  0  0  0
  145.9362  136.2384  153.4925 C   0  0  1  0  0  0  0  0  0  0  0  0
  147.2155  135.9421  154.3101 C   0  0  0  0  0  0  0  0  0  0  0  0
  147.4934  136.9298  155.3552 N   0  0  0  0  0  0  0  0  0  0  0  0
  146.4418  137.2497  156.3177 C   0  0  0  0  0  0  0  0  0  0  0  0
  148.5093  137.8208  155.1750 C   0  0  0  0  0  0  0  0  0  0  0  0
  149.4795  137.5313  154.2666 N   0  0  0  0  0  0  0  0  0  0  0  0
  150.5290  138.3415  154.1059 C   0  0  0  0  0  0  0  0  0  0  0  0
  150.8120  139.4743  154.7488 N   0  0  0  0  0  0  0  0  0  0  0  0
  149.8369  139.7871  155.6476 C   0  0  0  0  0  0  0  0  0  0  0  0
  148.6544  139.0369  155.9094 C   0  0  0  0  0  0  0  0  0  0  0  0
  147.8935  139.6938  156.8715 N   0  0  0  0  0  0  0  0  0  0  0  0
  148.5950  140.7490  157.1794 C   0  0  0  0  0  0  0  0  0  0  0  0
  149.7976  140.8589  156.5218 N   0  0  0  0  0  0  0  0  0  0  0  0
  150.7933  141.8985  156.7031 C   0  0  0  0  0  0  0  0  0  0  0  0
  151.4179  141.9528  158.1267 C   0  0  1  0  0  0  0  0  0  0  0  0
  152.5352  140.8860  158.2286 C   0  0  0  0  0  0  0  0  0  0  0  0
  152.9346  140.6850  159.5687 O   0  0  0  0  0  0  0  0  0  0  0  0
  151.9398  143.3690  158.5238 C   0  0  2  0  0  0  0  0  0  0  0  0
  152.1977  143.5679  160.0108 C   0  0  0  0  0  0  0  0  0  0  0  0
  152.2271  145.0836  160.1400 C   0  0  0  0  0  0  0  0  0  0  0  0
  151.2182  145.5345  159.2507 O   0  0  0  0  0  0  0  0  0  0  0  0
  150.9758  144.5411  158.2599 C   0  0  0  0  0  0  0  0  0  0  0  0
  146.3047  136.6717  152.1215 N   0  3  2  0  0  0  0  0  0  0  0  0
  146.1894  138.1270  151.8851 C   0  0  0  0  0  0  0  0  0  0  0  0
  145.5496  135.8466  151.1573 C   0  0  0  0  0  0  0  0  0  0  0  0
  146.1611  133.9000  151.8803 H   0  0  0  0  0  0  0  0  0  0  0  0
  145.3601  137.0312  153.9714 H   0  0  0  0  0  0  0  0  0  0  0  0
  143.4748  132.6688  149.8343 H   0  0  0  0  0  0  0  0  0  0  0  0
  145.1865  132.4812  150.2113 H   0  0  0  0  0  0  0  0  0  0  0  0
  144.6124  133.9283  149.3634 H   0  0  0  0  0  0  0  0  0  0  0  0
  143.9800  135.3326  153.4113 H   0  0  0  0  0  0  0  0  0  0  0  0
  145.1823  134.2265  154.0494 H   0  0  0  0  0  0  0  0  0  0  0  0
  147.1258  134.9555  154.7661 H   0  0  0  0  0  0  0  0  0  0  0  0
  148.0806  135.8639  153.6539 H   0  0  0  0  0  0  0  0  0  0  0  0
  146.8722  137.4722  157.2948 H   0  0  0  0  0  0  0  0  0  0  0  0
  145.7559  136.4119  156.4438 H   0  0  0  0  0  0  0  0  0  0  0  0
  145.8622  138.1144  155.9930 H   0  0  0  0  0  0  0  0  0  0  0  0
  151.2520  138.0301  153.3661 H   0  0  0  0  0  0  0  0  0  0  0  0
  148.2673  141.4620  157.9221 H   0  0  0  0  0  0  0  0  0  0  0  0
  151.5649  141.7325  155.9510 H   0  0  0  0  0  0  0  0  0  0  0  0
  150.3361  142.8593  156.4634 H   0  0  0  0  0  0  0  0  0  0  0  0
  150.6497  141.6749  158.8495 H   0  0  0  0  0  0  0  0  0  0  0  0
  152.2065  139.9375  157.8029 H   0  0  0  0  0  0  0  0  0  0  0  0
  153.4291  141.1890  157.6851 H   0  0  0  0  0  0  0  0  0  0  0  0
  152.2451  140.2251  160.0231 H   0  0  0  0  0  0  0  0  0  0  0  0
  152.8756  143.5634  157.9971 H   0  0  0  0  0  0  0  0  0  0  0  0
  151.3758  143.1593  160.6011 H   0  0  0  0  0  0  0  0  0  0  0  0
  153.1275  143.1122  160.3524 H   0  0  0  0  0  0  0  0  0  0  0  0
  152.0461  145.4251  161.1595 H   0  0  0  0  0  0  0  0  0  0  0  0
  153.1904  145.4771  159.8124 H   0  0  0  0  0  0  0  0  0  0  0  0
  151.1155  144.9765  157.2721 H   0  0  0  0  0  0  0  0  0  0  0  0
  149.9352  144.2277  158.3489 H   0  0  0  0  0  0  0  0  0  0  0  0
  145.1593  138.4663  152.0042 H   0  0  0  0  0  0  0  0  0  0  0  0
  146.5181  138.3755  150.8757 H   0  0  0  0  0  0  0  0  0  0  0  0
  146.8146  138.6791  152.5871 H   0  0  0  0  0  0  0  0  0  0  0  0
  146.1049  135.7062  150.2296 H   0  0  0  0  0  0  0  0  0  0  0  0
  144.6047  136.3371  150.9158 H   0  0  0  0  0  0  0  0  0  0  0  0
  147.2767  136.4235  152.0038 H   0  0  0  0  0  0  0  0  0  0  0  0
  1  2  1  0  0  0  0
  1 32  1  0  0  0  0
  1 33  1  0  0  0  0
  1 34  1  0  0  0  0
  2  3  1  0  0  0  0
  3 30  1  0  0  0  0
  3 29  1  0  0  0  0
  3  4  1  0  0  0  0
  4  5  1  0  0  0  0
  4 35  1  0  0  0  0
  4 36  1  0  0  0  0
  5 31  1  0  0  0  0
  5  6  1  0  0  0  0
  5 27  1  0  0  0  0
  6  7  1  0  0  0  0
  6 37  1  0  0  0  0
  6 38  1  0  0  0  0
  7  8  1  0  0  0  0
  7  9  1  0  0  0  0
  8 39  1  0  0  0  0
  8 40  1  0  0  0  0
  8 41  1  0  0  0  0
  9 14  1  0  0  0  0
  9 10  2  0  0  0  0
 10 11  1  0  0  0  0
 11 12  2  0  0  0  0
 11 42  1  0  0  0  0
 12 13  1  0  0  0  0
 13 17  1  0  0  0  0
 13 14  2  0  0  0  0
 14 15  1  0  0  0  0
 15 16  2  0  0  0  0
 16 17  1  0  0  0  0
 16 43  1  0  0  0  0
 17 18  1  0  0  0  0
 18 19  1  0  0  0  0
 18 44  1  0  0  0  0
 18 45  1  0  0  0  0
 19 20  1  0  0  0  0
 19 22  1  0  0  0  0
 19 46  1  0  0  0  0
 20 21  1  0  0  0  0
 20 47  1  0  0  0  0
 20 48  1  0  0  0  0
 21 49  1  0  0  0  0
 22 26  1  0  0  0  0
 22 23  1  0  0  0  0
 22 50  1  0  0  0  0
 23 24  1  0  0  0  0
 23 51  1  0  0  0  0
 23 52  1  0  0  0  0
 24 25  1  0  0  0  0
 24 53  1  0  0  0  0
 24 54  1  0  0  0  0
 25 26  1  0  0  0  0
 26 55  1  0  0  0  0
 26 56  1  0  0  0  0
 27 28  1  0  0  0  0
 27 29  1  0  0  0  0
 27 62  1  0  0  0  0
 28 57  1  0  0  0  0
 28 58  1  0  0  0  0
 28 59  1  0  0  0  0
 29 60  1  0  0  0  0
 29 61  1  0  0  0  0
M  CHG  1  27   1
M  END
> <s_m_source_file>
AV-unprocessed.smi

> <i_m_source_file_index>
21

> <i_lp_mmshare_version>
43012

> <i_f3d_flags>
0

> <s_epik_input>
W0NIM11PW0NASF0xW0NIMl1bQ0BIXShOKFtDSDNdKVtDSDJdMSlbQ0gyXU4oW0NIM10pYyhuW2NIXW4yKWMoYzIzKW5bY0hdbjNbQ0gyXVtDQEhdKFtDSDJdW09IXSlbQ0BASF00W0NIMl1bQ0gyXU9bQ0gyXTQ=

> <s_epik_cmdline>
J2VwaWtfcHl0aG9uJywgJy1waCcsICc3LjAnLCAnLXRuJywgJzgnLCAnLW1hJywgJzIwMCcsICctbWV0YWxfYmluZGluZycsICctaW1hZScsICc8aW5maWxlLm1hZT4nLCAnLW9tYWUnLCAnPG91dGZpbGUubWFlPic=

> <r_lp_tautomer_probability>
1

> <r_epik_Ionization_Penalty>
0.0157465

> <r_epik_Ionization_Penalty_Charging>
0.015354

> <r_epik_Ionization_Penalty_Neutral>
0.000392529

> <r_epik_State_Penalty>
0.0120612

> <r_epik_Charging_Adjusted_Penalty>
0.0274152

> <i_epik_Tot_Q>
1

> <i_epik_Tot_abs_Q>
1

> <r_epik_Metal_State_Penalty>
0.0121253

> <b_epik_Metal_Only>
0

> <s_lp_Force_Field>
OPLS_2005

> <r_lp_Energy>
57.6991

> <b_lp_Chiralities_Consistent>
1

> <s_lp_Variant>
AV-unprocessed.smi:21-6

> <Gold.Version>
5.8.1

> <Gold.Id.Protein>
6NUR|6NUR_protein|mol2

> <Gold.PLP.Fitness>
47.9852

> <Gold.PLP.PLP>
-40.0845

> <Gold.PLP.part.hbond>
-2.9466

> <Gold.PLP.part.metal>
0.0000

> <Gold.PLP.part.buried>
-5.9082

> <Gold.PLP.part.nonpolar>
-34.7557

> <Gold.PLP.part.repulsive>
2.7004

> <Gold.PLP.ligand.clash>
0.0000

> <Gold.PLP.ligand.torsion>
1.4157

> <Gold.PLP.Chemscore.Hbond>
2.9913

> <Gold.PLP.Chemscore.CHOScore>
0.2905

> <Gold.PLP.Chemscore.Metal>
0.0000

> <Gold.Chemscore.Hbonds>
donor molecule, donor type, donor heavy atom, donor atom, acceptor molecule, acceptor atom, score
      L1  H    27    62       P1  7948  2.00
      P1  H  7989  7998       L1    12  0.98
      L1  C    11    42       P1  7949  0.40

> <Gold.PLP.Chemscore.Internal.Correction>
0.8868

> <Gold.Rescore>
     Score         DG    S(hbond)    S(metal)    S(lipo)     H(rot)  DE(clash)    DE(int)     intcor
     11.08     -15.41       1.67        0.00     104.50       3.08       1.27       3.06       ----

> <Gold.Chemscore.Fitness>
11.0820

> <Gold.Chemscore.DG>
-15.4106

> <Gold.Chemscore.ZeroCoef>
-5.4800

> <Gold.Chemscore.Hbond>
1.6702

> <Gold.Chemscore.Metal>
0.0000

> <Gold.Chemscore.Lipo>
104.4966

> <Gold.Chemscore.Internal_Hbond>
0.0000

> <Gold.Chemscore.DEClash>
1.2726

> <Gold.Chemscore.DEInternal>
3.0560

> <Gold.Chemscore.Rot>
3.0758

> <Gold.Chemscore.Internal.Correction>
   9.000000E+99

> <Gold.Chemscore.Hbonds>
donor molecule, donor type, donor heavy atom, donor atom, acceptor molecule, acceptor atom, score
      L1  H    27    62       P1  7948  1.00
      P1  H  7989  7998       L1    12  0.71

> <Gold.Chemscore.Hbond.Weighted>
-5.5786

> <Gold.Chemscore.Metal.Weighted>
-0.0000

> <Gold.Chemscore.Lipo.Weighted>
-12.2261

> <Gold.Chemscore.Internal_Hbond.Weighted>
0.0000

> <Gold.Chemscore.DEClash.Weighted>
1.2726

> <Gold.Chemscore.DEInternal.Weighted>
3.0560

> <Gold.Chemscore.Rot.Weighted>
7.8741

> <Gold.Chemscore.Internal.Correction.Weighted>
   9.000000E+99

> <Gold.Protein.RotatedTorsions>
[ 6907 6896 6895 6894 ] final  146.75 input  -60.11 | X-H torsion
[ 7974 7965 7964 7962 ] final  165.08 input  175.53 | X-H torsion
[ 8008 7997 7996 7995 ] final  -90.20 input   59.86 | X-H torsion
[ 10167 10162 10161 10158 ] final -175.94 input  -65.29 | X-H torsion
[ 10718 10713 10712 10709 ] final -150.56 input   66.30 | X-H torsion
[ 10763 10752 10751 10750 ] final  -98.16 input  -60.55 | X-H torsion
[ 11005 11000 10999 10996 ] final -123.02 input  -57.11 | X-H torsion

> <Gold.Protein.ActiveResidues>
 VAL166  LYS551  ARG553  GLY616  TRP617  ASP618  TYR619  PRO620  LYS621  CYS622 
 ASP623  PHE694  ASN695  SER759  ASP760  ASP761  ALA762  ILE779  LEU786  VAL792 
 PHE793  MET794  SER795  GLU796  ALA797  LYS798  CYS799  TRP800  GLU811  SER814 

> <Gold.Protein.RotatedAtoms>
  152.1639  133.4599  159.4874 H   0  0  0  0  0  0  0  0  0  0  0  0  # atno 6907 bound_to 6896
  150.6910  134.2038  159.4341 H   0  0  0  0  0  0  0  0  0  0  0  0  # atno 6908 bound_to 6896
  151.9941  134.9963  160.0613 H   0  0  0  0  0  0  0  0  0  0  0  0  # atno 6909 bound_to 6896
  144.7518  139.8418  143.6363 H   0  0  0  0  0  0  0  0  0  0  0  0  # atno 7974 bound_to 7965
  154.6957  140.0533  157.0408 H   0  0  0  0  0  0  0  0  0  0  0  0  # atno 8008 bound_to 7997
  155.0754  140.3204  155.4599 H   0  0  0  0  0  0  0  0  0  0  0  0  # atno 8009 bound_to 7997
  156.2743  140.2074  156.5882 H   0  0  0  0  0  0  0  0  0  0  0  0  # atno 8010 bound_to 7997
  139.5555  144.2001  152.1151 H   0  0  0  0  0  0  0  0  0  0  0  0  # atno 10167 bound_to 10162
  156.4478  130.8153  151.2383 H   0  0  0  0  0  0  0  0  0  0  0  0  # atno 10718 bound_to 10713
  154.7390  135.5020  153.9091 H   0  0  0  0  0  0  0  0  0  0  0  0  # atno 10763 bound_to 10752
  153.1024  135.6688  153.9656 H   0  0  0  0  0  0  0  0  0  0  0  0  # atno 10764 bound_to 10752
  153.9438  135.3065  155.3421 H   0  0  0  0  0  0  0  0  0  0  0  0  # atno 10765 bound_to 10752
  140.9951  134.0484  157.3608 H   0  0  0  0  0  0  0  0  0  0  0  0  # atno 11005 bound_to 11000
  146.1477  139.4551  143.0068 LP  0  0  0  0  0  0  0  0  0  0  0  0  # atno 17320 bound_to 7965
  145.6918  141.0162  143.1551 LP  0  0  0  0  0  0  0  0  0  0  0  0  # atno 17321 bound_to 7965
  140.1504  144.5120  150.6691 LP  0  0  0  0  0  0  0  0  0  0  0  0  # atno 17342 bound_to 10162
  140.6827  143.2334  151.5343 LP  0  0  0  0  0  0  0  0  0  0  0  0  # atno 17343 bound_to 10162
  157.7504  131.0147  150.3477 LP  0  0  0  0  0  0  0  0  0  0  0  0  # atno 17370 bound_to 10713
  156.3849  130.3887  149.7074 LP  0  0  0  0  0  0  0  0  0  0  0  0  # atno 17371 bound_to 10713
  139.9010  135.0164  156.7270 LP  0  0  0  0  0  0  0  0  0  0  0  0  # atno 17394 bound_to 11000
  140.6979  133.9332  155.8006 LP  0  0  0  0  0  0  0  0  0  0  0  0  # atno 17395 bound_to 11000

$$$$
