AV-unprocessed.smi:1674|AV-procd|sdf|6713|dock7
  -GOLD-   22720 7453D 1   1.00000     0.00000
 Structure written by MMmdl.
 47 48  0  0  0  0  0  0  0  0  1 V2000
  146.6314  136.1206  154.7953 C   0  0  0  0  0  0  0  0  0  0  0  0
  148.1114  136.1663  155.0637 C   0  0  0  0  0  0  0  0  0  0  0  0
  148.7452  137.2090  154.6384 N   0  0  0  0  0  0  0  0  0  0  0  0
  150.1068  137.3493  154.8193 N   0  0  0  0  0  0  0  0  0  0  0  0
  150.6489  138.5781  154.2182 C   0  0  0  0  0  0  0  0  0  0  0  0
  149.9359  139.8807  154.6724 C   0  0  2  0  0  0  0  0  0  0  0  0
  149.7962  140.7439  153.5608 O   0  0  0  0  0  0  0  0  0  0  0  0
  150.5472  140.5637  155.8925 C   0  0  0  0  0  0  0  0  0  0  0  0
  151.2101  139.7871  156.8662 C   0  0  0  0  0  0  0  0  0  0  0  0
  151.8056  140.4025  157.9837 C   0  0  0  0  0  0  0  0  0  0  0  0
  151.7417  141.8025  158.1402 C   0  0  0  0  0  0  0  0  0  0  0  0
  152.3845  142.4704  159.3438 C   0  0  0  0  0  0  0  0  0  0  0  0
  151.9410  143.9340  159.5472 C   0  0  0  0  0  0  0  0  0  0  0  0
  152.5853  144.8505  158.4963 C   0  0  0  0  0  0  0  0  0  0  0  0
  152.2319  144.4446  160.9688 C   0  0  0  0  0  0  0  0  0  0  0  0
  151.0797  142.5818  157.1694 C   0  0  0  0  0  0  0  0  0  0  0  0
  150.4839  141.9663  156.0524 C   0  0  0  0  0  0  0  0  0  0  0  0
  150.8998  136.4456  155.4659 C   0  0  0  0  0  0  0  0  0  0  0  0
  152.1118  136.6090  155.6147 O   0  0  0  0  0  0  0  0  0  0  0  0
  150.1754  135.2664  155.9451 C   0  0  0  0  0  0  0  0  0  0  0  0
  150.9724  134.2857  156.6086 C   0  0  0  0  0  0  0  0  0  0  0  0
  151.6224  133.4810  157.1282 N   0  0  0  0  0  0  0  0  0  0  0  0
  148.8401  135.1134  155.7632 C   0  0  0  0  0  0  0  0  0  0  0  0
  148.0433  133.9067  156.2398 C   0  0  0  0  0  0  0  0  0  0  0  0
  146.0686  136.1724  155.7273 H   0  0  0  0  0  0  0  0  0  0  0  0
  146.3568  135.1977  154.2842 H   0  0  0  0  0  0  0  0  0  0  0  0
  146.3064  136.9511  154.1665 H   0  0  0  0  0  0  0  0  0  0  0  0
  151.7246  138.6433  154.3929 H   0  0  0  0  0  0  0  0  0  0  0  0
  150.5660  138.5113  153.1323 H   0  0  0  0  0  0  0  0  0  0  0  0
  148.9115  139.6145  154.9361 H   0  0  0  0  0  0  0  0  0  0  0  0
  149.8546  140.2266  152.7720 H   0  0  0  0  0  0  0  0  0  0  0  0
  151.2741  138.7148  156.7522 H   0  0  0  0  0  0  0  0  0  0  0  0
  152.3121  139.7956  158.7198 H   0  0  0  0  0  0  0  0  0  0  0  0
  152.1702  141.8875  160.2408 H   0  0  0  0  0  0  0  0  0  0  0  0
  153.4665  142.4285  159.2105 H   0  0  0  0  0  0  0  0  0  0  0  0
  150.8619  143.9826  159.3938 H   0  0  0  0  0  0  0  0  0  0  0  0
  153.6723  144.8509  158.5837 H   0  0  0  0  0  0  0  0  0  0  0  0
  152.2427  145.8796  158.6079 H   0  0  0  0  0  0  0  0  0  0  0  0
  152.3323  144.5292  157.4854 H   0  0  0  0  0  0  0  0  0  0  0  0
  153.2966  144.3910  161.1985 H   0  0  0  0  0  0  0  0  0  0  0  0
  151.6989  143.8629  161.7211 H   0  0  0  0  0  0  0  0  0  0  0  0
  151.9188  145.4828  161.0835 H   0  0  0  0  0  0  0  0  0  0  0  0
  151.0291  143.6553  157.2783 H   0  0  0  0  0  0  0  0  0  0  0  0
  149.9911  142.5789  155.3117 H   0  0  0  0  0  0  0  0  0  0  0  0
  148.6453  133.2272  156.8423 H   0  0  0  0  0  0  0  0  0  0  0  0
  147.6621  133.3433  155.3876 H   0  0  0  0  0  0  0  0  0  0  0  0
  147.1973  134.2196  156.8526 H   0  0  0  0  0  0  0  0  0  0  0  0
  1  2  1  0  0  0  0
  1 25  1  0  0  0  0
  1 26  1  0  0  0  0
  1 27  1  0  0  0  0
  2 23  1  0  0  0  0
  2  3  2  0  0  0  0
  3  4  1  0  0  0  0
  4  5  1  0  0  0  0
  4 18  1  0  0  0  0
  5  6  1  0  0  0  0
  5 28  1  0  0  0  0
  5 29  1  0  0  0  0
  6  7  1  0  0  0  0
  6  8  1  0  0  0  0
  6 30  1  0  0  0  0
  7 31  1  0  0  0  0
  8 17  1  0  0  0  0
  8  9  2  0  0  0  0
  9 10  1  0  0  0  0
  9 32  1  0  0  0  0
 10 11  2  0  0  0  0
 10 33  1  0  0  0  0
 11 12  1  0  0  0  0
 11 16  1  0  0  0  0
 12 13  1  0  0  0  0
 12 34  1  0  0  0  0
 12 35  1  0  0  0  0
 13 14  1  0  0  0  0
 13 15  1  0  0  0  0
 13 36  1  0  0  0  0
 14 37  1  0  0  0  0
 14 38  1  0  0  0  0
 14 39  1  0  0  0  0
 15 40  1  0  0  0  0
 15 41  1  0  0  0  0
 15 42  1  0  0  0  0
 16 17  2  0  0  0  0
 16 43  1  0  0  0  0
 17 44  1  0  0  0  0
 18 19  2  0  0  0  0
 18 20  1  0  0  0  0
 20 21  1  0  0  0  0
 20 23  2  0  0  0  0
 21 22  3  0  0  0  0
 23 24  1  0  0  0  0
 24 45  1  0  0  0  0
 24 46  1  0  0  0  0
 24 47  1  0  0  0  0
M  END
> <s_m_source_file>
AV-unprocessed.smi

> <i_m_source_file_index>
1674

> <i_lp_mmshare_version>
43012

> <i_f3d_flags>
0

> <s_epik_input>
TiNDYyhjMVtDSDNdKWMoPU8pbihuYzFbQ0gzXSlbQ0gyXVtDQEhdKFtPSF0pYzJbY0hdW2NIXWMoW2NIXVtjSF0yKVtDSDJdW0NIXShbQ0gzXSlbQ0gzXQ==

> <s_epik_cmdline>
J2VwaWtfcHl0aG9uJywgJy1waCcsICc3LjAnLCAnLXRuJywgJzgnLCAnLW1hJywgJzIwMCcsICctbWV0YWxfYmluZGluZycsICctaW1hZScsICc8aW5maWxlLm1hZT4nLCAnLW9tYWUnLCAnPG91dGZpbGUubWFlPic=

> <r_lp_tautomer_probability>
1

> <r_epik_Ionization_Penalty>
4.60566e-08

> <r_epik_Ionization_Penalty_Charging>
1.40848e-10

> <r_epik_Ionization_Penalty_Neutral>
4.59158e-08

> <r_epik_State_Penalty>
-0

> <r_epik_Charging_Adjusted_Penalty>
1.40848e-10

> <i_epik_Tot_Q>
0

> <i_epik_Tot_abs_Q>
0

> <r_epik_Metal_State_Penalty>
-0

> <b_epik_Metal_Only>
0

> <s_lp_Force_Field>
OPLS_2005

> <r_lp_Energy>
29.2193

> <b_lp_Chiralities_Consistent>
1

> <s_lp_Variant>
AV-unprocessed.smi:1674-1

> <Gold.Version>
5.8.1

> <Gold.Id.Protein>
6NUR|6NUR_protein|mol2

> <Gold.PLP.Fitness>
49.5116

> <Gold.PLP.PLP>
-45.5202

> <Gold.PLP.part.hbond>
-4.5407

> <Gold.PLP.part.metal>
0.0000

> <Gold.PLP.part.buried>
-4.0423

> <Gold.PLP.part.nonpolar>
-37.0718

> <Gold.PLP.part.repulsive>
1.7302

> <Gold.PLP.ligand.clash>
0.0000

> <Gold.PLP.ligand.torsion>
1.5226

> <Gold.PLP.Chemscore.Hbond>
2.3030

> <Gold.PLP.Chemscore.CHOScore>
0.0000

> <Gold.PLP.Chemscore.Metal>
0.0000

> <Gold.Chemscore.Hbonds>
donor molecule, donor type, donor heavy atom, donor atom, acceptor molecule, acceptor atom, score
      L1  H     7    31       P1  7957  1.00
      P1  H  6896  6909       L1    22  0.01
      P1  H  7989  7998       L1     7  0.06
      P1  H  8011  8017       L1     7  0.32
      P1  H 10752 10765       L1    19  1.00

> <Gold.PLP.Chemscore.Internal.Correction>
0.1276

> <Gold.Rescore>
     Score         DG    S(hbond)    S(metal)    S(lipo)     H(rot)  DE(clash)    DE(int)     intcor
     17.29     -19.88       1.96        0.00     113.84       2.13       0.15       2.44       ----

> <Gold.Chemscore.Fitness>
17.2909

> <Gold.Chemscore.DG>
-19.8789

> <Gold.Chemscore.ZeroCoef>
-5.4800

> <Gold.Chemscore.Hbond>
1.9557

> <Gold.Chemscore.Metal>
0.0000

> <Gold.Chemscore.Lipo>
113.8431

> <Gold.Chemscore.Internal_Hbond>
0.0000

> <Gold.Chemscore.DEClash>
0.1461

> <Gold.Chemscore.DEInternal>
2.4419

> <Gold.Chemscore.Rot>
2.1299

> <Gold.Chemscore.Internal.Correction>
   9.000000E+99

> <Gold.Chemscore.Hbonds>
donor molecule, donor type, donor heavy atom, donor atom, acceptor molecule, acceptor atom, score
      L1  H     7    31       P1  7957  0.95
      P1  H  6896  6909       L1    22  0.01
      P1  H  8011  8017       L1     7  0.01
      P1  H 10752 10765       L1    19  0.92

> <Gold.Chemscore.Hbond.Weighted>
-6.5319

> <Gold.Chemscore.Metal.Weighted>
-0.0000

> <Gold.Chemscore.Lipo.Weighted>
-13.3196

> <Gold.Chemscore.Internal_Hbond.Weighted>
0.0000

> <Gold.Chemscore.DEClash.Weighted>
0.1461

> <Gold.Chemscore.DEInternal.Weighted>
2.4419

> <Gold.Chemscore.Rot.Weighted>
5.4526

> <Gold.Chemscore.Internal.Correction.Weighted>
   9.000000E+99

> <Gold.Protein.RotatedTorsions>
[ 6907 6896 6895 6894 ] final  -99.03 input  -60.11 | X-H torsion
[ 7974 7965 7964 7962 ] final  167.27 input  175.53 | X-H torsion
[ 8008 7997 7996 7995 ] final -152.13 input   59.86 | X-H torsion
[ 10167 10162 10161 10158 ] final  -50.40 input  -65.29 | X-H torsion
[ 10718 10713 10712 10709 ] final  103.75 input   66.30 | X-H torsion
[ 10763 10752 10751 10750 ] final -152.10 input  -60.55 | X-H torsion
[ 11005 11000 10999 10996 ] final  -18.57 input  -57.11 | X-H torsion

> <Gold.Protein.ActiveResidues>
 VAL166  LYS551  ARG553  GLY616  TRP617  ASP618  TYR619  PRO620  LYS621  CYS622 
 ASP623  PHE694  ASN695  SER759  ASP760  ASP761  ALA762  ILE779  LEU786  VAL792 
 PHE793  MET794  SER795  GLU796  ALA797  LYS798  CYS799  TRP800  GLU811  SER814 

> <Gold.Protein.RotatedAtoms>
  150.7066  134.1103  159.3997 H   0  0  0  0  0  0  0  0  0  0  0  0  # atno 6907 bound_to 6896
  151.9090  135.0344  160.0522 H   0  0  0  0  0  0  0  0  0  0  0  0  # atno 6908 bound_to 6896
  152.2352  133.5055  159.5275 H   0  0  0  0  0  0  0  0  0  0  0  0  # atno 6909 bound_to 6896
  144.7431  139.8736  143.6391 H   0  0  0  0  0  0  0  0  0  0  0  0  # atno 7974 bound_to 7965
  155.6503  140.0711  157.2589 H   0  0  0  0  0  0  0  0  0  0  0  0  # atno 8008 bound_to 7997
  154.4164  140.1734  156.1717 H   0  0  0  0  0  0  0  0  0  0  0  0  # atno 8009 bound_to 7997
  155.9782  140.3356  155.6642 H   0  0  0  0  0  0  0  0  0  0  0  0  # atno 8010 bound_to 7997
  140.6639  143.2659  151.4354 H   0  0  0  0  0  0  0  0  0  0  0  0  # atno 10167 bound_to 10162
  157.6762  131.0786  150.5602 H   0  0  0  0  0  0  0  0  0  0  0  0  # atno 10718 bound_to 10713
  154.8016  135.3244  154.7536 H   0  0  0  0  0  0  0  0  0  0  0  0  # atno 10763 bound_to 10752
  153.8203  135.6888  153.4832 H   0  0  0  0  0  0  0  0  0  0  0  0  # atno 10764 bound_to 10752
  153.1736  135.4614  154.9878 H   0  0  0  0  0  0  0  0  0  0  0  0  # atno 10765 bound_to 10752
  140.8281  133.8017  155.9730 H   0  0  0  0  0  0  0  0  0  0  0  0  # atno 11005 bound_to 11000
  146.1262  139.4289  143.0197 LP  0  0  0  0  0  0  0  0  0  0  0  0  # atno 17320 bound_to 7965
  145.7231  141.0068  143.1392 LP  0  0  0  0  0  0  0  0  0  0  0  0  # atno 17321 bound_to 7965
  139.5882  144.1558  152.2055 LP  0  0  0  0  0  0  0  0  0  0  0  0  # atno 17342 bound_to 10162
  140.0904  144.5625  150.7058 LP  0  0  0  0  0  0  0  0  0  0  0  0  # atno 17343 bound_to 10162
  156.5905  130.4328  149.5938 LP  0  0  0  0  0  0  0  0  0  0  0  0  # atno 17370 bound_to 10713
  156.2587  130.6950  151.1711 LP  0  0  0  0  0  0  0  0  0  0  0  0  # atno 17371 bound_to 10713
  140.9027  134.2358  157.5032 LP  0  0  0  0  0  0  0  0  0  0  0  0  # atno 17394 bound_to 11000
  139.8706  134.9714  156.4735 LP  0  0  0  0  0  0  0  0  0  0  0  0  # atno 17395 bound_to 11000

$$$$
