AV-unprocessed.smi:2706|AV-procd|sdf|10451|dock4
  -GOLD-   2272014493D 1   1.00000     0.00000
 Structure written by MMmdl.
 44 47  0  0  0  0  0  0  0  0  2 V2000
  151.0212  137.8207  154.9260 C   0  0  0  0  0  0  0  0  0  0  0  0
  150.7689  139.2006  154.5411 N   0  0  0  0  0  0  0  0  0  0  0  0
  151.3517  140.2184  155.4022 C   0  0  0  0  0  0  0  0  0  0  0  0
  149.4204  139.4408  154.2534 C   0  0  0  0  0  0  0  0  0  0  0  0
  148.7227  140.5823  154.7059 C   0  0  0  0  0  0  0  0  0  0  0  0
  147.3668  140.7382  154.3583 C   0  0  0  0  0  0  0  0  0  0  0  0
  146.7347  139.7518  153.5740 C   0  0  0  0  0  0  0  0  0  0  0  0
  147.4695  138.6137  153.1550 C   0  0  0  0  0  0  0  0  0  0  0  0
  146.9422  137.5656  152.3531 N   0  0  0  0  0  0  0  0  0  0  0  0
  145.6747  137.1220  152.2821 C   0  0  0  0  0  0  0  0  0  0  0  0
  144.7280  137.5685  152.9296 O   0  0  0  0  0  0  0  0  0  0  0  0
  145.5672  136.1043  151.4173 N   0  0  0  0  0  0  0  0  0  0  0  0
  144.3672  135.3976  151.1044 C   0  0  2  0  0  0  0  0  0  0  0  0
  144.0277  134.0791  151.7760 C   0  0  2  0  0  0  0  0  0  0  0  0
  144.9272  132.9663  152.3259 C   0  0  2  0  0  0  0  0  0  0  0  0
  146.4180  133.3562  152.3747 C   0  0  0  0  0  0  0  0  0  0  0  0
  146.7990  133.3913  150.8787 C   0  0  0  0  0  0  0  0  0  0  0  0
  145.4700  133.0193  150.1902 C   0  0  1  0  0  0  0  0  0  0  0  0
  144.9366  131.9767  151.1660 C   0  0  0  0  0  0  0  0  0  0  0  0
  144.4019  134.1140  150.2960 C   0  0  2  0  0  0  0  0  0  0  0  0
  148.7730  138.5208  153.5055 N   0  3  0  0  0  0  0  0  0  0  0  0
  150.5441  137.1285  154.2309 H   0  0  0  0  0  0  0  0  0  0  0  0
  150.6429  137.6187  155.9290 H   0  0  0  0  0  0  0  0  0  0  0  0
  152.0924  137.6184  154.9183 H   0  0  0  0  0  0  0  0  0  0  0  0
  151.1239  141.2185  155.0311 H   0  0  0  0  0  0  0  0  0  0  0  0
  152.4361  140.1103  155.4307 H   0  0  0  0  0  0  0  0  0  0  0  0
  150.9743  140.1334  156.4219 H   0  0  0  0  0  0  0  0  0  0  0  0
  149.2185  141.3309  155.3068 H   0  0  0  0  0  0  0  0  0  0  0  0
  146.8172  141.6084  154.6859 H   0  0  0  0  0  0  0  0  0  0  0  0
  145.7004  139.8957  153.3013 H   0  0  0  0  0  0  0  0  0  0  0  0
  147.6213  137.0498  151.8131 H   0  0  0  0  0  0  0  0  0  0  0  0
  146.4000  135.8008  150.9337 H   0  0  0  0  0  0  0  0  0  0  0  0
  143.5036  136.0282  150.8976 H   0  0  0  0  0  0  0  0  0  0  0  0
  142.9725  133.9231  151.9931 H   0  0  0  0  0  0  0  0  0  0  0  0
  144.5461  132.5599  153.2631 H   0  0  0  0  0  0  0  0  0  0  0  0
  146.5988  134.2911  152.9033 H   0  0  0  0  0  0  0  0  0  0  0  0
  146.9939  132.5856  152.8890 H   0  0  0  0  0  0  0  0  0  0  0  0
  147.2045  134.3447  150.5435 H   0  0  0  0  0  0  0  0  0  0  0  0
  147.5568  132.6351  150.6693 H   0  0  0  0  0  0  0  0  0  0  0  0
  145.5876  132.6626  149.1666 H   0  0  0  0  0  0  0  0  0  0  0  0
  145.6054  131.1265  151.3143 H   0  0  0  0  0  0  0  0  0  0  0  0
  143.9430  131.6082  150.9039 H   0  0  0  0  0  0  0  0  0  0  0  0
  143.5773  133.9771  149.5985 H   0  0  0  0  0  0  0  0  0  0  0  0
  149.3028  137.7065  153.1941 H   0  0  0  0  0  0  0  0  0  0  0  0
  1  2  1  0  0  0  0
  1 22  1  0  0  0  0
  1 23  1  0  0  0  0
  1 24  1  0  0  0  0
  2  3  1  0  0  0  0
  2  4  1  0  0  0  0
  3 25  1  0  0  0  0
  3 26  1  0  0  0  0
  3 27  1  0  0  0  0
  4 21  1  0  0  0  0
  4  5  2  0  0  0  0
  5  6  1  0  0  0  0
  5 28  1  0  0  0  0
  6  7  2  0  0  0  0
  6 29  1  0  0  0  0
  7  8  1  0  0  0  0
  7 30  1  0  0  0  0
  8  9  1  0  0  0  0
  8 21  2  0  0  0  0
  9 10  1  0  0  0  0
  9 31  1  0  0  0  0
 10 11  2  0  0  0  0
 10 12  1  0  0  0  0
 12 13  1  0  0  0  0
 12 32  1  0  0  0  0
 13 20  1  0  0  0  0
 13 14  1  0  0  0  0
 13 33  1  0  0  0  0
 14 20  1  0  0  0  0
 14 15  1  0  0  0  0
 14 34  1  0  0  0  0
 15 19  1  0  0  0  0
 15 16  1  0  0  0  0
 15 35  1  0  0  0  0
 16 17  1  0  0  0  0
 16 36  1  0  0  0  0
 16 37  1  0  0  0  0
 17 18  1  0  0  0  0
 17 38  1  0  0  0  0
 17 39  1  0  0  0  0
 18 19  1  0  0  0  0
 18 20  1  0  0  0  0
 18 40  1  0  0  0  0
 19 41  1  0  0  0  0
 19 42  1  0  0  0  0
 20 43  1  0  0  0  0
 21 44  1  0  0  0  0
M  CHG  1  21   1
M  END
> <s_m_source_file>
AV-unprocessed.smi

> <i_m_source_file_index>
2706

> <i_lp_mmshare_version>
43012

> <i_f3d_flags>
0

> <s_epik_input>
W0NIM11OKFtDSDNdKWMxW2NIXVtjSF1bY0hdYyhuMSlbTkhdQyg9TylbTkhdW0NASF0yW0NAQEhdM1tDQEBIXShbQ0gyXTQpW0NIMl1bQ0gyXVtDQEBIXTRbQ0BIXTIz

> <s_epik_cmdline>
J2VwaWtfcHl0aG9uJywgJy1waCcsICc3LjAnLCAnLXRuJywgJzgnLCAnLW1hJywgJzIwMCcsICctbWV0YWxfYmluZGluZycsICctaW1hZScsICc8aW5maWxlLm1hZT4nLCAnLW9tYWUnLCAnPG91dGZpbGUubWFlPic=

> <r_lp_tautomer_probability>
0.999994

> <r_epik_Ionization_Penalty>
1.8105

> <r_epik_Ionization_Penalty_Charging>
1.79227

> <r_epik_Ionization_Penalty_Neutral>
0.0182286

> <r_epik_State_Penalty>
1.90588

> <r_epik_Charging_Adjusted_Penalty>
3.69815

> <i_epik_Tot_Q>
1

> <i_epik_Tot_abs_Q>
1

> <r_epik_Metal_State_Penalty>
1.93501

> <b_epik_Metal_Only>
0

> <s_lp_Force_Field>
OPLS_2005

> <r_lp_Energy>
97.8144

> <b_lp_Chiralities_Consistent>
1

> <s_lp_Variant>
AV-unprocessed.smi:2706-8

> <Gold.Version>
5.8.1

> <Gold.Id.Protein>
6NUR|6NUR_protein|mol2

> <Gold.PLP.Fitness>
41.5693

> <Gold.PLP.PLP>
-35.6441

> <Gold.PLP.part.hbond>
-3.3125

> <Gold.PLP.part.metal>
0.0000

> <Gold.PLP.part.buried>
-3.0658

> <Gold.PLP.part.nonpolar>
-30.5172

> <Gold.PLP.part.repulsive>
0.7132

> <Gold.PLP.ligand.clash>
0.2219

> <Gold.PLP.ligand.torsion>
0.6060

> <Gold.PLP.Chemscore.Hbond>
2.3680

> <Gold.PLP.Chemscore.CHOScore>
0.0000

> <Gold.PLP.Chemscore.Metal>
0.0000

> <Gold.Chemscore.Hbonds>
donor molecule, donor type, donor heavy atom, donor atom, acceptor molecule, acceptor atom, score
      L1  H     9    31       P1  7948  0.94
      L1  H    21    44       P1  7948  1.41

> <Gold.PLP.Chemscore.Internal.Correction>
0.2551

> <Gold.Rescore>
     Score         DG    S(hbond)    S(metal)    S(lipo)     H(rot)  DE(clash)    DE(int)     intcor
     15.99     -17.45       1.67        0.00      81.20       1.21       0.01       1.44       ----

> <Gold.Chemscore.Fitness>
15.9943

> <Gold.Chemscore.DG>
-17.4461

> <Gold.Chemscore.ZeroCoef>
-5.4800

> <Gold.Chemscore.Hbond>
1.6651

> <Gold.Chemscore.Metal>
0.0000

> <Gold.Chemscore.Lipo>
81.1975

> <Gold.Chemscore.Internal_Hbond>
0.0000

> <Gold.Chemscore.DEClash>
0.0081

> <Gold.Chemscore.DEInternal>
1.4437

> <Gold.Chemscore.Rot>
1.2092

> <Gold.Chemscore.Internal.Correction>
   9.000000E+99

> <Gold.Chemscore.Hbonds>
donor molecule, donor type, donor heavy atom, donor atom, acceptor molecule, acceptor atom, score
      L1  H     9    31       P1  7948  0.86
      L1  H    21    44       P1  7948  0.67

> <Gold.Chemscore.Hbond.Weighted>
-5.5616

> <Gold.Chemscore.Metal.Weighted>
-0.0000

> <Gold.Chemscore.Lipo.Weighted>
-9.5001

> <Gold.Chemscore.Internal_Hbond.Weighted>
0.0000

> <Gold.Chemscore.DEClash.Weighted>
0.0081

> <Gold.Chemscore.DEInternal.Weighted>
1.4437

> <Gold.Chemscore.Rot.Weighted>
3.0956

> <Gold.Chemscore.Internal.Correction.Weighted>
   9.000000E+99

> <Gold.Protein.RotatedTorsions>
[ 6907 6896 6895 6894 ] final -130.36 input  -60.11 | X-H torsion
[ 7974 7965 7964 7962 ] final  143.61 input  175.53 | X-H torsion
[ 8008 7997 7996 7995 ] final   95.88 input   59.86 | X-H torsion
[ 10167 10162 10161 10158 ] final   15.42 input  -65.29 | X-H torsion
[ 10718 10713 10712 10709 ] final   82.11 input   66.30 | X-H torsion
[ 10763 10752 10751 10750 ] final   39.19 input  -60.55 | X-H torsion
[ 11005 11000 10999 10996 ] final -146.05 input  -57.11 | X-H torsion

> <Gold.Protein.ActiveResidues>
 VAL166  LYS551  ARG553  GLY616  TRP617  ASP618  TYR619  PRO620  LYS621  CYS622 
 ASP623  PHE694  ASN695  SER759  ASP760  ASP761  ALA762  ILE779  LEU786  VAL792 
 PHE793  MET794  SER795  GLU796  ALA797  LYS798  CYS799  TRP800  GLU811  SER814 

> <Gold.Protein.RotatedAtoms>
  150.9389  133.6679  159.2794 H   0  0  0  0  0  0  0  0  0  0  0  0  # atno 6907 bound_to 6896
  151.4075  135.0979  159.9585 H   0  0  0  0  0  0  0  0  0  0  0  0  # atno 6908 bound_to 6896
  152.5060  133.8869  159.7429 H   0  0  0  0  0  0  0  0  0  0  0  0  # atno 6909 bound_to 6896
  144.8906  139.5564  143.5800 H   0  0  0  0  0  0  0  0  0  0  0  0  # atno 7974 bound_to 7965
  156.0737  140.3280  155.7607 H   0  0  0  0  0  0  0  0  0  0  0  0  # atno 8008 bound_to 7997
  155.5265  140.0589  157.2914 H   0  0  0  0  0  0  0  0  0  0  0  0  # atno 8009 bound_to 7997
  154.4544  140.1935  156.0441 H   0  0  0  0  0  0  0  0  0  0  0  0  # atno 8010 bound_to 7997
  140.5868  143.8873  150.6838 H   0  0  0  0  0  0  0  0  0  0  0  0  # atno 10167 bound_to 10162
  157.6849  131.0033  150.2326 H   0  0  0  0  0  0  0  0  0  0  0  0  # atno 10718 bound_to 10713
  152.9975  135.6228  154.2425 H   0  0  0  0  0  0  0  0  0  0  0  0  # atno 10763 bound_to 10752
  154.2166  135.2797  155.2941 H   0  0  0  0  0  0  0  0  0  0  0  0  # atno 10764 bound_to 10752
  154.5563  135.5718  153.7026 H   0  0  0  0  0  0  0  0  0  0  0  0  # atno 10765 bound_to 10752
  140.7860  134.3024  157.5030 H   0  0  0  0  0  0  0  0  0  0  0  0  # atno 11005 bound_to 11000
  146.3051  139.7553  142.9062 LP  0  0  0  0  0  0  0  0  0  0  0  0  # atno 17320 bound_to 7965
  145.3790  141.0355  143.3188 LP  0  0  0  0  0  0  0  0  0  0  0  0  # atno 17321 bound_to 7965
  140.2386  143.3681  152.1505 LP  0  0  0  0  0  0  0  0  0  0  0  0  # atno 17342 bound_to 10162
  139.5203  144.7031  151.5436 LP  0  0  0  0  0  0  0  0  0  0  0  0  # atno 17343 bound_to 10162
  156.2956  130.3751  149.7800 LP  0  0  0  0  0  0  0  0  0  0  0  0  # atno 17370 bound_to 10713
  156.5446  130.8315  151.3280 LP  0  0  0  0  0  0  0  0  0  0  0  0  # atno 17371 bound_to 10713
  139.8737  134.9346  156.3612 LP  0  0  0  0  0  0  0  0  0  0  0  0  # atno 17394 bound_to 11000
  140.9436  133.7498  156.0179 LP  0  0  0  0  0  0  0  0  0  0  0  0  # atno 17395 bound_to 11000

$$$$
