AV-unprocessed.smi:3348|AV-procd|sdf|12917|dock9
  -GOLD-   2272019333D 1   1.00000     0.00000
 Structure written by MMmdl.
 47 48  0  0  0  0  0  0  0  0  2 V2000
  146.6591  134.6848  153.5273 C   0  0  0  0  0  0  0  0  0  0  0  0
  145.8409  135.8373  152.9288 C   0  0  2  0  0  0  0  0  0  0  0  0
  145.5221  135.5519  151.4434 C   0  0  0  0  0  0  0  0  0  0  0  0
  145.4801  134.1387  151.1138 N   0  0  0  0  0  0  0  0  0  0  0  0
  144.3782  133.3569  150.8356 C   0  0  0  0  0  0  0  0  0  0  0  0
  144.8313  132.0971  150.5675 C   0  0  0  0  0  0  0  0  0  0  0  0
  146.2438  132.2106  150.6972 C   0  0  0  0  0  0  0  0  0  0  0  0
  146.6293  133.4351  151.0190 N   0  0  0  0  0  0  0  0  0  0  0  0
  146.5946  137.1018  153.0983 N   0  3  0  0  0  0  0  0  0  0  0  0
  147.0485  137.3964  154.4745 C   0  0  0  0  0  0  0  0  0  0  0  0
  147.7223  138.7691  154.5473 C   0  0  0  0  0  0  0  0  0  0  0  0
  149.1036  138.5767  154.8090 O   0  0  0  0  0  0  0  0  0  0  0  0
  149.9480  139.6261  154.3474 C   0  0  1  0  0  0  0  0  0  0  0  0
  149.4786  140.9818  154.9180 C   0  0  0  0  0  0  0  0  0  0  0  0
  149.6124  141.0300  156.4489 C   0  0  0  0  0  0  0  0  0  0  0  0
  151.0498  140.7176  156.8914 C   0  0  0  0  0  0  0  0  0  0  0  0
  151.5293  139.3704  156.3273 C   0  0  0  0  0  0  0  0  0  0  0  0
  151.3957  139.3189  154.7917 C   0  0  1  0  0  0  0  0  0  0  0  0
  151.9053  137.9879  154.2167 C   0  0  0  0  0  0  0  0  0  0  0  0
  146.1137  133.7426  153.4650 H   0  0  0  0  0  0  0  0  0  0  0  0
  146.8812  134.8644  154.5799 H   0  0  0  0  0  0  0  0  0  0  0  0
  147.6070  134.5551  153.0038 H   0  0  0  0  0  0  0  0  0  0  0  0
  144.9126  135.8958  153.4993 H   0  0  0  0  0  0  0  0  0  0  0  0
  144.5695  136.0048  151.1651 H   0  0  0  0  0  0  0  0  0  0  0  0
  146.2782  136.0120  150.8055 H   0  0  0  0  0  0  0  0  0  0  0  0
  143.3746  133.7560  150.8535 H   0  0  0  0  0  0  0  0  0  0  0  0
  144.2434  131.2279  150.3122 H   0  0  0  0  0  0  0  0  0  0  0  0
  146.9951  131.4457  150.5660 H   0  0  0  0  0  0  0  0  0  0  0  0
  147.4286  137.0313  152.5324 H   0  0  0  0  0  0  0  0  0  0  0  0
  146.1990  137.3805  155.1550 H   0  0  0  0  0  0  0  0  0  0  0  0
  147.7431  136.6254  154.8104 H   0  0  0  0  0  0  0  0  0  0  0  0
  147.5803  139.3157  153.6136 H   0  0  0  0  0  0  0  0  0  0  0  0
  147.2617  139.3546  155.3430 H   0  0  0  0  0  0  0  0  0  0  0  0
  149.9261  139.6649  153.2567 H   0  0  0  0  0  0  0  0  0  0  0  0
  150.0804  141.7804  154.4825 H   0  0  0  0  0  0  0  0  0  0  0  0
  148.4498  141.1933  154.6282 H   0  0  0  0  0  0  0  0  0  0  0  0
  149.3165  142.0127  156.8172 H   0  0  0  0  0  0  0  0  0  0  0  0
  148.9261  140.3127  156.9007 H   0  0  0  0  0  0  0  0  0  0  0  0
  151.7161  141.5127  156.5543 H   0  0  0  0  0  0  0  0  0  0  0  0
  151.1084  140.7072  157.9801 H   0  0  0  0  0  0  0  0  0  0  0  0
  152.5676  139.2055  156.6171 H   0  0  0  0  0  0  0  0  0  0  0  0
  150.9532  138.5611  156.7779 H   0  0  0  0  0  0  0  0  0  0  0  0
  152.0343  140.1037  154.3831 H   0  0  0  0  0  0  0  0  0  0  0  0
  151.3345  137.1413  154.5994 H   0  0  0  0  0  0  0  0  0  0  0  0
  152.9519  137.8253  154.4760 H   0  0  0  0  0  0  0  0  0  0  0  0
  151.8306  137.9759  153.1290 H   0  0  0  0  0  0  0  0  0  0  0  0
  146.0393  137.8696  152.7491 H   0  0  0  0  0  0  0  0  0  0  0  0
  1  2  1  0  0  0  0
  1 20  1  0  0  0  0
  1 21  1  0  0  0  0
  1 22  1  0  0  0  0
  2  3  1  0  0  0  0
  2  9  1  0  0  0  0
  2 23  1  0  0  0  0
  3  4  1  0  0  0  0
  3 24  1  0  0  0  0
  3 25  1  0  0  0  0
  4  8  1  0  0  0  0
  4  5  1  0  0  0  0
  5  6  2  0  0  0  0
  5 26  1  0  0  0  0
  6  7  1  0  0  0  0
  6 27  1  0  0  0  0
  7  8  2  0  0  0  0
  7 28  1  0  0  0  0
  9 10  1  0  0  0  0
  9 29  1  0  0  0  0
  9 47  1  0  0  0  0
 10 11  1  0  0  0  0
 10 30  1  0  0  0  0
 10 31  1  0  0  0  0
 11 12  1  0  0  0  0
 11 32  1  0  0  0  0
 11 33  1  0  0  0  0
 12 13  1  0  0  0  0
 13 18  1  0  0  0  0
 13 14  1  0  0  0  0
 13 34  1  0  0  0  0
 14 15  1  0  0  0  0
 14 35  1  0  0  0  0
 14 36  1  0  0  0  0
 15 16  1  0  0  0  0
 15 37  1  0  0  0  0
 15 38  1  0  0  0  0
 16 17  1  0  0  0  0
 16 39  1  0  0  0  0
 16 40  1  0  0  0  0
 17 18  1  0  0  0  0
 17 41  1  0  0  0  0
 17 42  1  0  0  0  0
 18 19  1  0  0  0  0
 18 43  1  0  0  0  0
 19 44  1  0  0  0  0
 19 45  1  0  0  0  0
 19 46  1  0  0  0  0
M  CHG  1   9   1
M  END
> <s_m_source_file>
AV-unprocessed.smi

> <i_m_source_file_index>
3348

> <i_lp_mmshare_version>
43012

> <i_f3d_flags>
0

> <s_epik_input>
bjFbY0hdW2NIXVtjSF1uMVtDSDJdW0NAQEhdKFtDSDNdKVtOSF1bQ0gyXVtDSDJdT1tDQEBIXTJbQ0gyXVtDSDJdW0NIMl1bQ0gyXVtDQEhdMltDSDNd

> <s_epik_cmdline>
J2VwaWtfcHl0aG9uJywgJy1waCcsICc3LjAnLCAnLXRuJywgJzgnLCAnLW1hJywgJzIwMCcsICctbWV0YWxfYmluZGluZycsICctaW1hZScsICc8aW5maWxlLm1hZT4nLCAnLW9tYWUnLCAnPG91dGZpbGUubWFlPic=

> <r_lp_tautomer_probability>
1

> <r_epik_Ionization_Penalty>
0.00925088

> <r_epik_Ionization_Penalty_Charging>
0.00924645

> <r_epik_Ionization_Penalty_Neutral>
4.42413e-06

> <r_epik_State_Penalty>
0.0070118

> <r_epik_Charging_Adjusted_Penalty>
0.0162583

> <i_epik_Tot_Q>
1

> <i_epik_Tot_abs_Q>
1

> <r_epik_Metal_State_Penalty>
0.00701222

> <b_epik_Metal_Only>
0

> <s_lp_Force_Field>
OPLS_2005

> <r_lp_Energy>
17.627

> <b_lp_Chiralities_Consistent>
1

> <s_lp_Variant>
AV-unprocessed.smi:3348-3

> <Gold.Version>
5.8.1

> <Gold.Id.Protein>
6NUR|6NUR_protein|mol2

> <Gold.PLP.Fitness>
44.6814

> <Gold.PLP.PLP>
-34.7859

> <Gold.PLP.part.hbond>
-1.0000

> <Gold.PLP.part.metal>
0.0000

> <Gold.PLP.part.buried>
-2.5867

> <Gold.PLP.part.nonpolar>
-32.2520

> <Gold.PLP.part.repulsive>
0.3889

> <Gold.PLP.ligand.clash>
0.0000

> <Gold.PLP.ligand.torsion>
1.1319

> <Gold.PLP.Chemscore.Hbond>
2.0000

> <Gold.PLP.Chemscore.CHOScore>
2.0000

> <Gold.PLP.Chemscore.Metal>
0.0000

> <Gold.Chemscore.Hbonds>
donor molecule, donor type, donor heavy atom, donor atom, acceptor molecule, acceptor atom, score
      L1  H     9    29       P1  7948  2.00
      L1  C     5    26       P1 10186  0.38
      L1  C     7    28       P1 10747  1.00

> <Gold.PLP.Chemscore.Internal.Correction>
0.1593

> <Gold.Rescore>
     Score         DG    S(hbond)    S(metal)    S(lipo)     H(rot)  DE(clash)    DE(int)     intcor
     13.98     -15.23       1.00        0.00      94.52       1.82       0.16       1.09       ----

> <Gold.Chemscore.Fitness>
13.9823

> <Gold.Chemscore.DG>
-15.2287

> <Gold.Chemscore.ZeroCoef>
-5.4800

> <Gold.Chemscore.Hbond>
1.0000

> <Gold.Chemscore.Metal>
0.0000

> <Gold.Chemscore.Lipo>
94.5166

> <Gold.Chemscore.Internal_Hbond>
0.0000

> <Gold.Chemscore.DEClash>
0.1586

> <Gold.Chemscore.DEInternal>
1.0878

> <Gold.Chemscore.Rot>
1.8163

> <Gold.Chemscore.Internal.Correction>
   9.000000E+99

> <Gold.Chemscore.Hbonds>
donor molecule, donor type, donor heavy atom, donor atom, acceptor molecule, acceptor atom, score
      L1  H     9    29       P1  7948  0.99

> <Gold.Chemscore.Hbond.Weighted>
-3.3400

> <Gold.Chemscore.Metal.Weighted>
-0.0000

> <Gold.Chemscore.Lipo.Weighted>
-11.0584

> <Gold.Chemscore.Internal_Hbond.Weighted>
0.0000

> <Gold.Chemscore.DEClash.Weighted>
0.1586

> <Gold.Chemscore.DEInternal.Weighted>
1.0878

> <Gold.Chemscore.Rot.Weighted>
4.6497

> <Gold.Chemscore.Internal.Correction.Weighted>
   9.000000E+99

> <Gold.Protein.RotatedTorsions>
[ 6907 6896 6895 6894 ] final -132.06 input  -60.11 | X-H torsion
[ 7974 7965 7964 7962 ] final -158.77 input  175.53 | X-H torsion
[ 8008 7997 7996 7995 ] final  -27.03 input   59.86 | X-H torsion
[ 10167 10162 10161 10158 ] final  112.76 input  -65.29 | X-H torsion
[ 10718 10713 10712 10709 ] final   40.19 input   66.30 | X-H torsion
[ 10763 10752 10751 10750 ] final   47.28 input  -60.55 | X-H torsion
[ 11005 11000 10999 10996 ] final   63.57 input  -57.11 | X-H torsion

> <Gold.Protein.ActiveResidues>
 VAL166  LYS551  ARG553  GLY616  TRP617  ASP618  TYR619  PRO620  LYS621  CYS622 
 ASP623  PHE694  ASN695  SER759  ASP760  ASP761  ALA762  ILE779  LEU786  VAL792 
 PHE793  MET794  SER795  GLU796  ALA797  LYS798  CYS799  TRP800  GLU811  SER814 

> <Gold.Protein.RotatedAtoms>
  150.9580  133.6476  159.2759 H   0  0  0  0  0  0  0  0  0  0  0  0  # atno 6907 bound_to 6896
  151.3808  135.0938  159.9505 H   0  0  0  0  0  0  0  0  0  0  0  0  # atno 6908 bound_to 6896
  152.5137  133.9115  159.7545 H   0  0  0  0  0  0  0  0  0  0  0  0  # atno 6909 bound_to 6896
  144.7492  140.3780  143.6061 H   0  0  0  0  0  0  0  0  0  0  0  0  # atno 7974 bound_to 7965
  154.4397  140.1883  156.0867 H   0  0  0  0  0  0  0  0  0  0  0  0  # atno 8008 bound_to 7997
  156.0397  140.3321  155.7203 H   0  0  0  0  0  0  0  0  0  0  0  0  # atno 8009 bound_to 7997
  155.5718  140.0613  157.2795 H   0  0  0  0  0  0  0  0  0  0  0  0  # atno 8010 bound_to 7997
  139.6511  144.7128  151.2046 H   0  0  0  0  0  0  0  0  0  0  0  0  # atno 10167 bound_to 10162
  157.3793  130.7744  149.7180 H   0  0  0  0  0  0  0  0  0  0  0  0  # atno 10718 bound_to 10713
  152.9801  135.5981  154.3736 H   0  0  0  0  0  0  0  0  0  0  0  0  # atno 10763 bound_to 10752
  154.3407  135.2767  155.2426 H   0  0  0  0  0  0  0  0  0  0  0  0  # atno 10764 bound_to 10752
  154.4508  135.5990  153.6246 H   0  0  0  0  0  0  0  0  0  0  0  0  # atno 10765 bound_to 10752
  140.0016  134.6434  155.9922 H   0  0  0  0  0  0  0  0  0  0  0  0  # atno 11005 bound_to 11000
  145.7007  139.1660  143.2594 LP  0  0  0  0  0  0  0  0  0  0  0  0  # atno 17320 bound_to 7965
  146.1417  140.7048  142.9364 LP  0  0  0  0  0  0  0  0  0  0  0  0  # atno 17321 bound_to 7965
  140.7538  143.6148  150.8570 LP  0  0  0  0  0  0  0  0  0  0  0  0  # atno 17342 bound_to 10162
  139.9796  143.5966  152.2947 LP  0  0  0  0  0  0  0  0  0  0  0  0  # atno 17343 bound_to 10162
  155.9772  130.4066  150.3727 LP  0  0  0  0  0  0  0  0  0  0  0  0  # atno 17370 bound_to 10713
  157.1829  131.0396  151.2739 LP  0  0  0  0  0  0  0  0  0  0  0  0  # atno 17371 bound_to 10713
  141.1646  133.6537  156.4435 LP  0  0  0  0  0  0  0  0  0  0  0  0  # atno 17394 bound_to 11000
  140.4718  134.6746  157.5132 LP  0  0  0  0  0  0  0  0  0  0  0  0  # atno 17395 bound_to 11000

$$$$
