AV-unprocessed.smi:3078|AV-procd|sdf|11735|dock7
  -GOLD-   2272017133D 1   1.00000     0.00000
 Structure written by MMmdl.
 24 24  0  0  0  0  0  0  0  0  3 V2000
  153.0243  138.6966  154.6900 C   0  0  0  0  0  0  0  0  0  0  0  0
  151.5972  138.9380  154.6740 N   0  0  0  0  0  0  0  0  0  0  0  0
  150.5735  138.0383  154.4713 C   0  0  0  0  0  0  0  0  0  0  0  0
  149.3952  138.7309  154.5432 C   0  0  0  0  0  0  0  0  0  0  0  0
  147.9797  138.2322  154.3946 C   0  0  2  0  0  0  0  0  0  0  0  0
  147.9978  136.8099  154.0079 N   0  3  0  0  0  0  0  0  0  0  0  0
  147.1609  139.0636  153.3872 C   0  0  0  0  0  0  0  0  0  0  0  0
  147.5313  138.7610  151.9918 N   0  3  0  0  0  0  0  0  0  0  0  0
  149.8174  140.0669  154.8018 C   0  0  0  0  0  0  0  0  0  0  0  0
  151.1318  140.1872  154.8751 N   0  0  0  0  0  0  0  0  0  0  0  0
  153.2236  137.6246  154.6697 H   0  0  0  0  0  0  0  0  0  0  0  0
  153.4622  139.1200  155.5947 H   0  0  0  0  0  0  0  0  0  0  0  0
  153.4857  139.1604  153.8177 H   0  0  0  0  0  0  0  0  0  0  0  0
  150.7682  136.9905  154.2948 H   0  0  0  0  0  0  0  0  0  0  0  0
  147.4706  138.2742  155.3587 H   0  0  0  0  0  0  0  0  0  0  0  0
  148.6642  136.6734  153.2606 H   0  0  0  0  0  0  0  0  0  0  0  0
  147.0808  136.5305  153.6893 H   0  0  0  0  0  0  0  0  0  0  0  0
  146.0921  138.8881  153.5155 H   0  0  0  0  0  0  0  0  0  0  0  0
  147.3288  140.1281  153.5552 H   0  0  0  0  0  0  0  0  0  0  0  0
  147.8253  137.7969  151.9209 H   0  0  0  0  0  0  0  0  0  0  0  0
  148.2901  139.3632  151.7041 H   0  0  0  0  0  0  0  0  0  0  0  0
  149.2093  140.9498  154.9348 H   0  0  0  0  0  0  0  0  0  0  0  0
  146.7368  138.9125  151.3864 H   0  0  0  0  0  0  0  0  0  0  0  0
  148.2656  136.2435  154.8003 H   0  0  0  0  0  0  0  0  0  0  0  0
  1  2  1  0  0  0  0
  1 11  1  0  0  0  0
  1 12  1  0  0  0  0
  1 13  1  0  0  0  0
  2 10  1  0  0  0  0
  2  3  1  0  0  0  0
  3  4  2  0  0  0  0
  3 14  1  0  0  0  0
  4  5  1  0  0  0  0
  4  9  1  0  0  0  0
  5  6  1  0  0  0  0
  5  7  1  0  0  0  0
  5 15  1  0  0  0  0
  6 16  1  0  0  0  0
  6 17  1  0  0  0  0
  6 24  1  0  0  0  0
  7  8  1  0  0  0  0
  7 18  1  0  0  0  0
  7 19  1  0  0  0  0
  8 20  1  0  0  0  0
  8 21  1  0  0  0  0
  8 23  1  0  0  0  0
  9 10  2  0  0  0  0
  9 22  1  0  0  0  0
M  CHG  1   6   1
M  CHG  1   8   1
M  END
> <s_m_source_file>
AV-unprocessed.smi

> <i_m_source_file_index>
3078

> <i_lp_mmshare_version>
43012

> <i_f3d_flags>
0

> <s_epik_input>
W0NIM11uMVtjSF1jKFtjSF1uMSlbQ0BIXShbTkgyXSlbQ0gyXVtOSDJd

> <s_epik_cmdline>
J2VwaWtfcHl0aG9uJywgJy1waCcsICc3LjAnLCAnLXRuJywgJzgnLCAnLW1hJywgJzIwMCcsICctbWV0YWxfYmluZGluZycsICctaW1hZScsICc8aW5maWxlLm1hZT4nLCAnLW9tYWUnLCAnPG91dGZpbGUubWFlPic=

> <r_lp_tautomer_probability>
1

> <r_epik_Ionization_Penalty>
2.39325

> <r_epik_Ionization_Penalty_Charging>
2.39325

> <r_epik_Ionization_Penalty_Neutral>
1.68997e-07

> <r_epik_State_Penalty>
1.77229

> <r_epik_Charging_Adjusted_Penalty>
4.16555

> <i_epik_Tot_Q>
2

> <i_epik_Tot_abs_Q>
2

> <r_epik_Metal_State_Penalty>
1.77233

> <b_epik_Metal_Only>
0

> <s_lp_Force_Field>
OPLS_2005

> <r_lp_Energy>
8.51806

> <b_lp_Chiralities_Consistent>
1

> <s_lp_Variant>
AV-unprocessed.smi:3078-5

> <Gold.Version>
5.8.1

> <Gold.Id.Protein>
6NUR|6NUR_protein|mol2

> <Gold.PLP.Fitness>
40.0159

> <Gold.PLP.PLP>
-22.3989

> <Gold.PLP.part.hbond>
-3.8713

> <Gold.PLP.part.metal>
0.0000

> <Gold.PLP.part.buried>
-2.7411

> <Gold.PLP.part.nonpolar>
-15.5506

> <Gold.PLP.part.repulsive>
0.1622

> <Gold.PLP.ligand.clash>
0.0000

> <Gold.PLP.ligand.torsion>
0.1999

> <Gold.PLP.Chemscore.Hbond>
6.0000

> <Gold.PLP.Chemscore.CHOScore>
0.0000

> <Gold.PLP.Chemscore.Metal>
0.0000

> <Gold.Chemscore.Hbonds>
donor molecule, donor type, donor heavy atom, donor atom, acceptor molecule, acceptor atom, score
      L1  H     6    16       P1  7948  1.79
      L1  H     8    20       P1  7948  2.00
      L1  H     8    21       P1  7957  1.00
      P1  H  7989  7998       L1    10  0.95

> <Gold.PLP.Chemscore.Internal.Correction>
0.0169

> <Gold.Rescore>
     Score         DG    S(hbond)    S(metal)    S(lipo)     H(rot)  DE(clash)    DE(int)     intcor
     18.04     -18.52       3.73        0.00      36.37       1.43       0.00       0.48       ----

> <Gold.Chemscore.Fitness>
18.0404

> <Gold.Chemscore.DG>
-18.5210

> <Gold.Chemscore.ZeroCoef>
-5.4800

> <Gold.Chemscore.Hbond>
3.7268

> <Gold.Chemscore.Metal>
0.0000

> <Gold.Chemscore.Lipo>
36.3688

> <Gold.Chemscore.Internal_Hbond>
0.0000

> <Gold.Chemscore.DEClash>
0.0000

> <Gold.Chemscore.DEInternal>
0.4806

> <Gold.Chemscore.Rot>
1.4304

> <Gold.Chemscore.Internal.Correction>
   9.000000E+99

> <Gold.Chemscore.Hbonds>
donor molecule, donor type, donor heavy atom, donor atom, acceptor molecule, acceptor atom, score
      L1  H     6    16       P1  7948  0.82
      L1  H     8    20       P1  7948  0.99
      L1  H     8    21       P1  7957  0.94
      P1  H  7989  7998       L1    10  0.14

> <Gold.Chemscore.Hbond.Weighted>
-12.4477

> <Gold.Chemscore.Metal.Weighted>
-0.0000

> <Gold.Chemscore.Lipo.Weighted>
-4.2552

> <Gold.Chemscore.Internal_Hbond.Weighted>
0.0000

> <Gold.Chemscore.DEClash.Weighted>
0.0000

> <Gold.Chemscore.DEInternal.Weighted>
0.4806

> <Gold.Chemscore.Rot.Weighted>
3.6618

> <Gold.Chemscore.Internal.Correction.Weighted>
   9.000000E+99

> <Gold.Protein.RotatedTorsions>
[ 6907 6896 6895 6894 ] final -109.62 input  -60.11 | X-H torsion
[ 7974 7965 7964 7962 ] final -115.92 input  175.53 | X-H torsion
[ 8008 7997 7996 7995 ] final -171.52 input   59.86 | X-H torsion
[ 10167 10162 10161 10158 ] final -174.18 input  -65.29 | X-H torsion
[ 10718 10713 10712 10709 ] final   20.68 input   66.30 | X-H torsion
[ 10763 10752 10751 10750 ] final  -81.31 input  -60.55 | X-H torsion
[ 11005 11000 10999 10996 ] final  -24.14 input  -57.11 | X-H torsion

> <Gold.Protein.ActiveResidues>
 VAL166  LYS551  ARG553  GLY616  TRP617  ASP618  TYR619  PRO620  LYS621  CYS622 
 ASP623  PHE694  ASN695  SER759  ASP760  ASP761  ALA762  ILE779  LEU786  VAL792 
 PHE793  MET794  SER795  GLU796  ALA797  LYS798  CYS799  TRP800  GLU811  SER814 

> <Gold.Protein.RotatedAtoms>
  150.7573  133.9502  159.3482 H   0  0  0  0  0  0  0  0  0  0  0  0  # atno 6907 bound_to 6896
  151.7418  135.0850  160.0326 H   0  0  0  0  0  0  0  0  0  0  0  0  # atno 6908 bound_to 6896
  152.3523  133.6157  159.5990 H   0  0  0  0  0  0  0  0  0  0  0  0  # atno 6909 bound_to 6896
  145.1028  140.8562  143.3916 H   0  0  0  0  0  0  0  0  0  0  0  0  # atno 7974 bound_to 7965
  155.9326  140.1094  157.1120 H   0  0  0  0  0  0  0  0  0  0  0  0  # atno 8008 bound_to 7997
  154.4073  140.1234  156.4888 H   0  0  0  0  0  0  0  0  0  0  0  0  # atno 8009 bound_to 7997
  155.7061  140.3471  155.4956 H   0  0  0  0  0  0  0  0  0  0  0  0  # atno 8010 bound_to 7997
  139.5647  144.1783  152.1294 H   0  0  0  0  0  0  0  0  0  0  0  0  # atno 10167 bound_to 10162
  157.1279  130.6578  149.5943 H   0  0  0  0  0  0  0  0  0  0  0  0  # atno 10718 bound_to 10713
  154.5620  135.5631  153.7016 H   0  0  0  0  0  0  0  0  0  0  0  0  # atno 10763 bound_to 10752
  153.0021  135.6276  154.2232 H   0  0  0  0  0  0  0  0  0  0  0  0  # atno 10764 bound_to 10752
  154.2170  135.2871  155.2918 H   0  0  0  0  0  0  0  0  0  0  0  0  # atno 10765 bound_to 10752
  140.8818  133.7649  156.0311 H   0  0  0  0  0  0  0  0  0  0  0  0  # atno 11005 bound_to 11000
  145.0936  139.2872  143.5722 LP  0  0  0  0  0  0  0  0  0  0  0  0  # atno 17320 bound_to 7965
  146.3529  140.0481  142.8638 LP  0  0  0  0  0  0  0  0  0  0  0  0  # atno 17321 bound_to 7965
  140.1304  144.5293  150.6806 LP  0  0  0  0  0  0  0  0  0  0  0  0  # atno 17342 bound_to 10162
  140.6930  143.2387  151.5078 LP  0  0  0  0  0  0  0  0  0  0  0  0  # atno 17343 bound_to 10162
  155.9814  130.4821  150.6827 LP  0  0  0  0  0  0  0  0  0  0  0  0  # atno 17370 bound_to 10713
  157.4419  131.0862  151.0935 LP  0  0  0  0  0  0  0  0  0  0  0  0  # atno 17371 bound_to 10713
  140.8453  134.3019  157.5297 LP  0  0  0  0  0  0  0  0  0  0  0  0  # atno 17394 bound_to 11000
  139.8720  134.9438  156.3863 LP  0  0  0  0  0  0  0  0  0  0  0  0  # atno 17395 bound_to 11000

$$$$
