AV-unprocessed.smi:1725|AV-procd|sdf|6953|dock4
  -GOLD-   22720 8163D 1   1.00000     0.00000
 Structure written by MMmdl.
 36 37  0  0  0  0  0  0  0  0  1 V2000
  142.2697  138.8220  156.0347 C   0  0  0  0  0  0  0  0  0  0  0  0
  141.8294  138.5100  154.5969 C   0  0  2  0  0  0  0  0  0  0  0  0
  140.4184  138.3122  154.6145 O   0  0  0  0  0  0  0  0  0  0  0  0
  139.8687  137.7530  153.4283 C   0  0  0  0  0  0  0  0  0  0  0  0
  138.4740  137.2494  153.7298 C   0  0  0  0  0  0  0  0  0  0  0  0
  137.4355  138.1792  154.3149 C   0  0  0  0  0  0  0  0  0  0  0  0
  138.0093  137.0681  155.1571 C   0  0  0  0  0  0  0  0  0  0  0  0
  142.5355  137.2563  154.0556 C   0  0  0  0  0  0  0  0  0  0  0  0
  142.2993  136.1626  154.5682 O   0  0  0  0  0  0  0  0  0  0  0  0
  143.3604  137.4631  153.0096 N   0  0  0  0  0  0  0  0  0  0  0  0
  144.1560  136.5481  152.2988 C   0  0  0  0  0  0  0  0  0  0  0  0
  143.7638  135.3046  151.9161 C   0  0  0  0  0  0  0  0  0  0  0  0
  144.6461  134.4054  151.1935 C   0  0  0  0  0  0  0  0  0  0  0  0
  144.1705  133.0271  150.7630 C   0  0  0  0  0  0  0  0  0  0  0  0
  142.9536  132.7519  151.2345 F   0  0  0  0  0  0  0  0  0  0  0  0
  144.1321  132.9517  149.4333 F   0  0  0  0  0  0  0  0  0  0  0  0
  145.0121  132.0925  151.2033 F   0  0  0  0  0  0  0  0  0  0  0  0
  145.8845  134.8612  150.9280 C   0  0  0  0  0  0  0  0  0  0  0  0
  146.2995  136.1335  151.3270 N   0  0  0  0  0  0  0  0  0  0  0  0
  145.5201  137.0130  151.9956 C   0  0  0  0  0  0  0  0  0  0  0  0
  145.9608  138.1176  152.3114 O   0  0  0  0  0  0  0  0  0  0  0  0
  147.2452  136.4015  151.0945 H   0  0  0  0  0  0  0  0  0  0  0  0
  143.3481  138.9710  156.0959 H   0  0  0  0  0  0  0  0  0  0  0  0
  142.0021  138.0177  156.7210 H   0  0  0  0  0  0  0  0  0  0  0  0
  141.7916  139.7331  156.3950 H   0  0  0  0  0  0  0  0  0  0  0  0
  142.0674  139.3732  153.9719 H   0  0  0  0  0  0  0  0  0  0  0  0
  139.8275  138.5034  152.6373 H   0  0  0  0  0  0  0  0  0  0  0  0
  140.4680  136.9172  153.0665 H   0  0  0  0  0  0  0  0  0  0  0  0
  138.1054  136.5213  153.0096 H   0  0  0  0  0  0  0  0  0  0  0  0
  137.7409  139.1965  154.5517 H   0  0  0  0  0  0  0  0  0  0  0  0
  136.4104  138.0693  153.9675 H   0  0  0  0  0  0  0  0  0  0  0  0
  137.3686  136.2147  155.3702 H   0  0  0  0  0  0  0  0  0  0  0  0
  138.6968  137.3453  155.9538 H   0  0  0  0  0  0  0  0  0  0  0  0
  143.4014  138.4098  152.6597 H   0  0  0  0  0  0  0  0  0  0  0  0
  142.7820  134.9277  152.1500 H   0  0  0  0  0  0  0  0  0  0  0  0
  146.6421  134.3018  150.3993 H   0  0  0  0  0  0  0  0  0  0  0  0
  1  2  1  0  0  0  0
  1 23  1  0  0  0  0
  1 24  1  0  0  0  0
  1 25  1  0  0  0  0
  2  3  1  0  0  0  0
  2  8  1  0  0  0  0
  2 26  1  0  0  0  0
  3  4  1  0  0  0  0
  4  5  1  0  0  0  0
  4 27  1  0  0  0  0
  4 28  1  0  0  0  0
  5  7  1  0  0  0  0
  5  6  1  0  0  0  0
  5 29  1  0  0  0  0
  6  7  1  0  0  0  0
  6 30  1  0  0  0  0
  6 31  1  0  0  0  0
  7 32  1  0  0  0  0
  7 33  1  0  0  0  0
  8  9  2  0  0  0  0
  8 10  1  0  0  0  0
 10 11  1  0  0  0  0
 10 34  1  0  0  0  0
 11 20  1  0  0  0  0
 11 12  2  0  0  0  0
 12 13  1  0  0  0  0
 12 35  1  0  0  0  0
 13 14  1  0  0  0  0
 13 18  2  0  0  0  0
 14 15  1  0  0  0  0
 14 16  1  0  0  0  0
 14 17  1  0  0  0  0
 18 19  1  0  0  0  0
 18 36  1  0  0  0  0
 19 22  1  0  0  0  0
 19 20  1  0  0  0  0
 20 21  2  0  0  0  0
M  END
> <s_m_source_file>
AV-unprocessed.smi

> <i_m_source_file_index>
1725

> <i_lp_mmshare_version>
43012

> <i_f3d_flags>
0

> <s_epik_input>
W0NIMl0xW0NIMl1bQ0hdMVtDSDJdT1tDQEBIXShbQ0gzXSlDKD1PKVtOSF1jMltjSF1jKEMoRikoRilGKVtjSF1bbkhdYzI9Tw==

> <s_epik_cmdline>
J2VwaWtfcHl0aG9uJywgJy1waCcsICc3LjAnLCAnLXRuJywgJzgnLCAnLW1hJywgJzIwMCcsICctbWV0YWxfYmluZGluZycsICctaW1hZScsICc8aW5maWxlLm1hZT4nLCAnLW9tYWUnLCAnPG91dGZpbGUubWFlPic=

> <r_lp_tautomer_probability>
0.999

> <r_epik_Ionization_Penalty>
0.00763408

> <r_epik_Ionization_Penalty_Charging>
0.00763398

> <r_epik_Ionization_Penalty_Neutral>
9.25705e-08

> <r_epik_State_Penalty>
0.00571302

> <r_epik_Charging_Adjusted_Penalty>
0.013347

> <i_epik_Tot_Q>
0

> <i_epik_Tot_abs_Q>
0

> <r_epik_Metal_State_Penalty>
0.392814

> <b_epik_Metal_Only>
0

> <s_lp_Force_Field>
OPLS_2005

> <r_lp_Energy>
28.2776

> <b_lp_Chiralities_Consistent>
1

> <s_lp_Variant>
AV-unprocessed.smi:1725-1

> <Gold.Version>
5.8.1

> <Gold.Id.Protein>
6NUR|6NUR_protein|mol2

> <Gold.PLP.Fitness>
40.5189

> <Gold.PLP.PLP>
-36.2457

> <Gold.PLP.part.hbond>
-1.9986

> <Gold.PLP.part.metal>
0.0000

> <Gold.PLP.part.buried>
-4.1353

> <Gold.PLP.part.nonpolar>
-30.1725

> <Gold.PLP.part.repulsive>
0.5112

> <Gold.PLP.ligand.clash>
0.0000

> <Gold.PLP.ligand.torsion>
0.9708

> <Gold.PLP.Chemscore.Hbond>
1.8070

> <Gold.PLP.Chemscore.CHOScore>
0.0516

> <Gold.PLP.Chemscore.Metal>
0.0000

> <Gold.Chemscore.Hbonds>
donor molecule, donor type, donor heavy atom, donor atom, acceptor molecule, acceptor atom, score
      L1  H    10    34       P1 10175  0.96
      L1  H    19    22       P1  7948  0.77
      L1  C    18    36       P1  7921  0.07

> <Gold.PLP.Chemscore.Internal.Correction>
0.6391

> <Gold.Rescore>
     Score         DG    S(hbond)    S(metal)    S(lipo)     H(rot)  DE(clash)    DE(int)     intcor
     13.47     -14.24       1.94        0.00      58.72       1.79       0.00       0.77       ----

> <Gold.Chemscore.Fitness>
13.4687

> <Gold.Chemscore.DG>
-14.2422

> <Gold.Chemscore.ZeroCoef>
-5.4800

> <Gold.Chemscore.Hbond>
1.9413

> <Gold.Chemscore.Metal>
0.0000

> <Gold.Chemscore.Lipo>
58.7224

> <Gold.Chemscore.Internal_Hbond>
0.0000

> <Gold.Chemscore.DEClash>
0.0004

> <Gold.Chemscore.DEInternal>
0.7730

> <Gold.Chemscore.Rot>
1.7938

> <Gold.Chemscore.Internal.Correction>
   9.000000E+99

> <Gold.Chemscore.Hbonds>
donor molecule, donor type, donor heavy atom, donor atom, acceptor molecule, acceptor atom, score
      L1  H    10    34       P1 10175  0.91
      L1  H    19    22       P1  7948  0.77

> <Gold.Chemscore.Hbond.Weighted>
-6.4839

> <Gold.Chemscore.Metal.Weighted>
-0.0000

> <Gold.Chemscore.Lipo.Weighted>
-6.8705

> <Gold.Chemscore.Internal_Hbond.Weighted>
0.0000

> <Gold.Chemscore.DEClash.Weighted>
0.0004

> <Gold.Chemscore.DEInternal.Weighted>
0.7730

> <Gold.Chemscore.Rot.Weighted>
4.5922

> <Gold.Chemscore.Internal.Correction.Weighted>
   9.000000E+99

> <Gold.Protein.RotatedTorsions>
[ 6907 6896 6895 6894 ] final  176.55 input  -60.11 | X-H torsion
[ 7974 7965 7964 7962 ] final  -46.71 input  175.53 | X-H torsion
[ 8008 7997 7996 7995 ] final    9.07 input   59.86 | X-H torsion
[ 10167 10162 10161 10158 ] final  -11.95 input  -65.29 | X-H torsion
[ 10718 10713 10712 10709 ] final -179.34 input   66.30 | X-H torsion
[ 10763 10752 10751 10750 ] final   14.56 input  -60.55 | X-H torsion
[ 11005 11000 10999 10996 ] final  -40.73 input  -57.11 | X-H torsion

> <Gold.Protein.ActiveResidues>
 VAL166  LYS551  ARG553  GLY616  TRP617  ASP618  TYR619  PRO620  LYS621  CYS622 
 ASP623  PHE694  ASN695  SER759  ASP760  ASP761  ALA762  ILE779  LEU786  VAL792 
 PHE793  MET794  SER795  GLU796  ALA797  LYS798  CYS799  TRP800  GLU811  SER814 

> <Gold.Protein.RotatedAtoms>
  151.7183  133.3314  159.3308 H   0  0  0  0  0  0  0  0  0  0  0  0  # atno 6907 bound_to 6896
  150.7664  134.6471  159.6277 H   0  0  0  0  0  0  0  0  0  0  0  0  # atno 6908 bound_to 6896
  152.3668  134.6795  160.0241 H   0  0  0  0  0  0  0  0  0  0  0  0  # atno 6909 bound_to 6896
  145.9691  140.7402  142.9419 H   0  0  0  0  0  0  0  0  0  0  0  0  # atno 7974 bound_to 7965
  154.7752  140.2809  155.6107 H   0  0  0  0  0  0  0  0  0  0  0  0  # atno 8008 bound_to 7997
  156.2940  140.2634  156.2491 H   0  0  0  0  0  0  0  0  0  0  0  0  # atno 8009 bound_to 7997
  154.9852  140.0374  157.2285 H   0  0  0  0  0  0  0  0  0  0  0  0  # atno 8010 bound_to 7997
  140.7150  143.5585  150.9222 H   0  0  0  0  0  0  0  0  0  0  0  0  # atno 10167 bound_to 10162
  156.8576  130.9740  151.3086 H   0  0  0  0  0  0  0  0  0  0  0  0  # atno 10718 bound_to 10713
  153.1610  135.6796  153.8743 H   0  0  0  0  0  0  0  0  0  0  0  0  # atno 10763 bound_to 10752
  153.8138  135.3139  155.3404 H   0  0  0  0  0  0  0  0  0  0  0  0  # atno 10764 bound_to 10752
  154.7932  135.4822  154.0190 H   0  0  0  0  0  0  0  0  0  0  0  0  # atno 10765 bound_to 10752
  141.0196  133.6869  156.2361 H   0  0  0  0  0  0  0  0  0  0  0  0  # atno 11005 bound_to 11000
  144.6832  140.2718  143.7305 LP  0  0  0  0  0  0  0  0  0  0  0  0  # atno 17320 bound_to 7965
  145.7932  139.1935  143.2091 LP  0  0  0  0  0  0  0  0  0  0  0  0  # atno 17321 bound_to 7965
  139.9310  143.6493  152.3076 LP  0  0  0  0  0  0  0  0  0  0  0  0  # atno 17342 bound_to 10162
  139.6944  144.7643  151.1382 LP  0  0  0  0  0  0  0  0  0  0  0  0  # atno 17343 bound_to 10162
  157.6268  130.8698  149.9203 LP  0  0  0  0  0  0  0  0  0  0  0  0  # atno 17370 bound_to 10713
  156.0794  130.3675  150.0611 LP  0  0  0  0  0  0  0  0  0  0  0  0  # atno 17371 bound_to 10713
  140.6596  134.4981  157.5582 LP  0  0  0  0  0  0  0  0  0  0  0  0  # atno 17394 bound_to 11000
  139.9138  134.8289  156.1437 LP  0  0  0  0  0  0  0  0  0  0  0  0  # atno 17395 bound_to 11000

$$$$
