AV-unprocessed.smi:102|AV-procd|sdf|955|dock1
  -GOLD-   2262017493D 1   1.00000     0.00000
 Structure written by MMmdl.
 44 45  0  0  0  0  0  0  0  0  1 V2000
  147.6088  135.0137  160.7405 C   0  0  0  0  0  0  0  0  0  0  0  0
  147.9528  136.2003  159.8502 C   0  0  0  0  0  0  0  0  0  0  0  0
  147.4570  137.3112  160.0371 O   0  0  0  0  0  0  0  0  0  0  0  0
  148.8272  135.8781  158.8878 O   0  0  0  0  0  0  0  0  0  0  0  0
  149.2356  136.8561  157.9433 C   0  0  0  0  0  0  0  0  0  0  0  0
  150.7631  136.8297  157.7717 C   0  0  2  0  0  0  0  0  0  0  0  0
  151.4216  137.2069  158.9682 O   0  0  0  0  0  0  0  0  0  0  0  0
  152.7303  137.5620  158.6566 C   0  0  2  0  0  0  0  0  0  0  0  0
  153.1773  138.6163  159.6422 N   0  0  0  0  0  0  0  0  0  0  0  0
  153.0602  139.9630  159.3274 C   0  0  0  0  0  0  0  0  0  0  0  0
  153.4803  140.9522  160.1511 C   0  0  0  0  0  0  0  0  0  0  0  0
  153.3281  142.2346  159.7793 F   0  0  0  0  0  0  0  0  0  0  0  0
  154.1023  140.6389  161.4344 C   0  0  0  0  0  0  0  0  0  0  0  0
  154.5094  141.4639  162.2497 O   0  0  0  0  0  0  0  0  0  0  0  0
  154.2231  139.2716  161.6982 N   0  0  0  0  0  0  0  0  0  0  0  0
  153.8009  138.2421  160.8556 C   0  0  0  0  0  0  0  0  0  0  0  0
  153.9847  137.0707  161.1824 O   0  0  0  0  0  0  0  0  0  0  0  0
  152.7611  138.0599  157.1978 C   0  0  1  0  0  0  0  0  0  0  0  0
  153.7819  137.3882  156.4708 O   0  0  0  0  0  0  0  0  0  0  0  0
  155.0567  137.4411  156.8955 C   0  0  0  0  0  0  0  0  0  0  0  0
  156.0550  137.3606  155.7486 C   0  0  0  0  0  0  0  0  0  0  0  0
  155.4270  137.5506  158.0644 O   0  0  0  0  0  0  0  0  0  0  0  0
  151.3763  137.7015  156.6622 C   0  0  2  0  0  0  0  0  0  0  0  0
  150.6743  138.9131  156.4045 O   0  0  0  0  0  0  0  0  0  0  0  0
  151.1118  139.7829  155.4772 C   0  0  0  0  0  0  0  0  0  0  0  0
  150.2176  141.0107  155.3702 C   0  0  0  0  0  0  0  0  0  0  0  0
  152.1056  139.6478  154.7638 O   0  0  0  0  0  0  0  0  0  0  0  0
  154.6615  139.0064  162.5681 H   0  0  0  0  0  0  0  0  0  0  0  0
  148.4820  134.3764  160.8829 H   0  0  0  0  0  0  0  0  0  0  0  0
  146.8158  134.4195  160.2867 H   0  0  0  0  0  0  0  0  0  0  0  0
  147.2695  135.3567  161.7182 H   0  0  0  0  0  0  0  0  0  0  0  0
  148.7499  136.6488  156.9892 H   0  0  0  0  0  0  0  0  0  0  0  0
  148.9190  137.8509  158.2604 H   0  0  0  0  0  0  0  0  0  0  0  0
  151.0601  135.7993  157.5710 H   0  0  0  0  0  0  0  0  0  0  0  0
  153.3710  136.6928  158.8152 H   0  0  0  0  0  0  0  0  0  0  0  0
  152.6117  140.2496  158.3870 H   0  0  0  0  0  0  0  0  0  0  0  0
  152.9306  139.1373  157.1778 H   0  0  0  0  0  0  0  0  0  0  0  0
  155.8235  136.5148  155.1010 H   0  0  0  0  0  0  0  0  0  0  0  0
  157.0682  137.2351  156.1309 H   0  0  0  0  0  0  0  0  0  0  0  0
  156.0210  138.2735  155.1537 H   0  0  0  0  0  0  0  0  0  0  0  0
  151.4670  137.1162  155.7458 H   0  0  0  0  0  0  0  0  0  0  0  0
  149.1719  140.7358  155.5096 H   0  0  0  0  0  0  0  0  0  0  0  0
  150.3231  141.4755  154.3897 H   0  0  0  0  0  0  0  0  0  0  0  0
  150.4890  141.7413  156.1320 H   0  0  0  0  0  0  0  0  0  0  0  0
  1  2  1  0  0  0  0
  1 29  1  0  0  0  0
  1 30  1  0  0  0  0
  1 31  1  0  0  0  0
  2  3  2  0  0  0  0
  2  4  1  0  0  0  0
  4  5  1  0  0  0  0
  5  6  1  0  0  0  0
  5 32  1  0  0  0  0
  5 33  1  0  0  0  0
  6 23  1  0  0  0  0
  6  7  1  0  0  0  0
  6 34  1  0  0  0  0
  7  8  1  0  0  0  0
  8  9  1  0  0  0  0
  8 18  1  0  0  0  0
  8 35  1  0  0  0  0
  9 16  1  0  0  0  0
  9 10  1  0  0  0  0
 10 11  2  0  0  0  0
 10 36  1  0  0  0  0
 11 12  1  0  0  0  0
 11 13  1  0  0  0  0
 13 14  2  0  0  0  0
 13 15  1  0  0  0  0
 15 28  1  0  0  0  0
 15 16  1  0  0  0  0
 16 17  2  0  0  0  0
 18 19  1  0  0  0  0
 18 23  1  0  0  0  0
 18 37  1  0  0  0  0
 19 20  1  0  0  0  0
 20 21  1  0  0  0  0
 20 22  2  0  0  0  0
 21 38  1  0  0  0  0
 21 39  1  0  0  0  0
 21 40  1  0  0  0  0
 23 24  1  0  0  0  0
 23 41  1  0  0  0  0
 24 25  1  0  0  0  0
 25 26  1  0  0  0  0
 25 27  2  0  0  0  0
 26 42  1  0  0  0  0
 26 43  1  0  0  0  0
 26 44  1  0  0  0  0
M  END
> <s_m_source_file>
AV-unprocessed.smi

> <i_m_source_file_index>
102

> <i_lp_mmshare_version>
43012

> <i_f3d_flags>
0

> <s_epik_input>
W0NIM11DKD1PKU9bQ0gyXVtDQEBIXTFPW0NASF0oW0NAQEhdKE9DKD1PKVtDSDNdKVtDQEhdMU9DKD1PKVtDSDNdKW4yW2NIXWMoRiljKD1PKVtuSF1jMj1P

> <s_epik_cmdline>
J2VwaWtfcHl0aG9uJywgJy1waCcsICc3LjAnLCAnLXRuJywgJzgnLCAnLW1hJywgJzIwMCcsICctbWV0YWxfYmluZGluZycsICctaW1hZScsICc8aW5maWxlLm1hZT4nLCAnLW9tYWUnLCAnPG91dGZpbGUubWFlPic=

> <r_lp_tautomer_probability>
0.999537

> <r_epik_Ionization_Penalty>
0.058267

> <r_epik_Ionization_Penalty_Charging>
0.058267

> <r_epik_Ionization_Penalty_Neutral>
6.57791e-16

> <r_epik_State_Penalty>
0.0503774

> <r_epik_Charging_Adjusted_Penalty>
0.108644

> <i_epik_Tot_Q>
0

> <i_epik_Tot_abs_Q>
0

> <r_epik_Metal_State_Penalty>
2.6644

> <b_epik_Metal_Only>
0

> <s_epik_Chemistry_Notes>
This compound has an ester and may undergo hydrolysis at high or low pH. This compound contains an acetal/aminal-like group ( X-CH(R)-Y where X, Y are N, S, or O) that may be acid/base labile, releasing an aldehyde.

> <s_lp_Force_Field>
OPLS_2005

> <r_lp_Energy>
7.073

> <b_lp_Chiralities_Consistent>
1

> <s_lp_Variant>
AV-unprocessed.smi:102-11

> <Gold.Version>
5.8.1

> <Gold.Id.Protein>
6NUR|6NUR_protein|mol2

> <Gold.PLP.Fitness>
43.9198

> <Gold.PLP.PLP>
-37.0741

> <Gold.PLP.part.hbond>
-6.7121

> <Gold.PLP.part.metal>
0.0000

> <Gold.PLP.part.buried>
-5.0771

> <Gold.PLP.part.nonpolar>
-24.9429

> <Gold.PLP.part.repulsive>
0.0138

> <Gold.PLP.ligand.clash>
0.0000

> <Gold.PLP.ligand.torsion>
1.4782

> <Gold.PLP.Chemscore.Hbond>
3.2259

> <Gold.PLP.Chemscore.CHOScore>
0.0000

> <Gold.PLP.Chemscore.Metal>
0.0000

> <Gold.Chemscore.Hbonds>
donor molecule, donor type, donor heavy atom, donor atom, acceptor molecule, acceptor atom, score
      P1  H  6896  6909       L1     7  0.34
      P1  H  6934  6947       L1     3  0.96
      P1  H  7989  7998       L1    27  0.76

> <Gold.PLP.Chemscore.Internal.Correction>
0.1244

> <Gold.Rescore>
     Score         DG    S(hbond)    S(metal)    S(lipo)     H(rot)  DE(clash)    DE(int)     intcor
      3.87      -8.10       2.14        0.00      50.08       4.05       0.17       4.07       ----

> <Gold.Chemscore.Fitness>
3.8717

> <Gold.Chemscore.DG>
-8.1024

> <Gold.Chemscore.ZeroCoef>
-5.4800

> <Gold.Chemscore.Hbond>
2.1367

> <Gold.Chemscore.Metal>
0.0000

> <Gold.Chemscore.Lipo>
50.0764

> <Gold.Chemscore.Internal_Hbond>
0.0000

> <Gold.Chemscore.DEClash>
0.1656

> <Gold.Chemscore.DEInternal>
4.0652

> <Gold.Chemscore.Rot>
4.0520

> <Gold.Chemscore.Internal.Correction>
   9.000000E+99

> <Gold.Chemscore.Hbonds>
donor molecule, donor type, donor heavy atom, donor atom, acceptor molecule, acceptor atom, score
      P1  H  6896  6909       L1     7  0.04
      P1  H  6934  6947       L1     3  0.91
      P1  H  7989  7998       L1    27  0.15

> <Gold.Chemscore.Hbond.Weighted>
-7.1367

> <Gold.Chemscore.Metal.Weighted>
-0.0000

> <Gold.Chemscore.Lipo.Weighted>
-5.8589

> <Gold.Chemscore.Internal_Hbond.Weighted>
0.0000

> <Gold.Chemscore.DEClash.Weighted>
0.1656

> <Gold.Chemscore.DEInternal.Weighted>
4.0652

> <Gold.Chemscore.Rot.Weighted>
10.3732

> <Gold.Chemscore.Internal.Correction.Weighted>
   9.000000E+99

> <Gold.Protein.RotatedTorsions>
[ 6907 6896 6895 6894 ] final  108.74 input  -60.11 | X-H torsion
[ 7974 7965 7964 7962 ] final -131.32 input  175.53 | X-H torsion
[ 8008 7997 7996 7995 ] final  102.18 input   59.86 | X-H torsion
[ 10167 10162 10161 10158 ] final  -39.41 input  -65.29 | X-H torsion
[ 10718 10713 10712 10709 ] final  -28.80 input   66.30 | X-H torsion
[ 10763 10752 10751 10750 ] final   14.62 input  -60.55 | X-H torsion
[ 11005 11000 10999 10996 ] final  -42.22 input  -57.11 | X-H torsion

> <Gold.Protein.ActiveResidues>
 VAL166  LYS551  ARG553  GLY616  TRP617  ASP618  TYR619  PRO620  LYS621  CYS622 
 ASP623  PHE694  ASN695  SER759  ASP760  ASP761  ALA762  ILE779  LEU786  VAL792 
 PHE793  MET794  SER795  GLU796  ALA797  LYS798  CYS799  TRP800  GLU811  SER814 

> <Gold.Protein.RotatedAtoms>
  152.5099  133.9045  159.7457 H   0  0  0  0  0  0  0  0  0  0  0  0  # atno 6907 bound_to 6896
  150.9453  133.6602  159.2789 H   0  0  0  0  0  0  0  0  0  0  0  0  # atno 6908 bound_to 6896
  151.3899  135.0959  159.9575 H   0  0  0  0  0  0  0  0  0  0  0  0  # atno 6909 bound_to 6896
  144.9391  140.7217  143.4858 H   0  0  0  0  0  0  0  0  0  0  0  0  # atno 7974 bound_to 7965
  156.1369  140.3185  155.8434 H   0  0  0  0  0  0  0  0  0  0  0  0  # atno 8008 bound_to 7997
  155.4228  140.0513  157.3041 H   0  0  0  0  0  0  0  0  0  0  0  0  # atno 8009 bound_to 7997
  154.4944  140.2105  155.9492 H   0  0  0  0  0  0  0  0  0  0  0  0  # atno 8010 bound_to 7997
  140.7065  143.3216  151.2778 H   0  0  0  0  0  0  0  0  0  0  0  0  # atno 10167 bound_to 10162
  156.4206  130.4425  149.7187 H   0  0  0  0  0  0  0  0  0  0  0  0  # atno 10718 bound_to 10713
  153.1604  135.6795  153.8751 H   0  0  0  0  0  0  0  0  0  0  0  0  # atno 10763 bound_to 10752
  153.8148  135.3138  155.3405 H   0  0  0  0  0  0  0  0  0  0  0  0  # atno 10764 bound_to 10752
  154.7928  135.4825  154.0180 H   0  0  0  0  0  0  0  0  0  0  0  0  # atno 10765 bound_to 10752
  141.0301  133.6824  156.2565 H   0  0  0  0  0  0  0  0  0  0  0  0  # atno 11005 bound_to 11000
  145.3020  139.1847  143.4684 LP  0  0  0  0  0  0  0  0  0  0  0  0  # atno 17320 bound_to 7965
  146.3278  140.3012  142.8621 LP  0  0  0  0  0  0  0  0  0  0  0  0  # atno 17321 bound_to 7965
  139.6672  144.0084  152.2730 LP  0  0  0  0  0  0  0  0  0  0  0  0  # atno 17342 bound_to 10162
  139.9671  144.6519  150.8024 LP  0  0  0  0  0  0  0  0  0  0  0  0  # atno 17343 bound_to 10162
  156.4129  130.7731  151.2745 LP  0  0  0  0  0  0  0  0  0  0  0  0  # atno 17370 bound_to 10713
  157.7508  131.0206  150.3715 LP  0  0  0  0  0  0  0  0  0  0  0  0  # atno 17371 bound_to 10713
  140.6423  134.5153  157.5570 LP  0  0  0  0  0  0  0  0  0  0  0  0  # atno 17394 bound_to 11000
  139.9202  134.8165  156.1237 LP  0  0  0  0  0  0  0  0  0  0  0  0  # atno 17395 bound_to 11000

$$$$
