AV-unprocessed.smi:763|AV-procd|sdf|3638|dock4
  -GOLD-   22720 1 33D 1   1.00000     0.00000
 Structure written by MMmdl.
 43 44  0  0  0  0  0  0  0  0  2 V2000
  153.6272  137.4807  161.1121 C   0  0  0  0  0  0  0  0  0  0  0  0
  153.9863  138.8508  161.0921 O   0  0  0  0  0  0  0  0  0  0  0  0
  154.1764  139.3444  159.7764 C   0  0  0  0  0  0  0  0  0  0  0  0
  152.8245  139.3587  159.0459 C   0  0  0  0  0  0  0  0  0  0  0  0
  152.6990  140.5037  158.2021 O   0  0  0  0  0  0  0  0  0  0  0  0
  152.4833  141.7557  158.7537 C   0  0  0  0  0  0  0  0  0  0  0  0
  152.9865  142.0055  159.9896 N   0  0  0  0  0  0  0  0  0  0  0  0
  152.7901  143.2218  160.5331 C   0  0  0  0  0  0  0  0  0  0  0  0
  152.0897  144.2476  159.8784 C   0  0  0  0  0  0  0  0  0  0  0  0
  151.5717  143.9861  158.5973 C   0  0  0  0  0  0  0  0  0  0  0  0
  151.7598  142.7152  157.9998 C   0  0  0  0  0  0  0  0  0  0  0  0
  151.2886  142.4033  156.7803 N   0  5  0  0  0  0  0  0  0  0  0  0
  150.4993  141.0506  156.3714 S   0  0  0  0  0  0  0  0  0  0  0  0
  151.1991  140.3199  155.3038 O   0  0  0  0  0  0  0  0  0  0  0  0
  150.1012  140.2739  157.5561 O   0  0  0  0  0  0  0  0  0  0  0  0
  148.9373  141.7546  155.6428 C   0  0  2  0  0  0  0  0  0  0  0  0
  147.8245  141.7480  156.7154 C   0  0  0  0  0  0  0  0  0  0  0  0
  146.4927  142.2810  156.1703 C   0  0  0  0  0  0  0  0  0  0  0  0
  146.0401  141.4637  154.9540 C   0  0  0  0  0  0  0  0  0  0  0  0
  147.1168  141.4792  153.8612 C   0  0  0  0  0  0  0  0  0  0  0  0
  148.4769  140.9744  154.3836 C   0  0  1  0  0  0  0  0  0  0  0  0
  149.3964  141.1161  153.3197 O   0  0  0  0  0  0  0  0  0  0  0  0
  153.4879  137.1540  162.1425 H   0  0  0  0  0  0  0  0  0  0  0  0
  154.4069  136.8625  160.6655 H   0  0  0  0  0  0  0  0  0  0  0  0
  152.6932  137.3091  160.5753 H   0  0  0  0  0  0  0  0  0  0  0  0
  154.6292  140.3363  159.7951 H   0  0  0  0  0  0  0  0  0  0  0  0
  154.8646  138.6846  159.2459 H   0  0  0  0  0  0  0  0  0  0  0  0
  152.6724  138.4351  158.4856 H   0  0  0  0  0  0  0  0  0  0  0  0
  152.0180  139.3863  159.7789 H   0  0  0  0  0  0  0  0  0  0  0  0
  153.2041  143.3814  161.5175 H   0  0  0  0  0  0  0  0  0  0  0  0
  151.9520  145.2115  160.3449 H   0  0  0  0  0  0  0  0  0  0  0  0
  151.0321  144.7711  158.0885 H   0  0  0  0  0  0  0  0  0  0  0  0
  149.1541  142.7852  155.3595 H   0  0  0  0  0  0  0  0  0  0  0  0
  147.6725  140.7342  157.0876 H   0  0  0  0  0  0  0  0  0  0  0  0
  148.1277  142.3465  157.5747 H   0  0  0  0  0  0  0  0  0  0  0  0
  145.7306  142.2436  156.9491 H   0  0  0  0  0  0  0  0  0  0  0  0
  146.6023  143.3301  155.8918 H   0  0  0  0  0  0  0  0  0  0  0  0
  145.8364  140.4355  155.2556 H   0  0  0  0  0  0  0  0  0  0  0  0
  145.1051  141.8646  154.5620 H   0  0  0  0  0  0  0  0  0  0  0  0
  146.7903  140.8694  153.0177 H   0  0  0  0  0  0  0  0  0  0  0  0
  147.2222  142.4971  153.4821 H   0  0  0  0  0  0  0  0  0  0  0  0
  148.3978  139.9138  154.6263 H   0  0  0  0  0  0  0  0  0  0  0  0
  149.1854  140.4813  152.6527 H   0  0  0  0  0  0  0  0  0  0  0  0
  1  2  1  0  0  0  0
  1 23  1  0  0  0  0
  1 24  1  0  0  0  0
  1 25  1  0  0  0  0
  2  3  1  0  0  0  0
  3  4  1  0  0  0  0
  3 26  1  0  0  0  0
  3 27  1  0  0  0  0
  4  5  1  0  0  0  0
  4 28  1  0  0  0  0
  4 29  1  0  0  0  0
  5  6  1  0  0  0  0
  6 11  1  0  0  0  0
  6  7  2  0  0  0  0
  7  8  1  0  0  0  0
  8  9  2  0  0  0  0
  8 30  1  0  0  0  0
  9 10  1  0  0  0  0
  9 31  1  0  0  0  0
 10 11  2  0  0  0  0
 10 32  1  0  0  0  0
 11 12  1  0  0  0  0
 12 13  1  0  0  0  0
 13 14  2  0  0  0  0
 13 15  2  0  0  0  0
 13 16  1  0  0  0  0
 16 21  1  0  0  0  0
 16 17  1  0  0  0  0
 16 33  1  0  0  0  0
 17 18  1  0  0  0  0
 17 34  1  0  0  0  0
 17 35  1  0  0  0  0
 18 19  1  0  0  0  0
 18 36  1  0  0  0  0
 18 37  1  0  0  0  0
 19 20  1  0  0  0  0
 19 38  1  0  0  0  0
 19 39  1  0  0  0  0
 20 21  1  0  0  0  0
 20 40  1  0  0  0  0
 20 41  1  0  0  0  0
 21 22  1  0  0  0  0
 21 42  1  0  0  0  0
 22 43  1  0  0  0  0
M  CHG  1  12  -1
M  END
> <s_m_source_file>
AV-unprocessed.smi

> <i_m_source_file_index>
763

> <i_lp_mmshare_version>
43012

> <i_f3d_flags>
0

> <s_epik_input>
W0NIM11PW0NIMl1bQ0gyXU9jMW5bY0hdW2NIXVtjSF1jMVtOSF1TKD1PKSg9TylbQ0BASF0yW0NIMl1bQ0gyXVtDSDJdW0NIMl1bQ0BIXTJbT0hd

> <s_epik_cmdline>
J2VwaWtfcHl0aG9uJywgJy1waCcsICc3LjAnLCAnLXRuJywgJzgnLCAnLW1hJywgJzIwMCcsICctbWV0YWxfYmluZGluZycsICctaW1hZScsICc8aW5maWxlLm1hZT4nLCAnLW9tYWUnLCAnPG91dGZpbGUubWFlPic=

> <r_epik_Ionization_Penalty>
0.985866

> <r_epik_Ionization_Penalty_Charging>
0.984689

> <r_epik_Ionization_Penalty_Neutral>
0.00117669

> <r_epik_State_Penalty>
1.03185

> <r_epik_Charging_Adjusted_Penalty>
2.01654

> <i_epik_Tot_Q>
-1

> <i_epik_Tot_abs_Q>
1

> <r_epik_Metal_State_Penalty>
0.379327

> <b_epik_Metal_Only>
0

> <s_lp_Force_Field>
OPLS_2005

> <r_lp_Energy>
11.4471

> <b_lp_Chiralities_Consistent>
1

> <s_lp_Variant>
AV-unprocessed.smi:763-5

> <Gold.Version>
5.8.1

> <Gold.Id.Protein>
6NUR|6NUR_protein|mol2

> <Gold.PLP.Fitness>
44.7820

> <Gold.PLP.PLP>
-38.7616

> <Gold.PLP.part.hbond>
-4.2717

> <Gold.PLP.part.metal>
0.0000

> <Gold.PLP.part.buried>
-3.3444

> <Gold.PLP.part.nonpolar>
-30.0515

> <Gold.PLP.part.repulsive>
0.1027

> <Gold.PLP.ligand.clash>
0.0000

> <Gold.PLP.ligand.torsion>
2.5204

> <Gold.PLP.Chemscore.Hbond>
3.2545

> <Gold.PLP.Chemscore.CHOScore>
0.0000

> <Gold.PLP.Chemscore.Metal>
0.0000

> <Gold.Chemscore.Hbonds>
donor molecule, donor type, donor heavy atom, donor atom, acceptor molecule, acceptor atom, score
      L1  H    22    43       P1  7957  0.82
      P1  H  7989  7998       L1    14  1.00
      P1  H  7997  8010       L1     5  0.31
      P1  H  8011  8017       L1    22  0.95

> <Gold.PLP.Chemscore.Internal.Correction>
1.2977

> <Gold.Rescore>
     Score         DG    S(hbond)    S(metal)    S(lipo)     H(rot)  DE(clash)    DE(int)     intcor
     12.45     -17.72       2.16        0.00      94.26       2.35       0.10       5.17       ----

> <Gold.Chemscore.Fitness>
12.4488

> <Gold.Chemscore.DG>
-17.7187

> <Gold.Chemscore.ZeroCoef>
-5.4800

> <Gold.Chemscore.Hbond>
2.1641

> <Gold.Chemscore.Metal>
0.0000

> <Gold.Chemscore.Lipo>
94.2636

> <Gold.Chemscore.Internal_Hbond>
0.0000

> <Gold.Chemscore.DEClash>
0.0990

> <Gold.Chemscore.DEInternal>
5.1709

> <Gold.Chemscore.Rot>
2.3509

> <Gold.Chemscore.Internal.Correction>
   9.000000E+99

> <Gold.Chemscore.Hbonds>
donor molecule, donor type, donor heavy atom, donor atom, acceptor molecule, acceptor atom, score
      L1  H    22    43       P1  7957  0.81
      P1  H  7989  7998       L1    14  0.95
      P1  H  7997  8010       L1     5  0.06
      P1  H  8011  8017       L1    22  0.21

> <Gold.Chemscore.Hbond.Weighted>
-7.2281

> <Gold.Chemscore.Metal.Weighted>
-0.0000

> <Gold.Chemscore.Lipo.Weighted>
-11.0288

> <Gold.Chemscore.Internal_Hbond.Weighted>
0.0000

> <Gold.Chemscore.DEClash.Weighted>
0.0990

> <Gold.Chemscore.DEInternal.Weighted>
5.1709

> <Gold.Chemscore.Rot.Weighted>
6.0182

> <Gold.Chemscore.Internal.Correction.Weighted>
   9.000000E+99

> <Gold.Protein.RotatedTorsions>
[ 6907 6896 6895 6894 ] final  113.33 input  -60.11 | X-H torsion
[ 7974 7965 7964 7962 ] final   79.76 input  175.53 | X-H torsion
[ 8008 7997 7996 7995 ] final   48.92 input   59.86 | X-H torsion
[ 10167 10162 10161 10158 ] final   35.24 input  -65.29 | X-H torsion
[ 10718 10713 10712 10709 ] final  143.22 input   66.30 | X-H torsion
[ 10763 10752 10751 10750 ] final -120.50 input  -60.55 | X-H torsion
[ 11005 11000 10999 10996 ] final -120.26 input  -57.11 | X-H torsion

> <Gold.Protein.ActiveResidues>
 VAL166  LYS551  ARG553  GLY616  TRP617  ASP618  TYR619  PRO620  LYS621  CYS622 
 ASP623  PHE694  ASN695  SER759  ASP760  ASP761  ALA762  ILE779  LEU786  VAL792 
 PHE793  MET794  SER795  GLU796  ALA797  LYS798  CYS799  TRP800  GLU811  SER814 

> <Gold.Protein.RotatedAtoms>
  152.4867  133.8390  159.7142 H   0  0  0  0  0  0  0  0  0  0  0  0  # atno 6907 bound_to 6896
  150.8959  133.7172  159.2898 H   0  0  0  0  0  0  0  0  0  0  0  0  # atno 6908 bound_to 6896
  151.4630  135.1044  159.9782 H   0  0  0  0  0  0  0  0  0  0  0  0  # atno 6909 bound_to 6896
  145.6600  139.2469  143.1928 H   0  0  0  0  0  0  0  0  0  0  0  0  # atno 7974 bound_to 7965
  155.3937  140.3434  155.4253 H   0  0  0  0  0  0  0  0  0  0  0  0  # atno 8008 bound_to 7997
  156.1543  140.1580  156.8751 H   0  0  0  0  0  0  0  0  0  0  0  0  # atno 8009 bound_to 7997
  154.5080  140.0797  156.7915 H   0  0  0  0  0  0  0  0  0  0  0  0  # atno 8010 bound_to 7997
  140.4240  144.1419  150.6151 H   0  0  0  0  0  0  0  0  0  0  0  0  # atno 10167 bound_to 10162
  157.3714  131.0979  151.0824 H   0  0  0  0  0  0  0  0  0  0  0  0  # atno 10718 bound_to 10713
  154.8645  135.4201  154.2469 H   0  0  0  0  0  0  0  0  0  0  0  0  # atno 10763 bound_to 10752
  153.3423  135.6994  153.6862 H   0  0  0  0  0  0  0  0  0  0  0  0  # atno 10764 bound_to 10752
  153.5836  135.3568  155.2857 H   0  0  0  0  0  0  0  0  0  0  0  0  # atno 10765 bound_to 10752
  141.0156  134.0200  157.3354 H   0  0  0  0  0  0  0  0  0  0  0  0  # atno 11005 bound_to 11000
  146.1133  140.7401  142.9493 LP  0  0  0  0  0  0  0  0  0  0  0  0  # atno 17320 bound_to 7965
  144.7092  140.3974  143.7094 LP  0  0  0  0  0  0  0  0  0  0  0  0  # atno 17321 bound_to 7965
  140.4502  143.2490  151.9358 LP  0  0  0  0  0  0  0  0  0  0  0  0  # atno 17342 bound_to 10162
  139.4783  144.5570  151.8299 LP  0  0  0  0  0  0  0  0  0  0  0  0  # atno 17343 bound_to 10162
  157.1927  130.6359  149.5710 LP  0  0  0  0  0  0  0  0  0  0  0  0  # atno 17370 bound_to 10713
  155.9756  130.4717  150.6473 LP  0  0  0  0  0  0  0  0  0  0  0  0  # atno 17371 bound_to 10713
  139.9115  135.0191  156.7711 LP  0  0  0  0  0  0  0  0  0  0  0  0  # atno 17394 bound_to 11000
  140.6660  133.9602  155.7830 LP  0  0  0  0  0  0  0  0  0  0  0  0  # atno 17395 bound_to 11000

$$$$
