#       Name:                AV-unprocessed.smi:2448
#       Creating user name   scv26
#       Creation time:       Fri Mar 27 13:28:30 2020


#       File generated by GOLD software.
#

@<TRIPOS>MOLECULE
AV-unprocessed.smi:2448
    41    42     1
SMALL
NO_CHARGES


@<TRIPOS>ATOM
      1 ****        -3.4786  -0.2299   0.9734 O.3            1 S1                 0.0000
      2 ****        -2.8518   0.8829   0.3597 C.3            1 S1                 0.0000
      3 ****        -1.3601   0.8701   0.7523 C.3            1 S1                 0.0000
      4 ****        -0.6444  -0.2500   0.1365 N.3            1 S1                 0.0000
      5 ****         0.8190  -0.2615   0.2833 C.3            1 S1                 0.0000
      6 ****         1.3702  -1.3150  -0.7068 C.3            1 S1                 0.0000
      7 ****         2.8820  -1.3243  -0.8519 C.ar           1 S1                 0.0000
      8 ****         3.6408  -2.4402  -0.4406 C.ar           1 S1                 0.0000
      9 ****         5.0402  -2.3973  -0.6008 C.ar           1 S1                 0.0000
     10 ****         5.6940  -1.3418  -1.1319 N.ar           1 S1                 0.0000
     11 ****         4.9611  -0.2790  -1.5275 C.ar           1 S1                 0.0000
     12 ****         3.5578  -0.2203  -1.4118 C.ar           1 S1                 0.0000
     13 ****         1.2621  -0.5228   1.7507 C.3            1 S1                 0.0000
     14 ****         0.8630   0.4561   2.5609 F              1 S1                 0.0000
     15 ****         0.7540  -1.6758   2.1874 F              1 S1                 0.0000
     16 ****         2.5892  -0.5785   1.8507 F              1 S1                 0.0000
     17 ****        -3.5609   2.1483   0.8697 C.3            1 S1                 0.0000
     18 ****        -4.9284   2.2301   0.1834 C.3            1 S1                 0.0000
     19 ****        -4.7448   1.5486  -1.4837 S.3            1 S1                 0.0000
     20 ****        -3.1002   0.8574  -1.1600 C.3            1 S1                 0.0000
     21 ****        -3.1078  -1.0191   0.6100 H              1 S1                 0.0000
     22 ****        -0.8989   1.8082   0.4410 H              1 S1                 0.0000
     23 ****        -1.2887   0.8305   1.8382 H              1 S1                 0.0000
     24 ****        -1.0235  -1.1225   0.4910 H              1 S1                 0.0000
     25 ****         1.2048   0.7122  -0.0213 H              1 S1                 0.0000
     26 ****         1.0287  -2.3103  -0.4191 H              1 S1                 0.0000
     27 ****         0.9571  -1.1334  -1.7002 H              1 S1                 0.0000
     28 ****         3.1666  -3.3092  -0.0087 H              1 S1                 0.0000
     29 ****         5.6507  -3.2340  -0.2949 H              1 S1                 0.0000
     30 ****         5.5089   0.5502  -1.9502 H              1 S1                 0.0000
     31 ****         3.0167   0.6532  -1.7453 H              1 S1                 0.0000
     32 ****        -3.6527   2.1643   1.9566 H              1 S1                 0.0000
     33 ****        -2.9780   3.0268   0.5897 H              1 S1                 0.0000
     34 ****        -5.6554   1.6212   0.7219 H              1 S1                 0.0000
     35 ****        -5.3106   3.2503   0.1502 H              1 S1                 0.0000
     36 ****        -2.3755   1.4965  -1.6659 H              1 S1                 0.0000
     37 ****        -3.0057  -0.1419  -1.5864 H              1 S1                 0.0000
     38 ****        -4.4620  -0.2050   0.7938 LP             1 S1                 0.0000
     39 ****        -3.3194  -0.2053   1.9603 LP             1 S1                 0.0000
     40 ****        -0.7946  -0.1341  -0.8453 LP             1 S1                 0.0000
     41 ****         6.6892  -1.3471  -1.2291 LP             1 S1                 0.0000
@<TRIPOS>BOND
    1    1    2 1     
    2    1   21 1     
    3    2   20 1     
    4    2    3 1     
    5    2   17 1     
    6    3    4 1     
    7    3   22 1     
    8    3   23 1     
    9    4    5 1     
   10    4   24 1     
   11    5    6 1     
   12    5   13 1     
   13    5   25 1     
   14    6    7 1     
   15    6   26 1     
   16    6   27 1     
   17    7   12 ar    
   18    7    8 ar    
   19    8    9 ar    
   20    8   28 1     
   21    9   10 ar    
   22    9   29 1     
   23   10   11 ar    
   24   11   12 ar    
   25   11   30 1     
   26   12   31 1     
   27   13   14 1     
   28   13   15 1     
   29   13   16 1     
   30   17   18 1     
   31   17   32 1     
   32   17   33 1     
   33   18   19 1     
   34   18   34 1     
   35   18   35 1     
   36   19   20 1     
   37   20   36 1     
   38   20   37 1     
   39    1   38 1     
   40    1   39 1     
   41    4   40 1     
   42   10   41 1     
@<TRIPOS>SUBSTRUCTURE
      1 S1             1
@<TRIPOS>SET
LONE_PAIRS      STATIC     ATOMS    <user>   **** ""
4 38 39 40 41
DONOR_HYDROGENS      STATIC     ATOMS    <user>   **** ""
2 21 24
ATOM$BLUE        STATIC     ATOMS    COLORGROUP SYSTEM
4 38 39 40 41
ATOM$RED        STATIC     ATOMS    COLORGROUP SYSTEM
2 21 24
