AV-unprocessed.smi:13|AV-procd|sdf|73|dock2
  -GOLD-   2262015193D 1   1.00000     0.00000
 Structure written by MMmdl.
 54 58  0  0  0  0  0  0  0  0  1 V2000
  152.2093  145.3922  159.1542 C   0  0  0  0  0  0  0  0  0  0  0  0
  151.2501  144.1978  159.0563 C   0  0  0  0  0  0  0  0  0  0  0  0
  149.9237  144.6517  159.6652 C   0  0  0  0  0  0  0  0  0  0  0  0
  151.1582  143.5557  157.6633 C   0  0  0  0  0  0  0  0  0  0  0  0
  152.1147  142.5681  158.1309 N   0  0  0  0  0  0  0  0  0  0  0  0
  151.9068  141.2596  157.6039 C   0  0  0  0  0  0  0  0  0  0  0  0
  152.6448  140.2083  158.0508 N   0  0  0  0  0  0  0  0  0  0  0  0
  152.4731  138.9805  157.5544 C   0  0  0  0  0  0  0  0  0  0  0  0
  151.6256  138.5763  156.6083 N   0  0  0  0  0  0  0  0  0  0  0  0
  150.8801  139.6183  156.1436 C   0  0  0  0  0  0  0  0  0  0  0  0
  150.9608  140.9724  156.5781 C   0  0  0  0  0  0  0  0  0  0  0  0
  150.0560  141.7491  155.8644 N   0  0  0  0  0  0  0  0  0  0  0  0
  149.4713  140.9038  155.0607 C   0  0  0  0  0  0  0  0  0  0  0  0
  149.8989  139.5999  155.1672 N   0  0  0  0  0  0  0  0  0  0  0  0
  149.4243  138.4614  154.3947 C   0  0  0  0  0  0  0  0  0  0  0  0
  147.8837  138.3102  154.3888 C   0  0  1  0  0  0  0  0  0  0  0  0
  147.5517  137.0396  153.8589 O   0  0  0  0  0  0  0  0  0  0  0  0
  147.2808  138.4387  155.7896 C   0  0  0  0  0  0  0  0  0  0  0  0
  146.5754  139.7892  155.7527 C   0  0  0  0  0  0  0  0  0  0  0  0
  146.0997  139.8519  154.4203 O   0  0  0  0  0  0  0  0  0  0  0  0
  147.1537  139.4028  153.5809 C   0  0  0  0  0  0  0  0  0  0  0  0
  151.7647  142.8157  159.5258 C   0  0  1  0  0  0  0  0  0  0  0  0
  152.9653  142.6828  160.4705 C   0  0  1  0  0  0  0  0  0  0  0  0
  152.7074  143.2206  161.8808 C   0  0  0  0  0  0  0  0  0  0  0  0
  153.5871  142.3610  162.7783 C   0  0  0  0  0  0  0  0  0  0  0  0
  154.1295  141.2789  161.8449 C   0  0  0  0  0  0  0  0  0  0  0  0
  153.2633  141.3188  160.7230 O   0  0  0  0  0  0  0  0  0  0  0  0
  151.8598  146.2304  158.5511 H   0  0  0  0  0  0  0  0  0  0  0  0
  153.2082  145.1395  158.7975 H   0  0  0  0  0  0  0  0  0  0  0  0
  152.3105  145.7513  160.1782 H   0  0  0  0  0  0  0  0  0  0  0  0
  149.1700  143.8658  159.6115 H   0  0  0  0  0  0  0  0  0  0  0  0
  149.5197  145.5207  159.1447 H   0  0  0  0  0  0  0  0  0  0  0  0
  150.0367  144.9175  160.7168 H   0  0  0  0  0  0  0  0  0  0  0  0
  150.1774  143.1287  157.4442 H   0  0  0  0  0  0  0  0  0  0  0  0
  151.5302  144.1779  156.8489 H   0  0  0  0  0  0  0  0  0  0  0  0
  153.1064  138.2138  157.9757 H   0  0  0  0  0  0  0  0  0  0  0  0
  148.7042  141.2103  154.3642 H   0  0  0  0  0  0  0  0  0  0  0  0
  149.7982  138.5639  153.3750 H   0  0  0  0  0  0  0  0  0  0  0  0
  149.8857  137.5589  154.7976 H   0  0  0  0  0  0  0  0  0  0  0  0
  148.0351  136.9162  153.0561 H   0  0  0  0  0  0  0  0  0  0  0  0
  146.5407  137.6575  155.9722 H   0  0  0  0  0  0  0  0  0  0  0  0
  148.0203  138.3790  156.5889 H   0  0  0  0  0  0  0  0  0  0  0  0
  145.7634  139.8621  156.4763 H   0  0  0  0  0  0  0  0  0  0  0  0
  147.2773  140.6049  155.9342 H   0  0  0  0  0  0  0  0  0  0  0  0
  147.8047  140.2565  153.3925 H   0  0  0  0  0  0  0  0  0  0  0  0
  146.7773  139.0574  152.6170 H   0  0  0  0  0  0  0  0  0  0  0  0
  150.9181  142.1985  159.8339 H   0  0  0  0  0  0  0  0  0  0  0  0
  153.8531  143.1627  160.0540 H   0  0  0  0  0  0  0  0  0  0  0  0
  152.9368  144.2819  161.9708 H   0  0  0  0  0  0  0  0  0  0  0  0
  151.6608  143.0812  162.1548 H   0  0  0  0  0  0  0  0  0  0  0  0
  154.3975  142.9326  163.2315 H   0  0  0  0  0  0  0  0  0  0  0  0
  152.9936  141.9232  163.5817 H   0  0  0  0  0  0  0  0  0  0  0  0
  155.1444  141.5188  161.5235 H   0  0  0  0  0  0  0  0  0  0  0  0
  154.1403  140.2910  162.3057 H   0  0  0  0  0  0  0  0  0  0  0  0
  1  2  1  0  0  0  0
  1 28  1  0  0  0  0
  1 29  1  0  0  0  0
  1 30  1  0  0  0  0
  2 22  1  0  0  0  0
  2  3  1  0  0  0  0
  2  4  1  0  0  0  0
  3 31  1  0  0  0  0
  3 32  1  0  0  0  0
  3 33  1  0  0  0  0
  4  5  1  0  0  0  0
  4 34  1  0  0  0  0
  4 35  1  0  0  0  0
  5  6  1  0  0  0  0
  5 22  1  0  0  0  0
  6 11  1  0  0  0  0
  6  7  2  0  0  0  0
  7  8  1  0  0  0  0
  8  9  2  0  0  0  0
  8 36  1  0  0  0  0
  9 10  1  0  0  0  0
 10 14  1  0  0  0  0
 10 11  2  0  0  0  0
 11 12  1  0  0  0  0
 12 13  2  0  0  0  0
 13 14  1  0  0  0  0
 13 37  1  0  0  0  0
 14 15  1  0  0  0  0
 15 16  1  0  0  0  0
 15 38  1  0  0  0  0
 15 39  1  0  0  0  0
 16 21  1  0  0  0  0
 16 17  1  0  0  0  0
 16 18  1  0  0  0  0
 17 40  1  0  0  0  0
 18 19  1  0  0  0  0
 18 41  1  0  0  0  0
 18 42  1  0  0  0  0
 19 20  1  0  0  0  0
 19 43  1  0  0  0  0
 19 44  1  0  0  0  0
 20 21  1  0  0  0  0
 21 45  1  0  0  0  0
 21 46  1  0  0  0  0
 22 23  1  0  0  0  0
 22 47  1  0  0  0  0
 23 27  1  0  0  0  0
 23 24  1  0  0  0  0
 23 48  1  0  0  0  0
 24 25  1  0  0  0  0
 24 49  1  0  0  0  0
 24 50  1  0  0  0  0
 25 26  1  0  0  0  0
 25 51  1  0  0  0  0
 25 52  1  0  0  0  0
 26 27  1  0  0  0  0
 26 53  1  0  0  0  0
 26 54  1  0  0  0  0
M  END
> <s_m_source_file>
AV-unprocessed.smi

> <i_m_source_file_index>
13

> <i_lp_mmshare_version>
43012

> <i_f3d_flags>
0

> <s_epik_input>
TzFbQ0gyXVtDSDJdW0NIMl1bQ0BIXTFbQ0BASF0yTihbQ0gyXUMyKFtDSDNdKVtDSDNdKWMobltjSF1uMyljKGMzNCluW2NIXW40W0NIMl1bQ0BAXTUoW09IXSlbQ0gyXVtDSDJdT1tDSDJdNQ==

> <s_epik_cmdline>
J2VwaWtfcHl0aG9uJywgJy1waCcsICc3LjAnLCAnLXRuJywgJzgnLCAnLW1hJywgJzIwMCcsICctbWV0YWxfYmluZGluZycsICctaW1hZScsICc8aW5maWxlLm1hZT4nLCAnLW9tYWUnLCAnPG91dGZpbGUubWFlPic=

> <r_lp_tautomer_probability>
1

> <r_epik_Ionization_Penalty>
0.00202764

> <r_epik_Ionization_Penalty_Charging>
0

> <r_epik_Ionization_Penalty_Neutral>
0.00202764

> <r_epik_State_Penalty>
0.00134017

> <r_epik_Charging_Adjusted_Penalty>
0.00134017

> <i_epik_Tot_Q>
0

> <i_epik_Tot_abs_Q>
0

> <r_epik_Metal_State_Penalty>
-0

> <b_epik_Metal_Only>
0

> <s_lp_Force_Field>
OPLS_2005

> <r_lp_Energy>
61.4884

> <b_lp_Chiralities_Consistent>
1

> <s_lp_Variant>
AV-unprocessed.smi:13-5

> <Gold.Version>
5.8.1

> <Gold.Id.Protein>
6NUR|6NUR_protein|mol2

> <Gold.PLP.Fitness>
50.6524

> <Gold.PLP.PLP>
-47.8356

> <Gold.PLP.part.hbond>
-1.8504

> <Gold.PLP.part.metal>
0.0000

> <Gold.PLP.part.buried>
-6.1116

> <Gold.PLP.part.nonpolar>
-41.7318

> <Gold.PLP.part.repulsive>
0.5019

> <Gold.PLP.ligand.clash>
0.0000

> <Gold.PLP.ligand.torsion>
0.4005

> <Gold.PLP.Chemscore.Hbond>
1.0601

> <Gold.PLP.Chemscore.CHOScore>
0.0000

> <Gold.PLP.Chemscore.Metal>
0.0000

> <Gold.Chemscore.Hbonds>
donor molecule, donor type, donor heavy atom, donor atom, acceptor molecule, acceptor atom, score
      L1  H    17    40       P1  7948  1.00
      P1  H  7997  8008       L1     7  0.08

> <Gold.PLP.Chemscore.Internal.Correction>
0.4375

> <Gold.Rescore>
     Score         DG    S(hbond)    S(metal)    S(lipo)     H(rot)  DE(clash)    DE(int)     intcor
     13.84     -16.68       1.00        0.00     117.53       2.30       0.01       2.83       ----

> <Gold.Chemscore.Fitness>
13.8365

> <Gold.Chemscore.DG>
-16.6771

> <Gold.Chemscore.ZeroCoef>
-5.4800

> <Gold.Chemscore.Hbond>
0.9978

> <Gold.Chemscore.Metal>
0.0000

> <Gold.Chemscore.Lipo>
117.5325

> <Gold.Chemscore.Internal_Hbond>
0.0000

> <Gold.Chemscore.DEClash>
0.0063

> <Gold.Chemscore.DEInternal>
2.8343

> <Gold.Chemscore.Rot>
2.2996

> <Gold.Chemscore.Internal.Correction>
   9.000000E+99

> <Gold.Chemscore.Hbonds>
donor molecule, donor type, donor heavy atom, donor atom, acceptor molecule, acceptor atom, score
      L1  H    17    40       P1  7948  1.00

> <Gold.Chemscore.Hbond.Weighted>
-3.3327

> <Gold.Chemscore.Metal.Weighted>
-0.0000

> <Gold.Chemscore.Lipo.Weighted>
-13.7513

> <Gold.Chemscore.Internal_Hbond.Weighted>
0.0000

> <Gold.Chemscore.DEClash.Weighted>
0.0063

> <Gold.Chemscore.DEInternal.Weighted>
2.8343

> <Gold.Chemscore.Rot.Weighted>
5.8869

> <Gold.Chemscore.Internal.Correction.Weighted>
   9.000000E+99

> <Gold.Protein.RotatedTorsions>
[ 6907 6896 6895 6894 ] final    6.45 input  -60.11 | X-H torsion
[ 7974 7965 7964 7962 ] final -140.65 input  175.53 | X-H torsion
[ 8008 7997 7996 7995 ] final  -86.88 input   59.86 | X-H torsion
[ 10167 10162 10161 10158 ] final  162.78 input  -65.29 | X-H torsion
[ 10718 10713 10712 10709 ] final  -89.65 input   66.30 | X-H torsion
[ 10763 10752 10751 10750 ] final -166.27 input  -60.55 | X-H torsion
[ 11005 11000 10999 10996 ] final -143.65 input  -57.11 | X-H torsion

> <Gold.Protein.ActiveResidues>
 VAL166  LYS551  ARG553  GLY616  TRP617  ASP618  TYR619  PRO620  LYS621  CYS622 
 ASP623  PHE694  ASN695  SER759  ASP760  ASP761  ALA762  ILE779  LEU786  VAL792 
 PHE793  MET794  SER795  GLU796  ALA797  LYS798  CYS799  TRP800  GLU811  SER814 

> <Gold.Protein.RotatedAtoms>
  151.6739  135.0972  160.0202 H   0  0  0  0  0  0  0  0  0  0  0  0  # atno 6907 bound_to 6896
  152.3875  133.6628  159.6219 H   0  0  0  0  0  0  0  0  0  0  0  0  # atno 6908 bound_to 6896
  150.7798  133.8926  159.3359 H   0  0  0  0  0  0  0  0  0  0  0  0  # atno 6909 bound_to 6896
  144.8580  140.6174  143.5347 H   0  0  0  0  0  0  0  0  0  0  0  0  # atno 7974 bound_to 7965
  154.6569  140.0573  157.0019 H   0  0  0  0  0  0  0  0  0  0  0  0  # atno 8008 bound_to 7997
  155.1286  140.3254  155.4461 H   0  0  0  0  0  0  0  0  0  0  0  0  # atno 8009 bound_to 7997
  156.2601  140.1985  156.6406 H   0  0  0  0  0  0  0  0  0  0  0  0  # atno 8010 bound_to 7997
  139.4865  144.4403  151.8960 H   0  0  0  0  0  0  0  0  0  0  0  0  # atno 10167 bound_to 10162
  155.9985  130.4880  150.5204 H   0  0  0  0  0  0  0  0  0  0  0  0  # atno 10718 bound_to 10713
  154.6850  135.2961  154.9561 H   0  0  0  0  0  0  0  0  0  0  0  0  # atno 10763 bound_to 10752
  154.0543  135.6640  153.4808 H   0  0  0  0  0  0  0  0  0  0  0  0  # atno 10764 bound_to 10752
  153.0572  135.5137  154.7912 H   0  0  0  0  0  0  0  0  0  0  0  0  # atno 10765 bound_to 10752
  140.8104  134.2751  157.4943 H   0  0  0  0  0  0  0  0  0  0  0  0  # atno 11005 bound_to 11000
  145.4367  139.1541  143.3992 LP  0  0  0  0  0  0  0  0  0  0  0  0  # atno 17320 bound_to 7965
  146.2838  140.4487  142.8766 LP  0  0  0  0  0  0  0  0  0  0  0  0  # atno 17321 bound_to 7965
  140.3855  144.2682  150.5904 LP  0  0  0  0  0  0  0  0  0  0  0  0  # atno 17342 bound_to 10162
  140.5194  143.2269  151.8412 LP  0  0  0  0  0  0  0  0  0  0  0  0  # atno 17343 bound_to 10162
  157.3166  131.0674  151.1962 LP  0  0  0  0  0  0  0  0  0  0  0  0  # atno 17370 bound_to 10713
  157.2890  130.6787  149.6104 LP  0  0  0  0  0  0  0  0  0  0  0  0  # atno 17371 bound_to 10713
  139.8714  134.9480  156.3983 LP  0  0  0  0  0  0  0  0  0  0  0  0  # atno 17394 bound_to 11000
  140.9203  133.7649  155.9899 LP  0  0  0  0  0  0  0  0  0  0  0  0  # atno 17395 bound_to 11000

$$$$
