AV-unprocessed.smi:1208|AV-procd|sdf|5065|dock10
  -GOLD-   22720 4103D 1   1.00000     0.00000
 Structure written by MMmdl.
 36 37  0  0  0  0  0  0  0  0  1 V2000
  149.5692  141.8650  156.3371 C   0  0  0  0  0  0  0  0  0  0  0  0
  150.9727  141.8649  156.9666 C   0  0  2  0  0  0  0  0  0  0  0  0
  151.4337  140.4885  157.1281 N   0  0  0  0  0  0  0  0  0  0  0  0
  151.8486  139.6837  156.1379 C   0  0  0  0  0  0  0  0  0  0  0  0
  151.8517  140.0157  154.9517 O   0  0  0  0  0  0  0  0  0  0  0  0
  152.3054  138.2789  156.5561 C   0  0  0  0  0  0  0  0  0  0  0  0
  152.6688  138.1940  157.9777 N   0  0  0  0  0  0  0  0  0  0  0  0
  153.7916  138.9313  158.3228 N   0  0  0  0  0  0  0  0  0  0  0  0
  154.1997  138.9487  159.5467 C   0  0  0  0  0  0  0  0  0  0  0  0
  155.3132  139.6947  159.8452 O   0  0  0  0  0  0  0  0  0  0  0  0
  153.5085  138.2058  160.5774 C   0  0  0  0  0  0  0  0  0  0  0  0
  152.4197  137.4854  160.2301 C   0  0  0  0  0  0  0  0  0  0  0  0
  151.9303  137.4423  158.8511 C   0  0  0  0  0  0  0  0  0  0  0  0
  150.9448  136.7906  158.5058 O   0  0  0  0  0  0  0  0  0  0  0  0
  151.0044  142.5714  158.3358 C   0  0  2  0  0  0  0  0  0  0  0  0
  150.5398  144.0298  158.3109 C   0  0  0  0  0  0  0  0  0  0  0  0
  151.2840  144.6150  159.4885 C   0  0  0  0  0  0  0  0  0  0  0  0
  152.6284  143.9066  159.3772 C   0  0  0  0  0  0  0  0  0  0  0  0
  152.3407  142.6202  158.8374 O   0  0  0  0  0  0  0  0  0  0  0  0
  155.9142  139.5438  159.1319 H   0  0  0  0  0  0  0  0  0  0  0  0
  149.2135  142.8799  156.1594 H   0  0  0  0  0  0  0  0  0  0  0  0
  148.8452  141.3664  156.9824 H   0  0  0  0  0  0  0  0  0  0  0  0
  149.5681  141.3500  155.3759 H   0  0  0  0  0  0  0  0  0  0  0  0
  151.6527  142.3965  156.2984 H   0  0  0  0  0  0  0  0  0  0  0  0
  151.4668  140.1314  158.0721 H   0  0  0  0  0  0  0  0  0  0  0  0
  151.5258  137.5494  156.3273 H   0  0  0  0  0  0  0  0  0  0  0  0
  153.1562  138.0032  155.9305 H   0  0  0  0  0  0  0  0  0  0  0  0
  153.8623  138.2328  161.5975 H   0  0  0  0  0  0  0  0  0  0  0  0
  151.8934  136.9261  160.9897 H   0  0  0  0  0  0  0  0  0  0  0  0
  150.4033  142.0195  159.0605 H   0  0  0  0  0  0  0  0  0  0  0  0
  150.8592  144.5217  157.3907 H   0  0  0  0  0  0  0  0  0  0  0  0
  149.4578  144.1338  158.3960 H   0  0  0  0  0  0  0  0  0  0  0  0
  151.3684  145.7014  159.4491 H   0  0  0  0  0  0  0  0  0  0  0  0
  150.7884  144.3412  160.4210 H   0  0  0  0  0  0  0  0  0  0  0  0
  153.2798  144.4354  158.6803 H   0  0  0  0  0  0  0  0  0  0  0  0
  153.1439  143.8328  160.3348 H   0  0  0  0  0  0  0  0  0  0  0  0
  1  2  1  0  0  0  0
  1 21  1  0  0  0  0
  1 22  1  0  0  0  0
  1 23  1  0  0  0  0
  2  3  1  0  0  0  0
  2 15  1  0  0  0  0
  2 24  1  0  0  0  0
  3  4  1  0  0  0  0
  3 25  1  0  0  0  0
  4  5  2  0  0  0  0
  4  6  1  0  0  0  0
  6 26  1  0  0  0  0
  6 27  1  0  0  0  0
  6  7  1  0  0  0  0
  7  8  1  0  0  0  0
  7 13  1  0  0  0  0
  8  9  2  0  0  0  0
  9 10  1  0  0  0  0
  9 11  1  0  0  0  0
 10 20  1  0  0  0  0
 11 28  1  0  0  0  0
 11 12  2  0  0  0  0
 12 29  1  0  0  0  0
 12 13  1  0  0  0  0
 13 14  2  0  0  0  0
 15 19  1  0  0  0  0
 15 16  1  0  0  0  0
 15 30  1  0  0  0  0
 16 17  1  0  0  0  0
 16 31  1  0  0  0  0
 16 32  1  0  0  0  0
 17 18  1  0  0  0  0
 17 33  1  0  0  0  0
 17 34  1  0  0  0  0
 18 19  1  0  0  0  0
 18 35  1  0  0  0  0
 18 36  1  0  0  0  0
M  END
> <s_m_source_file>
AV-unprocessed.smi

> <i_m_source_file_index>
1208

> <i_lp_mmshare_version>
43012

> <i_f3d_flags>
0

> <s_epik_input>
TzFbQ0gyXVtDSDJdW0NIMl1bQ0BIXTFbQ0BIXShbQ0gzXSlbTkhdQyg9TylbQ0gyXW4yW25IXWMoPU8pW2NIXVtjSF1jMj1P

> <s_epik_cmdline>
J2VwaWtfcHl0aG9uJywgJy1waCcsICc3LjAnLCAnLXRuJywgJzgnLCAnLW1hJywgJzIwMCcsICctbWV0YWxfYmluZGluZycsICctaW1hZScsICc8aW5maWxlLm1hZT4nLCAnLW9tYWUnLCAnPG91dGZpbGUubWFlPic=

> <r_lp_tautomer_probability>
0.9996

> <r_epik_Ionization_Penalty>
2.12735

> <r_epik_Ionization_Penalty_Charging>
3.86665e-08

> <r_epik_Ionization_Penalty_Neutral>
2.12735

> <r_epik_State_Penalty>
1.70441

> <r_epik_Charging_Adjusted_Penalty>
1.70441

> <i_epik_Tot_Q>
0

> <i_epik_Tot_abs_Q>
0

> <r_epik_Metal_State_Penalty>
1.70441

> <b_epik_Metal_Only>
0

> <s_lp_Force_Field>
OPLS_2005

> <r_lp_Energy>
29.6219

> <b_lp_Chiralities_Consistent>
1

> <s_lp_Variant>
AV-unprocessed.smi:1208-5

> <Gold.Version>
5.8.1

> <Gold.Id.Protein>
6NUR|6NUR_protein|mol2

> <Gold.PLP.Fitness>
38.7378

> <Gold.PLP.PLP>
-30.9665

> <Gold.PLP.part.hbond>
-3.4236

> <Gold.PLP.part.metal>
0.0000

> <Gold.PLP.part.buried>
-5.9297

> <Gold.PLP.part.nonpolar>
-22.6231

> <Gold.PLP.part.repulsive>
0.1115

> <Gold.PLP.ligand.clash>
0.0000

> <Gold.PLP.ligand.torsion>
0.5275

> <Gold.PLP.Chemscore.Hbond>
2.9360

> <Gold.PLP.Chemscore.CHOScore>
0.0000

> <Gold.PLP.Chemscore.Metal>
0.0000

> <Gold.Chemscore.Hbonds>
donor molecule, donor type, donor heavy atom, donor atom, acceptor molecule, acceptor atom, score
      P1  H  6896  6909       L1    14  0.38
      P1  H  7989  7998       L1     5  0.93
      P1  H  7997  8010       L1     8  1.00

> <Gold.PLP.Chemscore.Internal.Correction>
0.0183

> <Gold.Rescore>
     Score         DG    S(hbond)    S(metal)    S(lipo)     H(rot)  DE(clash)    DE(int)     intcor
     15.07     -15.59       2.51        0.00      72.34       2.63       0.01       0.51       ----

> <Gold.Chemscore.Fitness>
15.0727

> <Gold.Chemscore.DG>
-15.5928

> <Gold.Chemscore.ZeroCoef>
-5.4800

> <Gold.Chemscore.Hbond>
2.5069

> <Gold.Chemscore.Metal>
0.0000

> <Gold.Chemscore.Lipo>
72.3353

> <Gold.Chemscore.Internal_Hbond>
0.0000

> <Gold.Chemscore.DEClash>
0.0060

> <Gold.Chemscore.DEInternal>
0.5140

> <Gold.Chemscore.Rot>
2.6264

> <Gold.Chemscore.Internal.Correction>
   9.000000E+99

> <Gold.Chemscore.Hbonds>
donor molecule, donor type, donor heavy atom, donor atom, acceptor molecule, acceptor atom, score
      P1  H  6896  6909       L1    14  0.05
      P1  H  7989  7998       L1     5  0.90
      P1  H  7997  8010       L1     8  0.57

> <Gold.Chemscore.Hbond.Weighted>
-8.3732

> <Gold.Chemscore.Metal.Weighted>
-0.0000

> <Gold.Chemscore.Lipo.Weighted>
-8.4632

> <Gold.Chemscore.Internal_Hbond.Weighted>
0.0000

> <Gold.Chemscore.DEClash.Weighted>
0.0060

> <Gold.Chemscore.DEInternal.Weighted>
0.5140

> <Gold.Chemscore.Rot.Weighted>
6.7237

> <Gold.Chemscore.Internal.Correction.Weighted>
   9.000000E+99

> <Gold.Protein.RotatedTorsions>
[ 6907 6896 6895 6894 ] final  105.39 input  -60.11 | X-H torsion
[ 7974 7965 7964 7962 ] final   -1.69 input  175.53 | X-H torsion
[ 8008 7997 7996 7995 ] final    3.53 input   59.86 | X-H torsion
[ 10167 10162 10161 10158 ] final   66.15 input  -65.29 | X-H torsion
[ 10718 10713 10712 10709 ] final   74.66 input   66.30 | X-H torsion
[ 10763 10752 10751 10750 ] final   37.31 input  -60.55 | X-H torsion
[ 11005 11000 10999 10996 ] final  172.65 input  -57.11 | X-H torsion

> <Gold.Protein.ActiveResidues>
 VAL166  LYS551  ARG553  GLY616  TRP617  ASP618  TYR619  PRO620  LYS621  CYS622 
 ASP623  PHE694  ASN695  SER759  ASP760  ASP761  ALA762  ILE779  LEU786  VAL792 
 PHE793  MET794  SER795  GLU796  ALA797  LYS798  CYS799  TRP800  GLU811  SER814 

> <Gold.Protein.RotatedAtoms>
  152.5232  133.9536  159.7683 H   0  0  0  0  0  0  0  0  0  0  0  0  # atno 6907 bound_to 6896
  150.9841  133.6207  159.2725 H   0  0  0  0  0  0  0  0  0  0  0  0  # atno 6908 bound_to 6896
  151.3374  135.0862  159.9412 H   0  0  0  0  0  0  0  0  0  0  0  0  # atno 6909 bound_to 6896
  146.2414  140.1458  142.8334 H   0  0  0  0  0  0  0  0  0  0  0  0  # atno 7974 bound_to 7965
  154.7048  140.2680  155.6685 H   0  0  0  0  0  0  0  0  0  0  0  0  # atno 8008 bound_to 7997
  156.2776  140.2765  156.1594 H   0  0  0  0  0  0  0  0  0  0  0  0  # atno 8009 bound_to 7997
  155.0715  140.0372  157.2600 H   0  0  0  0  0  0  0  0  0  0  0  0  # atno 8010 bound_to 7997
  140.1036  144.4882  150.7022 H   0  0  0  0  0  0  0  0  0  0  0  0  # atno 10167 bound_to 10162
  157.6601  130.9688  150.1242 H   0  0  0  0  0  0  0  0  0  0  0  0  # atno 10718 bound_to 10713
  153.0043  135.6281  154.2124 H   0  0  0  0  0  0  0  0  0  0  0  0  # atno 10763 bound_to 10752
  154.1867  135.2810  155.3037 H   0  0  0  0  0  0  0  0  0  0  0  0  # atno 10764 bound_to 10752
  154.5792  135.5652  153.7228 H   0  0  0  0  0  0  0  0  0  0  0  0  # atno 10765 bound_to 10752
  140.3320  134.7349  157.4141 H   0  0  0  0  0  0  0  0  0  0  0  0  # atno 11005 bound_to 11000
  145.0208  140.8792  143.5168 LP  0  0  0  0  0  0  0  0  0  0  0  0  # atno 17320 bound_to 7965
  145.1507  139.2516  143.5442 LP  0  0  0  0  0  0  0  0  0  0  0  0  # atno 17321 bound_to 7965
  140.6964  143.2407  151.4988 LP  0  0  0  0  0  0  0  0  0  0  0  0  # atno 17342 bound_to 10162
  139.5658  144.2047  152.1762 LP  0  0  0  0  0  0  0  0  0  0  0  0  # atno 17343 bound_to 10162
  156.2105  130.3666  149.8676 LP  0  0  0  0  0  0  0  0  0  0  0  0  # atno 17370 bound_to 10713
  156.6556  130.8761  151.3538 LP  0  0  0  0  0  0  0  0  0  0  0  0  # atno 17371 bound_to 10713
  140.0853  134.5675  155.8499 LP  0  0  0  0  0  0  0  0  0  0  0  0  # atno 17394 bound_to 11000
  141.2061  133.6652  156.6220 LP  0  0  0  0  0  0  0  0  0  0  0  0  # atno 17395 bound_to 11000

$$$$
