#       Name:                AV-unprocessed.smi:1717
#       Creating user name   scv26
#       Creation time:       Fri Mar 27 08:12:38 2020


#       File generated by GOLD software.
#

@<TRIPOS>MOLECULE
AV-unprocessed.smi:1717
    46    47     1
SMALL
NO_CHARGES


@<TRIPOS>ATOM
      1 ****        -4.6019   3.8944  -1.8822 C.3            1 S1                 0.0000
      2 ****        -3.9642   2.6174  -1.5836 N.pl3          1 S1                -1.0000
      3 ****        -3.2286   1.9169  -2.4880 C.2            1 S1                 0.0000
      4 ****        -2.9468   2.1667  -3.6647 O.2            1 S1                 0.0000
      5 ****        -2.6683   0.6314  -1.8683 C.3            1 S1                 0.0000
      6 ****        -1.1926   0.7260  -1.7422 N.4            1 S1                 1.0000
      7 ****        -0.5406  -0.6078  -1.7364 C.3            1 S1                 0.0000
      8 ****         0.9923  -0.4769  -1.7650 C.3            1 S1                 0.0000
      9 ****         1.5219   0.3928  -0.6074 C.3            1 S1                 0.0000
     10 ****         1.4033  -0.2836   0.6842 N.am           1 S1                 0.0000
     11 ****         2.2286  -1.2393   1.1356 C.2            1 S1                 0.0000
     12 ****         3.1773  -1.6798   0.4869 O.2            1 S1                 0.0000
     13 ****         1.8858  -1.6386   2.3709 N.am           1 S1                 0.0000
     14 ****         2.5299  -2.6225   3.1624 C.2            1 S1                 0.0000
     15 ****         3.6352  -3.4622   2.8356 C.2            1 S1                 0.0000
     16 ****         3.9468  -4.2601   3.8473 N.2            1 S1                 0.0000
     17 ****         3.0547  -3.9406   4.8117 N.pl3          1 S1                 0.0000
     18 ****         2.1738  -2.9506   4.4364 C.2            1 S1                 0.0000
     19 ****         0.7755   1.7379  -0.5829 C.3            1 S1                 0.0000
     20 ****        -0.7528   1.5539  -0.5868 C.3            1 S1                 0.0000
     21 ****         3.0600  -4.4029   5.7098 H              1 S1                 0.0000
     22 ****        -5.1526   4.2824  -1.0255 H              1 S1                 0.0000
     23 ****        -5.3169   3.8221  -2.7023 H              1 S1                 0.0000
     24 ****        -3.8803   4.6638  -2.1587 H              1 S1                 0.0000
     25 ****        -3.1210   0.3902  -0.9040 H              1 S1                 0.0000
     26 ****        -2.9327  -0.1836  -2.5434 H              1 S1                 0.0000
     27 ****        -0.8598  -1.1677  -0.8559 H              1 S1                 0.0000
     28 ****        -0.8633  -1.1786  -2.6078 H              1 S1                 0.0000
     29 ****         1.4529  -1.4653  -1.7478 H              1 S1                 0.0000
     30 ****         1.2900  -0.0252  -2.7122 H              1 S1                 0.0000
     31 ****         2.5800   0.5993  -0.7792 H              1 S1                 0.0000
     32 ****         0.6521   0.0163   1.2880 H              1 S1                 0.0000
     33 ****         1.0912  -1.1835   2.7951 H              1 S1                 0.0000
     34 ****         4.2124  -3.5268   1.9255 H              1 S1                 0.0000
     35 ****         1.3977  -2.5800   5.0898 H              1 S1                 0.0000
     36 ****         1.0805   2.3259   0.2837 H              1 S1                 0.0000
     37 ****         1.0624   2.3211  -1.4590 H              1 S1                 0.0000
     38 ****        -1.2235   2.5364  -0.6242 H              1 S1                 0.0000
     39 ****        -1.0816   1.0868   0.3427 H              1 S1                 0.0000
     40 ****        -0.8765   1.1952  -2.5791 H              1 S1                 0.0000
     41 ****        -4.0735   2.2366  -0.6654 LP             1 S1                 0.0000
     42 ****        -3.2808   3.0072  -4.0912 LP             1 S1                 0.0000
     43 ****        -2.3847   1.5283  -4.1906 LP             1 S1                 0.0000
     44 ****         3.3654  -1.3238  -0.4284 LP             1 S1                 0.0000
     45 ****         3.7600  -2.3938   0.8752 LP             1 S1                 0.0000
     46 ****         4.6760  -4.9432   3.8880 LP             1 S1                 0.0000
@<TRIPOS>BOND
    1    1    2 1     
    2    1   22 1     
    3    1   23 1     
    4    1   24 1     
    5    2    3 1     
    6    3    4 2     
    7    3    5 1     
    8    5    6 1     
    9    5   25 1     
   10    5   26 1     
   11    6   20 1     
   12    6    7 1     
   13    6   40 1     
   14    7    8 1     
   15    7   27 1     
   16    7   28 1     
   17    8    9 1     
   18    8   29 1     
   19    8   30 1     
   20    9   10 1     
   21    9   19 1     
   22    9   31 1     
   23   10   11 am    
   24   10   32 1     
   25   11   12 2     
   26   11   13 am    
   27   13   14 1     
   28   13   33 1     
   29   14   18 2     
   30   14   15 1     
   31   15   16 2     
   32   15   34 1     
   33   16   17 1     
   34   17   21 1     
   35   17   18 1     
   36   18   35 1     
   37   19   20 1     
   38   19   36 1     
   39   19   37 1     
   40   20   38 1     
   41   20   39 1     
   42    2   41 1     
   43    4   42 1     
   44    4   43 1     
   45   12   44 1     
   46   12   45 1     
   47   16   46 1     
@<TRIPOS>SUBSTRUCTURE
      1 S1             1
@<TRIPOS>SET
LONE_PAIRS      STATIC     ATOMS    <user>   **** ""
6 41 42 43 44 45 46
DONOR_HYDROGENS      STATIC     ATOMS    <user>   **** ""
4 40 32 33 21
ATOM$BLUE        STATIC     ATOMS    COLORGROUP SYSTEM
6 41 42 43 44 45 46
ATOM$RED        STATIC     ATOMS    COLORGROUP SYSTEM
4 40 32 33 21
