AV-unprocessed.smi:667|AV-procd|sdf|3256|dock9
  -GOLD-   22720 0203D 1   1.00000     0.00000
 Structure written by MMmdl.
 48 49  0  0  0  0  0  0  0  0  1 V2000
  151.1908  145.5463  160.2117 C   0  0  0  0  0  0  0  0  0  0  0  0
  151.9887  144.3473  160.6376 C   0  0  0  0  0  0  0  0  0  0  0  0
  152.2978  144.1976  161.9148 N   0  0  0  0  0  0  0  0  0  0  0  0
  153.0011  143.0488  161.9671 N   0  0  0  0  0  0  0  0  0  0  0  0
  153.5080  142.5835  163.2435 C   0  0  0  0  0  0  0  0  0  0  0  0
  153.1330  142.4690  160.7200 C   0  0  0  0  0  0  0  0  0  0  0  0
  153.8642  141.1823  160.5084 C   0  0  0  0  0  0  0  0  0  0  0  0
  152.4972  143.2897  159.8268 C   0  0  0  0  0  0  0  0  0  0  0  0
  152.3599  143.1278  158.3334 C   0  0  0  0  0  0  0  0  0  0  0  0
  151.3433  142.0302  158.0118 C   0  0  0  0  0  0  0  0  0  0  0  0
  150.6221  141.5739  158.8996 O   0  0  0  0  0  0  0  0  0  0  0  0
  151.2914  141.6197  156.7352 N   0  0  0  0  0  0  0  0  0  0  0  0
  150.3702  140.6147  156.2159 C   0  0  0  0  0  0  0  0  0  0  0  0
  150.7257  140.1983  154.7672 C   0  0  1  0  0  0  0  0  0  0  0  0
  151.8457  139.1660  154.7202 C   0  0  0  0  0  0  0  0  0  0  0  0
  151.1094  137.8250  154.7942 C   0  0  0  0  0  0  0  0  0  0  0  0
  149.7322  138.1186  154.5795 O   0  0  0  0  0  0  0  0  0  0  0  0
  149.6179  139.4247  154.0319 C   0  0  1  0  0  0  0  0  0  0  0  0
  148.1740  139.9642  154.1442 C   0  0  0  0  0  0  0  0  0  0  0  0
  147.2279  139.2022  153.2023 C   0  0  0  0  0  0  0  0  0  0  0  0
  148.1043  141.4731  153.8507 C   0  0  0  0  0  0  0  0  0  0  0  0
  150.4869  145.2882  159.4212 H   0  0  0  0  0  0  0  0  0  0  0  0
  151.8428  146.3331  159.8326 H   0  0  0  0  0  0  0  0  0  0  0  0
  150.6144  145.9601  161.0399 H   0  0  0  0  0  0  0  0  0  0  0  0
  154.5873  142.4427  163.1795 H   0  0  0  0  0  0  0  0  0  0  0  0
  153.0387  141.6334  163.5001 H   0  0  0  0  0  0  0  0  0  0  0  0
  153.2939  143.3074  164.0310 H   0  0  0  0  0  0  0  0  0  0  0  0
  153.5777  140.7190  159.5645 H   0  0  0  0  0  0  0  0  0  0  0  0
  153.6454  140.4689  161.3029 H   0  0  0  0  0  0  0  0  0  0  0  0
  154.9411  141.3496  160.4896 H   0  0  0  0  0  0  0  0  0  0  0  0
  152.0543  144.0655  157.8671 H   0  0  0  0  0  0  0  0  0  0  0  0
  153.3104  142.8608  157.8710 H   0  0  0  0  0  0  0  0  0  0  0  0
  151.9227  142.0463  156.0726 H   0  0  0  0  0  0  0  0  0  0  0  0
  150.3997  139.7494  156.8786 H   0  0  0  0  0  0  0  0  0  0  0  0
  149.3551  141.0077  156.2749 H   0  0  0  0  0  0  0  0  0  0  0  0
  151.0027  141.0874  154.1991 H   0  0  0  0  0  0  0  0  0  0  0  0
  152.3711  139.2414  153.7672 H   0  0  0  0  0  0  0  0  0  0  0  0
  152.5877  139.2784  155.5103 H   0  0  0  0  0  0  0  0  0  0  0  0
  151.4753  137.1313  154.0365 H   0  0  0  0  0  0  0  0  0  0  0  0
  151.2273  137.3549  155.7709 H   0  0  0  0  0  0  0  0  0  0  0  0
  149.8845  139.3594  152.9746 H   0  0  0  0  0  0  0  0  0  0  0  0
  147.8132  139.7979  155.1593 H   0  0  0  0  0  0  0  0  0  0  0  0
  147.5315  139.3123  152.1605 H   0  0  0  0  0  0  0  0  0  0  0  0
  146.2051  139.5691  153.2915 H   0  0  0  0  0  0  0  0  0  0  0  0
  147.2112  138.1366  153.4329 H   0  0  0  0  0  0  0  0  0  0  0  0
  148.4519  141.6952  152.8415 H   0  0  0  0  0  0  0  0  0  0  0  0
  148.7155  142.0497  154.5447 H   0  0  0  0  0  0  0  0  0  0  0  0
  147.0825  141.8429  153.9380 H   0  0  0  0  0  0  0  0  0  0  0  0
  1  2  1  0  0  0  0
  1 22  1  0  0  0  0
  1 23  1  0  0  0  0
  1 24  1  0  0  0  0
  2  8  1  0  0  0  0
  2  3  2  0  0  0  0
  3  4  1  0  0  0  0
  4  5  1  0  0  0  0
  4  6  1  0  0  0  0
  5 25  1  0  0  0  0
  5 26  1  0  0  0  0
  5 27  1  0  0  0  0
  6  7  1  0  0  0  0
  6  8  2  0  0  0  0
  7 28  1  0  0  0  0
  7 29  1  0  0  0  0
  7 30  1  0  0  0  0
  8  9  1  0  0  0  0
  9 10  1  0  0  0  0
  9 31  1  0  0  0  0
  9 32  1  0  0  0  0
 10 11  2  0  0  0  0
 10 12  1  0  0  0  0
 12 13  1  0  0  0  0
 12 33  1  0  0  0  0
 13 14  1  0  0  0  0
 13 34  1  0  0  0  0
 13 35  1  0  0  0  0
 14 18  1  0  0  0  0
 14 15  1  0  0  0  0
 14 36  1  0  0  0  0
 15 16  1  0  0  0  0
 15 37  1  0  0  0  0
 15 38  1  0  0  0  0
 16 17  1  0  0  0  0
 16 39  1  0  0  0  0
 16 40  1  0  0  0  0
 17 18  1  0  0  0  0
 18 19  1  0  0  0  0
 18 41  1  0  0  0  0
 19 20  1  0  0  0  0
 19 21  1  0  0  0  0
 19 42  1  0  0  0  0
 20 43  1  0  0  0  0
 20 44  1  0  0  0  0
 20 45  1  0  0  0  0
 21 46  1  0  0  0  0
 21 47  1  0  0  0  0
 21 48  1  0  0  0  0
M  END
> <s_m_source_file>
AV-unprocessed.smi

> <i_m_source_file_index>
667

> <i_lp_mmshare_version>
43012

> <i_f3d_flags>
0

> <s_epik_input>
W0NIM11jMW5uKFtDSDNdKWMoW0NIM10pYzFbQ0gyXUMoPU8pW05IXVtDSDJdW0NAQEhdMltDSDJdW0NIMl1PW0NASF0yW0NIXShbQ0gzXSlbQ0gzXQ==

> <s_epik_cmdline>
J2VwaWtfcHl0aG9uJywgJy1waCcsICc3LjAnLCAnLXRuJywgJzgnLCAnLW1hJywgJzIwMCcsICctbWV0YWxfYmluZGluZycsICctaW1hZScsICc8aW5maWxlLm1hZT4nLCAnLW9tYWUnLCAnPG91dGZpbGUubWFlPic=

> <r_lp_tautomer_probability>
1

> <r_epik_Ionization_Penalty>
0.00315488

> <r_epik_Ionization_Penalty_Charging>
0

> <r_epik_Ionization_Penalty_Neutral>
0.00315488

> <r_epik_State_Penalty>
0.00222269

> <r_epik_Charging_Adjusted_Penalty>
0.00222269

> <i_epik_Tot_Q>
0

> <i_epik_Tot_abs_Q>
0

> <r_epik_Metal_State_Penalty>
-0

> <b_epik_Metal_Only>
0

> <s_lp_Force_Field>
OPLS_2005

> <r_lp_Energy>
16.6838

> <b_lp_Chiralities_Consistent>
1

> <s_lp_Variant>
AV-unprocessed.smi:667-2

> <Gold.Version>
5.8.1

> <Gold.Id.Protein>
6NUR|6NUR_protein|mol2

> <Gold.PLP.Fitness>
49.5659

> <Gold.PLP.PLP>
-50.7244

> <Gold.PLP.part.hbond>
-0.5297

> <Gold.PLP.part.metal>
0.0000

> <Gold.PLP.part.buried>
-0.3049

> <Gold.PLP.part.nonpolar>
-48.4335

> <Gold.PLP.part.repulsive>
0.4795

> <Gold.PLP.ligand.clash>
0.0000

> <Gold.PLP.ligand.torsion>
0.6026

> <Gold.PLP.Chemscore.Hbond>
0.0000

> <Gold.PLP.Chemscore.CHOScore>
0.0000

> <Gold.PLP.Chemscore.Metal>
0.0000

> <Gold.PLP.Chemscore.Internal.Correction>
0.0466

> <Gold.Rescore>
     Score         DG    S(hbond)    S(metal)    S(lipo)     H(rot)  DE(clash)    DE(int)     intcor
     15.50     -17.63       0.00        0.00     137.12       1.52       1.56       0.56       ----

> <Gold.Chemscore.Fitness>
15.5028

> <Gold.Chemscore.DG>
-17.6284

> <Gold.Chemscore.ZeroCoef>
-5.4800

> <Gold.Chemscore.Hbond>
0.0000

> <Gold.Chemscore.Metal>
0.0000

> <Gold.Chemscore.Lipo>
137.1187

> <Gold.Chemscore.Internal_Hbond>
0.0000

> <Gold.Chemscore.DEClash>
1.5641

> <Gold.Chemscore.DEInternal>
0.5614

> <Gold.Chemscore.Rot>
1.5213

> <Gold.Chemscore.Internal.Correction>
   9.000000E+99

> <Gold.Chemscore.Hbond.Weighted>
-0.0000

> <Gold.Chemscore.Metal.Weighted>
-0.0000

> <Gold.Chemscore.Lipo.Weighted>
-16.0429

> <Gold.Chemscore.Internal_Hbond.Weighted>
0.0000

> <Gold.Chemscore.DEClash.Weighted>
1.5641

> <Gold.Chemscore.DEInternal.Weighted>
0.5614

> <Gold.Chemscore.Rot.Weighted>
3.8945

> <Gold.Chemscore.Internal.Correction.Weighted>
   9.000000E+99

> <Gold.Protein.RotatedTorsions>
[ 6907 6896 6895 6894 ] final  161.19 input  -60.11 | X-H torsion
[ 7974 7965 7964 7962 ] final  -26.91 input  175.53 | X-H torsion
[ 8008 7997 7996 7995 ] final  111.03 input   59.86 | X-H torsion
[ 10167 10162 10161 10158 ] final  177.10 input  -65.29 | X-H torsion
[ 10718 10713 10712 10709 ] final -175.50 input   66.30 | X-H torsion
[ 10763 10752 10751 10750 ] final   81.64 input  -60.55 | X-H torsion
[ 11005 11000 10999 10996 ] final  110.44 input  -57.11 | X-H torsion

> <Gold.Protein.ActiveResidues>
 VAL166  LYS551  ARG553  GLY616  TRP617  ASP618  TYR619  PRO620  LYS621  CYS622 
 ASP623  PHE694  ASN695  SER759  ASP760  ASP761  ALA762  ILE779  LEU786  VAL792 
 PHE793  MET794  SER795  GLU796  ALA797  LYS798  CYS799  TRP800  GLU811  SER814 

> <Gold.Protein.RotatedAtoms>
  151.9592  133.3690  159.4028 H   0  0  0  0  0  0  0  0  0  0  0  0  # atno 6907 bound_to 6896
  150.6967  134.4258  159.5235 H   0  0  0  0  0  0  0  0  0  0  0  0  # atno 6908 bound_to 6896
  152.1944  134.8643  160.0565 H   0  0  0  0  0  0  0  0  0  0  0  0  # atno 6909 bound_to 6896
  146.1393  140.5083  142.8659 H   0  0  0  0  0  0  0  0  0  0  0  0  # atno 7974 bound_to 7965
  156.2095  140.3027  155.9700 H   0  0  0  0  0  0  0  0  0  0  0  0  # atno 8008 bound_to 7997
  155.2759  140.0435  157.3028 H   0  0  0  0  0  0  0  0  0  0  0  0  # atno 8009 bound_to 7997
  154.5679  140.2339  155.8244 H   0  0  0  0  0  0  0  0  0  0  0  0  # atno 8010 bound_to 7997
  139.5240  144.2837  152.0524 H   0  0  0  0  0  0  0  0  0  0  0  0  # atno 10167 bound_to 10162
  156.8008  130.9551  151.3118 H   0  0  0  0  0  0  0  0  0  0  0  0  # atno 10718 bound_to 10713
  153.1134  135.4758  154.9074 H   0  0  0  0  0  0  0  0  0  0  0  0  # atno 10763 bound_to 10752
  154.7504  135.3104  154.8570 H   0  0  0  0  0  0  0  0  0  0  0  0  # atno 10764 bound_to 10752
  153.9153  135.6861  153.4803 H   0  0  0  0  0  0  0  0  0  0  0  0  # atno 10765 bound_to 10752
  139.8882  134.9484  156.6279 H   0  0  0  0  0  0  0  0  0  0  0  0  # atno 11005 bound_to 11000
  144.7775  140.5770  143.6628 LP  0  0  0  0  0  0  0  0  0  0  0  0  # atno 17320 bound_to 7965
  145.5083  139.1480  143.3619 LP  0  0  0  0  0  0  0  0  0  0  0  0  # atno 17321 bound_to 7965
  140.2291  144.4387  150.6308 LP  0  0  0  0  0  0  0  0  0  0  0  0  # atno 17342 bound_to 10162
  140.6367  143.2196  151.6379 LP  0  0  0  0  0  0  0  0  0  0  0  0  # atno 17343 bound_to 10162
  157.6554  130.8920  149.9719 LP  0  0  0  0  0  0  0  0  0  0  0  0  # atno 17370 bound_to 10713
  156.1102  130.3650  150.0062 LP  0  0  0  0  0  0  0  0  0  0  0  0  # atno 17371 bound_to 10713
  140.7689  133.8755  155.8476 LP  0  0  0  0  0  0  0  0  0  0  0  0  # atno 17394 bound_to 11000
  140.9859  134.1343  157.4452 LP  0  0  0  0  0  0  0  0  0  0  0  0  # atno 17395 bound_to 11000

$$$$
