#       Name:                AV-unprocessed.smi:3147
#       Creating user name   scv26
#       Creation time:       Fri Mar 27 17:39:31 2020


#       File generated by GOLD software.
#

@<TRIPOS>MOLECULE
AV-unprocessed.smi:3147
    41    42     1
SMALL
NO_CHARGES


@<TRIPOS>ATOM
      1 ****        -5.0632  -1.7964  -1.8051 C.3            1 S1                 0.0000
      2 ****        -3.7396  -1.1078  -1.7871 C.2            1 S1                 0.0000
      3 ****        -3.6371   0.2567  -1.7179 N.pl3          1 S1                 1.0000
      4 ****        -2.3575   0.6320  -1.7127 C.2            1 S1                 0.0000
      5 ****        -1.6272  -0.4863  -1.7800 N.pl3          1 S1                 0.0000
      6 ****        -0.1563  -0.4501  -1.7828 C.3            1 S1                 0.0000
      7 ****         0.4423  -0.5319  -0.3734 C.2            1 S1                 0.0000
      8 ****        -0.2578  -0.8238   0.5974 O.2            1 S1                 0.0000
      9 ****         1.7535  -0.2670  -0.2785 N.am           1 S1                 0.0000
     10 ****         2.5215  -0.2703   0.9616 C.3            1 S1                 0.0000
     11 ****         2.3100   1.0245   1.7644 C.3            1 S1                 0.0000
     12 ****         3.0623   1.0544   3.0923 C.3            1 S1                 0.0000
     13 ****         3.1480   2.5404   3.3557 C.3            1 S1                 0.0000
     14 ****         3.3660   3.1031   1.9529 C.3            1 S1                 0.0000
     15 ****         2.8092   2.1509   1.0487 O.3            1 S1                 0.0000
     16 ****        -2.4504  -1.5898  -1.8257 C.2            1 S1                 0.0000
     17 ****        -1.9273  -2.9884  -1.8978 C.3            1 S1                 0.0000
     18 ****        -4.9372  -2.8779  -1.8489 H              1 S1                 0.0000
     19 ****        -5.6400  -1.4808  -2.6747 H              1 S1                 0.0000
     20 ****        -5.6267  -1.5513  -0.9045 H              1 S1                 0.0000
     21 ****        -1.9870   1.6402  -1.6597 H              1 S1                 0.0000
     22 ****         0.2105  -1.2785  -2.3896 H              1 S1                 0.0000
     23 ****         0.1636   0.4726  -2.2698 H              1 S1                 0.0000
     24 ****         2.2562  -0.0346  -1.1230 H              1 S1                 0.0000
     25 ****         2.2457  -1.1375   1.5639 H              1 S1                 0.0000
     26 ****         3.5764  -0.3898   0.7126 H              1 S1                 0.0000
     27 ****         1.2486   1.1887   1.9572 H              1 S1                 0.0000
     28 ****         2.5496   0.5080   3.8844 H              1 S1                 0.0000
     29 ****         4.0636   0.6363   2.9791 H              1 S1                 0.0000
     30 ****         2.2024   2.9014   3.7622 H              1 S1                 0.0000
     31 ****         3.9431   2.8089   4.0517 H              1 S1                 0.0000
     32 ****         2.9053   4.0837   1.8292 H              1 S1                 0.0000
     33 ****         4.4309   3.2009   1.7397 H              1 S1                 0.0000
     34 ****        -2.7296  -3.7098  -1.7471 H              1 S1                 0.0000
     35 ****        -1.1736  -3.1530  -1.1275 H              1 S1                 0.0000
     36 ****        -1.4766  -3.1715  -2.8732 H              1 S1                 0.0000
     37 ****        -4.4216   0.8949  -1.6727 H              1 S1                 0.0000
     38 ****        -1.2321  -1.0117   0.4728 LP             1 S1                 0.0000
     39 ****         0.1482  -0.8729   1.5099 LP             1 S1                 0.0000
     40 ****         2.0610   2.5769   0.5400 LP             1 S1                 0.0000
     41 ****         3.5170   1.8490   0.4100 LP             1 S1                 0.0000
@<TRIPOS>BOND
    1    1    2 1     
    2    1   18 1     
    3    1   19 1     
    4    1   20 1     
    5    2   16 2     
    6    2    3 1     
    7    3    4 2     
    8    3   37 1     
    9    4    5 1     
   10    4   21 1     
   11    5    6 1     
   12    5   16 1     
   13    6    7 1     
   14    6   22 1     
   15    6   23 1     
   16    7    8 2     
   17    7    9 am    
   18    9   10 1     
   19    9   24 1     
   20   10   11 1     
   21   10   25 1     
   22   10   26 1     
   23   11   15 1     
   24   11   12 1     
   25   11   27 1     
   26   12   13 1     
   27   12   28 1     
   28   12   29 1     
   29   13   14 1     
   30   13   30 1     
   31   13   31 1     
   32   14   15 1     
   33   14   32 1     
   34   14   33 1     
   35   16   17 1     
   36   17   34 1     
   37   17   35 1     
   38   17   36 1     
   39    8   38 1     
   40    8   39 1     
   41   15   40 1     
   42   15   41 1     
@<TRIPOS>SUBSTRUCTURE
      1 S1             1
@<TRIPOS>SET
LONE_PAIRS      STATIC     ATOMS    <user>   **** ""
4 38 39 40 41
DONOR_HYDROGENS      STATIC     ATOMS    <user>   **** ""
2 37 24
ATOM$BLUE        STATIC     ATOMS    COLORGROUP SYSTEM
4 38 39 40 41
ATOM$RED        STATIC     ATOMS    COLORGROUP SYSTEM
2 37 24
