AV-unprocessed.smi:916|AV-procd|sdf|4159|dock1
  -GOLD-   22720 2 63D 1   1.00000     0.00000
 Structure written by MMmdl.
 43 44  0  0  0  0  0  0  0  0  1 V2000
  145.6497  130.7099  151.4358 C   0  0  0  0  0  0  0  0  0  0  0  0
  144.8342  131.6729  150.5657 C   0  0  0  0  0  0  0  0  0  0  0  0
  144.6598  133.0143  151.2111 C   0  0  0  0  0  0  0  0  0  0  0  0
  143.4741  133.6161  151.5554 C   0  0  0  0  0  0  0  0  0  0  0  0
  143.7214  135.1803  152.2845 S   0  0  0  0  0  0  0  0  0  0  0  0
  145.4521  134.9552  152.0868 C   0  0  0  0  0  0  0  0  0  0  0  0
  146.3898  135.9363  152.5026 N   0  0  0  0  0  0  0  0  0  0  0  0
  146.1973  136.9621  153.3504 C   0  0  0  0  0  0  0  0  0  0  0  0
  145.1434  137.2165  153.9342 O   0  0  0  0  0  0  0  0  0  0  0  0
  147.3122  137.6914  153.4913 N   0  0  0  0  0  0  0  0  0  0  0  0
  147.4199  138.8748  154.3355 C   0  0  0  0  0  0  0  0  0  0  0  0
  148.0785  140.0503  153.5775 C   0  0  1  0  0  0  0  0  0  0  0  0
  147.0979  141.1786  153.2849 C   0  0  0  0  0  0  0  0  0  0  0  0
  147.1661  142.0477  154.5429 C   0  0  0  0  0  0  0  0  0  0  0  0
  148.3426  141.6451  155.2381 O   0  0  0  0  0  0  0  0  0  0  0  0
  149.1333  140.8230  154.3892 C   0  0  1  0  0  0  0  0  0  0  0  0
  150.1598  139.9965  155.1972 C   0  0  0  0  0  0  0  0  0  0  0  0
  151.2095  140.9093  155.8517 C   0  0  0  0  0  0  0  0  0  0  0  0
  150.8571  138.9405  154.3227 C   0  0  0  0  0  0  0  0  0  0  0  0
  145.7820  133.7887  151.5213 N   0  0  0  0  0  0  0  0  0  0  0  0
  145.7666  129.7450  150.9422 H   0  0  0  0  0  0  0  0  0  0  0  0
  145.1611  130.5357  152.3949 H   0  0  0  0  0  0  0  0  0  0  0  0
  146.6459  131.1061  151.6344 H   0  0  0  0  0  0  0  0  0  0  0  0
  145.3256  131.7845  149.5986 H   0  0  0  0  0  0  0  0  0  0  0  0
  143.8596  131.2310  150.3557 H   0  0  0  0  0  0  0  0  0  0  0  0
  142.4724  133.2345  151.4245 H   0  0  0  0  0  0  0  0  0  0  0  0
  147.3148  135.8459  152.1091 H   0  0  0  0  0  0  0  0  0  0  0  0
  148.1368  137.4159  152.9787 H   0  0  0  0  0  0  0  0  0  0  0  0
  146.4305  139.1617  154.6964 H   0  0  0  0  0  0  0  0  0  0  0  0
  148.0104  138.6035  155.2106 H   0  0  0  0  0  0  0  0  0  0  0  0
  148.5129  139.6726  152.6509 H   0  0  0  0  0  0  0  0  0  0  0  0
  147.4508  141.7533  152.4274 H   0  0  0  0  0  0  0  0  0  0  0  0
  146.0847  140.8461  153.0583 H   0  0  0  0  0  0  0  0  0  0  0  0
  147.2086  143.1078  154.2918 H   0  0  0  0  0  0  0  0  0  0  0  0
  146.3009  141.8850  155.1860 H   0  0  0  0  0  0  0  0  0  0  0  0
  149.6751  141.4854  153.7107 H   0  0  0  0  0  0  0  0  0  0  0  0
  149.6400  139.4805  156.0046 H   0  0  0  0  0  0  0  0  0  0  0  0
  151.7676  141.4729  155.1035 H   0  0  0  0  0  0  0  0  0  0  0  0
  151.9258  140.3296  156.4345 H   0  0  0  0  0  0  0  0  0  0  0  0
  150.7451  141.6259  156.5297 H   0  0  0  0  0  0  0  0  0  0  0  0
  151.3989  139.4060  153.4988 H   0  0  0  0  0  0  0  0  0  0  0  0
  150.1451  138.2358  153.8937 H   0  0  0  0  0  0  0  0  0  0  0  0
  151.5738  138.3609  154.9048 H   0  0  0  0  0  0  0  0  0  0  0  0
  1  2  1  0  0  0  0
  1 21  1  0  0  0  0
  1 22  1  0  0  0  0
  1 23  1  0  0  0  0
  2  3  1  0  0  0  0
  2 24  1  0  0  0  0
  2 25  1  0  0  0  0
  3 20  1  0  0  0  0
  3  4  2  0  0  0  0
  4  5  1  0  0  0  0
  4 26  1  0  0  0  0
  5  6  1  0  0  0  0
  6  7  1  0  0  0  0
  6 20  2  0  0  0  0
  7  8  1  0  0  0  0
  7 27  1  0  0  0  0
  8  9  2  0  0  0  0
  8 10  1  0  0  0  0
 10 11  1  0  0  0  0
 10 28  1  0  0  0  0
 11 12  1  0  0  0  0
 11 29  1  0  0  0  0
 11 30  1  0  0  0  0
 12 16  1  0  0  0  0
 12 13  1  0  0  0  0
 12 31  1  0  0  0  0
 13 14  1  0  0  0  0
 13 32  1  0  0  0  0
 13 33  1  0  0  0  0
 14 15  1  0  0  0  0
 14 34  1  0  0  0  0
 14 35  1  0  0  0  0
 15 16  1  0  0  0  0
 16 17  1  0  0  0  0
 16 36  1  0  0  0  0
 17 18  1  0  0  0  0
 17 19  1  0  0  0  0
 17 37  1  0  0  0  0
 18 38  1  0  0  0  0
 18 39  1  0  0  0  0
 18 40  1  0  0  0  0
 19 41  1  0  0  0  0
 19 42  1  0  0  0  0
 19 43  1  0  0  0  0
M  END
> <s_m_source_file>
AV-unprocessed.smi

> <i_m_source_file_index>
916

> <i_lp_mmshare_version>
43012

> <i_f3d_flags>
0

> <s_epik_input>
W0NIM11bQ0gyXWMxW2NIXXNjKG4xKVtOSF1DKD1PKVtOSF1bQ0gyXVtDQEBIXTJbQ0gyXVtDSDJdT1tDQEhdMltDSF0oW0NIM10pW0NIM10=

> <s_epik_cmdline>
J2VwaWtfcHl0aG9uJywgJy1waCcsICc3LjAnLCAnLXRuJywgJzgnLCAnLW1hJywgJzIwMCcsICctbWV0YWxfYmluZGluZycsICctaW1hZScsICc8aW5maWxlLm1hZT4nLCAnLW9tYWUnLCAnPG91dGZpbGUubWFlPic=

> <r_lp_tautomer_probability>
0.999

> <r_epik_Ionization_Penalty>
0.000518907

> <r_epik_Ionization_Penalty_Charging>
0

> <r_epik_Ionization_Penalty_Neutral>
0.000518907

> <r_epik_State_Penalty>
0.000177984

> <r_epik_Charging_Adjusted_Penalty>
0.000177984

> <i_epik_Tot_Q>
0

> <i_epik_Tot_abs_Q>
0

> <r_epik_Metal_State_Penalty>
-0

> <b_epik_Metal_Only>
0

> <s_lp_Force_Field>
OPLS_2005

> <r_lp_Energy>
19.5432

> <b_lp_Chiralities_Consistent>
1

> <s_lp_Variant>
AV-unprocessed.smi:916-2

> <Gold.Version>
5.8.1

> <Gold.Id.Protein>
6NUR|6NUR_protein|mol2

> <Gold.PLP.Fitness>
41.9405

> <Gold.PLP.PLP>
-35.2383

> <Gold.PLP.part.hbond>
-2.0000

> <Gold.PLP.part.metal>
0.0000

> <Gold.PLP.part.buried>
-2.9351

> <Gold.PLP.part.nonpolar>
-30.2241

> <Gold.PLP.part.repulsive>
0.4084

> <Gold.PLP.ligand.clash>
0.0000

> <Gold.PLP.ligand.torsion>
0.8475

> <Gold.PLP.Chemscore.Hbond>
2.0000

> <Gold.PLP.Chemscore.CHOScore>
0.7754

> <Gold.PLP.Chemscore.Metal>
0.0000

> <Gold.Chemscore.Hbonds>
donor molecule, donor type, donor heavy atom, donor atom, acceptor molecule, acceptor atom, score
      L1  H     7    27       P1  7948  1.00
      L1  H    10    28       P1  7948  0.99
      L1  C     4    26       P1 10186  0.52

> <Gold.PLP.Chemscore.Internal.Correction>
0.0708

> <Gold.Rescore>
     Score         DG    S(hbond)    S(metal)    S(lipo)     H(rot)  DE(clash)    DE(int)     intcor
     16.38     -18.65       1.93        0.00      90.81       1.52       0.22       2.05       ----

> <Gold.Chemscore.Fitness>
16.3783

> <Gold.Chemscore.DG>
-18.6467

> <Gold.Chemscore.ZeroCoef>
-5.4800

> <Gold.Chemscore.Hbond>
1.9291

> <Gold.Chemscore.Metal>
0.0000

> <Gold.Chemscore.Lipo>
90.8073

> <Gold.Chemscore.Internal_Hbond>
0.0000

> <Gold.Chemscore.DEClash>
0.2168

> <Gold.Chemscore.DEInternal>
2.0516

> <Gold.Chemscore.Rot>
1.5238

> <Gold.Chemscore.Internal.Correction>
   9.000000E+99

> <Gold.Chemscore.Hbonds>
donor molecule, donor type, donor heavy atom, donor atom, acceptor molecule, acceptor atom, score
      L1  H     7    27       P1  7948  0.99
      L1  H    10    28       P1  7948  0.94

> <Gold.Chemscore.Hbond.Weighted>
-6.4431

> <Gold.Chemscore.Metal.Weighted>
-0.0000

> <Gold.Chemscore.Lipo.Weighted>
-10.6245

> <Gold.Chemscore.Internal_Hbond.Weighted>
0.0000

> <Gold.Chemscore.DEClash.Weighted>
0.2168

> <Gold.Chemscore.DEInternal.Weighted>
2.0516

> <Gold.Chemscore.Rot.Weighted>
3.9008

> <Gold.Chemscore.Internal.Correction.Weighted>
   9.000000E+99

> <Gold.Protein.RotatedTorsions>
[ 6907 6896 6895 6894 ] final  -93.57 input  -60.11 | X-H torsion
[ 7974 7965 7964 7962 ] final  151.82 input  175.53 | X-H torsion
[ 8008 7997 7996 7995 ] final  -79.85 input   59.86 | X-H torsion
[ 10167 10162 10161 10158 ] final   38.73 input  -65.29 | X-H torsion
[ 10718 10713 10712 10709 ] final -149.52 input   66.30 | X-H torsion
[ 10763 10752 10751 10750 ] final   68.91 input  -60.55 | X-H torsion
[ 11005 11000 10999 10996 ] final   38.67 input  -57.11 | X-H torsion

> <Gold.Protein.ActiveResidues>
 VAL166  LYS551  ARG553  GLY616  TRP617  ASP618  TYR619  PRO620  LYS621  CYS622 
 ASP623  PHE694  ASN695  SER759  ASP760  ASP761  ALA762  ILE779  LEU786  VAL792 
 PHE793  MET794  SER795  GLU796  ALA797  LYS798  CYS799  TRP800  GLU811  SER814 

> <Gold.Protein.RotatedAtoms>
  150.6925  134.1946  159.4298 H   0  0  0  0  0  0  0  0  0  0  0  0  # atno 6907 bound_to 6896
  151.9915  134.9974  160.0571 H   0  0  0  0  0  0  0  0  0  0  0  0  # atno 6908 bound_to 6896
  152.1663  133.4579  159.4923 H   0  0  0  0  0  0  0  0  0  0  0  0  # atno 6909 bound_to 6896
  144.8266  139.6587  143.6077 H   0  0  0  0  0  0  0  0  0  0  0  0  # atno 7974 bound_to 7965
  154.5826  140.0672  156.9125 H   0  0  0  0  0  0  0  0  0  0  0  0  # atno 8008 bound_to 7997
  155.2436  140.3346  155.4271 H   0  0  0  0  0  0  0  0  0  0  0  0  # atno 8009 bound_to 7997
  156.2200  140.1794  156.7485 H   0  0  0  0  0  0  0  0  0  0  0  0  # atno 8010 bound_to 7997
  140.3908  144.1855  150.6131 H   0  0  0  0  0  0  0  0  0  0  0  0  # atno 10167 bound_to 10162
  156.4342  130.8090  151.2318 H   0  0  0  0  0  0  0  0  0  0  0  0  # atno 10718 bound_to 10713
  153.0259  135.5230  154.7207 H   0  0  0  0  0  0  0  0  0  0  0  0  # atno 10763 bound_to 10752
  154.6263  135.2895  155.0270 H   0  0  0  0  0  0  0  0  0  0  0  0  # atno 10764 bound_to 10752
  154.1238  135.6603  153.4961 H   0  0  0  0  0  0  0  0  0  0  0  0  # atno 10765 bound_to 10752
  140.2104  134.3763  155.8052 H   0  0  0  0  0  0  0  0  0  0  0  0  # atno 11005 bound_to 11000
  146.2570  139.6326  142.9388 LP  0  0  0  0  0  0  0  0  0  0  0  0  # atno 17320 bound_to 7965
  145.4988  141.0438  143.2552 LP  0  0  0  0  0  0  0  0  0  0  0  0  # atno 17321 bound_to 7965
  140.4841  143.2369  151.8913 LP  0  0  0  0  0  0  0  0  0  0  0  0  # atno 17342 bound_to 10162
  139.4789  144.5237  151.8765 LP  0  0  0  0  0  0  0  0  0  0  0  0  # atno 17343 bound_to 10162
  157.7507  131.0189  150.3644 LP  0  0  0  0  0  0  0  0  0  0  0  0  # atno 17370 bound_to 10713
  156.3988  130.3912  149.6975 LP  0  0  0  0  0  0  0  0  0  0  0  0  # atno 17371 bound_to 10713
  141.2226  133.7140  156.8407 LP  0  0  0  0  0  0  0  0  0  0  0  0  # atno 17394 bound_to 11000
  140.1957  134.8933  157.3112 LP  0  0  0  0  0  0  0  0  0  0  0  0  # atno 17395 bound_to 11000

$$$$
