AV-unprocessed.smi:2095|AV-procd|sdf|8554|dock8
  -GOLD-   2272011273D 1   1.00000     0.00000
 Structure written by MMmdl.
 42 43  0  0  0  0  0  0  0  0  2 V2000
  144.3086  135.4820  150.7280 C   0  0  0  0  0  0  0  0  0  0  0  0
  145.6684  134.9298  151.1794 C   0  0  2  0  0  0  0  0  0  0  0  0
  145.8705  133.4853  150.6989 C   0  0  0  0  0  0  0  0  0  0  0  0
  147.2213  132.9565  151.1877 C   0  0  0  0  0  0  0  0  0  0  0  0
  147.3317  133.0804  152.7140 C   0  0  0  0  0  0  0  0  0  0  0  0
  147.1537  134.4901  153.1661 N   0  3  2  0  0  0  0  0  0  0  0  0
  147.4643  134.6539  154.6257 C   0  0  2  0  0  0  0  0  0  0  0  0
  146.6956  133.6753  155.5494 C   0  0  0  0  0  0  0  0  0  0  0  0
  147.2143  136.1239  155.0526 C   0  0  0  0  0  0  0  0  0  0  0  0
  148.1094  137.0576  154.3753 N   0  0  0  0  0  0  0  0  0  0  0  0
  148.8734  137.9842  154.9761 C   0  0  0  0  0  0  0  0  0  0  0  0
  148.8507  138.2055  156.1860 O   0  0  0  0  0  0  0  0  0  0  0  0
  149.8339  138.7601  154.0748 C   0  0  0  0  0  0  0  0  0  0  0  0
  151.1966  138.6418  154.5603 N   0  0  0  0  0  0  0  0  0  0  0  0
  151.9726  137.5714  154.7418 C   0  0  0  0  0  0  0  0  0  0  0  0
  153.1525  137.9019  155.2434 N   0  0  0  0  0  0  0  0  0  0  0  0
  153.0684  139.2791  155.3639 N   0  0  0  0  0  0  0  0  0  0  0  0
  151.9100  139.7238  154.9607 N   0  0  0  0  0  0  0  0  0  0  0  0
  145.8358  135.0253  152.7110 C   0  0  0  0  0  0  0  0  0  0  0  0
  143.4858  134.9053  151.1516 H   0  0  0  0  0  0  0  0  0  0  0  0
  144.2126  135.4501  149.6422 H   0  0  0  0  0  0  0  0  0  0  0  0
  144.1818  136.5195  151.0385 H   0  0  0  0  0  0  0  0  0  0  0  0
  146.4411  135.5478  150.7191 H   0  0  0  0  0  0  0  0  0  0  0  0
  145.0676  132.8491  151.0745 H   0  0  0  0  0  0  0  0  0  0  0  0
  145.8250  133.4369  149.6102 H   0  0  0  0  0  0  0  0  0  0  0  0
  147.3417  131.9145  150.8890 H   0  0  0  0  0  0  0  0  0  0  0  0
  148.0314  133.5114  150.7123 H   0  0  0  0  0  0  0  0  0  0  0  0
  146.5801  132.4496  153.1919 H   0  0  0  0  0  0  0  0  0  0  0  0
  148.3007  132.6896  153.0191 H   0  0  0  0  0  0  0  0  0  0  0  0
  148.5240  134.4314  154.7635 H   0  0  0  0  0  0  0  0  0  0  0  0
  146.9612  133.8137  156.5970 H   0  0  0  0  0  0  0  0  0  0  0  0
  146.9293  132.6336  155.3302 H   0  0  0  0  0  0  0  0  0  0  0  0
  145.6166  133.8115  155.4673 H   0  0  0  0  0  0  0  0  0  0  0  0
  146.2023  136.4412  154.8080 H   0  0  0  0  0  0  0  0  0  0  0  0
  147.2987  136.2115  156.1370 H   0  0  0  0  0  0  0  0  0  0  0  0
  148.1918  136.9588  153.3736 H   0  0  0  0  0  0  0  0  0  0  0  0
  149.7845  138.3761  153.0549 H   0  0  0  0  0  0  0  0  0  0  0  0
  149.5546  139.8144  154.0393 H   0  0  0  0  0  0  0  0  0  0  0  0
  151.6708  136.5582  154.5208 H   0  0  0  0  0  0  0  0  0  0  0  0
  145.7417  136.0788  152.9722 H   0  0  0  0  0  0  0  0  0  0  0  0
  145.0304  134.4906  153.2175 H   0  0  0  0  0  0  0  0  0  0  0  0
  147.8453  135.0412  152.6778 H   0  0  0  0  0  0  0  0  0  0  0  0
  1  2  1  0  0  0  0
  1 20  1  0  0  0  0
  1 21  1  0  0  0  0
  1 22  1  0  0  0  0
  2 19  1  0  0  0  0
  2  3  1  0  0  0  0
  2 23  1  0  0  0  0
  3  4  1  0  0  0  0
  3 24  1  0  0  0  0
  3 25  1  0  0  0  0
  4  5  1  0  0  0  0
  4 26  1  0  0  0  0
  4 27  1  0  0  0  0
  5  6  1  0  0  0  0
  5 28  1  0  0  0  0
  5 29  1  0  0  0  0
  6  7  1  0  0  0  0
  6 19  1  0  0  0  0
  6 42  1  0  0  0  0
  7  8  1  0  0  0  0
  7  9  1  0  0  0  0
  7 30  1  0  0  0  0
  8 31  1  0  0  0  0
  8 32  1  0  0  0  0
  8 33  1  0  0  0  0
  9 10  1  0  0  0  0
  9 34  1  0  0  0  0
  9 35  1  0  0  0  0
 10 11  1  0  0  0  0
 10 36  1  0  0  0  0
 11 12  2  0  0  0  0
 11 13  1  0  0  0  0
 13 14  1  0  0  0  0
 13 37  1  0  0  0  0
 13 38  1  0  0  0  0
 14 18  1  0  0  0  0
 14 15  1  0  0  0  0
 15 16  2  0  0  0  0
 15 39  1  0  0  0  0
 16 17  1  0  0  0  0
 17 18  2  0  0  0  0
 19 40  1  0  0  0  0
 19 41  1  0  0  0  0
M  CHG  1   6   1
M  END
> <s_m_source_file>
AV-unprocessed.smi

> <i_m_source_file_index>
2095

> <i_lp_mmshare_version>
43012

> <i_f3d_flags>
0

> <s_epik_input>
W0NIM11bQ0BASF0xW0NIMl1bQ0gyXVtDSDJdTihbQ0gyXTEpW0NASF0oW0NIM10pW0NIMl1bTkhdQyg9TylbQ0gyXW4yW2NIXW5ubjI=

> <s_epik_cmdline>
J2VwaWtfcHl0aG9uJywgJy1waCcsICc3LjAnLCAnLXRuJywgJzgnLCAnLW1hJywgJzIwMCcsICctbWV0YWxfYmluZGluZycsICctaW1hZScsICc8aW5maWxlLm1hZT4nLCAnLW9tYWUnLCAnPG91dGZpbGUubWFlPic=

> <r_lp_tautomer_probability>
1

> <r_epik_Ionization_Penalty>
0.00268321

> <r_epik_Ionization_Penalty_Charging>
0.00267875

> <r_epik_Ionization_Penalty_Neutral>
4.46125e-06

> <r_epik_State_Penalty>
0.00186642

> <r_epik_Charging_Adjusted_Penalty>
0.00454517

> <i_epik_Tot_Q>
1

> <i_epik_Tot_abs_Q>
1

> <r_epik_Metal_State_Penalty>
-0

> <b_epik_Metal_Only>
0

> <s_lp_Force_Field>
OPLS_2005

> <r_lp_Energy>
25.312

> <b_lp_Chiralities_Consistent>
1

> <s_lp_Variant>
AV-unprocessed.smi:2095-1

> <Gold.Version>
5.8.1

> <Gold.Id.Protein>
6NUR|6NUR_protein|mol2

> <Gold.PLP.Fitness>
42.6335

> <Gold.PLP.PLP>
-27.9432

> <Gold.PLP.part.hbond>
-4.6954

> <Gold.PLP.part.metal>
0.0000

> <Gold.PLP.part.buried>
-2.7161

> <Gold.PLP.part.nonpolar>
-21.1358

> <Gold.PLP.part.repulsive>
0.0629

> <Gold.PLP.ligand.clash>
0.0000

> <Gold.PLP.ligand.torsion>
0.1898

> <Gold.PLP.Chemscore.Hbond>
5.0000

> <Gold.PLP.Chemscore.CHOScore>
0.0000

> <Gold.PLP.Chemscore.Metal>
0.0000

> <Gold.Chemscore.Hbonds>
donor molecule, donor type, donor heavy atom, donor atom, acceptor molecule, acceptor atom, score
      L1  H     6    42       P1  7948  2.00
      L1  H    10    36       P1  7948  1.00
      P1  H  7989  7998       L1    18  0.96
      P1  H  7997  8008       L1    17  1.00

> <Gold.PLP.Chemscore.Internal.Correction>
0.0700

> <Gold.Rescore>
     Score         DG    S(hbond)    S(metal)    S(lipo)     H(rot)  DE(clash)    DE(int)     intcor
     14.93     -15.39       3.46        0.00      43.86       2.64       0.19       0.28       ----

> <Gold.Chemscore.Fitness>
14.9278

> <Gold.Chemscore.DG>
-15.3886

> <Gold.Chemscore.ZeroCoef>
-5.4800

> <Gold.Chemscore.Hbond>
3.4568

> <Gold.Chemscore.Metal>
0.0000

> <Gold.Chemscore.Lipo>
43.8569

> <Gold.Chemscore.Internal_Hbond>
0.0000

> <Gold.Chemscore.DEClash>
0.1852

> <Gold.Chemscore.DEInternal>
0.2755

> <Gold.Chemscore.Rot>
2.6439

> <Gold.Chemscore.Internal.Correction>
   9.000000E+99

> <Gold.Chemscore.Hbonds>
donor molecule, donor type, donor heavy atom, donor atom, acceptor molecule, acceptor atom, score
      L1  H     6    42       P1  7948  0.97
      L1  H    10    36       P1  7948  0.96
      P1  H  7989  7998       L1    18  0.28
      P1  H  7997  8008       L1    17  0.90

> <Gold.Chemscore.Hbond.Weighted>
-11.5458

> <Gold.Chemscore.Metal.Weighted>
-0.0000

> <Gold.Chemscore.Lipo.Weighted>
-5.1313

> <Gold.Chemscore.Internal_Hbond.Weighted>
0.0000

> <Gold.Chemscore.DEClash.Weighted>
0.1852

> <Gold.Chemscore.DEInternal.Weighted>
0.2755

> <Gold.Chemscore.Rot.Weighted>
6.7685

> <Gold.Chemscore.Internal.Correction.Weighted>
   9.000000E+99

> <Gold.Protein.RotatedTorsions>
[ 6907 6896 6895 6894 ] final  166.72 input  -60.11 | X-H torsion
[ 7974 7965 7964 7962 ] final  -96.61 input  175.53 | X-H torsion
[ 8008 7997 7996 7995 ] final  -43.40 input   59.86 | X-H torsion
[ 10167 10162 10161 10158 ] final  -95.87 input  -65.29 | X-H torsion
[ 10718 10713 10712 10709 ] final -143.56 input   66.30 | X-H torsion
[ 10763 10752 10751 10750 ] final    8.65 input  -60.55 | X-H torsion
[ 11005 11000 10999 10996 ] final  129.78 input  -57.11 | X-H torsion

> <Gold.Protein.ActiveResidues>
 VAL166  LYS551  ARG553  GLY616  TRP617  ASP618  TYR619  PRO620  LYS621  CYS622 
 ASP623  PHE694  ASN695  SER759  ASP760  ASP761  ALA762  ILE779  LEU786  VAL792 
 PHE793  MET794  SER795  GLU796  ALA797  LYS798  CYS799  TRP800  GLU811  SER814 

> <Gold.Protein.RotatedAtoms>
  151.8746  133.3482  159.3745 H   0  0  0  0  0  0  0  0  0  0  0  0  # atno 6907 bound_to 6896
  150.7143  134.5079  159.5602 H   0  0  0  0  0  0  0  0  0  0  0  0  # atno 6908 bound_to 6896
  152.2618  134.8026  160.0480 H   0  0  0  0  0  0  0  0  0  0  0  0  # atno 6909 bound_to 6896
  145.3446  140.9466  143.2588 H   0  0  0  0  0  0  0  0  0  0  0  0  # atno 7974 bound_to 7965
  154.3997  140.1449  156.3513 H   0  0  0  0  0  0  0  0  0  0  0  0  # atno 8008 bound_to 7997
  155.8266  140.3467  155.5526 H   0  0  0  0  0  0  0  0  0  0  0  0  # atno 8009 bound_to 7997
  155.8232  140.0901  157.1827 H   0  0  0  0  0  0  0  0  0  0  0  0  # atno 8010 bound_to 7997
  140.2997  143.3170  152.0261 H   0  0  0  0  0  0  0  0  0  0  0  0  # atno 10167 bound_to 10162
  156.3595  130.7730  151.1896 H   0  0  0  0  0  0  0  0  0  0  0  0  # atno 10718 bound_to 10713
  153.2226  135.6883  153.7982 H   0  0  0  0  0  0  0  0  0  0  0  0  # atno 10763 bound_to 10752
  153.7175  135.3272  155.3260 H   0  0  0  0  0  0  0  0  0  0  0  0  # atno 10764 bound_to 10752
  154.8277  135.4605  154.1080 H   0  0  0  0  0  0  0  0  0  0  0  0  # atno 10765 bound_to 10752
  139.9635  134.9596  156.9199 H   0  0  0  0  0  0  0  0  0  0  0  0  # atno 11005 bound_to 11000
  144.8764  139.4966  143.6744 LP  0  0  0  0  0  0  0  0  0  0  0  0  # atno 17320 bound_to 7965
  146.2993  139.7376  142.9103 LP  0  0  0  0  0  0  0  0  0  0  0  0  # atno 17321 bound_to 7965
  139.4918  144.6465  151.6768 LP  0  0  0  0  0  0  0  0  0  0  0  0  # atno 17342 bound_to 10162
  140.5662  144.0186  150.6193 LP  0  0  0  0  0  0  0  0  0  0  0  0  # atno 17343 bound_to 10162
  157.7471  131.0404  150.4597 LP  0  0  0  0  0  0  0  0  0  0  0  0  # atno 17370 bound_to 10713
  156.4805  130.4073  149.6464 LP  0  0  0  0  0  0  0  0  0  0  0  0  # atno 17371 bound_to 10713
  140.5448  134.0685  155.7352 LP  0  0  0  0  0  0  0  0  0  0  0  0  # atno 17394 bound_to 11000
  141.1313  133.9296  157.2528 LP  0  0  0  0  0  0  0  0  0  0  0  0  # atno 17395 bound_to 11000

$$$$
