AV-unprocessed.smi:890|AV-procd|sdf|4061|dock6
  -GOLD-   22720 1553D 1   1.00000     0.00000
 Structure written by MMmdl.
 53 56  0  0  0  0  0  0  0  0  3 V2000
  149.6660  137.5756  156.1825 O   0  0  0  0  0  0  0  0  0  0  0  0
  149.5153  137.2831  154.9976 C   0  0  0  0  0  0  0  0  0  0  0  0
  149.4928  136.0381  154.4907 N   0  0  0  0  0  0  0  0  0  0  0  0
  149.6450  134.7757  155.1396 C   0  0  0  0  0  0  0  0  0  0  0  0
  150.5437  134.5389  156.2134 C   0  0  0  0  0  0  0  0  0  0  0  0
  150.6259  133.2548  156.7877 C   0  0  0  0  0  0  0  0  0  0  0  0
  149.8129  132.2238  156.2843 C   0  0  0  0  0  0  0  0  0  0  0  0
  148.9692  132.4780  155.2633 N   0  3  0  0  0  0  0  0  0  0  0  0
  148.8505  133.6942  154.6765 C   0  0  0  0  0  0  0  0  0  0  0  0
  147.9426  133.8469  153.6138 N   0  0  0  0  0  0  0  0  0  0  0  0
  146.5393  133.6737  153.9511 C   0  0  0  0  0  0  0  0  0  0  0  0
  145.8174  133.5043  152.6117 C   0  0  0  0  0  0  0  0  0  0  0  0
  146.9059  133.0490  151.6314 C   0  0  0  0  0  0  0  0  0  0  0  0
  148.1883  132.9905  152.4658 C   0  0  0  0  0  0  0  0  0  0  0  0
  149.3497  138.1969  154.0304 N   0  0  0  0  0  0  0  0  0  0  0  0
  149.3293  139.6432  154.2315 C   0  0  2  0  0  0  0  0  0  0  0  0
  150.4272  140.0434  155.2320 C   0  0  0  0  0  0  0  0  0  0  0  0
  150.3713  141.5490  155.5542 C   0  0  0  0  0  0  0  0  0  0  0  0
  149.0322  141.9661  156.0432 N   0  3  2  0  0  0  0  0  0  0  0  0
  148.7533  141.5316  157.4325 C   0  0  0  0  0  0  0  0  0  0  0  0
  147.6442  142.3098  158.1012 C   0  0  0  0  0  0  0  0  0  0  0  0
  149.0861  142.5766  158.4716 C   0  0  0  0  0  0  0  0  0  0  0  0
  147.9543  141.6072  155.0866 C   0  0  0  0  0  0  0  0  0  0  0  0
  147.9533  140.1039  154.7508 C   0  0  0  0  0  0  0  0  0  0  0  0
  149.3468  135.9819  153.4935 H   0  0  0  0  0  0  0  0  0  0  0  0
  151.1814  135.3072  156.6183 H   0  0  0  0  0  0  0  0  0  0  0  0
  151.3071  133.0647  157.6045 H   0  0  0  0  0  0  0  0  0  0  0  0
  149.8123  131.2120  156.6628 H   0  0  0  0  0  0  0  0  0  0  0  0
  146.3977  132.7844  154.5667 H   0  0  0  0  0  0  0  0  0  0  0  0
  146.1601  134.5324  154.5062 H   0  0  0  0  0  0  0  0  0  0  0  0
  144.9985  132.7880  152.6852 H   0  0  0  0  0  0  0  0  0  0  0  0
  145.3974  134.4560  152.2837 H   0  0  0  0  0  0  0  0  0  0  0  0
  146.6787  132.0840  151.1779 H   0  0  0  0  0  0  0  0  0  0  0  0
  147.0088  133.7777  150.8263 H   0  0  0  0  0  0  0  0  0  0  0  0
  149.0537  133.3323  151.8973 H   0  0  0  0  0  0  0  0  0  0  0  0
  148.3799  131.9662  152.7882 H   0  0  0  0  0  0  0  0  0  0  0  0
  149.2286  137.8690  153.0833 H   0  0  0  0  0  0  0  0  0  0  0  0
  149.5364  140.1394  153.2812 H   0  0  0  0  0  0  0  0  0  0  0  0
  150.3232  139.4661  156.1517 H   0  0  0  0  0  0  0  0  0  0  0  0
  151.4084  139.7939  154.8264 H   0  0  0  0  0  0  0  0  0  0  0  0
  151.1340  141.8097  156.2889 H   0  0  0  0  0  0  0  0  0  0  0  0
  150.6032  142.1224  154.6558 H   0  0  0  0  0  0  0  0  0  0  0  0
  148.8907  140.4752  157.6551 H   0  0  0  0  0  0  0  0  0  0  0  0
  147.1256  143.0720  157.5226 H   0  0  0  0  0  0  0  0  0  0  0  0
  147.0321  141.7833  158.8308 H   0  0  0  0  0  0  0  0  0  0  0  0
  149.4228  142.2276  159.4458 H   0  0  0  0  0  0  0  0  0  0  0  0
  149.5244  143.5154  158.1373 H   0  0  0  0  0  0  0  0  0  0  0  0
  146.9856  141.9086  155.4868 H   0  0  0  0  0  0  0  0  0  0  0  0
  148.1006  142.1834  154.1719 H   0  0  0  0  0  0  0  0  0  0  0  0
  147.1834  139.9011  154.0054 H   0  0  0  0  0  0  0  0  0  0  0  0
  147.6774  139.5289  155.6356 H   0  0  0  0  0  0  0  0  0  0  0  0
  149.0492  142.9755  156.0792 H   0  0  0  0  0  0  0  0  0  0  0  0
  148.3911  131.7132  154.9140 H   0  0  0  0  0  0  0  0  0  0  0  0
  1  2  2  0  0  0  0
  2  3  1  0  0  0  0
  2 15  1  0  0  0  0
  3  4  1  0  0  0  0
  3 25  1  0  0  0  0
  4  9  1  0  0  0  0
  4  5  2  0  0  0  0
  5  6  1  0  0  0  0
  5 26  1  0  0  0  0
  6  7  2  0  0  0  0
  6 27  1  0  0  0  0
  7  8  1  0  0  0  0
  7 28  1  0  0  0  0
  8  9  2  0  0  0  0
  8 53  1  0  0  0  0
  9 10  1  0  0  0  0
 10 14  1  0  0  0  0
 10 11  1  0  0  0  0
 11 12  1  0  0  0  0
 11 29  1  0  0  0  0
 11 30  1  0  0  0  0
 12 13  1  0  0  0  0
 12 31  1  0  0  0  0
 12 32  1  0  0  0  0
 13 14  1  0  0  0  0
 13 33  1  0  0  0  0
 13 34  1  0  0  0  0
 14 35  1  0  0  0  0
 14 36  1  0  0  0  0
 15 16  1  0  0  0  0
 15 37  1  0  0  0  0
 16 24  1  0  0  0  0
 16 17  1  0  0  0  0
 16 38  1  0  0  0  0
 17 18  1  0  0  0  0
 17 39  1  0  0  0  0
 17 40  1  0  0  0  0
 18 19  1  0  0  0  0
 18 41  1  0  0  0  0
 18 42  1  0  0  0  0
 19 20  1  0  0  0  0
 19 23  1  0  0  0  0
 19 52  1  0  0  0  0
 20 22  1  0  0  0  0
 20 21  1  0  0  0  0
 20 43  1  0  0  0  0
 21 22  1  0  0  0  0
 21 44  1  0  0  0  0
 21 45  1  0  0  0  0
 22 46  1  0  0  0  0
 22 47  1  0  0  0  0
 23 24  1  0  0  0  0
 23 48  1  0  0  0  0
 23 49  1  0  0  0  0
 24 50  1  0  0  0  0
 24 51  1  0  0  0  0
M  CHG  1   8   1
M  CHG  1  19   1
M  END
> <s_m_source_file>
AV-unprocessed.smi

> <i_m_source_file_index>
890

> <i_lp_mmshare_version>
43012

> <i_f3d_flags>
0

> <s_epik_input>
W0NIMl0xW0NIMl1bQ0hdMU4oW0NIMl1bQ0gyXTIpW0NIMl1bQ0gyXVtDSF0yW05IXUMoPU8pW05IXWMzW2NIXVtjSF1bY0hdbmMzTjRbQ0gyXVtDSDJdW0NIMl1bQ0gyXTQ=

> <s_epik_cmdline>
J2VwaWtfcHl0aG9uJywgJy1waCcsICc3LjAnLCAnLXRuJywgJzgnLCAnLW1hJywgJzIwMCcsICctbWV0YWxfYmluZGluZycsICctaW1hZScsICc8aW5maWxlLm1hZT4nLCAnLW9tYWUnLCAnPG91dGZpbGUubWFlPic=

> <r_lp_tautomer_probability>
0.999994

> <r_epik_Ionization_Penalty>
1.36901

> <r_epik_Ionization_Penalty_Charging>
1.36899

> <r_epik_Ionization_Penalty_Neutral>
1.88098e-05

> <r_epik_State_Penalty>
1.38441

> <r_epik_Charging_Adjusted_Penalty>
2.7534

> <i_epik_Tot_Q>
2

> <i_epik_Tot_abs_Q>
2

> <r_epik_Metal_State_Penalty>
1.45718

> <b_epik_Metal_Only>
0

> <s_lp_Force_Field>
OPLS_2005

> <r_lp_Energy>
67.0325

> <b_lp_Chiralities_Consistent>
1

> <s_lp_Variant>
AV-unprocessed.smi:890-5

> <Gold.Version>
5.8.1

> <Gold.Id.Protein>
6NUR|6NUR_protein|mol2

> <Gold.PLP.Fitness>
42.6810

> <Gold.PLP.PLP>
-32.0065

> <Gold.PLP.part.hbond>
-3.0000

> <Gold.PLP.part.metal>
0.0000

> <Gold.PLP.part.buried>
-2.9896

> <Gold.PLP.part.nonpolar>
-26.9275

> <Gold.PLP.part.repulsive>
0.5599

> <Gold.PLP.ligand.clash>
0.0000

> <Gold.PLP.ligand.torsion>
1.2237

> <Gold.PLP.Chemscore.Hbond>
3.9440

> <Gold.PLP.Chemscore.CHOScore>
0.0000

> <Gold.PLP.Chemscore.Metal>
0.0000

> <Gold.Chemscore.Hbonds>
donor molecule, donor type, donor heavy atom, donor atom, acceptor molecule, acceptor atom, score
      L1  H     3    25       P1  7948  1.00
      L1  H    15    37       P1  7948  0.94
      L1  H    19    52       P1  8028  2.00

> <Gold.PLP.Chemscore.Internal.Correction>
1.2900

> <Gold.Rescore>
     Score         DG    S(hbond)    S(metal)    S(lipo)     H(rot)  DE(clash)    DE(int)     intcor
     17.13     -20.04       2.75        0.00      75.55       1.35       0.25       2.66       ----

> <Gold.Chemscore.Fitness>
17.1252

> <Gold.Chemscore.DG>
-20.0384

> <Gold.Chemscore.ZeroCoef>
-5.4800

> <Gold.Chemscore.Hbond>
2.7464

> <Gold.Chemscore.Metal>
0.0000

> <Gold.Chemscore.Lipo>
75.5455

> <Gold.Chemscore.Internal_Hbond>
0.0000

> <Gold.Chemscore.DEClash>
0.2517

> <Gold.Chemscore.DEInternal>
2.6615

> <Gold.Chemscore.Rot>
1.3489

> <Gold.Chemscore.Internal.Correction>
   9.000000E+99

> <Gold.Chemscore.Hbonds>
donor molecule, donor type, donor heavy atom, donor atom, acceptor molecule, acceptor atom, score
      L1  H     3    25       P1  7948  0.60
      L1  H    15    37       P1  7948  0.84
      L1  H    19    52       P1  8028  1.00

> <Gold.Chemscore.Hbond.Weighted>
-9.1728

> <Gold.Chemscore.Metal.Weighted>
-0.0000

> <Gold.Chemscore.Lipo.Weighted>
-8.8388

> <Gold.Chemscore.Internal_Hbond.Weighted>
0.0000

> <Gold.Chemscore.DEClash.Weighted>
0.2517

> <Gold.Chemscore.DEInternal.Weighted>
2.6615

> <Gold.Chemscore.Rot.Weighted>
3.4532

> <Gold.Chemscore.Internal.Correction.Weighted>
   9.000000E+99

> <Gold.Protein.RotatedTorsions>
[ 6907 6896 6895 6894 ] final  -52.19 input  -60.11 | X-H torsion
[ 7974 7965 7964 7962 ] final  -64.42 input  175.53 | X-H torsion
[ 8008 7997 7996 7995 ] final -118.69 input   59.86 | X-H torsion
[ 10167 10162 10161 10158 ] final   -8.86 input  -65.29 | X-H torsion
[ 10718 10713 10712 10709 ] final   68.12 input   66.30 | X-H torsion
[ 10763 10752 10751 10750 ] final  -69.80 input  -60.55 | X-H torsion
[ 11005 11000 10999 10996 ] final  154.51 input  -57.11 | X-H torsion

> <Gold.Protein.ActiveResidues>
 VAL166  LYS551  ARG553  GLY616  TRP617  ASP618  TYR619  PRO620  LYS621  CYS622 
 ASP623  PHE694  ASN695  SER759  ASP760  ASP761  ALA762  ILE779  LEU786  VAL792 
 PHE793  MET794  SER795  GLU796  ALA797  LYS798  CYS799  TRP800  GLU811  SER814 

> <Gold.Protein.RotatedAtoms>
  150.8541  134.7874  159.7031 H   0  0  0  0  0  0  0  0  0  0  0  0  # atno 6907 bound_to 6896
  152.4597  134.5208  159.9792 H   0  0  0  0  0  0  0  0  0  0  0  0  # atno 6908 bound_to 6896
  151.5324  133.3409  159.2956 H   0  0  0  0  0  0  0  0  0  0  0  0  # atno 6909 bound_to 6896
  145.7669  140.8833  143.0400 H   0  0  0  0  0  0  0  0  0  0  0  0  # atno 7974 bound_to 7965
  155.1038  140.0396  157.2704 H   0  0  0  0  0  0  0  0  0  0  0  0  # atno 8008 bound_to 7997
  154.6738  140.2618  155.6954 H   0  0  0  0  0  0  0  0  0  0  0  0  # atno 8009 bound_to 7997
  156.2668  140.2792  156.1256 H   0  0  0  0  0  0  0  0  0  0  0  0  # atno 8010 bound_to 7997
  140.7071  143.5922  150.8882 H   0  0  0  0  0  0  0  0  0  0  0  0  # atno 10167 bound_to 10162
  157.6271  130.9357  150.0335 H   0  0  0  0  0  0  0  0  0  0  0  0  # atno 10718 bound_to 10713
  154.4086  135.6014  153.5939 H   0  0  0  0  0  0  0  0  0  0  0  0  # atno 10763 bound_to 10752
  152.9789  135.5924  154.4097 H   0  0  0  0  0  0  0  0  0  0  0  0  # atno 10764 bound_to 10752
  154.3906  135.2842  155.2135 H   0  0  0  0  0  0  0  0  0  0  0  0  # atno 10765 bound_to 10752
  140.1496  134.8684  157.2437 H   0  0  0  0  0  0  0  0  0  0  0  0  # atno 11005 bound_to 11000
  144.6820  139.9801  143.7483 LP  0  0  0  0  0  0  0  0  0  0  0  0  # atno 17320 bound_to 7965
  146.0208  139.3249  143.0814 LP  0  0  0  0  0  0  0  0  0  0  0  0  # atno 17321 bound_to 7965
  139.9647  143.6124  152.2992 LP  0  0  0  0  0  0  0  0  0  0  0  0  # atno 17342 bound_to 10162
  139.6689  144.7661  151.1820 LP  0  0  0  0  0  0  0  0  0  0  0  0  # atno 17343 bound_to 10162
  156.1450  130.3642  149.9524 LP  0  0  0  0  0  0  0  0  0  0  0  0  # atno 17370 bound_to 10713
  156.7557  130.9132  151.3639 LP  0  0  0  0  0  0  0  0  0  0  0  0  # atno 17371 bound_to 10713
  140.2621  134.3558  155.7403 LP  0  0  0  0  0  0  0  0  0  0  0  0  # atno 17394 bound_to 11000
  141.2197  133.7375  156.9096 LP  0  0  0  0  0  0  0  0  0  0  0  0  # atno 17395 bound_to 11000

$$$$
