AV-unprocessed.smi:2260|AV-procd|sdf|9133|dock3
  -GOLD-   2272012343D 1   1.00000     0.00000
 Structure written by MMmdl.
 43 44  0  0  0  0  0  0  0  0  2 V2000
  148.4789  140.6399  154.2321 C   0  0  0  0  0  0  0  0  0  0  0  0
  149.6241  139.7297  154.6417 C   0  0  0  0  0  0  0  0  0  0  0  0
  149.7814  138.4573  154.2607 C   0  0  0  0  0  0  0  0  0  0  0  0
  151.2390  137.7349  154.8997 S   0  0  0  0  0  0  0  0  0  0  0  0
  151.6514  139.2781  155.7297 C   0  0  0  0  0  0  0  0  0  0  0  0
  152.6694  139.4248  156.4042 O   0  0  0  0  0  0  0  0  0  0  0  0
  150.6483  140.2095  155.4679 N   0  0  0  0  0  0  0  0  0  0  0  0
  150.6907  141.5643  156.0253 C   0  0  0  0  0  0  0  0  0  0  0  0
  150.5690  141.5399  157.5565 C   0  0  0  0  0  0  0  0  0  0  0  0
  151.8795  141.7887  158.1917 N   0  3  0  0  0  0  0  0  0  0  0  0
  151.8333  142.2189  159.6101 C   0  0  1  0  0  0  0  0  0  0  0  0
  153.1334  141.8303  160.3535 C   0  0  0  0  0  0  0  0  0  0  0  0
  153.0979  142.2644  161.8249 C   0  0  0  0  0  0  0  0  0  0  0  0
  152.8196  143.7661  161.9548 C   0  0  0  0  0  0  0  0  0  0  0  0
  151.5240  144.1511  161.2212 C   0  0  0  0  0  0  0  0  0  0  0  0
  151.5135  143.7426  159.7250 C   0  0  0  0  0  0  0  0  0  0  0  0
  152.5205  144.6130  158.9344 C   0  0  0  0  0  0  0  0  0  0  0  0
  150.0981  144.0222  159.1746 C   0  0  0  0  0  0  0  0  0  0  0  0
  148.0190  140.2748  153.3133 H   0  0  0  0  0  0  0  0  0  0  0  0
  148.8105  141.6605  154.0442 H   0  0  0  0  0  0  0  0  0  0  0  0
  147.7140  140.6567  155.0086 H   0  0  0  0  0  0  0  0  0  0  0  0
  149.1183  137.8937  153.6208 H   0  0  0  0  0  0  0  0  0  0  0  0
  151.6023  142.0778  155.7192 H   0  0  0  0  0  0  0  0  0  0  0  0
  149.8765  142.1563  155.6032 H   0  0  0  0  0  0  0  0  0  0  0  0
  149.8618  142.3029  157.8847 H   0  0  0  0  0  0  0  0  0  0  0  0
  150.1760  140.5768  157.8806 H   0  0  0  0  0  0  0  0  0  0  0  0
  152.4504  140.9586  158.1214 H   0  0  0  0  0  0  0  0  0  0  0  0
  151.0109  141.6799  160.0846 H   0  0  0  0  0  0  0  0  0  0  0  0
  153.2857  140.7519  160.3196 H   0  0  0  0  0  0  0  0  0  0  0  0
  154.0001  142.2717  159.8609 H   0  0  0  0  0  0  0  0  0  0  0  0
  152.3239  141.7044  162.3517 H   0  0  0  0  0  0  0  0  0  0  0  0
  154.0426  142.0166  162.3100 H   0  0  0  0  0  0  0  0  0  0  0  0
  152.7391  144.0348  163.0085 H   0  0  0  0  0  0  0  0  0  0  0  0
  153.6624  144.3359  161.5628 H   0  0  0  0  0  0  0  0  0  0  0  0
  150.6876  143.6727  161.7334 H   0  0  0  0  0  0  0  0  0  0  0  0
  151.3573  145.2245  161.3206 H   0  0  0  0  0  0  0  0  0  0  0  0
  152.3043  145.6742  159.0617 H   0  0  0  0  0  0  0  0  0  0  0  0
  152.4794  144.4090  157.8642 H   0  0  0  0  0  0  0  0  0  0  0  0
  153.5502  144.4563  159.2527 H   0  0  0  0  0  0  0  0  0  0  0  0
  149.8262  145.0710  159.2995 H   0  0  0  0  0  0  0  0  0  0  0  0
  149.3431  143.4277  159.6904 H   0  0  0  0  0  0  0  0  0  0  0  0
  150.0217  143.7957  158.1108 H   0  0  0  0  0  0  0  0  0  0  0  0
  152.3275  142.5281  157.6692 H   0  0  0  0  0  0  0  0  0  0  0  0
  1  2  1  0  0  0  0
  1 19  1  0  0  0  0
  1 20  1  0  0  0  0
  1 21  1  0  0  0  0
  2  7  1  0  0  0  0
  2  3  2  0  0  0  0
  3  4  1  0  0  0  0
  3 22  1  0  0  0  0
  4  5  1  0  0  0  0
  5  6  2  0  0  0  0
  5  7  1  0  0  0  0
  7  8  1  0  0  0  0
  8  9  1  0  0  0  0
  8 23  1  0  0  0  0
  8 24  1  0  0  0  0
  9 10  1  0  0  0  0
  9 25  1  0  0  0  0
  9 26  1  0  0  0  0
 10 11  1  0  0  0  0
 10 27  1  0  0  0  0
 10 43  1  0  0  0  0
 11 16  1  0  0  0  0
 11 12  1  0  0  0  0
 11 28  1  0  0  0  0
 12 13  1  0  0  0  0
 12 29  1  0  0  0  0
 12 30  1  0  0  0  0
 13 14  1  0  0  0  0
 13 31  1  0  0  0  0
 13 32  1  0  0  0  0
 14 15  1  0  0  0  0
 14 33  1  0  0  0  0
 14 34  1  0  0  0  0
 15 16  1  0  0  0  0
 15 35  1  0  0  0  0
 15 36  1  0  0  0  0
 16 17  1  0  0  0  0
 16 18  1  0  0  0  0
 17 37  1  0  0  0  0
 17 38  1  0  0  0  0
 17 39  1  0  0  0  0
 18 40  1  0  0  0  0
 18 41  1  0  0  0  0
 18 42  1  0  0  0  0
M  CHG  1  10   1
M  END
> <s_m_source_file>
AV-unprocessed.smi

> <i_m_source_file_index>
2260

> <i_lp_mmshare_version>
43012

> <i_f3d_flags>
0

> <s_epik_input>
W0NIM11jMVtjSF1zYyg9TyluMVtDSDJdW0NIMl1bTkhdW0NAQEhdKEMyKFtDSDNdKVtDSDNdKVtDSDJdW0NIMl1bQ0gyXVtDSDJdMg==

> <s_epik_cmdline>
J2VwaWtfcHl0aG9uJywgJy1waCcsICc3LjAnLCAnLXRuJywgJzgnLCAnLW1hJywgJzIwMCcsICctbWV0YWxfYmluZGluZycsICctaW1hZScsICc8aW5maWxlLm1hZT4nLCAnLW9tYWUnLCAnPG91dGZpbGUubWFlPic=

> <r_epik_Ionization_Penalty>
0.0114277

> <r_epik_Ionization_Penalty_Charging>
0.0114277

> <r_epik_Ionization_Penalty_Neutral>
2.57259e-08

> <r_epik_State_Penalty>
0.0087935

> <r_epik_Charging_Adjusted_Penalty>
0.0202212

> <i_epik_Tot_Q>
1

> <i_epik_Tot_abs_Q>
1

> <r_epik_Metal_State_Penalty>
0.0087935

> <b_epik_Metal_Only>
0

> <s_lp_Force_Field>
OPLS_2005

> <r_lp_Energy>
26.3159

> <b_lp_Chiralities_Consistent>
1

> <s_lp_Variant>
AV-unprocessed.smi:2260-2

> <Gold.Version>
5.8.1

> <Gold.Id.Protein>
6NUR|6NUR_protein|mol2

> <Gold.PLP.Fitness>
52.6912

> <Gold.PLP.PLP>
-48.0297

> <Gold.PLP.part.hbond>
-1.0000

> <Gold.PLP.part.metal>
0.0000

> <Gold.PLP.part.buried>
-3.8907

> <Gold.PLP.part.nonpolar>
-42.5110

> <Gold.PLP.part.repulsive>
0.0729

> <Gold.PLP.ligand.clash>
0.0000

> <Gold.PLP.ligand.torsion>
0.6764

> <Gold.PLP.Chemscore.Hbond>
1.0000

> <Gold.PLP.Chemscore.CHOScore>
1.0000

> <Gold.PLP.Chemscore.Metal>
0.0000

> <Gold.Chemscore.Hbonds>
donor molecule, donor type, donor heavy atom, donor atom, acceptor molecule, acceptor atom, score
      P1  H  7997  8009       L1     6  1.00
      L1  C     3    22       P1  7948  1.00

> <Gold.PLP.Chemscore.Internal.Correction>
0.0143

> <Gold.Rescore>
     Score         DG    S(hbond)    S(metal)    S(lipo)     H(rot)  DE(clash)    DE(int)     intcor
     18.67     -20.21       0.99        0.00     129.96       1.48       0.75       0.78       ----

> <Gold.Chemscore.Fitness>
18.6748

> <Gold.Chemscore.DG>
-20.2114

> <Gold.Chemscore.ZeroCoef>
-5.4800

> <Gold.Chemscore.Hbond>
0.9915

> <Gold.Chemscore.Metal>
0.0000

> <Gold.Chemscore.Lipo>
129.9563

> <Gold.Chemscore.Internal_Hbond>
0.0000

> <Gold.Chemscore.DEClash>
0.7538

> <Gold.Chemscore.DEInternal>
0.7827

> <Gold.Chemscore.Rot>
1.4785

> <Gold.Chemscore.Internal.Correction>
   9.000000E+99

> <Gold.Chemscore.Hbonds>
donor molecule, donor type, donor heavy atom, donor atom, acceptor molecule, acceptor atom, score
      P1  H  7997  8009       L1     6  1.00

> <Gold.Chemscore.Hbond.Weighted>
-3.3115

> <Gold.Chemscore.Metal.Weighted>
-0.0000

> <Gold.Chemscore.Lipo.Weighted>
-15.2049

> <Gold.Chemscore.Internal_Hbond.Weighted>
0.0000

> <Gold.Chemscore.DEClash.Weighted>
0.7538

> <Gold.Chemscore.DEInternal.Weighted>
0.7827

> <Gold.Chemscore.Rot.Weighted>
3.7850

> <Gold.Chemscore.Internal.Correction.Weighted>
   9.000000E+99

> <Gold.Protein.RotatedTorsions>
[ 6907 6896 6895 6894 ] final -106.67 input  -60.11 | X-H torsion
[ 7974 7965 7964 7962 ] final  143.94 input  175.53 | X-H torsion
[ 8008 7997 7996 7995 ] final -165.25 input   59.86 | X-H torsion
[ 10167 10162 10161 10158 ] final -166.21 input  -65.29 | X-H torsion
[ 10718 10713 10712 10709 ] final  174.18 input   66.30 | X-H torsion
[ 10763 10752 10751 10750 ] final -116.95 input  -60.55 | X-H torsion
[ 11005 11000 10999 10996 ] final  175.65 input  -57.11 | X-H torsion

> <Gold.Protein.ActiveResidues>
 VAL166  LYS551  ARG553  GLY616  TRP617  ASP618  TYR619  PRO620  LYS621  CYS622 
 ASP623  PHE694  ASN695  SER759  ASP760  ASP761  ALA762  ILE779  LEU786  VAL792 
 PHE793  MET794  SER795  GLU796  ALA797  LYS798  CYS799  TRP800  GLU811  SER814 

> <Gold.Protein.RotatedAtoms>
  150.7402  133.9941  159.3616 H   0  0  0  0  0  0  0  0  0  0  0  0  # atno 6907 bound_to 6896
  151.7890  135.0739  160.0394 H   0  0  0  0  0  0  0  0  0  0  0  0  # atno 6908 bound_to 6896
  152.3221  133.5828  159.5788 H   0  0  0  0  0  0  0  0  0  0  0  0  # atno 6909 bound_to 6896
  144.8878  139.5603  143.5813 H   0  0  0  0  0  0  0  0  0  0  0  0  # atno 7974 bound_to 7965
  155.8471  140.0957  157.1698 H   0  0  0  0  0  0  0  0  0  0  0  0  # atno 8008 bound_to 7997
  154.3984  140.1390  156.3861 H   0  0  0  0  0  0  0  0  0  0  0  0  # atno 8009 bound_to 7997
  155.8001  140.3453  155.5400 H   0  0  0  0  0  0  0  0  0  0  0  0  # atno 8010 bound_to 7997
  139.6130  144.0776  152.1861 H   0  0  0  0  0  0  0  0  0  0  0  0  # atno 10167 bound_to 10162
  156.9533  131.0038  151.2944 H   0  0  0  0  0  0  0  0  0  0  0  0  # atno 10718 bound_to 10713
  154.8538  135.4327  154.1902 H   0  0  0  0  0  0  0  0  0  0  0  0  # atno 10763 bound_to 10752
  153.2973  135.6966  153.7242 H   0  0  0  0  0  0  0  0  0  0  0  0  # atno 10764 bound_to 10752
  153.6386  135.3472  155.3039 H   0  0  0  0  0  0  0  0  0  0  0  0  # atno 10765 bound_to 10752
  140.3645  134.7084  157.4353 H   0  0  0  0  0  0  0  0  0  0  0  0  # atno 11005 bound_to 11000
  146.3035  139.7503  142.9073 LP  0  0  0  0  0  0  0  0  0  0  0  0  # atno 17320 bound_to 7965
  145.3837  141.0362  143.3163 LP  0  0  0  0  0  0  0  0  0  0  0  0  # atno 17321 bound_to 7965
  140.0399  144.6015  150.7419 LP  0  0  0  0  0  0  0  0  0  0  0  0  # atno 17342 bound_to 10162
  140.7332  143.2714  151.3876 LP  0  0  0  0  0  0  0  0  0  0  0  0  # atno 17343 bound_to 10162
  157.5707  130.8308  149.8387 LP  0  0  0  0  0  0  0  0  0  0  0  0  # atno 17370 bound_to 10713
  156.0353  130.3753  150.1577 LP  0  0  0  0  0  0  0  0  0  0  0  0  # atno 17371 bound_to 10713
  140.0600  134.6009  155.8760 LP  0  0  0  0  0  0  0  0  0  0  0  0  # atno 17394 bound_to 11000
  141.1974  133.6596  156.5738 LP  0  0  0  0  0  0  0  0  0  0  0  0  # atno 17395 bound_to 11000

$$$$
