#       Name:                AV-unprocessed.smi:1007
#       Creating user name   scv26
#       Creation time:       Fri Mar 27 02:34:42 2020


#       File generated by GOLD software.
#

@<TRIPOS>MOLECULE
AV-unprocessed.smi:1007
    62    64     1
SMALL
NO_CHARGES


@<TRIPOS>ATOM
      1 ****        -7.2999   2.3599   1.0054 C.3            1 S1                 0.0000
      2 ****        -6.4669   1.6008   0.1465 O.3            1 S1                 0.0000
      3 ****        -5.8232   0.5304   0.8179 C.3            1 S1                 0.0000
      4 ****        -4.9641  -0.2439  -0.1930 C.3            1 S1                 0.0000
      5 ****        -3.8677   0.5833  -0.7567 N.4            1 S1                 1.0000
      6 ****        -3.3821   0.0689  -2.0614 C.3            1 S1                 0.0000
      7 ****        -2.3177   1.0201  -2.6415 C.3            1 S1                 0.0000
      8 ****        -1.1637   1.2033  -1.7604 N.3            1 S1                 0.0000
      9 ****        -0.3122   0.0063  -1.6865 C.3            1 S1                 0.0000
     10 ****         1.1960   0.2468  -1.4549 C.3            1 S1                 0.0000
     11 ****         1.7243   0.9727  -2.5468 O.3            1 S1                 0.0000
     12 ****         1.5913   0.9139  -0.1229 C.3            1 S1                 0.0000
     13 ****         3.0450   0.9237   0.0858 N.pl3          1 S1                 0.0000
     14 ****         3.9534   1.9127  -0.1346 C.2            1 S1                 0.0000
     15 ****         5.1798   1.4263   0.2031 N.pl3          1 S1                 1.0000
     16 ****         5.0526   0.1075   0.6447 C.ar           1 S1                 0.0000
     17 ****         6.0064  -0.8010   1.0878 C.ar           1 S1                 0.0000
     18 ****         5.5487  -2.0833   1.4667 C.ar           1 S1                 0.0000
     19 ****         6.5661  -3.1025   1.9508 C.3            1 S1                 0.0000
     20 ****         4.1711  -2.4173   1.3963 C.ar           1 S1                 0.0000
     21 ****         3.6905  -3.7992   1.8058 C.3            1 S1                 0.0000
     22 ****         3.2161  -1.4783   0.9448 C.ar           1 S1                 0.0000
     23 ****         3.6849  -0.2207   0.5732 C.ar           1 S1                 0.0000
     24 ****        -1.6555   1.6918  -0.4660 C.3            1 S1                 0.0000
     25 ****        -2.7289   0.7867   0.1774 C.3            1 S1                 0.0000
     26 ****        -7.7666   3.1685   0.4429 H              1 S1                 0.0000
     27 ****        -6.7262   2.8045   1.8197 H              1 S1                 0.0000
     28 ****        -8.0933   1.7442   1.4311 H              1 S1                 0.0000
     29 ****        -5.2259   0.9002   1.6516 H              1 S1                 0.0000
     30 ****        -6.5757  -0.1389   1.2379 H              1 S1                 0.0000
     31 ****        -4.5478  -1.1413   0.2673 H              1 S1                 0.0000
     32 ****        -5.6159  -0.5862  -0.9982 H              1 S1                 0.0000
     33 ****        -2.9809  -0.9386  -1.9403 H              1 S1                 0.0000
     34 ****        -4.2168  -0.0038  -2.7597 H              1 S1                 0.0000
     35 ****        -1.9877   0.6576  -3.6158 H              1 S1                 0.0000
     36 ****        -2.7780   1.9909  -2.8314 H              1 S1                 0.0000
     37 ****        -0.6892  -0.6856  -0.9344 H              1 S1                 0.0000
     38 ****        -0.3894  -0.5387  -2.6286 H              1 S1                 0.0000
     39 ****         1.6723  -0.7336  -1.4879 H              1 S1                 0.0000
     40 ****         1.2720   1.8010  -2.6011 H              1 S1                 0.0000
     41 ****         1.2671   1.9542  -0.1036 H              1 S1                 0.0000
     42 ****         1.1229   0.4140   0.7256 H              1 S1                 0.0000
     43 ****         3.7409   2.9015  -0.5149 H              1 S1                 0.0000
     44 ****         7.0534  -0.5398   1.1377 H              1 S1                 0.0000
     45 ****         6.3327  -3.4256   2.9655 H              1 S1                 0.0000
     46 ****         7.5747  -2.6881   1.9569 H              1 S1                 0.0000
     47 ****         6.5701  -3.9774   1.3001 H              1 S1                 0.0000
     48 ****         2.6122  -3.9011   1.6795 H              1 S1                 0.0000
     49 ****         3.9223  -3.9898   2.8539 H              1 S1                 0.0000
     50 ****         4.1703  -4.5674   1.1990 H              1 S1                 0.0000
     51 ****         2.1681  -1.7327   0.8889 H              1 S1                 0.0000
     52 ****        -0.8386   1.8280   0.2370 H              1 S1                 0.0000
     53 ****        -2.0819   2.6858  -0.6078 H              1 S1                 0.0000
     54 ****        -3.0782   1.2578   1.0952 H              1 S1                 0.0000
     55 ****        -2.3068  -0.1762   0.4661 H              1 S1                 0.0000
     56 ****        -4.2633   1.4938  -0.9449 H              1 S1                 0.0000
     57 ****         6.0390   1.9564   0.1318 H              1 S1                 0.0000
     58 ****        -5.7683   2.2042  -0.2378 LP             1 S1                 0.0000
     59 ****        -7.0262   1.2253  -0.5926 LP             1 S1                 0.0000
     60 ****        -0.5443   1.8929  -2.1354 LP             1 S1                 0.0000
     61 ****         1.5878   0.4572  -3.3928 LP             1 S1                 0.0000
     62 ****         2.7018   1.1301  -2.4064 LP             1 S1                 0.0000
@<TRIPOS>BOND
    1    1    2 1     
    2    1   26 1     
    3    1   27 1     
    4    1   28 1     
    5    2    3 1     
    6    3    4 1     
    7    3   29 1     
    8    3   30 1     
    9    4    5 1     
   10    4   31 1     
   11    4   32 1     
   12    5   25 1     
   13    5    6 1     
   14    5   56 1     
   15    6    7 1     
   16    6   33 1     
   17    6   34 1     
   18    7    8 1     
   19    7   35 1     
   20    7   36 1     
   21    8    9 1     
   22    8   24 1     
   23    9   10 1     
   24    9   37 1     
   25    9   38 1     
   26   10   11 1     
   27   10   12 1     
   28   10   39 1     
   29   11   40 1     
   30   12   13 1     
   31   12   41 1     
   32   12   42 1     
   33   13   23 1     
   34   13   14 1     
   35   14   15 2     
   36   14   43 1     
   37   15   16 1     
   38   15   57 1     
   39   16   23 ar    
   40   16   17 ar    
   41   17   18 ar    
   42   17   44 1     
   43   18   19 1     
   44   18   20 ar    
   45   19   45 1     
   46   19   46 1     
   47   19   47 1     
   48   20   21 1     
   49   20   22 ar    
   50   21   48 1     
   51   21   49 1     
   52   21   50 1     
   53   22   23 ar    
   54   22   51 1     
   55   24   25 1     
   56   24   52 1     
   57   24   53 1     
   58   25   54 1     
   59   25   55 1     
   60    2   58 1     
   61    2   59 1     
   62    8   60 1     
   63   11   61 1     
   64   11   62 1     
@<TRIPOS>SUBSTRUCTURE
      1 S1             1
@<TRIPOS>SET
LONE_PAIRS      STATIC     ATOMS    <user>   **** ""
5 58 59 60 61 62
DONOR_HYDROGENS      STATIC     ATOMS    <user>   **** ""
3 56 40 57
ATOM$BLUE        STATIC     ATOMS    COLORGROUP SYSTEM
5 58 59 60 61 62
ATOM$RED        STATIC     ATOMS    COLORGROUP SYSTEM
3 56 40 57
