#       Name:                AV-unprocessed.smi:3291
#       Creating user name   scv26
#       Creation time:       Fri Mar 27 18:55:21 2020


#       File generated by GOLD software.
#

@<TRIPOS>MOLECULE
AV-unprocessed.smi:3291
    46    48     1
SMALL
NO_CHARGES


@<TRIPOS>ATOM
      1 ****        -3.8147  -2.8561  -0.7692 C.3            1 S1                 0.0000
      2 ****        -3.2980  -1.8261  -1.7329 C.2            1 S1                 0.0000
      3 ****        -3.6454  -1.8961  -3.0059 N.2            1 S1                 0.0000
      4 ****        -3.0184  -0.8164  -3.6320 O.3            1 S1                 0.0000
      5 ****        -2.3096  -0.1284  -2.7017 C.2            1 S1                 0.0000
      6 ****        -1.5687   1.0681  -3.1997 C.3            1 S1                 0.0000
      7 ****        -2.4395  -0.7184  -1.4703 C.2            1 S1                 0.0000
      8 ****        -1.8449  -0.3284  -0.1353 C.3            1 S1                 0.0000
      9 ****        -2.5394   0.9339   0.4051 C.3            1 S1                 0.0000
     10 ****        -0.3173  -0.1553  -0.2368 C.3            1 S1                 0.0000
     11 ****         0.3016   0.0452   1.0905 N.4            1 S1                 1.0000
     12 ****         1.7712   0.2096   1.0799 C.3            1 S1                 0.0000
     13 ****         2.2977   0.0215   2.4912 C.3            1 S1                 0.0000
     14 ****         3.7306  -0.3888   2.7430 C.3            1 S1                 0.0000
     15 ****         2.6069  -1.3550   3.0326 C.3            1 S1                 0.0000
     16 ****         2.1558   1.5774   0.5353 C.3            1 S1                 0.0000
     17 ****         2.4620   1.7866  -0.9311 C.3            1 S1                 0.0000
     18 ****         3.5708   1.8692   0.0883 C.3            1 S1                 0.0000
     19 ****        -4.4087  -2.3894   0.0166 H              1 S1                 0.0000
     20 ****        -2.9927  -3.3900  -0.2921 H              1 S1                 0.0000
     21 ****        -4.4448  -3.5959  -1.2648 H              1 S1                 0.0000
     22 ****        -1.6487   1.9001  -2.5009 H              1 S1                 0.0000
     23 ****        -1.9644   1.4014  -4.1596 H              1 S1                 0.0000
     24 ****        -0.5119   0.8382  -3.3353 H              1 S1                 0.0000
     25 ****        -2.0293  -1.1270   0.5844 H              1 S1                 0.0000
     26 ****        -3.6158   0.7795   0.4894 H              1 S1                 0.0000
     27 ****        -2.3793   1.7927  -0.2464 H              1 S1                 0.0000
     28 ****        -2.1734   1.2002   1.3968 H              1 S1                 0.0000
     29 ****         0.1246  -1.0426  -0.6927 H              1 S1                 0.0000
     30 ****        -0.0786   0.6900  -0.8803 H              1 S1                 0.0000
     31 ****        -0.1125   0.8552   1.5292 H              1 S1                 0.0000
     32 ****         2.2106  -0.5633   0.4468 H              1 S1                 0.0000
     33 ****         1.8852   0.7300   3.2078 H              1 S1                 0.0000
     34 ****         4.3623  -0.6073   1.8844 H              1 S1                 0.0000
     35 ****         4.2391   0.0623   3.5925 H              1 S1                 0.0000
     36 ****         2.3691  -1.5499   4.0764 H              1 S1                 0.0000
     37 ****         2.4919  -2.2043   2.3619 H              1 S1                 0.0000
     38 ****         1.6548   2.4018   1.0403 H              1 S1                 0.0000
     39 ****         2.4460   0.9159  -1.5839 H              1 S1                 0.0000
     40 ****         2.1234   2.7154  -1.3858 H              1 S1                 0.0000
     41 ****         3.9750   2.8540   0.3136 H              1 S1                 0.0000
     42 ****         4.2932   1.0559   0.1005 H              1 S1                 0.0000
     43 ****         0.0860  -0.7671   1.6505 H              1 S1                 0.0000
     44 ****        -4.2357  -2.5810  -3.4331 LP             1 S1                 0.0000
     45 ****        -3.7072  -0.2179  -4.0412 LP             1 S1                 0.0000
     46 ****        -2.4024  -1.1516  -4.3448 LP             1 S1                 0.0000
@<TRIPOS>BOND
    1    1    2 1     
    2    1   19 1     
    3    1   20 1     
    4    1   21 1     
    5    2    7 1     
    6    2    3 2     
    7    3    4 1     
    8    4    5 1     
    9    5    6 1     
   10    5    7 2     
   11    6   22 1     
   12    6   23 1     
   13    6   24 1     
   14    7    8 1     
   15    8    9 1     
   16    8   10 1     
   17    8   25 1     
   18    9   26 1     
   19    9   27 1     
   20    9   28 1     
   21   10   11 1     
   22   10   29 1     
   23   10   30 1     
   24   11   12 1     
   25   11   31 1     
   26   11   43 1     
   27   12   13 1     
   28   12   16 1     
   29   12   32 1     
   30   13   15 1     
   31   13   14 1     
   32   13   33 1     
   33   14   15 1     
   34   14   34 1     
   35   14   35 1     
   36   15   36 1     
   37   15   37 1     
   38   16   18 1     
   39   16   17 1     
   40   16   38 1     
   41   17   18 1     
   42   17   39 1     
   43   17   40 1     
   44   18   41 1     
   45   18   42 1     
   46    3   44 1     
   47    4   45 1     
   48    4   46 1     
@<TRIPOS>SUBSTRUCTURE
      1 S1             1
@<TRIPOS>SET
LONE_PAIRS      STATIC     ATOMS    <user>   **** ""
3 44 45 46
DONOR_HYDROGENS      STATIC     ATOMS    <user>   **** ""
2 31 43
ATOM$BLUE        STATIC     ATOMS    COLORGROUP SYSTEM
3 44 45 46
ATOM$RED        STATIC     ATOMS    COLORGROUP SYSTEM
2 31 43
