AV-unprocessed.smi:1959|AV-procd|sdf|7915|dock4
  -GOLD-   2272010 83D 1   1.00000     0.00000
 Structure written by MMmdl.
 45 46  0  0  0  0  0  0  0  0  2 V2000
  147.3975  136.7117  162.5855 C   0  0  0  0  0  0  0  0  0  0  0  0
  147.2410  135.3880  161.8970 C   0  0  0  0  0  0  0  0  0  0  0  0
  146.6831  134.1851  162.4136 C   0  0  0  0  0  0  0  0  0  0  0  0
  146.7816  133.2959  161.3806 C   0  0  0  0  0  0  0  0  0  0  0  0
  146.3626  131.8645  161.2972 C   0  0  0  0  0  0  0  0  0  0  0  0
  147.3722  133.9708  160.3264 N   0  0  0  0  0  0  0  0  0  0  0  0
  147.6939  133.4895  158.9905 C   0  0  0  0  0  0  0  0  0  0  0  0
  148.4042  134.5465  158.1364 C   0  0  0  0  0  0  0  0  0  0  0  0
  149.6095  134.4641  157.8954 O   0  0  0  0  0  0  0  0  0  0  0  0
  147.6379  135.5596  157.7014 N   0  0  0  0  0  0  0  0  0  0  0  0
  148.0851  136.6821  156.8747 C   0  0  1  0  0  0  0  0  0  0  0  0
  149.2385  137.4011  157.5870 C   0  0  0  0  0  0  0  0  0  0  0  0
  148.5015  136.2107  155.4618 C   0  0  0  0  0  0  0  0  0  0  0  0
  149.1494  137.2798  154.6603 N   0  3  0  0  0  0  0  0  0  0  0  0
  148.5673  138.6252  154.8826 C   0  0  0  0  0  0  0  0  0  0  0  0
  149.2262  139.6445  153.9392 C   0  0  0  0  0  0  0  0  0  0  0  0
  150.6316  139.6539  154.1608 O   0  0  0  0  0  0  0  0  0  0  0  0
  151.2248  138.3893  153.8902 C   0  0  0  0  0  0  0  0  0  0  0  0
  150.6215  137.3213  154.8192 C   0  0  0  0  0  0  0  0  0  0  0  0
  147.6527  135.2525  160.6472 N   0  0  0  0  0  0  0  0  0  0  0  0
  146.9594  136.6911  163.5836 H   0  0  0  0  0  0  0  0  0  0  0  0
  146.9064  137.5071  162.0245 H   0  0  0  0  0  0  0  0  0  0  0  0
  148.4498  136.9772  162.6903 H   0  0  0  0  0  0  0  0  0  0  0  0
  146.2702  134.0037  163.3949 H   0  0  0  0  0  0  0  0  0  0  0  0
  145.8869  131.5436  162.2242 H   0  0  0  0  0  0  0  0  0  0  0  0
  147.2221  131.2177  161.1213 H   0  0  0  0  0  0  0  0  0  0  0  0
  145.6499  131.7131  160.4861 H   0  0  0  0  0  0  0  0  0  0  0  0
  148.3218  132.6006  159.0740 H   0  0  0  0  0  0  0  0  0  0  0  0
  146.7733  133.1821  158.4937 H   0  0  0  0  0  0  0  0  0  0  0  0
  146.6582  135.5434  157.9476 H   0  0  0  0  0  0  0  0  0  0  0  0
  147.2736  137.4057  156.7840 H   0  0  0  0  0  0  0  0  0  0  0  0
  149.5727  138.2671  157.0149 H   0  0  0  0  0  0  0  0  0  0  0  0
  150.0964  136.7417  157.7239 H   0  0  0  0  0  0  0  0  0  0  0  0
  148.9318  137.7574  158.5712 H   0  0  0  0  0  0  0  0  0  0  0  0
  149.1623  135.3444  155.5209 H   0  0  0  0  0  0  0  0  0  0  0  0
  147.6040  135.8716  154.9420 H   0  0  0  0  0  0  0  0  0  0  0  0
  147.4919  138.6104  154.7079 H   0  0  0  0  0  0  0  0  0  0  0  0
  148.7172  138.9251  155.9209 H   0  0  0  0  0  0  0  0  0  0  0  0
  149.0099  139.4063  152.8960 H   0  0  0  0  0  0  0  0  0  0  0  0
  148.8309  140.6427  154.1273 H   0  0  0  0  0  0  0  0  0  0  0  0
  151.0755  138.1227  152.8425 H   0  0  0  0  0  0  0  0  0  0  0  0
  152.3005  138.4626  154.0502 H   0  0  0  0  0  0  0  0  0  0  0  0
  150.8728  137.5386  155.8585 H   0  0  0  0  0  0  0  0  0  0  0  0
  151.0497  136.3469  154.5805 H   0  0  0  0  0  0  0  0  0  0  0  0
  148.9788  137.0456  153.6923 H   0  0  0  0  0  0  0  0  0  0  0  0
  1  2  1  0  0  0  0
  1 21  1  0  0  0  0
  1 22  1  0  0  0  0
  1 23  1  0  0  0  0
  2 20  2  0  0  0  0
  2  3  1  0  0  0  0
  3  4  2  0  0  0  0
  3 24  1  0  0  0  0
  4  5  1  0  0  0  0
  4  6  1  0  0  0  0
  5 25  1  0  0  0  0
  5 26  1  0  0  0  0
  5 27  1  0  0  0  0
  6  7  1  0  0  0  0
  6 20  1  0  0  0  0
  7  8  1  0  0  0  0
  7 28  1  0  0  0  0
  7 29  1  0  0  0  0
  8  9  2  0  0  0  0
  8 10  1  0  0  0  0
 10 11  1  0  0  0  0
 10 30  1  0  0  0  0
 11 12  1  0  0  0  0
 11 13  1  0  0  0  0
 11 31  1  0  0  0  0
 12 32  1  0  0  0  0
 12 33  1  0  0  0  0
 12 34  1  0  0  0  0
 13 14  1  0  0  0  0
 13 35  1  0  0  0  0
 13 36  1  0  0  0  0
 14 19  1  0  0  0  0
 14 15  1  0  0  0  0
 14 45  1  0  0  0  0
 15 16  1  0  0  0  0
 15 37  1  0  0  0  0
 15 38  1  0  0  0  0
 16 17  1  0  0  0  0
 16 39  1  0  0  0  0
 16 40  1  0  0  0  0
 17 18  1  0  0  0  0
 18 19  1  0  0  0  0
 18 41  1  0  0  0  0
 18 42  1  0  0  0  0
 19 43  1  0  0  0  0
 19 44  1  0  0  0  0
M  CHG  1  14   1
M  END
> <s_m_source_file>
AV-unprocessed.smi

> <i_m_source_file_index>
1959

> <i_lp_mmshare_version>
43012

> <i_f3d_flags>
0

> <s_epik_input>
W0NIM11jMVtjSF1jKFtDSDNdKW4objEpW0NIMl1DKD1PKVtOSF1bQ0BIXShbQ0gzXSlbQ0gyXU4yW0NIMl1bQ0gyXU9bQ0gyXVtDSDJdMg==

> <s_epik_cmdline>
J2VwaWtfcHl0aG9uJywgJy1waCcsICc3LjAnLCAnLXRuJywgJzgnLCAnLW1hJywgJzIwMCcsICctbWV0YWxfYmluZGluZycsICctaW1hZScsICc8aW5maWxlLm1hZT4nLCAnLW9tYWUnLCAnPG91dGZpbGUubWFlPic=

> <r_lp_tautomer_probability>
1

> <r_epik_Ionization_Penalty>
0.748605

> <r_epik_Ionization_Penalty_Charging>
0.748396

> <r_epik_Ionization_Penalty_Neutral>
0.000208859

> <r_epik_State_Penalty>
0.775162

> <r_epik_Charging_Adjusted_Penalty>
1.52356

> <i_epik_Tot_Q>
1

> <i_epik_Tot_abs_Q>
1

> <r_epik_Metal_State_Penalty>
0.775281

> <b_epik_Metal_Only>
0

> <s_lp_Force_Field>
OPLS_2005

> <r_lp_Energy>
20.6749

> <b_lp_Chiralities_Consistent>
1

> <s_lp_Variant>
AV-unprocessed.smi:1959-4

> <Gold.Version>
5.8.1

> <Gold.Id.Protein>
6NUR|6NUR_protein|mol2

> <Gold.PLP.Fitness>
40.3495

> <Gold.PLP.PLP>
-29.3818

> <Gold.PLP.part.hbond>
-3.0000

> <Gold.PLP.part.metal>
0.0000

> <Gold.PLP.part.buried>
-0.8588

> <Gold.PLP.part.nonpolar>
-23.5386

> <Gold.PLP.part.repulsive>
0.1856

> <Gold.PLP.ligand.clash>
0.0000

> <Gold.PLP.ligand.torsion>
0.5477

> <Gold.PLP.Chemscore.Hbond>
4.0000

> <Gold.PLP.Chemscore.CHOScore>
0.0000

> <Gold.PLP.Chemscore.Metal>
0.0000

> <Gold.Chemscore.Hbonds>
donor molecule, donor type, donor heavy atom, donor atom, acceptor molecule, acceptor atom, score
      L1  H    14    45       P1  7948  2.00
      P1  H  6896  6909       L1     9  1.00
      P1  H  7989  7998       L1    17  1.00

> <Gold.PLP.Chemscore.Internal.Correction>
0.0631

> <Gold.Rescore>
     Score         DG    S(hbond)    S(metal)    S(lipo)     H(rot)  DE(clash)    DE(int)     intcor
     14.08     -18.95       2.74        0.00      75.69       1.77       1.24       3.63       ----

> <Gold.Chemscore.Fitness>
14.0785

> <Gold.Chemscore.DG>
-18.9516

> <Gold.Chemscore.ZeroCoef>
-5.4800

> <Gold.Chemscore.Hbond>
2.7418

> <Gold.Chemscore.Metal>
0.0000

> <Gold.Chemscore.Lipo>
75.6940

> <Gold.Chemscore.Internal_Hbond>
0.0000

> <Gold.Chemscore.DEClash>
1.2444

> <Gold.Chemscore.DEInternal>
3.6287

> <Gold.Chemscore.Rot>
1.7744

> <Gold.Chemscore.Internal.Correction>
   9.000000E+99

> <Gold.Chemscore.Hbonds>
donor molecule, donor type, donor heavy atom, donor atom, acceptor molecule, acceptor atom, score
      L1  H    14    45       P1  7948  0.97
      P1  H  6896  6909       L1     9  0.87
      P1  H  7989  7998       L1    17  0.64

> <Gold.Chemscore.Hbond.Weighted>
-9.1578

> <Gold.Chemscore.Metal.Weighted>
-0.0000

> <Gold.Chemscore.Lipo.Weighted>
-8.8562

> <Gold.Chemscore.Internal_Hbond.Weighted>
0.0000

> <Gold.Chemscore.DEClash.Weighted>
1.2444

> <Gold.Chemscore.DEInternal.Weighted>
3.6287

> <Gold.Chemscore.Rot.Weighted>
4.5424

> <Gold.Chemscore.Internal.Correction.Weighted>
   9.000000E+99

> <Gold.Protein.RotatedTorsions>
[ 6907 6896 6895 6894 ] final   26.06 input  -60.11 | X-H torsion
[ 7974 7965 7964 7962 ] final  -88.69 input  175.53 | X-H torsion
[ 8008 7997 7996 7995 ] final -114.70 input   59.86 | X-H torsion
[ 10167 10162 10161 10158 ] final  163.84 input  -65.29 | X-H torsion
[ 10718 10713 10712 10709 ] final -171.28 input   66.30 | X-H torsion
[ 10763 10752 10751 10750 ] final -102.99 input  -60.55 | X-H torsion
[ 11005 11000 10999 10996 ] final  175.14 input  -57.11 | X-H torsion

> <Gold.Protein.ActiveResidues>
 VAL166  LYS551  ARG553  GLY616  TRP617  ASP618  TYR619  PRO620  LYS621  CYS622 
 ASP623  PHE694  ASN695  SER759  ASP760  ASP761  ALA762  ILE779  LEU786  VAL792 
 PHE793  MET794  SER795  GLU796  ALA797  LYS798  CYS799  TRP800  GLU811  SER814 

> <Gold.Protein.RotatedAtoms>
  151.9818  135.0025  160.0557 H   0  0  0  0  0  0  0  0  0  0  0  0  # atno 6907 bound_to 6896
  152.1689  133.4626  159.4907 H   0  0  0  0  0  0  0  0  0  0  0  0  # atno 6908 bound_to 6896
  150.6898  134.1895  159.4323 H   0  0  0  0  0  0  0  0  0  0  0  0  # atno 6909 bound_to 6896
  145.4498  140.9560  143.2028 H   0  0  0  0  0  0  0  0  0  0  0  0  # atno 7974 bound_to 7965
  155.0405  140.0392  157.2507 H   0  0  0  0  0  0  0  0  0  0  0  0  # atno 8008 bound_to 7997
  154.7221  140.2714  155.6508 H   0  0  0  0  0  0  0  0  0  0  0  0  # atno 8009 bound_to 7997
  156.2819  140.2701  156.1895 H   0  0  0  0  0  0  0  0  0  0  0  0  # atno 8010 bound_to 7997
  139.4880  144.4296  151.9087 H   0  0  0  0  0  0  0  0  0  0  0  0  # atno 10167 bound_to 10162
  156.7386  130.9333  151.3109 H   0  0  0  0  0  0  0  0  0  0  0  0  # atno 10718 bound_to 10713
  154.7775  135.4840  153.9774 H   0  0  0  0  0  0  0  0  0  0  0  0  # atno 10763 bound_to 10752
  153.1448  135.6780  153.8978 H   0  0  0  0  0  0  0  0  0  0  0  0  # atno 10764 bound_to 10752
  153.8641  135.3151  155.3417 H   0  0  0  0  0  0  0  0  0  0  0  0  # atno 10765 bound_to 10752
  140.3589  134.7130  157.4318 H   0  0  0  0  0  0  0  0  0  0  0  0  # atno 11005 bound_to 11000
  144.8069  139.6035  143.7047 LP  0  0  0  0  0  0  0  0  0  0  0  0  # atno 17320 bound_to 7965
  146.2510  139.6201  142.9427 LP  0  0  0  0  0  0  0  0  0  0  0  0  # atno 17321 bound_to 7965
  140.3743  144.2816  150.5916 LP  0  0  0  0  0  0  0  0  0  0  0  0  # atno 17342 bound_to 10162
  140.5291  143.2247  151.8268 LP  0  0  0  0  0  0  0  0  0  0  0  0  # atno 17343 bound_to 10162
  157.6828  130.9156  150.0311 LP  0  0  0  0  0  0  0  0  0  0  0  0  # atno 17370 bound_to 10713
  156.1480  130.3642  149.9481 LP  0  0  0  0  0  0  0  0  0  0  0  0  # atno 17371 bound_to 10713
  140.0642  134.5953  155.8714 LP  0  0  0  0  0  0  0  0  0  0  0  0  # atno 17394 bound_to 11000
  141.1990  133.6604  156.5820 LP  0  0  0  0  0  0  0  0  0  0  0  0  # atno 17395 bound_to 11000

$$$$
