#       Name:                AV-unprocessed.smi:1586
#       Creating user name   scv26
#       Creation time:       Fri Mar 27 07:00:27 2020


#       File generated by GOLD software.
#

@<TRIPOS>MOLECULE
AV-unprocessed.smi:1586
    53    54     1
SMALL
NO_CHARGES


@<TRIPOS>ATOM
      1 ****        -2.9755  -4.3648  -2.8960 C.3            1 S1                 0.0000
      2 ****        -3.1580  -2.8551  -2.6841 C.3            1 S1                 0.0000
      3 ****        -2.2992  -2.0683  -3.5726 N.3            1 S1                 0.0000
      4 ****        -2.6732  -0.6545  -3.6028 C.3            1 S1                 0.0000
      5 ****        -2.3268   0.0729  -2.2858 C.3            1 S1                 0.0000
      6 ****        -0.8728  -0.0325  -1.9802 N.4            1 S1                 1.0000
      7 ****        -0.4095   0.6946  -0.7535 C.3            1 S1                 0.0000
      8 ****        -1.1916   2.0008  -0.4729 C.3            1 S1                 0.0000
      9 ****         1.1103   0.9948  -0.8502 C.3            1 S1                 0.0000
     10 ****         1.6486   1.6177   0.3557 N.am           1 S1                 0.0000
     11 ****         1.8909   0.9697   1.5042 C.2            1 S1                 0.0000
     12 ****         1.6792  -0.2337   1.6582 O.2            1 S1                 0.0000
     13 ****         2.3813   1.7980   2.4419 N.am           1 S1                 0.0000
     14 ****         2.7422   1.4744   3.7748 C.2            1 S1                 0.0000
     15 ****         3.2457   2.4676   4.6561 C.2            1 S1                 0.0000
     16 ****         3.4644   1.7713   5.8115 C.2            1 S1                 0.0000
     17 ****         3.9826   2.1658   7.1519 C.3            1 S1                 0.0000
     18 ****         3.1232   0.4644   5.6487 O.3            1 S1                 0.0000
     19 ****         2.6606   0.2802   4.3404 N.2            1 S1                 0.0000
     20 ****        -0.4802  -1.4688  -1.9716 C.3            1 S1                 0.0000
     21 ****        -0.8634  -2.1607  -3.2956 C.3            1 S1                 0.0000
     22 ****        -3.7177  -4.9213  -2.3235 H              1 S1                 0.0000
     23 ****        -1.9948  -4.7091  -2.5689 H              1 S1                 0.0000
     24 ****        -3.0989  -4.6356  -3.9450 H              1 S1                 0.0000
     25 ****        -4.1972  -2.6087  -2.9060 H              1 S1                 0.0000
     26 ****        -2.9991  -2.6003  -1.6372 H              1 S1                 0.0000
     27 ****        -2.1517  -0.1745  -4.4321 H              1 S1                 0.0000
     28 ****        -3.7382  -0.5609  -3.8184 H              1 S1                 0.0000
     29 ****        -2.6122   1.1157  -2.4200 H              1 S1                 0.0000
     30 ****        -2.9157  -0.3146  -1.4534 H              1 S1                 0.0000
     31 ****        -0.5875   0.0369   0.0988 H              1 S1                 0.0000
     32 ****        -0.8125   2.5160   0.4095 H              1 S1                 0.0000
     33 ****        -2.2460   1.8118  -0.2711 H              1 S1                 0.0000
     34 ****        -1.1218   2.6959  -1.3103 H              1 S1                 0.0000
     35 ****         1.6940   0.0974  -1.0525 H              1 S1                 0.0000
     36 ****         1.2988   1.6689  -1.6863 H              1 S1                 0.0000
     37 ****         1.8510   2.6059   0.3109 H              1 S1                 0.0000
     38 ****         2.5070   2.7636   2.1770 H              1 S1                 0.0000
     39 ****         3.4189   3.5179   4.4750 H              1 S1                 0.0000
     40 ****         4.3033   3.2076   7.1551 H              1 S1                 0.0000
     41 ****         4.8360   1.5488   7.4336 H              1 S1                 0.0000
     42 ****         3.2123   2.0469   7.9140 H              1 S1                 0.0000
     43 ****         0.5951  -1.5725  -1.8416 H              1 S1                 0.0000
     44 ****        -0.9360  -1.9765  -1.1209 H              1 S1                 0.0000
     45 ****        -0.5427  -3.2018  -3.2858 H              1 S1                 0.0000
     46 ****        -0.3222  -1.6913  -4.1183 H              1 S1                 0.0000
     47 ****        -0.3987   0.3977  -2.7611 H              1 S1                 0.0000
     48 ****        -2.4582  -2.4903  -4.4651 LP             1 S1                 0.0000
     49 ****         1.3085  -0.7766   0.9047 LP             1 S1                 0.0000
     50 ****         1.8780  -0.6679   2.5368 LP             1 S1                 0.0000
     51 ****         2.4022   0.2217   6.2977 LP             1 S1                 0.0000
     52 ****         3.9231  -0.1143   5.8073 LP             1 S1                 0.0000
     53 ****         2.3382  -0.5695   3.9233 LP             1 S1                 0.0000
@<TRIPOS>BOND
    1    1    2 1     
    2    1   22 1     
    3    1   23 1     
    4    1   24 1     
    5    2    3 1     
    6    2   25 1     
    7    2   26 1     
    8    3   21 1     
    9    3    4 1     
   10    4    5 1     
   11    4   27 1     
   12    4   28 1     
   13    5    6 1     
   14    5   29 1     
   15    5   30 1     
   16    6    7 1     
   17    6   20 1     
   18    6   47 1     
   19    7    8 1     
   20    7    9 1     
   21    7   31 1     
   22    8   32 1     
   23    8   33 1     
   24    8   34 1     
   25    9   10 1     
   26    9   35 1     
   27    9   36 1     
   28   10   11 am    
   29   10   37 1     
   30   11   12 2     
   31   11   13 am    
   32   13   14 1     
   33   13   38 1     
   34   14   19 2     
   35   14   15 1     
   36   15   16 2     
   37   15   39 1     
   38   16   17 1     
   39   16   18 1     
   40   17   40 1     
   41   17   41 1     
   42   17   42 1     
   43   18   19 1     
   44   20   21 1     
   45   20   43 1     
   46   20   44 1     
   47   21   45 1     
   48   21   46 1     
   49    3   48 1     
   50   12   49 1     
   51   12   50 1     
   52   18   51 1     
   53   18   52 1     
   54   19   53 1     
@<TRIPOS>SUBSTRUCTURE
      1 S1             1
@<TRIPOS>SET
LONE_PAIRS      STATIC     ATOMS    <user>   **** ""
6 48 49 50 51 52 53
DONOR_HYDROGENS      STATIC     ATOMS    <user>   **** ""
3 47 37 38
ATOM$BLUE        STATIC     ATOMS    COLORGROUP SYSTEM
6 48 49 50 51 52 53
ATOM$RED        STATIC     ATOMS    COLORGROUP SYSTEM
3 47 37 38
