AV-unprocessed.smi:2181|AV-procd|sdf|8862|dock2
  -GOLD-   2272012 53D 1   1.00000     0.00000
 Structure written by MMmdl.
 38 39  0  0  0  0  0  0  0  0  1 V2000
  151.5220  131.7719  156.0039 C   0  0  0  0  0  0  0  0  0  0  0  0
  150.5661  132.9060  156.2416 C   0  0  0  0  0  0  0  0  0  0  0  0
  150.3560  133.3248  157.4781 N   0  0  0  0  0  0  0  0  0  0  0  0
  149.4459  134.3812  157.3764 O   0  0  0  0  0  0  0  0  0  0  0  0
  149.1407  134.5601  156.0662 C   0  0  0  0  0  0  0  0  0  0  0  0
  148.1846  135.6585  155.7443 C   0  0  0  0  0  0  0  0  0  0  0  0
  149.8155  133.6578  155.2908 C   0  0  0  0  0  0  0  0  0  0  0  0
  149.7825  133.5033  153.7916 C   0  0  0  0  0  0  0  0  0  0  0  0
  148.3915  133.0481  153.3526 C   0  0  0  0  0  0  0  0  0  0  0  0
  147.9596  131.9524  153.7092 O   0  0  0  0  0  0  0  0  0  0  0  0
  147.7003  133.9047  152.5843 N   0  0  0  0  0  0  0  0  0  0  0  0
  146.3550  133.6901  152.0524 C   0  0  1  0  0  0  0  0  0  0  0  0
  146.3787  132.5725  150.9853 C   0  0  0  0  0  0  0  0  0  0  0  0
  145.2006  132.6257  149.9992 C   0  0  0  0  0  0  0  0  0  0  0  0
  143.8166  132.4255  150.6346 C   0  0  0  0  0  0  0  0  0  0  0  0
  143.4144  133.5477  151.6070 C   0  0  0  0  0  0  0  0  0  0  0  0
  144.0403  133.4054  152.9157 N   0  0  0  0  0  0  0  0  0  0  0  0
  145.3518  133.4471  153.1960 C   0  0  0  0  0  0  0  0  0  0  0  0
  145.7494  133.2846  154.3496 O   0  0  0  0  0  0  0  0  0  0  0  0
  152.5530  132.1261  156.0068 H   0  0  0  0  0  0  0  0  0  0  0  0
  151.3404  131.2907  155.0432 H   0  0  0  0  0  0  0  0  0  0  0  0
  151.4301  131.0067  156.7752 H   0  0  0  0  0  0  0  0  0  0  0  0
  148.7178  136.5367  155.3800 H   0  0  0  0  0  0  0  0  0  0  0  0
  147.6107  135.9505  156.6239 H   0  0  0  0  0  0  0  0  0  0  0  0
  147.4814  135.3465  154.9722 H   0  0  0  0  0  0  0  0  0  0  0  0
  150.0299  134.4363  153.2845 H   0  0  0  0  0  0  0  0  0  0  0  0
  150.5190  132.7741  153.4516 H   0  0  0  0  0  0  0  0  0  0  0  0
  148.1425  134.7787  152.3389 H   0  0  0  0  0  0  0  0  0  0  0  0
  146.0531  134.6227  151.5717 H   0  0  0  0  0  0  0  0  0  0  0  0
  147.2947  132.6478  150.3977 H   0  0  0  0  0  0  0  0  0  0  0  0
  146.4203  131.5946  151.4674 H   0  0  0  0  0  0  0  0  0  0  0  0
  145.2200  133.5745  149.4615 H   0  0  0  0  0  0  0  0  0  0  0  0
  145.3487  131.8543  149.2428 H   0  0  0  0  0  0  0  0  0  0  0  0
  143.0807  132.3905  149.8306 H   0  0  0  0  0  0  0  0  0  0  0  0
  143.7623  131.4554  151.1304 H   0  0  0  0  0  0  0  0  0  0  0  0
  143.6295  134.5311  151.1863 H   0  0  0  0  0  0  0  0  0  0  0  0
  142.3364  133.5124  151.7653 H   0  0  0  0  0  0  0  0  0  0  0  0
  143.4132  133.2476  153.6915 H   0  0  0  0  0  0  0  0  0  0  0  0
  1  2  1  0  0  0  0
  1 20  1  0  0  0  0
  1 21  1  0  0  0  0
  1 22  1  0  0  0  0
  2  7  1  0  0  0  0
  2  3  2  0  0  0  0
  3  4  1  0  0  0  0
  4  5  1  0  0  0  0
  5  6  1  0  0  0  0
  5  7  2  0  0  0  0
  6 23  1  0  0  0  0
  6 24  1  0  0  0  0
  6 25  1  0  0  0  0
  7  8  1  0  0  0  0
  8  9  1  0  0  0  0
  8 26  1  0  0  0  0
  8 27  1  0  0  0  0
  9 10  2  0  0  0  0
  9 11  1  0  0  0  0
 11 12  1  0  0  0  0
 11 28  1  0  0  0  0
 12 18  1  0  0  0  0
 12 13  1  0  0  0  0
 12 29  1  0  0  0  0
 13 14  1  0  0  0  0
 13 30  1  0  0  0  0
 13 31  1  0  0  0  0
 14 15  1  0  0  0  0
 14 32  1  0  0  0  0
 14 33  1  0  0  0  0
 15 16  1  0  0  0  0
 15 34  1  0  0  0  0
 15 35  1  0  0  0  0
 16 17  1  0  0  0  0
 16 36  1  0  0  0  0
 16 37  1  0  0  0  0
 17 18  1  0  0  0  0
 17 38  1  0  0  0  0
 18 19  2  0  0  0  0
M  END
> <s_m_source_file>
AV-unprocessed.smi

> <i_m_source_file_index>
2181

> <i_lp_mmshare_version>
43012

> <i_f3d_flags>
0

> <s_epik_input>
W0NIM11jMW5vYyhbQ0gzXSljMVtDSDJdQyg9TylbTkhdW0NAQEhdMltDSDJdW0NIMl1bQ0gyXVtDSDJdW05IXUMyPU8=

> <s_epik_cmdline>
J2VwaWtfcHl0aG9uJywgJy1waCcsICc3LjAnLCAnLXRuJywgJzgnLCAnLW1hJywgJzIwMCcsICctbWV0YWxfYmluZGluZycsICctaW1hZScsICc8aW5maWxlLm1hZT4nLCAnLW9tYWUnLCAnPG91dGZpbGUubWFlPic=

> <r_lp_tautomer_probability>
1

> <r_epik_Ionization_Penalty>
5.91376e-08

> <r_epik_Ionization_Penalty_Charging>
0

> <r_epik_Ionization_Penalty_Neutral>
5.91376e-08

> <r_epik_State_Penalty>
-0

> <r_epik_Charging_Adjusted_Penalty>
0

> <i_epik_Tot_Q>
0

> <i_epik_Tot_abs_Q>
0

> <r_epik_Metal_State_Penalty>
-0

> <b_epik_Metal_Only>
0

> <s_lp_Force_Field>
OPLS_2005

> <r_lp_Energy>
4.12188

> <b_lp_Chiralities_Consistent>
1

> <s_lp_Variant>
AV-unprocessed.smi:2181-2

> <Gold.Version>
5.8.1

> <Gold.Id.Protein>
6NUR|6NUR_protein|mol2

> <Gold.PLP.Fitness>
36.9634

> <Gold.PLP.PLP>
-28.7123

> <Gold.PLP.part.hbond>
-3.1545

> <Gold.PLP.part.metal>
0.0000

> <Gold.PLP.part.buried>
-3.8780

> <Gold.PLP.part.nonpolar>
-20.9185

> <Gold.PLP.part.repulsive>
0.1971

> <Gold.PLP.ligand.clash>
0.0000

> <Gold.PLP.ligand.torsion>
0.0879

> <Gold.PLP.Chemscore.Hbond>
2.8000

> <Gold.PLP.Chemscore.CHOScore>
0.0000

> <Gold.PLP.Chemscore.Metal>
0.0000

> <Gold.Chemscore.Hbonds>
donor molecule, donor type, donor heavy atom, donor atom, acceptor molecule, acceptor atom, score
      L1  H    11    28       P1  7948  1.00
      L1  H    17    38       P1 10957  0.80
      P1  H  6896  6907       L1     3  1.00

> <Gold.PLP.Chemscore.Internal.Correction>
0.0270

> <Gold.Rescore>
     Score         DG    S(hbond)    S(metal)    S(lipo)     H(rot)  DE(clash)    DE(int)     intcor
     15.29     -18.10       2.68        0.00      64.13       1.49       0.03       2.79       ----

> <Gold.Chemscore.Fitness>
15.2898

> <Gold.Chemscore.DG>
-18.1030

> <Gold.Chemscore.ZeroCoef>
-5.4800

> <Gold.Chemscore.Hbond>
2.6786

> <Gold.Chemscore.Metal>
0.0000

> <Gold.Chemscore.Lipo>
64.1307

> <Gold.Chemscore.Internal_Hbond>
0.0000

> <Gold.Chemscore.DEClash>
0.0263

> <Gold.Chemscore.DEInternal>
2.7870

> <Gold.Chemscore.Rot>
1.4949

> <Gold.Chemscore.Internal.Correction>
   9.000000E+99

> <Gold.Chemscore.Hbonds>
donor molecule, donor type, donor heavy atom, donor atom, acceptor molecule, acceptor atom, score
      L1  H    11    28       P1  7948  0.45
      L1  H    17    38       P1 10957  0.77
      P1  H  6896  6907       L1     3  0.38

> <Gold.Chemscore.Hbond.Weighted>
-8.9467

> <Gold.Chemscore.Metal.Weighted>
-0.0000

> <Gold.Chemscore.Lipo.Weighted>
-7.5033

> <Gold.Chemscore.Internal_Hbond.Weighted>
0.0000

> <Gold.Chemscore.DEClash.Weighted>
0.0263

> <Gold.Chemscore.DEInternal.Weighted>
2.7870

> <Gold.Chemscore.Rot.Weighted>
3.8269

> <Gold.Chemscore.Internal.Correction.Weighted>
   9.000000E+99

> <Gold.Protein.RotatedTorsions>
[ 6907 6896 6895 6894 ] final -141.83 input  -60.11 | X-H torsion
[ 7974 7965 7964 7962 ] final -164.90 input  175.53 | X-H torsion
[ 8008 7997 7996 7995 ] final   48.91 input   59.86 | X-H torsion
[ 10167 10162 10161 10158 ] final   73.58 input  -65.29 | X-H torsion
[ 10718 10713 10712 10709 ] final  147.20 input   66.30 | X-H torsion
[ 10763 10752 10751 10750 ] final   36.43 input  -60.55 | X-H torsion
[ 11005 11000 10999 10996 ] final   79.45 input  -57.11 | X-H torsion

> <Gold.Protein.ActiveResidues>
 VAL166  LYS551  ARG553  GLY616  TRP617  ASP618  TYR619  PRO620  LYS621  CYS622 
 ASP623  PHE694  ASN695  SER759  ASP760  ASP761  ALA762  ILE779  LEU786  VAL792 
 PHE793  MET794  SER795  GLU796  ALA797  LYS798  CYS799  TRP800  GLU811  SER814 

> <Gold.Protein.RotatedAtoms>
  151.0790  133.5405  159.2621 H   0  0  0  0  0  0  0  0  0  0  0  0  # atno 6907 bound_to 6896
  151.2316  135.0556  159.9000 H   0  0  0  0  0  0  0  0  0  0  0  0  # atno 6908 bound_to 6896
  152.5421  134.0578  159.8192 H   0  0  0  0  0  0  0  0  0  0  0  0  # atno 6909 bound_to 6896
  144.7284  140.2893  143.6223 H   0  0  0  0  0  0  0  0  0  0  0  0  # atno 7974 bound_to 7965
  155.3935  140.3434  155.4252 H   0  0  0  0  0  0  0  0  0  0  0  0  # atno 8008 bound_to 7997
  156.1544  140.1581  156.8749 H   0  0  0  0  0  0  0  0  0  0  0  0  # atno 8009 bound_to 7997
  154.5081  140.0797  156.7917 H   0  0  0  0  0  0  0  0  0  0  0  0  # atno 8010 bound_to 7997
  140.0230  144.5526  150.7567 H   0  0  0  0  0  0  0  0  0  0  0  0  # atno 10167 bound_to 10162
  157.3239  131.0909  151.1218 H   0  0  0  0  0  0  0  0  0  0  0  0  # atno 10718 bound_to 10713
  153.0077  135.6306  154.1984 H   0  0  0  0  0  0  0  0  0  0  0  0  # atno 10763 bound_to 10752
  154.1727  135.2817  155.3078 H   0  0  0  0  0  0  0  0  0  0  0  0  # atno 10764 bound_to 10752
  154.5896  135.5622  153.7325 H   0  0  0  0  0  0  0  0  0  0  0  0  # atno 10765 bound_to 10752
  139.9172  134.7844  156.1781 H   0  0  0  0  0  0  0  0  0  0  0  0  # atno 11005 bound_to 11000
  145.7871  139.1913  143.2124 LP  0  0  0  0  0  0  0  0  0  0  0  0  # atno 17320 bound_to 7965
  146.0786  140.7789  142.9652 LP  0  0  0  0  0  0  0  0  0  0  0  0  # atno 17321 bound_to 7965
  140.7334  143.2717  151.3867 LP  0  0  0  0  0  0  0  0  0  0  0  0  # atno 17342 bound_to 10162
  139.6127  144.1066  152.2315 LP  0  0  0  0  0  0  0  0  0  0  0  0  # atno 17343 bound_to 10162
  157.2492  130.6606  149.5924 LP  0  0  0  0  0  0  0  0  0  0  0  0  # atno 17370 bound_to 10713
  155.9688  130.4544  150.5847 LP  0  0  0  0  0  0  0  0  0  0  0  0  # atno 17371 bound_to 10713
  141.0659  133.6819  156.2044 LP  0  0  0  0  0  0  0  0  0  0  0  0  # atno 17394 bound_to 11000
  140.6585  134.4992  157.5582 LP  0  0  0  0  0  0  0  0  0  0  0  0  # atno 17395 bound_to 11000

$$$$
