#       Name:                AV-unprocessed.smi:1250
#       Creating user name   scv26
#       Creation time:       Fri Mar 27 04:36:33 2020


#       File generated by GOLD software.
#

@<TRIPOS>MOLECULE
AV-unprocessed.smi:1250
    46    47     1
SMALL
NO_CHARGES


@<TRIPOS>ATOM
      1 ****        -4.2116   0.0136   0.0822 C.3            1 S1                 0.0000
      2 ****        -2.8148  -0.5582   0.3834 C.3            1 S1                 0.0000
      3 ****        -1.7842   0.5895   0.4131 C.3            1 S1                 0.0000
      4 ****        -2.4154  -1.6870  -0.6044 C.3            1 S1                 0.0000
      5 ****        -3.3611  -2.9011  -0.5642 C.3            1 S1                 0.0000
      6 ****        -1.0565  -2.1406  -0.3184 N.am           1 S1                 0.0000
      7 ****        -0.1332  -2.4905  -1.2298 C.2            1 S1                 0.0000
      8 ****        -0.3659  -2.5646  -2.4361 O.2            1 S1                 0.0000
      9 ****         1.2732  -2.8008  -0.7040 C.3            1 S1                 0.0000
     10 ****         1.7466  -1.7331   0.2443 C.2            1 S1                 0.0000
     11 ****         1.9707  -1.8741   1.5921 C.2            1 S1                 0.0000
     12 ****         2.4687  -0.3776   2.3323 S.3            1 S1                 0.0000
     13 ****         2.3591   0.4023   0.7515 C.2            1 S1                 0.0000
     14 ****         2.6106   1.7770   0.4645 N.am           1 S1                 0.0000
     15 ****         2.4860   2.3135  -0.8874 C.3            1 S1                 0.0000
     16 ****         3.0192   3.7488  -0.8233 C.3            1 S1                 0.0000
     17 ****         3.0894   4.0887   0.6639 C.3            1 S1                 0.0000
     18 ****         2.9322   2.7399   1.3465 C.2            1 S1                 0.0000
     19 ****         3.0918   2.6120   2.5595 O.2            1 S1                 0.0000
     20 ****         1.9885  -0.4358  -0.2218 N.2            1 S1                 0.0000
     21 ****        -4.2686   0.4047  -0.9342 H              1 S1                 0.0000
     22 ****        -4.4569   0.8285   0.7640 H              1 S1                 0.0000
     23 ****        -4.9919  -0.7379   0.1975 H              1 S1                 0.0000
     24 ****        -2.8479  -0.9841   1.3873 H              1 S1                 0.0000
     25 ****        -1.6475   1.0237  -0.5778 H              1 S1                 0.0000
     26 ****        -0.8091   0.2546   0.7669 H              1 S1                 0.0000
     27 ****        -2.1038   1.3880   1.0832 H              1 S1                 0.0000
     28 ****        -2.4432  -1.2694  -1.6128 H              1 S1                 0.0000
     29 ****        -4.3679  -2.6404  -0.8887 H              1 S1                 0.0000
     30 ****        -3.4293  -3.3185   0.4409 H              1 S1                 0.0000
     31 ****        -3.0118  -3.6922  -1.2285 H              1 S1                 0.0000
     32 ****        -0.7715  -2.1205   0.6502 H              1 S1                 0.0000
     33 ****         1.2531  -3.7743  -0.2130 H              1 S1                 0.0000
     34 ****         1.9619  -2.8924  -1.5449 H              1 S1                 0.0000
     35 ****         1.8614  -2.7632   2.1954 H              1 S1                 0.0000
     36 ****         3.0452   1.7173  -1.6095 H              1 S1                 0.0000
     37 ****         1.4352   2.3036  -1.1805 H              1 S1                 0.0000
     38 ****         4.0165   3.7990  -1.2627 H              1 S1                 0.0000
     39 ****         2.3819   4.4423  -1.3732 H              1 S1                 0.0000
     40 ****         4.0322   4.5655   0.9339 H              1 S1                 0.0000
     41 ****         2.2686   4.7421   0.9612 H              1 S1                 0.0000
     42 ****        -1.2812  -2.3589  -2.7823 LP             1 S1                 0.0000
     43 ****         0.3604  -2.8304  -3.0700 LP             1 S1                 0.0000
     44 ****         2.9820   1.7144   2.9864 LP             1 S1                 0.0000
     45 ****         3.3314   3.4057   3.1188 LP             1 S1                 0.0000
     46 ****         1.8943  -0.1649  -1.1798 LP             1 S1                 0.0000
@<TRIPOS>BOND
    1    1    2 1     
    2    1   21 1     
    3    1   22 1     
    4    1   23 1     
    5    2    3 1     
    6    2    4 1     
    7    2   24 1     
    8    3   25 1     
    9    3   26 1     
   10    3   27 1     
   11    4    5 1     
   12    4    6 1     
   13    4   28 1     
   14    5   29 1     
   15    5   30 1     
   16    5   31 1     
   17    6    7 am    
   18    6   32 1     
   19    7    8 2     
   20    7    9 1     
   21    9   10 1     
   22    9   33 1     
   23    9   34 1     
   24   10   20 1     
   25   10   11 2     
   26   11   12 1     
   27   11   35 1     
   28   12   13 1     
   29   13   14 1     
   30   13   20 2     
   31   14   18 am    
   32   14   15 1     
   33   15   16 1     
   34   15   36 1     
   35   15   37 1     
   36   16   17 1     
   37   16   38 1     
   38   16   39 1     
   39   17   18 1     
   40   17   40 1     
   41   17   41 1     
   42   18   19 2     
   43    8   42 1     
   44    8   43 1     
   45   19   44 1     
   46   19   45 1     
   47   20   46 1     
@<TRIPOS>SUBSTRUCTURE
      1 S1             1
@<TRIPOS>SET
LONE_PAIRS      STATIC     ATOMS    <user>   **** ""
5 42 43 44 45 46
DONOR_HYDROGENS      STATIC     ATOMS    <user>   **** ""
1 32
ATOM$BLUE        STATIC     ATOMS    COLORGROUP SYSTEM
5 42 43 44 45 46
ATOM$RED        STATIC     ATOMS    COLORGROUP SYSTEM
1 32
