AV-unprocessed.smi:1933|AV-procd|sdf|7821|dock2
  -GOLD-   22720 9563D 1   1.00000     0.00000
 Structure written by MMmdl.
 48 50  0  0  0  0  0  0  0  0  2 V2000
  145.1594  135.4513  153.9478 O   0  0  0  0  0  0  0  0  0  0  0  0
  146.2296  135.5546  153.3478 C   0  0  0  0  0  0  0  0  0  0  0  0
  147.2352  136.3356  153.7647 N   0  0  0  0  0  0  0  0  0  0  0  0
  147.2089  137.1504  154.9730 C   0  0  0  0  0  0  0  0  0  0  0  0
  148.3928  136.8392  155.9267 C   0  0  2  0  0  0  0  0  0  0  0  0
  147.9806  136.6880  157.4193 C   0  0  1  0  0  0  0  0  0  0  0  0
  149.1126  136.4924  158.4155 C   0  0  0  0  0  0  0  0  0  0  0  0
  148.4629  136.8795  159.7404 C   0  0  0  0  0  0  0  0  0  0  0  0
  147.4676  137.8439  159.4201 O   0  0  0  0  0  0  0  0  0  0  0  0
  147.3282  137.9443  158.0085 C   0  0  0  0  0  0  0  0  0  0  0  0
  149.4806  137.8570  155.8094 N   0  3  0  0  0  0  0  0  0  0  0  0
  150.3604  137.6696  154.6302 C   0  0  0  0  0  0  0  0  0  0  0  0
  151.5564  138.6336  154.7072 C   0  0  0  0  0  0  0  0  0  0  0  0
  151.0877  139.9735  154.8043 O   0  0  0  0  0  0  0  0  0  0  0  0
  150.3059  140.1847  155.9743 C   0  0  0  0  0  0  0  0  0  0  0  0
  149.0651  139.2776  155.9341 C   0  0  0  0  0  0  0  0  0  0  0  0
  146.5501  134.9169  152.2082 N   0  0  0  0  0  0  0  0  0  0  0  0
  145.7640  133.9938  151.4682 C   0  0  0  0  0  0  0  0  0  0  0  0
  146.4979  133.0865  150.6709 C   0  0  0  0  0  0  0  0  0  0  0  0
  145.8103  132.1297  149.8994 C   0  0  0  0  0  0  0  0  0  0  0  0
  144.4051  132.1044  149.9456 C   0  0  0  0  0  0  0  0  0  0  0  0
  143.7517  133.0420  150.7660 C   0  0  0  0  0  0  0  0  0  0  0  0
  144.4085  133.9599  151.5062 N   0  0  0  0  0  0  0  0  0  0  0  0
  148.0776  136.3662  153.2092 H   0  0  0  0  0  0  0  0  0  0  0  0
  147.2287  138.1941  154.6590 H   0  0  0  0  0  0  0  0  0  0  0  0
  146.2630  136.9948  155.4944 H   0  0  0  0  0  0  0  0  0  0  0  0
  148.8227  135.8837  155.6217 H   0  0  0  0  0  0  0  0  0  0  0  0
  147.2886  135.8522  157.5313 H   0  0  0  0  0  0  0  0  0  0  0  0
  149.4992  135.4735  158.4406 H   0  0  0  0  0  0  0  0  0  0  0  0
  149.9394  137.1686  158.1936 H   0  0  0  0  0  0  0  0  0  0  0  0
  147.9741  136.0154  160.1918 H   0  0  0  0  0  0  0  0  0  0  0  0
  149.1841  137.2732  160.4571 H   0  0  0  0  0  0  0  0  0  0  0  0
  147.8512  138.8424  157.6769 H   0  0  0  0  0  0  0  0  0  0  0  0
  146.2794  138.0432  157.7271 H   0  0  0  0  0  0  0  0  0  0  0  0
  150.7241  136.6422  154.5932 H   0  0  0  0  0  0  0  0  0  0  0  0
  149.8020  137.8465  153.7106 H   0  0  0  0  0  0  0  0  0  0  0  0
  152.1929  138.3962  155.5612 H   0  0  0  0  0  0  0  0  0  0  0  0
  152.1739  138.5388  153.8138 H   0  0  0  0  0  0  0  0  0  0  0  0
  150.9028  139.9902  156.8670 H   0  0  0  0  0  0  0  0  0  0  0  0
  150.0048  141.2316  156.0139 H   0  0  0  0  0  0  0  0  0  0  0  0
  148.4390  139.5662  155.0890 H   0  0  0  0  0  0  0  0  0  0  0  0
  148.4764  139.4270  156.8385 H   0  0  0  0  0  0  0  0  0  0  0  0
  147.4634  135.1112  151.8256 H   0  0  0  0  0  0  0  0  0  0  0  0
  147.5774  133.1198  150.6465 H   0  0  0  0  0  0  0  0  0  0  0  0
  146.3525  131.4279  149.2831 H   0  0  0  0  0  0  0  0  0  0  0  0
  143.8428  131.3856  149.3680 H   0  0  0  0  0  0  0  0  0  0  0  0
  142.6738  133.0557  150.8305 H   0  0  0  0  0  0  0  0  0  0  0  0
  150.0794  137.6814  156.6037 H   0  0  0  0  0  0  0  0  0  0  0  0
  1  2  2  0  0  0  0
  2  3  1  0  0  0  0
  2 17  1  0  0  0  0
  3  4  1  0  0  0  0
  3 24  1  0  0  0  0
  4  5  1  0  0  0  0
  4 25  1  0  0  0  0
  4 26  1  0  0  0  0
  5  6  1  0  0  0  0
  5 11  1  0  0  0  0
  5 27  1  0  0  0  0
  6 10  1  0  0  0  0
  6  7  1  0  0  0  0
  6 28  1  0  0  0  0
  7  8  1  0  0  0  0
  7 29  1  0  0  0  0
  7 30  1  0  0  0  0
  8  9  1  0  0  0  0
  8 31  1  0  0  0  0
  8 32  1  0  0  0  0
  9 10  1  0  0  0  0
 10 33  1  0  0  0  0
 10 34  1  0  0  0  0
 11 16  1  0  0  0  0
 11 12  1  0  0  0  0
 11 48  1  0  0  0  0
 12 13  1  0  0  0  0
 12 35  1  0  0  0  0
 12 36  1  0  0  0  0
 13 14  1  0  0  0  0
 13 37  1  0  0  0  0
 13 38  1  0  0  0  0
 14 15  1  0  0  0  0
 15 16  1  0  0  0  0
 15 39  1  0  0  0  0
 15 40  1  0  0  0  0
 16 41  1  0  0  0  0
 16 42  1  0  0  0  0
 17 18  1  0  0  0  0
 17 43  1  0  0  0  0
 18 23  1  0  0  0  0
 18 19  2  0  0  0  0
 19 20  1  0  0  0  0
 19 44  1  0  0  0  0
 20 21  2  0  0  0  0
 20 45  1  0  0  0  0
 21 22  1  0  0  0  0
 21 46  1  0  0  0  0
 22 23  2  0  0  0  0
 22 47  1  0  0  0  0
M  CHG  1  11   1
M  END
> <s_m_source_file>
AV-unprocessed.smi

> <i_m_source_file_index>
1933

> <i_lp_mmshare_version>
43012

> <i_f3d_flags>
0

> <s_epik_input>
bjFbY0hdW2NIXVtjSF1bY0hdYzFbTkhdQyg9TylbTkhdW0NIMl1bQ0BIXShbQ0BASF0yW0NIMl1bQ0gyXU9bQ0gyXTIpTjNbQ0gyXVtDSDJdT1tDSDJdW0NIMl0z

> <s_epik_cmdline>
J2VwaWtfcHl0aG9uJywgJy1waCcsICc3LjAnLCAnLXRuJywgJzgnLCAnLW1hJywgJzIwMCcsICctbWV0YWxfYmluZGluZycsICctaW1hZScsICc8aW5maWxlLm1hZT4nLCAnLW9tYWUnLCAnPG91dGZpbGUubWFlPic=

> <r_epik_Ionization_Penalty>
0.983294

> <r_epik_Ionization_Penalty_Charging>
0.98326

> <r_epik_Ionization_Penalty_Neutral>
3.39688e-05

> <r_epik_State_Penalty>
1.0303

> <r_epik_Charging_Adjusted_Penalty>
2.01356

> <i_epik_Tot_Q>
1

> <i_epik_Tot_abs_Q>
1

> <r_epik_Metal_State_Penalty>
1.0303

> <b_epik_Metal_Only>
0

> <s_lp_Force_Field>
OPLS_2005

> <r_lp_Energy>
40.8927

> <b_lp_Chiralities_Consistent>
1

> <s_lp_Variant>
AV-unprocessed.smi:1933-7

> <Gold.Version>
5.8.1

> <Gold.Id.Protein>
6NUR|6NUR_protein|mol2

> <Gold.PLP.Fitness>
44.3344

> <Gold.PLP.PLP>
-32.4229

> <Gold.PLP.part.hbond>
-4.0000

> <Gold.PLP.part.metal>
0.0000

> <Gold.PLP.part.buried>
-5.9221

> <Gold.PLP.part.nonpolar>
-24.1312

> <Gold.PLP.part.repulsive>
0.2600

> <Gold.PLP.ligand.clash>
0.0000

> <Gold.PLP.ligand.torsion>
1.1170

> <Gold.PLP.Chemscore.Hbond>
3.6000

> <Gold.PLP.Chemscore.CHOScore>
0.9974

> <Gold.PLP.Chemscore.Metal>
0.0000

> <Gold.Chemscore.Hbonds>
donor molecule, donor type, donor heavy atom, donor atom, acceptor molecule, acceptor atom, score
      L1  H     3    24       P1  7948  1.00
      L1  H    17    43       P1  7948  0.96
      P1  H  6934  6947       L1     9  0.61
      P1  H  7989  7998       L1    14  1.00
      L1  C    22    47       P1 10186  1.00

> <Gold.PLP.Chemscore.Internal.Correction>
0.3533

> <Gold.Rescore>
     Score         DG    S(hbond)    S(metal)    S(lipo)     H(rot)  DE(clash)    DE(int)     intcor
     18.83     -21.27       3.56        0.00      71.97       1.77       0.00       2.44       ----

> <Gold.Chemscore.Fitness>
18.8349

> <Gold.Chemscore.DG>
-21.2728

> <Gold.Chemscore.ZeroCoef>
-5.4800

> <Gold.Chemscore.Hbond>
3.5617

> <Gold.Chemscore.Metal>
0.0000

> <Gold.Chemscore.Lipo>
71.9692

> <Gold.Chemscore.Internal_Hbond>
0.0000

> <Gold.Chemscore.DEClash>
0.0000

> <Gold.Chemscore.DEInternal>
2.4379

> <Gold.Chemscore.Rot>
1.7671

> <Gold.Chemscore.Internal.Correction>
   9.000000E+99

> <Gold.Chemscore.Hbonds>
donor molecule, donor type, donor heavy atom, donor atom, acceptor molecule, acceptor atom, score
      L1  H     3    24       P1  7948  0.97
      L1  H    17    43       P1  7948  0.84
      P1  H  6934  6947       L1     9  0.47
      P1  H  7989  7998       L1    14  0.74

> <Gold.Chemscore.Hbond.Weighted>
-11.8962

> <Gold.Chemscore.Metal.Weighted>
-0.0000

> <Gold.Chemscore.Lipo.Weighted>
-8.4204

> <Gold.Chemscore.Internal_Hbond.Weighted>
0.0000

> <Gold.Chemscore.DEClash.Weighted>
0.0000

> <Gold.Chemscore.DEInternal.Weighted>
2.4379

> <Gold.Chemscore.Rot.Weighted>
4.5238

> <Gold.Chemscore.Internal.Correction.Weighted>
   9.000000E+99

> <Gold.Protein.RotatedTorsions>
[ 6907 6896 6895 6894 ] final -116.28 input  -60.11 | X-H torsion
[ 7974 7965 7964 7962 ] final -118.41 input  175.53 | X-H torsion
[ 8008 7997 7996 7995 ] final   68.78 input   59.86 | X-H torsion
[ 10167 10162 10161 10158 ] final  174.35 input  -65.29 | X-H torsion
[ 10718 10713 10712 10709 ] final  128.32 input   66.30 | X-H torsion
[ 10763 10752 10751 10750 ] final   24.90 input  -60.55 | X-H torsion
[ 11005 11000 10999 10996 ] final  112.25 input  -57.11 | X-H torsion

> <Gold.Protein.ActiveResidues>
 VAL166  LYS551  ARG553  GLY616  TRP617  ASP618  TYR619  PRO620  LYS621  CYS622 
 ASP623  PHE694  ASN695  SER759  ASP760  ASP761  ALA762  ILE779  LEU786  VAL792 
 PHE793  MET794  SER795  GLU796  ALA797  LYS798  CYS799  TRP800  GLU811  SER814 

> <Gold.Protein.RotatedAtoms>
  150.8044  133.8539  159.3212 H   0  0  0  0  0  0  0  0  0  0  0  0  # atno 6907 bound_to 6896
  151.6342  135.1018  160.0137 H   0  0  0  0  0  0  0  0  0  0  0  0  # atno 6908 bound_to 6896
  152.4133  133.6958  159.6452 H   0  0  0  0  0  0  0  0  0  0  0  0  # atno 6909 bound_to 6896
  145.0741  140.8380  143.4078 H   0  0  0  0  0  0  0  0  0  0  0  0  # atno 7974 bound_to 7965
  155.7136  140.3494  155.4984 H   0  0  0  0  0  0  0  0  0  0  0  0  # atno 8008 bound_to 7997
  155.9334  140.1088  157.1136 H   0  0  0  0  0  0  0  0  0  0  0  0  # atno 8009 bound_to 7997
  154.4089  140.1227  156.4819 H   0  0  0  0  0  0  0  0  0  0  0  0  # atno 8010 bound_to 7997
  139.5139  144.3157  152.0250 H   0  0  0  0  0  0  0  0  0  0  0  0  # atno 10167 bound_to 10162
  157.5255  131.1098  150.9089 H   0  0  0  0  0  0  0  0  0  0  0  0  # atno 10718 bound_to 10713
  153.0730  135.6595  154.0206 H   0  0  0  0  0  0  0  0  0  0  0  0  # atno 10763 bound_to 10752
  153.9847  135.2952  155.3418 H   0  0  0  0  0  0  0  0  0  0  0  0  # atno 10764 bound_to 10752
  154.7110  135.5205  153.8737 H   0  0  0  0  0  0  0  0  0  0  0  0  # atno 10765 bound_to 10752
  139.8923  134.9526  156.6557 H   0  0  0  0  0  0  0  0  0  0  0  0  # atno 11005 bound_to 11000
  145.1256  139.2665  143.5565 LP  0  0  0  0  0  0  0  0  0  0  0  0  # atno 17320 bound_to 7965
  146.3529  140.0893  142.8613 LP  0  0  0  0  0  0  0  0  0  0  0  0  # atno 17321 bound_to 7965
  140.2600  144.4077  150.6189 LP  0  0  0  0  0  0  0  0  0  0  0  0  # atno 17342 bound_to 10162
  140.6164  143.2172  151.6783 LP  0  0  0  0  0  0  0  0  0  0  0  0  # atno 17343 bound_to 10162
  156.9687  130.5482  149.5289 LP  0  0  0  0  0  0  0  0  0  0  0  0  # atno 17370 bound_to 10713
  156.0384  130.5469  150.8710 LP  0  0  0  0  0  0  0  0  0  0  0  0  # atno 17371 bound_to 10713
  140.7486  133.8917  155.8330 LP  0  0  0  0  0  0  0  0  0  0  0  0  # atno 17394 bound_to 11000
  141.0019  134.1138  157.4308 LP  0  0  0  0  0  0  0  0  0  0  0  0  # atno 17395 bound_to 11000

$$$$
