AV-unprocessed.smi:3053|AV-procd|sdf|11637|dock10
  -GOLD-   2272017 33D 1   1.00000     0.00000
 Structure written by MMmdl.
 31 32  0  0  0  0  0  0  0  0  1 V2000
  153.5341  141.1464  160.9334 C   0  0  0  0  0  0  0  0  0  0  0  0
  152.8072  142.2812  160.2983 C   0  0  0  0  0  0  0  0  0  0  0  0
  152.3588  142.2582  159.0408 N   0  0  0  0  0  0  0  0  0  0  0  0
  151.7335  143.4529  158.6710 C   0  0  0  0  0  0  0  0  0  0  0  0
  151.2169  143.6270  157.2720 C   0  0  0  0  0  0  0  0  0  0  0  0
  151.0422  142.2982  156.5090 C   0  0  0  0  0  0  0  0  0  0  0  0
  149.7979  142.2573  155.7429 N   0  0  0  0  0  0  0  0  0  0  0  0
  149.5008  141.3614  154.7878 C   0  0  0  0  0  0  0  0  0  0  0  0
  150.2404  140.4238  154.4852 O   0  0  0  0  0  0  0  0  0  0  0  0
  148.1619  141.5589  154.0644 C   0  0  2  0  0  0  0  0  0  0  0  0
  146.9400  141.3229  154.9668 C   0  0  0  0  0  0  0  0  0  0  0  0
  146.3127  140.1638  154.3615 N   0  0  0  0  0  0  0  0  0  0  0  0
  146.9279  139.7490  153.2522 C   0  0  0  0  0  0  0  0  0  0  0  0
  146.5858  138.8027  152.5482 O   0  0  0  0  0  0  0  0  0  0  0  0
  147.9806  140.5427  153.0411 N   0  0  0  0  0  0  0  0  0  0  0  0
  151.6925  144.3787  159.6841 C   0  0  0  0  0  0  0  0  0  0  0  0
  152.4677  143.7941  161.1297 S   0  0  0  0  0  0  0  0  0  0  0  0
  153.2855  140.2077  160.4374 H   0  0  0  0  0  0  0  0  0  0  0  0
  153.2617  141.0677  161.9860 H   0  0  0  0  0  0  0  0  0  0  0  0
  154.6097  141.3082  160.8602 H   0  0  0  0  0  0  0  0  0  0  0  0
  150.2623  144.1539  157.2920 H   0  0  0  0  0  0  0  0  0  0  0  0
  151.8940  144.2705  156.7091 H   0  0  0  0  0  0  0  0  0  0  0  0
  151.8998  142.1294  155.8555 H   0  0  0  0  0  0  0  0  0  0  0  0
  151.0357  141.4691  157.2166 H   0  0  0  0  0  0  0  0  0  0  0  0
  149.1256  142.9872  155.9302 H   0  0  0  0  0  0  0  0  0  0  0  0
  148.1171  142.5448  153.5985 H   0  0  0  0  0  0  0  0  0  0  0  0
  147.1998  141.1135  156.0058 H   0  0  0  0  0  0  0  0  0  0  0  0
  146.2558  142.1719  154.9468 H   0  0  0  0  0  0  0  0  0  0  0  0
  145.4862  139.7289  154.7455 H   0  0  0  0  0  0  0  0  0  0  0  0
  148.6243  140.4300  152.2715 H   0  0  0  0  0  0  0  0  0  0  0  0
  151.2726  145.3732  159.6609 H   0  0  0  0  0  0  0  0  0  0  0  0
  1  2  1  0  0  0  0
  1 18  1  0  0  0  0
  1 19  1  0  0  0  0
  1 20  1  0  0  0  0
  2 17  1  0  0  0  0
  2  3  2  0  0  0  0
  3  4  1  0  0  0  0
  4  5  1  0  0  0  0
  4 16  2  0  0  0  0
  5  6  1  0  0  0  0
  5 21  1  0  0  0  0
  5 22  1  0  0  0  0
  6  7  1  0  0  0  0
  6 23  1  0  0  0  0
  6 24  1  0  0  0  0
  7  8  1  0  0  0  0
  7 25  1  0  0  0  0
  8  9  2  0  0  0  0
  8 10  1  0  0  0  0
 10 15  1  0  0  0  0
 10 11  1  0  0  0  0
 10 26  1  0  0  0  0
 11 12  1  0  0  0  0
 11 27  1  0  0  0  0
 11 28  1  0  0  0  0
 12 13  1  0  0  0  0
 12 29  1  0  0  0  0
 13 14  2  0  0  0  0
 13 15  1  0  0  0  0
 15 30  1  0  0  0  0
 16 17  1  0  0  0  0
 16 31  1  0  0  0  0
M  END
> <s_m_source_file>
AV-unprocessed.smi

> <i_m_source_file_index>
3053

> <i_lp_mmshare_version>
43012

> <i_f3d_flags>
0

> <s_epik_input>
W0NIM11jMW5jKFtjSF1zMSlbQ0gyXVtDSDJdW05IXUMoPU8pW0NAQEhdMltDSDJdW05IXUMoPU8pW05IXTI=

> <s_epik_cmdline>
J2VwaWtfcHl0aG9uJywgJy1waCcsICc3LjAnLCAnLXRuJywgJzgnLCAnLW1hJywgJzIwMCcsICctbWV0YWxfYmluZGluZycsICctaW1hZScsICc8aW5maWxlLm1hZT4nLCAnLW9tYWUnLCAnPG91dGZpbGUubWFlPic=

> <r_epik_Ionization_Penalty>
0.00110852

> <r_epik_Ionization_Penalty_Charging>
0

> <r_epik_Ionization_Penalty_Neutral>
0.00110852

> <r_epik_State_Penalty>
0.000695988

> <r_epik_Charging_Adjusted_Penalty>
0.000695988

> <i_epik_Tot_Q>
0

> <i_epik_Tot_abs_Q>
0

> <r_epik_Metal_State_Penalty>
-0

> <b_epik_Metal_Only>
0

> <s_lp_Force_Field>
OPLS_2005

> <r_lp_Energy>
23.9072

> <b_lp_Chiralities_Consistent>
1

> <s_lp_Variant>
AV-unprocessed.smi:3053-1

> <Gold.Version>
5.8.1

> <Gold.Id.Protein>
6NUR|6NUR_protein|mol2

> <Gold.PLP.Fitness>
45.3091

> <Gold.PLP.PLP>
-38.2335

> <Gold.PLP.part.hbond>
-3.2146

> <Gold.PLP.part.metal>
0.0000

> <Gold.PLP.part.buried>
-5.3018

> <Gold.PLP.part.nonpolar>
-30.1934

> <Gold.PLP.part.repulsive>
0.6892

> <Gold.PLP.ligand.clash>
0.0000

> <Gold.PLP.ligand.torsion>
0.6759

> <Gold.PLP.Chemscore.Hbond>
2.7920

> <Gold.PLP.Chemscore.CHOScore>
0.0000

> <Gold.PLP.Chemscore.Metal>
0.0000

> <Gold.Chemscore.Hbonds>
donor molecule, donor type, donor heavy atom, donor atom, acceptor molecule, acceptor atom, score
      L1  H     7    25       P1  8028  0.82
      L1  H    15    30       P1  7957  0.99
      P1  H  7989  7998       L1     9  0.96

> <Gold.PLP.Chemscore.Internal.Correction>
0.0515

> <Gold.Rescore>
     Score         DG    S(hbond)    S(metal)    S(lipo)     H(rot)  DE(clash)    DE(int)     intcor
     18.84     -19.44       2.65        0.00      88.00       2.02       0.08       0.51       ----

> <Gold.Chemscore.Fitness>
18.8406

> <Gold.Chemscore.DG>
-19.4362

> <Gold.Chemscore.ZeroCoef>
-5.4800

> <Gold.Chemscore.Hbond>
2.6481

> <Gold.Chemscore.Metal>
0.0000

> <Gold.Chemscore.Lipo>
87.9973

> <Gold.Chemscore.Internal_Hbond>
0.0000

> <Gold.Chemscore.DEClash>
0.0806

> <Gold.Chemscore.DEInternal>
0.5150

> <Gold.Chemscore.Rot>
2.0250

> <Gold.Chemscore.Internal.Correction>
   9.000000E+99

> <Gold.Chemscore.Hbonds>
donor molecule, donor type, donor heavy atom, donor atom, acceptor molecule, acceptor atom, score
      L1  H     7    25       P1  8028  0.81
      L1  H    15    30       P1  7957  0.92
      P1  H  7989  7998       L1     9  0.81

> <Gold.Chemscore.Hbond.Weighted>
-8.8445

> <Gold.Chemscore.Metal.Weighted>
-0.0000

> <Gold.Chemscore.Lipo.Weighted>
-10.2957

> <Gold.Chemscore.Internal_Hbond.Weighted>
0.0000

> <Gold.Chemscore.DEClash.Weighted>
0.0806

> <Gold.Chemscore.DEInternal.Weighted>
0.5150

> <Gold.Chemscore.Rot.Weighted>
5.1840

> <Gold.Chemscore.Internal.Correction.Weighted>
   9.000000E+99

> <Gold.Protein.RotatedTorsions>
[ 6907 6896 6895 6894 ] final   66.79 input  -60.11 | X-H torsion
[ 7974 7965 7964 7962 ] final -129.85 input  175.53 | X-H torsion
[ 8008 7997 7996 7995 ] final   87.60 input   59.86 | X-H torsion
[ 10167 10162 10161 10158 ] final   98.71 input  -65.29 | X-H torsion
[ 10718 10713 10712 10709 ] final  -93.30 input   66.30 | X-H torsion
[ 10763 10752 10751 10750 ] final   -8.09 input  -60.55 | X-H torsion
[ 11005 11000 10999 10996 ] final  -69.98 input  -57.11 | X-H torsion

> <Gold.Protein.ActiveResidues>
 VAL166  LYS551  ARG553  GLY616  TRP617  ASP618  TYR619  PRO620  LYS621  CYS622 
 ASP623  PHE694  ASN695  SER759  ASP760  ASP761  ALA762  ILE779  LEU786  VAL792 
 PHE793  MET794  SER795  GLU796  ALA797  LYS798  CYS799  TRP800  GLU811  SER814 

> <Gold.Protein.RotatedAtoms>
  152.4506  134.5401  159.9836 H   0  0  0  0  0  0  0  0  0  0  0  0  # atno 6907 bound_to 6896
  151.5475  133.3417  159.2955 H   0  0  0  0  0  0  0  0  0  0  0  0  # atno 6908 bound_to 6896
  150.8434  134.7766  159.7014 H   0  0  0  0  0  0  0  0  0  0  0  0  # atno 6909 bound_to 6896
  144.9531  140.7366  143.4775 H   0  0  0  0  0  0  0  0  0  0  0  0  # atno 7974 bound_to 7965
  155.9774  140.3380  155.6631 H   0  0  0  0  0  0  0  0  0  0  0  0  # atno 8008 bound_to 7997
  155.6594  140.0714  157.2577 H   0  0  0  0  0  0  0  0  0  0  0  0  # atno 8009 bound_to 7997
  154.4182  140.1711  156.1747 H   0  0  0  0  0  0  0  0  0  0  0  0  # atno 8010 bound_to 7997
  139.7684  144.6931  151.0191 H   0  0  0  0  0  0  0  0  0  0  0  0  # atno 10167 bound_to 10162
  156.0012  130.5021  150.5756 H   0  0  0  0  0  0  0  0  0  0  0  0  # atno 10718 bound_to 10713
  153.4355  135.7013  153.6203 H   0  0  0  0  0  0  0  0  0  0  0  0  # atno 10763 bound_to 10752
  153.4599  135.3738  155.2333 H   0  0  0  0  0  0  0  0  0  0  0  0  # atno 10764 bound_to 10752
  154.8726  135.4017  154.3745 H   0  0  0  0  0  0  0  0  0  0  0  0  # atno 10765 bound_to 10752
  141.1565  133.6778  156.6683 H   0  0  0  0  0  0  0  0  0  0  0  0  # atno 11005 bound_to 11000
  145.2813  139.1917  143.4789 LP  0  0  0  0  0  0  0  0  0  0  0  0  # atno 17320 bound_to 7965
  146.3328  140.2776  142.8609 LP  0  0  0  0  0  0  0  0  0  0  0  0  # atno 17321 bound_to 7965
  140.7812  143.4617  151.0269 LP  0  0  0  0  0  0  0  0  0  0  0  0  # atno 17342 bound_to 10162
  139.8301  143.7702  152.3179 LP  0  0  0  0  0  0  0  0  0  0  0  0  # atno 17343 bound_to 10162
  157.3644  131.0755  151.1610 LP  0  0  0  0  0  0  0  0  0  0  0  0  # atno 17370 bound_to 10713
  157.2384  130.6558  149.5879 LP  0  0  0  0  0  0  0  0  0  0  0  0  # atno 17371 bound_to 10713
  140.3194  134.8020  157.4240 LP  0  0  0  0  0  0  0  0  0  0  0  0  # atno 17394 bound_to 11000
  140.1110  134.5346  155.8266 LP  0  0  0  0  0  0  0  0  0  0  0  0  # atno 17395 bound_to 11000

$$$$
