AV-unprocessed.smi:415|AV-procd|sdf|2519|dock2
  -GOLD-   2262022473D 1   1.00000     0.00000
 Structure written by MMmdl.
 53 54  0  0  0  0  0  0  0  0  1 V2000
  144.2408  133.1922  150.5445 C   0  0  0  0  0  0  0  0  0  0  0  0
  145.1245  132.6226  151.4943 O   0  0  0  0  0  0  0  0  0  0  0  0
  145.0688  133.2773  152.7502 C   0  0  0  0  0  0  0  0  0  0  0  0
  146.0309  134.4740  152.7262 C   0  0  0  0  0  0  0  0  0  0  0  0
  147.2657  134.2128  153.4400 N   0  0  0  0  0  0  0  0  0  0  0  0
  148.1317  133.1747  153.1086 C   0  0  0  0  0  0  0  0  0  0  0  0
  147.8338  132.3510  152.0379 N   0  0  0  0  0  0  0  0  0  0  0  0
  149.2713  132.9595  153.8026 C   0  0  0  0  0  0  0  0  0  0  0  0
  149.6571  133.8002  154.9269 C   0  0  0  0  0  0  0  0  0  0  0  0
  150.6778  133.6048  155.5876 O   0  0  0  0  0  0  0  0  0  0  0  0
  148.7794  134.8677  155.2261 N   0  0  0  0  0  0  0  0  0  0  0  0
  149.1111  135.7506  156.3669 C   0  0  0  0  0  0  0  0  0  0  0  0
  149.1071  135.0242  157.7209 C   0  0  0  0  0  0  0  0  0  0  0  0
  149.8244  134.0421  157.9166 O   0  0  0  0  0  0  0  0  0  0  0  0
  148.2722  135.5201  158.6465 N   0  0  0  0  0  0  0  0  0  0  0  0
  148.0908  134.9892  159.9958 C   0  0  1  0  0  0  0  0  0  0  0  0
  147.7630  136.1384  160.9687 C   0  0  0  0  0  0  0  0  0  0  0  0
  147.5951  135.6217  162.4054 C   0  0  0  0  0  0  0  0  0  0  0  0
  146.5470  134.5007  162.4839 C   0  0  0  0  0  0  0  0  0  0  0  0
  146.8738  133.3538  161.5059 C   0  0  1  0  0  0  0  0  0  0  0  0
  145.8909  132.1802  161.6521 C   0  0  0  0  0  0  0  0  0  0  0  0
  147.0163  133.8680  160.0481 C   0  0  1  0  0  0  0  0  0  0  0  0
  145.6724  134.2841  159.4054 C   0  0  0  0  0  0  0  0  0  0  0  0
  147.5892  135.0998  154.4989 C   0  0  0  0  0  0  0  0  0  0  0  0
  146.8569  136.0499  154.7891 O   0  0  0  0  0  0  0  0  0  0  0  0
  144.3233  132.6548  149.5998 H   0  0  0  0  0  0  0  0  0  0  0  0
  144.4831  134.2391  150.3575 H   0  0  0  0  0  0  0  0  0  0  0  0
  143.2050  133.1266  150.8798 H   0  0  0  0  0  0  0  0  0  0  0  0
  144.0509  133.6184  152.9457 H   0  0  0  0  0  0  0  0  0  0  0  0
  145.3436  132.5833  153.5461 H   0  0  0  0  0  0  0  0  0  0  0  0
  146.2795  134.7844  151.7099 H   0  0  0  0  0  0  0  0  0  0  0  0
  145.5791  135.3530  153.1851 H   0  0  0  0  0  0  0  0  0  0  0  0
  147.0002  132.4785  151.4824 H   0  0  0  0  0  0  0  0  0  0  0  0
  148.4544  131.6086  151.7485 H   0  0  0  0  0  0  0  0  0  0  0  0
  149.9213  132.1427  153.5231 H   0  0  0  0  0  0  0  0  0  0  0  0
  150.0862  136.2180  156.2189 H   0  0  0  0  0  0  0  0  0  0  0  0
  148.4238  136.5951  156.4329 H   0  0  0  0  0  0  0  0  0  0  0  0
  147.7172  136.3261  158.3988 H   0  0  0  0  0  0  0  0  0  0  0  0
  149.0431  134.5620  160.3174 H   0  0  0  0  0  0  0  0  0  0  0  0
  148.5583  136.8844  160.9441 H   0  0  0  0  0  0  0  0  0  0  0  0
  146.8535  136.6522  160.6555 H   0  0  0  0  0  0  0  0  0  0  0  0
  148.5529  135.2490  162.7705 H   0  0  0  0  0  0  0  0  0  0  0  0
  147.3126  136.4422  163.0654 H   0  0  0  0  0  0  0  0  0  0  0  0
  146.5065  134.1180  163.5044 H   0  0  0  0  0  0  0  0  0  0  0  0
  145.5571  134.9067  162.2729 H   0  0  0  0  0  0  0  0  0  0  0  0
  147.8507  132.9624  161.7948 H   0  0  0  0  0  0  0  0  0  0  0  0
  144.8600  132.4879  161.4769 H   0  0  0  0  0  0  0  0  0  0  0  0
  145.9355  131.7601  162.6572 H   0  0  0  0  0  0  0  0  0  0  0  0
  146.1277  131.3792  160.9513 H   0  0  0  0  0  0  0  0  0  0  0  0
  147.3928  133.0346  159.4531 H   0  0  0  0  0  0  0  0  0  0  0  0
  145.1990  135.1063  159.9406 H   0  0  0  0  0  0  0  0  0  0  0  0
  144.9656  133.4557  159.3828 H   0  0  0  0  0  0  0  0  0  0  0  0
  145.8044  134.6000  158.3706 H   0  0  0  0  0  0  0  0  0  0  0  0
  1  2  1  0  0  0  0
  1 26  1  0  0  0  0
  1 27  1  0  0  0  0
  1 28  1  0  0  0  0
  2  3  1  0  0  0  0
  3  4  1  0  0  0  0
  3 29  1  0  0  0  0
  3 30  1  0  0  0  0
  4  5  1  0  0  0  0
  4 31  1  0  0  0  0
  4 32  1  0  0  0  0
  5 24  1  0  0  0  0
  5  6  1  0  0  0  0
  6  7  1  0  0  0  0
  6  8  2  0  0  0  0
  7 33  1  0  0  0  0
  7 34  1  0  0  0  0
  8  9  1  0  0  0  0
  8 35  1  0  0  0  0
  9 10  2  0  0  0  0
  9 11  1  0  0  0  0
 11 12  1  0  0  0  0
 11 24  1  0  0  0  0
 12 13  1  0  0  0  0
 12 36  1  0  0  0  0
 12 37  1  0  0  0  0
 13 14  2  0  0  0  0
 13 15  1  0  0  0  0
 15 16  1  0  0  0  0
 15 38  1  0  0  0  0
 16 22  1  0  0  0  0
 16 17  1  0  0  0  0
 16 39  1  0  0  0  0
 17 18  1  0  0  0  0
 17 40  1  0  0  0  0
 17 41  1  0  0  0  0
 18 19  1  0  0  0  0
 18 42  1  0  0  0  0
 18 43  1  0  0  0  0
 19 20  1  0  0  0  0
 19 44  1  0  0  0  0
 19 45  1  0  0  0  0
 20 21  1  0  0  0  0
 20 22  1  0  0  0  0
 20 46  1  0  0  0  0
 21 47  1  0  0  0  0
 21 48  1  0  0  0  0
 21 49  1  0  0  0  0
 22 23  1  0  0  0  0
 22 50  1  0  0  0  0
 23 51  1  0  0  0  0
 23 52  1  0  0  0  0
 23 53  1  0  0  0  0
 24 25  2  0  0  0  0
M  END
> <s_m_source_file>
AV-unprocessed.smi

> <i_m_source_file_index>
415

> <i_lp_mmshare_version>
43012

> <i_f3d_flags>
0

> <s_epik_input>
W0NIM11PW0NIMl1bQ0gyXW4xYyhbTkgyXSlbY0hdYyg9TyluKGMxPU8pW0NIMl1DKD1PKVtOSF1bQ0BASF0yW0NIMl1bQ0gyXVtDSDJdW0NAQEhdKFtDSDNdKVtDQEhdMltDSDNd

> <s_epik_cmdline>
J2VwaWtfcHl0aG9uJywgJy1waCcsICc3LjAnLCAnLXRuJywgJzgnLCAnLW1hJywgJzIwMCcsICctbWV0YWxfYmluZGluZycsICctaW1hZScsICc8aW5maWxlLm1hZT4nLCAnLW9tYWUnLCAnPG91dGZpbGUubWFlPic=

> <r_lp_tautomer_probability>
1

> <r_epik_Ionization_Penalty>
8.6647e-06

> <r_epik_Ionization_Penalty_Charging>
1.81162e-08

> <r_epik_Ionization_Penalty_Neutral>
8.64658e-06

> <r_epik_State_Penalty>
-0

> <r_epik_Charging_Adjusted_Penalty>
1.81162e-08

> <i_epik_Tot_Q>
0

> <i_epik_Tot_abs_Q>
0

> <r_epik_Metal_State_Penalty>
-0

> <b_epik_Metal_Only>
0

> <s_lp_Force_Field>
OPLS_2005

> <r_lp_Energy>
22.062

> <b_lp_Chiralities_Consistent>
1

> <s_lp_Variant>
AV-unprocessed.smi:415-2

> <Gold.Version>
5.8.1

> <Gold.Id.Protein>
6NUR|6NUR_protein|mol2

> <Gold.PLP.Fitness>
40.4576

> <Gold.PLP.PLP>
-36.6405

> <Gold.PLP.part.hbond>
-2.0000

> <Gold.PLP.part.metal>
0.0000

> <Gold.PLP.part.buried>
-3.7286

> <Gold.PLP.part.nonpolar>
-31.1207

> <Gold.PLP.part.repulsive>
0.2889

> <Gold.PLP.ligand.clash>
0.0000

> <Gold.PLP.ligand.torsion>
0.8564

> <Gold.PLP.Chemscore.Hbond>
1.8160

> <Gold.PLP.Chemscore.CHOScore>
0.0000

> <Gold.PLP.Chemscore.Metal>
0.0000

> <Gold.Chemscore.Hbonds>
donor molecule, donor type, donor heavy atom, donor atom, acceptor molecule, acceptor atom, score
      L1  H     7    34       P1 10747  0.78
      P1  H  6896  6908       L1    14  1.00

> <Gold.PLP.Chemscore.Internal.Correction>
0.0819

> <Gold.Rescore>
     Score         DG    S(hbond)    S(metal)    S(lipo)     H(rot)  DE(clash)    DE(int)     intcor
     11.06     -14.23       1.97        0.00      68.16       2.26       0.10       3.08       ----

> <Gold.Chemscore.Fitness>
11.0559

> <Gold.Chemscore.DG>
-14.2333

> <Gold.Chemscore.ZeroCoef>
-5.4800

> <Gold.Chemscore.Hbond>
1.9686

> <Gold.Chemscore.Metal>
0.0000

> <Gold.Chemscore.Lipo>
68.1650

> <Gold.Chemscore.Internal_Hbond>
0.0000

> <Gold.Chemscore.DEClash>
0.1019

> <Gold.Chemscore.DEInternal>
3.0754

> <Gold.Chemscore.Rot>
2.2645

> <Gold.Chemscore.Internal.Correction>
   9.000000E+99

> <Gold.Chemscore.Hbonds>
donor molecule, donor type, donor heavy atom, donor atom, acceptor molecule, acceptor atom, score
      L1  H     7    34       P1 10747  0.78
      P1  H  6896  6908       L1    14  0.91

> <Gold.Chemscore.Hbond.Weighted>
-6.5752

> <Gold.Chemscore.Metal.Weighted>
-0.0000

> <Gold.Chemscore.Lipo.Weighted>
-7.9753

> <Gold.Chemscore.Internal_Hbond.Weighted>
0.0000

> <Gold.Chemscore.DEClash.Weighted>
0.1019

> <Gold.Chemscore.DEInternal.Weighted>
3.0754

> <Gold.Chemscore.Rot.Weighted>
5.7972

> <Gold.Chemscore.Internal.Correction.Weighted>
   9.000000E+99

> <Gold.Protein.RotatedTorsions>
[ 6907 6896 6895 6894 ] final  136.73 input  -60.11 | X-H torsion
[ 7974 7965 7964 7962 ] final   60.17 input  175.53 | X-H torsion
[ 8008 7997 7996 7995 ] final  -89.68 input   59.86 | X-H torsion
[ 10167 10162 10161 10158 ] final  170.43 input  -65.29 | X-H torsion
[ 10718 10713 10712 10709 ] final  -88.58 input   66.30 | X-H torsion
[ 10763 10752 10751 10750 ] final -108.29 input  -60.55 | X-H torsion
[ 11005 11000 10999 10996 ] final  -59.10 input  -57.11 | X-H torsion

> <Gold.Protein.ActiveResidues>
 VAL166  LYS551  ARG553  GLY616  TRP617  ASP618  TYR619  PRO620  LYS621  CYS622 
 ASP623  PHE694  ASN695  SER759  ASP760  ASP761  ALA762  ILE779  LEU786  VAL792 
 PHE793  MET794  SER795  GLU796  ALA797  LYS798  CYS799  TRP800  GLU811  SER814 

> <Gold.Protein.RotatedAtoms>
  152.2861  133.5516  159.5527 H   0  0  0  0  0  0  0  0  0  0  0  0  # atno 6907 bound_to 6896
  150.7215  134.0495  159.3802 H   0  0  0  0  0  0  0  0  0  0  0  0  # atno 6908 bound_to 6896
  151.8404  135.0592  160.0498 H   0  0  0  0  0  0  0  0  0  0  0  0  # atno 6909 bound_to 6896
  145.8990  139.3567  143.0604 H   0  0  0  0  0  0  0  0  0  0  0  0  # atno 7974 bound_to 7965
  154.6895  140.0539  157.0349 H   0  0  0  0  0  0  0  0  0  0  0  0  # atno 8008 bound_to 7997
  155.0837  140.3212  155.4575 H   0  0  0  0  0  0  0  0  0  0  0  0  # atno 8009 bound_to 7997
  156.2723  140.2060  156.5965 H   0  0  0  0  0  0  0  0  0  0  0  0  # atno 8010 bound_to 7997
  139.5018  144.3597  151.9837 H   0  0  0  0  0  0  0  0  0  0  0  0  # atno 10167 bound_to 10162
  155.9983  130.4841  150.5041 H   0  0  0  0  0  0  0  0  0  0  0  0  # atno 10718 bound_to 10713
  154.8127  135.4643  154.0559 H   0  0  0  0  0  0  0  0  0  0  0  0  # atno 10763 bound_to 10752
  153.1977  135.6864  153.8278 H   0  0  0  0  0  0  0  0  0  0  0  0  # atno 10764 bound_to 10752
  153.7774  135.3261  155.3338 H   0  0  0  0  0  0  0  0  0  0  0  0  # atno 10765 bound_to 10752
  141.1234  133.6615  156.5020 H   0  0  0  0  0  0  0  0  0  0  0  0  # atno 11005 bound_to 11000
  145.8814  140.9360  143.0599 LP  0  0  0  0  0  0  0  0  0  0  0  0  # atno 17320 bound_to 7965
  144.6734  140.0785  143.7470 LP  0  0  0  0  0  0  0  0  0  0  0  0  # atno 17321 bound_to 7965
  140.3034  144.3621  150.6054 LP  0  0  0  0  0  0  0  0  0  0  0  0  # atno 17342 bound_to 10162
  140.5856  143.2170  151.7348 LP  0  0  0  0  0  0  0  0  0  0  0  0  # atno 17343 bound_to 10162
  157.3022  131.0647  151.2060 LP  0  0  0  0  0  0  0  0  0  0  0  0  # atno 17370 bound_to 10713
  157.3035  130.6854  149.6177 LP  0  0  0  0  0  0  0  0  0  0  0  0  # atno 17371 bound_to 10713
  140.4438  134.6991  157.5005 LP  0  0  0  0  0  0  0  0  0  0  0  0  # atno 17394 bound_to 11000
  140.0211  134.6546  155.9238 LP  0  0  0  0  0  0  0  0  0  0  0  0  # atno 17395 bound_to 11000

$$$$
