AV-unprocessed.smi:3279|AV-procd|sdf|12549|dock4
  -GOLD-   2272018463D 1   1.00000     0.00000
 Structure written by MMmdl.
 35 35  0  0  0  0  0  0  0  0  2 V2000
  150.5068  136.5157  156.4659 C   0  0  0  0  0  0  0  0  0  0  0  0
  150.7461  137.4702  157.6464 C   0  0  1  0  0  0  0  0  0  0  0  0
  150.8371  138.9470  157.2049 C   0  0  0  0  0  0  0  0  0  0  0  0
  151.2552  139.8161  158.3031 N   0  0  0  0  0  0  0  0  0  0  0  0
  152.5147  139.9831  158.7363 C   0  0  0  0  0  0  0  0  0  0  0  0
  153.4759  139.3482  158.3011 O   0  0  0  0  0  0  0  0  0  0  0  0
  152.7170  141.0353  159.8257 C   0  0  0  0  0  0  0  0  0  0  0  0
  151.7111  142.0346  159.6865 O   0  0  0  0  0  0  0  0  0  0  0  0
  152.0405  143.3818  160.0326 C   0  0  0  0  0  0  0  0  0  0  0  0
  150.8364  144.3235  159.8317 C   0  0  0  0  0  0  0  0  0  0  0  0
  153.1586  143.7623  159.0488 C   0  0  0  0  0  0  0  0  0  0  0  0
  152.5752  143.4594  161.4763 C   0  0  0  0  0  0  0  0  0  0  0  0
  149.7426  137.2529  158.7458 C   0  0  0  0  0  0  0  0  0  0  0  0
  148.9930  138.2435  159.2534 N   0  0  0  0  0  0  0  0  0  0  0  0
  148.2270  137.6238  160.1611 N   0  0  0  0  0  0  0  0  0  0  0  0
  148.5186  136.3180  160.1833 N   0  0  0  0  0  0  0  0  0  0  0  0
  149.4819  136.0536  159.2908 N   0  5  0  0  0  0  0  0  0  0  0  0
  150.5299  135.4757  156.7928 H   0  0  0  0  0  0  0  0  0  0  0  0
  151.2729  136.6386  155.7001 H   0  0  0  0  0  0  0  0  0  0  0  0
  149.5387  136.6966  155.9978 H   0  0  0  0  0  0  0  0  0  0  0  0
  151.7399  137.2175  158.0204 H   0  0  0  0  0  0  0  0  0  0  0  0
  151.5614  139.0482  156.3963 H   0  0  0  0  0  0  0  0  0  0  0  0
  149.8781  139.2677  156.7945 H   0  0  0  0  0  0  0  0  0  0  0  0
  150.5368  140.3873  158.7238 H   0  0  0  0  0  0  0  0  0  0  0  0
  152.6566  140.5545  160.8025 H   0  0  0  0  0  0  0  0  0  0  0  0
  153.7165  141.4539  159.7131 H   0  0  0  0  0  0  0  0  0  0  0  0
  151.1313  145.3663  159.9517 H   0  0  0  0  0  0  0  0  0  0  0  0
  150.0428  144.1339  160.5542 H   0  0  0  0  0  0  0  0  0  0  0  0
  150.4125  144.2131  158.8330 H   0  0  0  0  0  0  0  0  0  0  0  0
  152.8141  143.6953  158.0160 H   0  0  0  0  0  0  0  0  0  0  0  0
  154.0173  143.0979  159.1506 H   0  0  0  0  0  0  0  0  0  0  0  0
  153.5075  144.7819  159.2156 H   0  0  0  0  0  0  0  0  0  0  0  0
  152.9686  144.4528  161.6942 H   0  0  0  0  0  0  0  0  0  0  0  0
  153.3814  142.7430  161.6370 H   0  0  0  0  0  0  0  0  0  0  0  0
  151.7978  143.2579  162.2131 H   0  0  0  0  0  0  0  0  0  0  0  0
  1  2  1  0  0  0  0
  1 18  1  0  0  0  0
  1 19  1  0  0  0  0
  1 20  1  0  0  0  0
  2  3  1  0  0  0  0
  2 13  1  0  0  0  0
  2 21  1  0  0  0  0
  3  4  1  0  0  0  0
  3 22  1  0  0  0  0
  3 23  1  0  0  0  0
  4  5  1  0  0  0  0
  4 24  1  0  0  0  0
  5  6  2  0  0  0  0
  5  7  1  0  0  0  0
  7  8  1  0  0  0  0
  7 25  1  0  0  0  0
  7 26  1  0  0  0  0
  8  9  1  0  0  0  0
  9 10  1  0  0  0  0
  9 11  1  0  0  0  0
  9 12  1  0  0  0  0
 10 27  1  0  0  0  0
 10 28  1  0  0  0  0
 10 29  1  0  0  0  0
 11 30  1  0  0  0  0
 11 31  1  0  0  0  0
 11 32  1  0  0  0  0
 12 33  1  0  0  0  0
 12 34  1  0  0  0  0
 12 35  1  0  0  0  0
 13 17  1  0  0  0  0
 13 14  2  0  0  0  0
 14 15  1  0  0  0  0
 15 16  2  0  0  0  0
 16 17  1  0  0  0  0
M  CHG  1  17  -1
M  END
> <s_m_source_file>
AV-unprocessed.smi

> <i_m_source_file_index>
3279

> <i_lp_mmshare_version>
43012

> <i_f3d_flags>
0

> <s_epik_input>
W25IXTFubm5jMVtDQEhdKFtDSDNdKVtDSDJdW05IXUMoPU8pW0NIMl1PQyhbQ0gzXSkoW0NIM10pW0NIM10=

> <s_epik_cmdline>
J2VwaWtfcHl0aG9uJywgJy1waCcsICc3LjAnLCAnLXRuJywgJzgnLCAnLW1hJywgJzIwMCcsICctbWV0YWxfYmluZGluZycsICctaW1hZScsICc8aW5maWxlLm1hZT4nLCAnLW9tYWUnLCAnPG91dGZpbGUubWFlPic=

> <r_epik_Ionization_Penalty>
0.054353

> <r_epik_Ionization_Penalty_Charging>
0.054353

> <r_epik_Ionization_Penalty_Neutral>
3.0997e-08

> <r_epik_State_Penalty>
0.0139445

> <r_epik_Charging_Adjusted_Penalty>
0.0682975

> <i_epik_Tot_Q>
-1

> <i_epik_Tot_abs_Q>
1

> <r_epik_Metal_State_Penalty>
0.0109703

> <b_epik_Metal_Only>
0

> <s_lp_Force_Field>
OPLS_2005

> <r_lp_Energy>
1.27922

> <b_lp_Chiralities_Consistent>
1

> <s_lp_Variant>
AV-unprocessed.smi:3279-2

> <Gold.Version>
5.8.1

> <Gold.Id.Protein>
6NUR|6NUR_protein|mol2

> <Gold.PLP.Fitness>
38.7931

> <Gold.PLP.PLP>
-28.3606

> <Gold.PLP.part.hbond>
-6.1805

> <Gold.PLP.part.metal>
0.0000

> <Gold.PLP.part.buried>
-3.3949

> <Gold.PLP.part.nonpolar>
-18.6185

> <Gold.PLP.part.repulsive>
0.1165

> <Gold.PLP.ligand.clash>
0.0000

> <Gold.PLP.ligand.torsion>
0.8054

> <Gold.PLP.Chemscore.Hbond>
3.9792

> <Gold.PLP.Chemscore.CHOScore>
0.0000

> <Gold.PLP.Chemscore.Metal>
0.0000

> <Gold.Chemscore.Hbonds>
donor molecule, donor type, donor heavy atom, donor atom, acceptor molecule, acceptor atom, score
      P1  H  6896  6908       L1    17  2.00
      P1  H  6931  6943       L1    15  0.45
      P1  H  6934  6947       L1    15  0.51
      P1  H  7997  8008       L1     6  1.00

> <Gold.PLP.Chemscore.Internal.Correction>
0.1056

> <Gold.Rescore>
     Score         DG    S(hbond)    S(metal)    S(lipo)     H(rot)  DE(clash)    DE(int)     intcor
     13.75     -14.66       2.35        0.00      69.18       2.64       0.03       0.88       ----

> <Gold.Chemscore.Fitness>
13.7453

> <Gold.Chemscore.DG>
-14.6566

> <Gold.Chemscore.ZeroCoef>
-5.4800

> <Gold.Chemscore.Hbond>
2.3483

> <Gold.Chemscore.Metal>
0.0000

> <Gold.Chemscore.Lipo>
69.1799

> <Gold.Chemscore.Internal_Hbond>
0.0000

> <Gold.Chemscore.DEClash>
0.0341

> <Gold.Chemscore.DEInternal>
0.8772

> <Gold.Chemscore.Rot>
2.6409

> <Gold.Chemscore.Internal.Correction>
   9.000000E+99

> <Gold.Chemscore.Hbonds>
donor molecule, donor type, donor heavy atom, donor atom, acceptor molecule, acceptor atom, score
      P1  H  6896  6908       L1    17  0.94
      P1  H  6931  6943       L1    15  0.04
      P1  H  6934  6947       L1    15  0.21
      P1  H  7997  8008       L1     6  1.00

> <Gold.Chemscore.Hbond.Weighted>
-7.8432

> <Gold.Chemscore.Metal.Weighted>
-0.0000

> <Gold.Chemscore.Lipo.Weighted>
-8.0941

> <Gold.Chemscore.Internal_Hbond.Weighted>
0.0000

> <Gold.Chemscore.DEClash.Weighted>
0.0341

> <Gold.Chemscore.DEInternal.Weighted>
0.8772

> <Gold.Chemscore.Rot.Weighted>
6.7607

> <Gold.Chemscore.Internal.Correction.Weighted>
   9.000000E+99

> <Gold.Protein.RotatedTorsions>
[ 6907 6896 6895 6894 ] final  167.95 input  -60.11 | X-H torsion
[ 7974 7965 7964 7962 ] final   -9.66 input  175.53 | X-H torsion
[ 8008 7997 7996 7995 ] final  -92.97 input   59.86 | X-H torsion
[ 10167 10162 10161 10158 ] final    8.36 input  -65.29 | X-H torsion
[ 10718 10713 10712 10709 ] final   83.17 input   66.30 | X-H torsion
[ 10763 10752 10751 10750 ] final -101.98 input  -60.55 | X-H torsion
[ 11005 11000 10999 10996 ] final  100.91 input  -57.11 | X-H torsion

> <Gold.Protein.ActiveResidues>
 VAL166  LYS551  ARG553  GLY616  TRP617  ASP618  TYR619  PRO620  LYS621  CYS622 
 ASP623  PHE694  ASN695  SER759  ASP760  ASP761  ALA762  ILE779  LEU786  VAL792 
 PHE793  MET794  SER795  GLU796  ALA797  LYS798  CYS799  TRP800  GLU811  SER814 

> <Gold.Protein.RotatedAtoms>
  151.8552  133.3447  159.3685 H   0  0  0  0  0  0  0  0  0  0  0  0  # atno 6907 bound_to 6896
  150.7195  134.5260  159.5686 H   0  0  0  0  0  0  0  0  0  0  0  0  # atno 6908 bound_to 6896
  152.2762  134.7880  160.0456 H   0  0  0  0  0  0  0  0  0  0  0  0  # atno 6909 bound_to 6896
  146.2245  140.2649  142.8353 H   0  0  0  0  0  0  0  0  0  0  0  0  # atno 7974 bound_to 7965
  154.7298  140.0503  157.0716 H   0  0  0  0  0  0  0  0  0  0  0  0  # atno 8008 bound_to 7997
  155.0316  140.3158  155.4737 H   0  0  0  0  0  0  0  0  0  0  0  0  # atno 8009 bound_to 7997
  156.2838  140.2149  156.5438 H   0  0  0  0  0  0  0  0  0  0  0  0  # atno 8010 bound_to 7997
  140.6319  143.7975  150.7306 H   0  0  0  0  0  0  0  0  0  0  0  0  # atno 10167 bound_to 10162
  157.6873  131.0079  150.2483 H   0  0  0  0  0  0  0  0  0  0  0  0  # atno 10718 bound_to 10713
  154.7699  135.4877  153.9628 H   0  0  0  0  0  0  0  0  0  0  0  0  # atno 10763 bound_to 10752
  153.1354  135.6762  153.9118 H   0  0  0  0  0  0  0  0  0  0  0  0  # atno 10764 bound_to 10752
  153.8809  135.3132  155.3423 H   0  0  0  0  0  0  0  0  0  0  0  0  # atno 10765 bound_to 10752
  139.8772  134.9160  156.4827 H   0  0  0  0  0  0  0  0  0  0  0  0  # atno 11005 bound_to 11000
  144.9311  140.7976  143.5688 LP  0  0  0  0  0  0  0  0  0  0  0  0  # atno 17320 bound_to 7965
  145.2593  139.1999  143.4900 LP  0  0  0  0  0  0  0  0  0  0  0  0  # atno 17321 bound_to 7965
  140.1588  143.4294  152.2081 LP  0  0  0  0  0  0  0  0  0  0  0  0  # atno 17342 bound_to 10162
  139.5532  144.7353  151.4372 LP  0  0  0  0  0  0  0  0  0  0  0  0  # atno 17343 bound_to 10162
  156.3084  130.3768  149.7684 LP  0  0  0  0  0  0  0  0  0  0  0  0  # atno 17370 bound_to 10713
  156.5292  130.8250  151.3231 LP  0  0  0  0  0  0  0  0  0  0  0  0  # atno 17371 bound_to 10713
  140.8716  133.7984  155.9370 LP  0  0  0  0  0  0  0  0  0  0  0  0  # atno 17394 bound_to 11000
  140.8947  134.2452  157.5075 LP  0  0  0  0  0  0  0  0  0  0  0  0  # atno 17395 bound_to 11000

$$$$
