AV-unprocessed.smi:548|AV-procd|sdf|2891|dock8
  -GOLD-   2262023383D 1   1.00000     0.00000
 Structure written by MMmdl.
 24 24  0  0  0  0  0  0  0  0  2 V2000
  150.7570  137.4552  156.4796 C   0  0  0  0  0  0  0  0  0  0  0  0
  151.9469  138.4433  156.4030 C   0  0  0  0  0  0  0  0  0  0  0  0
  153.0065  138.0303  157.4540 C   0  0  0  0  0  0  0  0  0  0  0  0
  152.5829  138.3525  154.9870 C   0  0  0  0  0  0  0  0  0  0  0  0
  152.1137  137.5129  154.1858 O   0  0  0  0  0  0  0  0  0  0  0  0
  153.5551  139.0985  154.7313 O   0  5  0  0  0  0  0  0  0  0  0  0
  151.4555  139.8814  156.6901 C   0  0  0  0  0  0  0  0  0  0  0  0
  150.5318  140.5916  155.8775 C   0  0  0  0  0  0  0  0  0  0  0  0
  150.1539  141.9001  156.2359 C   0  0  0  0  0  0  0  0  0  0  0  0
  150.7094  142.4663  157.3981 C   0  0  0  0  0  0  0  0  0  0  0  0
  150.3595  143.7578  157.7842 N   0  0  0  0  0  0  0  0  0  0  0  0
  151.5872  141.8140  158.1847 N   0  0  0  0  0  0  0  0  0  0  0  0
  151.9433  140.5601  157.8328 C   0  0  0  0  0  0  0  0  0  0  0  0
  149.9433  137.7488  155.8150 H   0  0  0  0  0  0  0  0  0  0  0  0
  150.3419  137.3989  157.4860 H   0  0  0  0  0  0  0  0  0  0  0  0
  151.0598  136.4434  156.2055 H   0  0  0  0  0  0  0  0  0  0  0  0
  153.8322  138.7422  157.4979 H   0  0  0  0  0  0  0  0  0  0  0  0
  153.4271  137.0483  157.2324 H   0  0  0  0  0  0  0  0  0  0  0  0
  152.5813  137.9732  158.4560 H   0  0  0  0  0  0  0  0  0  0  0  0
  150.0984  140.1696  154.9838 H   0  0  0  0  0  0  0  0  0  0  0  0
  149.4525  142.4518  155.6274 H   0  0  0  0  0  0  0  0  0  0  0  0
  149.7080  144.3110  157.2470 H   0  0  0  0  0  0  0  0  0  0  0  0
  150.7467  144.1790  158.6161 H   0  0  0  0  0  0  0  0  0  0  0  0
  152.6487  140.0840  158.4970 H   0  0  0  0  0  0  0  0  0  0  0  0
  1  2  1  0  0  0  0
  1 14  1  0  0  0  0
  1 15  1  0  0  0  0
  1 16  1  0  0  0  0
  2  3  1  0  0  0  0
  2  4  1  0  0  0  0
  2  7  1  0  0  0  0
  3 17  1  0  0  0  0
  3 18  1  0  0  0  0
  3 19  1  0  0  0  0
  4  5  2  0  0  0  0
  4  6  1  0  0  0  0
  7 13  1  0  0  0  0
  7  8  2  0  0  0  0
  8  9  1  0  0  0  0
  8 20  1  0  0  0  0
  9 10  2  0  0  0  0
  9 21  1  0  0  0  0
 10 11  1  0  0  0  0
 10 12  1  0  0  0  0
 11 22  1  0  0  0  0
 11 23  1  0  0  0  0
 12 13  2  0  0  0  0
 13 24  1  0  0  0  0
M  CHG  1   6  -1
M  END
> <s_m_source_file>
AV-unprocessed.smi

> <i_m_source_file_index>
548

> <i_lp_mmshare_version>
43012

> <i_f3d_flags>
0

> <s_epik_input>
Tz1DKFtPSF0pQyhbQ0gzXSkoW0NIM10pYzFbY0hdW2NIXWMoW05IMl0pbltjSF0x

> <s_epik_cmdline>
J2VwaWtfcHl0aG9uJywgJy1waCcsICc3LjAnLCAnLXRuJywgJzgnLCAnLW1hJywgJzIwMCcsICctbWV0YWxfYmluZGluZycsICctaW1hZScsICc8aW5maWxlLm1hZT4nLCAnLW9tYWUnLCAnPG91dGZpbGUubWFlPic=

> <r_lp_tautomer_probability>
1

> <r_epik_Ionization_Penalty>
1.52711

> <r_epik_Ionization_Penalty_Charging>
0.000624596

> <r_epik_Ionization_Penalty_Neutral>
1.52649

> <r_epik_State_Penalty>
1.61852

> <r_epik_Charging_Adjusted_Penalty>
1.61914

> <i_epik_Tot_Q>
-1

> <i_epik_Tot_abs_Q>
1

> <r_epik_Metal_State_Penalty>
0.00844734

> <b_epik_Metal_Only>
0

> <s_lp_Force_Field>
OPLS_2005

> <r_lp_Energy>
9.30736

> <b_lp_Chiralities_Consistent>
1

> <s_lp_Variant>
AV-unprocessed.smi:548-2

> <Gold.Version>
5.8.1

> <Gold.Id.Protein>
6NUR|6NUR_protein|mol2

> <Gold.PLP.Fitness>
34.5493

> <Gold.PLP.PLP>
-20.5836

> <Gold.PLP.part.hbond>
-3.0000

> <Gold.PLP.part.metal>
0.0000

> <Gold.PLP.part.buried>
-3.9263

> <Gold.PLP.part.nonpolar>
-15.2663

> <Gold.PLP.part.repulsive>
0.2019

> <Gold.PLP.ligand.clash>
0.0000

> <Gold.PLP.ligand.torsion>
0.0655

> <Gold.PLP.Chemscore.Hbond>
4.6960

> <Gold.PLP.Chemscore.CHOScore>
0.0000

> <Gold.PLP.Chemscore.Metal>
0.0000

> <Gold.Chemscore.Hbonds>
donor molecule, donor type, donor heavy atom, donor atom, acceptor molecule, acceptor atom, score
      L1  H    11    22       P1  8028  1.00
      P1  H  7997  8009       L1     6  2.00
      P1  H 10752 10765       L1     5  1.73

> <Gold.PLP.Chemscore.Internal.Correction>
0.0087

> <Gold.Rescore>
     Score         DG    S(hbond)    S(metal)    S(lipo)     H(rot)  DE(clash)    DE(int)     intcor
     15.21     -15.46       2.72        0.00      39.96       1.48       0.07       0.18       ----

> <Gold.Chemscore.Fitness>
15.2092

> <Gold.Chemscore.DG>
-15.4614

> <Gold.Chemscore.ZeroCoef>
-5.4800

> <Gold.Chemscore.Hbond>
2.7202

> <Gold.Chemscore.Metal>
0.0000

> <Gold.Chemscore.Lipo>
39.9574

> <Gold.Chemscore.Internal_Hbond>
0.0000

> <Gold.Chemscore.DEClash>
0.0727

> <Gold.Chemscore.DEInternal>
0.1795

> <Gold.Chemscore.Rot>
1.4762

> <Gold.Chemscore.Internal.Correction>
   9.000000E+99

> <Gold.Chemscore.Hbonds>
donor molecule, donor type, donor heavy atom, donor atom, acceptor molecule, acceptor atom, score
      L1  H    11    22       P1  8028  0.33
      P1  H  7997  8009       L1     6  0.96
      P1  H 10752 10765       L1     5  0.76

> <Gold.Chemscore.Hbond.Weighted>
-9.0855

> <Gold.Chemscore.Metal.Weighted>
-0.0000

> <Gold.Chemscore.Lipo.Weighted>
-4.6750

> <Gold.Chemscore.Internal_Hbond.Weighted>
0.0000

> <Gold.Chemscore.DEClash.Weighted>
0.0727

> <Gold.Chemscore.DEInternal.Weighted>
0.1795

> <Gold.Chemscore.Rot.Weighted>
3.7790

> <Gold.Chemscore.Internal.Correction.Weighted>
   9.000000E+99

> <Gold.Protein.RotatedTorsions>
[ 6907 6896 6895 6894 ] final   23.15 input  -60.11 | X-H torsion
[ 7974 7965 7964 7962 ] final  117.17 input  175.53 | X-H torsion
[ 8008 7997 7996 7995 ] final -112.25 input   59.86 | X-H torsion
[ 10167 10162 10161 10158 ] final  -57.23 input  -65.29 | X-H torsion
[ 10718 10713 10712 10709 ] final   52.55 input   66.30 | X-H torsion
[ 10763 10752 10751 10750 ] final  153.98 input  -60.55 | X-H torsion
[ 11005 11000 10999 10996 ] final  158.27 input  -57.11 | X-H torsion

> <Gold.Protein.ActiveResidues>
 VAL166  LYS551  ARG553  GLY616  TRP617  ASP618  TYR619  PRO620  LYS621  CYS622 
 ASP623  PHE694  ASN695  SER759  ASP760  ASP761  ALA762  ILE779  LEU786  VAL792 
 PHE793  MET794  SER795  GLU796  ALA797  LYS798  CYS799  TRP800  GLU811  SER814 

> <Gold.Protein.RotatedAtoms>
  151.9379  135.0227  160.0533 H   0  0  0  0  0  0  0  0  0  0  0  0  # atno 6907 bound_to 6896
  152.2061  133.4872  159.5093 H   0  0  0  0  0  0  0  0  0  0  0  0  # atno 6908 bound_to 6896
  150.6965  134.1444  159.4160 H   0  0  0  0  0  0  0  0  0  0  0  0  # atno 6909 bound_to 6896
  145.1706  139.3103  143.4469 H   0  0  0  0  0  0  0  0  0  0  0  0  # atno 7974 bound_to 7965
  155.0023  140.0394  157.2365 H   0  0  0  0  0  0  0  0  0  0  0  0  # atno 8008 bound_to 7997
  154.7533  140.2771  155.6251 H   0  0  0  0  0  0  0  0  0  0  0  0  # atno 8009 bound_to 7997
  156.2889  140.2642  156.2292 H   0  0  0  0  0  0  0  0  0  0  0  0  # atno 8010 bound_to 7997
  140.6270  143.2443  151.5337 H   0  0  0  0  0  0  0  0  0  0  0  0  # atno 10167 bound_to 10162
  157.5085  130.8485  149.8404 H   0  0  0  0  0  0  0  0  0  0  0  0  # atno 10718 bound_to 10713
  154.1450  135.2818  155.3151 H   0  0  0  0  0  0  0  0  0  0  0  0  # atno 10763 bound_to 10752
  154.6259  135.5451  153.7630 H   0  0  0  0  0  0  0  0  0  0  0  0  # atno 10764 bound_to 10752
  153.0239  135.6450  154.1596 H   0  0  0  0  0  0  0  0  0  0  0  0  # atno 10765 bound_to 10752
  140.1849  134.8449  157.2845 H   0  0  0  0  0  0  0  0  0  0  0  0  # atno 11005 bound_to 11000
  146.3469  140.1850  142.8589 LP  0  0  0  0  0  0  0  0  0  0  0  0  # atno 17320 bound_to 7965
  145.0236  140.8814  143.5152 LP  0  0  0  0  0  0  0  0  0  0  0  0  # atno 17321 bound_to 7965
  139.5489  144.2447  152.1494 LP  0  0  0  0  0  0  0  0  0  0  0  0  # atno 17342 bound_to 10162
  140.1681  144.4962  150.6595 LP  0  0  0  0  0  0  0  0  0  0  0  0  # atno 17343 bound_to 10162
  156.0273  130.3775  150.1785 LP  0  0  0  0  0  0  0  0  0  0  0  0  # atno 17370 bound_to 10713
  156.9975  130.9912  151.3399 LP  0  0  0  0  0  0  0  0  0  0  0  0  # atno 17371 bound_to 10713
  140.2225  134.4006  155.7559 LP  0  0  0  0  0  0  0  0  0  0  0  0  # atno 17394 bound_to 11000
  141.2224  133.7173  156.8513 LP  0  0  0  0  0  0  0  0  0  0  0  0  # atno 17395 bound_to 11000

$$$$
