AV-unprocessed.smi:2021|AV-procd|sdf|8180|dock7
  -GOLD-   2272010433D 1   1.00000     0.00000
 Structure written by MMmdl.
 41 42  0  0  0  0  0  0  0  0  1 V2000
  152.8890  138.6753  155.7738 C   0  0  0  0  0  0  0  0  0  0  0  0
  151.7591  139.6142  155.3225 C   0  0  0  0  0  0  0  0  0  0  0  0
  151.5285  140.7029  156.3846 C   0  0  0  0  0  0  0  0  0  0  0  0
  150.4649  138.8221  155.0218 C   0  0  0  0  0  0  0  0  0  0  0  0
  149.4891  139.5051  154.1710 N   0  0  0  0  0  0  0  0  0  0  0  0
  148.9976  140.7498  154.7561 C   0  0  0  0  0  0  0  0  0  0  0  0
  147.9476  141.4299  153.8615 C   0  0  0  0  0  0  0  0  0  0  0  0
  146.8806  140.5239  153.6040 O   0  0  0  0  0  0  0  0  0  0  0  0
  147.3141  139.3217  152.9716 C   0  0  2  0  0  0  0  0  0  0  0  0
  146.0861  138.4287  152.7240 C   0  0  0  0  0  0  0  0  0  0  0  0
  146.4598  137.1534  152.1219 N   0  0  0  0  0  0  0  0  0  0  0  0
  145.5968  136.2079  151.7243 C   0  0  0  0  0  0  0  0  0  0  0  0
  144.3744  136.3310  151.8000 O   0  0  0  0  0  0  0  0  0  0  0  0
  146.2418  135.1315  151.2469 N   0  0  0  0  0  0  0  0  0  0  0  0
  145.6812  133.9221  150.7650 C   0  0  0  0  0  0  0  0  0  0  0  0
  146.5041  133.0280  150.2041 N   0  0  0  0  0  0  0  0  0  0  0  0
  145.8267  131.8908  149.7813 N   0  0  0  0  0  0  0  0  0  0  0  0
  144.5180  131.9723  150.0397 C   0  0  0  0  0  0  0  0  0  0  0  0
  143.9811  133.4466  150.8252 S   0  0  0  0  0  0  0  0  0  0  0  0
  148.3532  138.6363  153.8802 C   0  0  0  0  0  0  0  0  0  0  0  0
  152.6234  138.1444  156.6885 H   0  0  0  0  0  0  0  0  0  0  0  0
  153.8088  139.2289  155.9647 H   0  0  0  0  0  0  0  0  0  0  0  0
  153.1101  137.9307  155.0084 H   0  0  0  0  0  0  0  0  0  0  0  0
  152.0998  140.0962  154.4050 H   0  0  0  0  0  0  0  0  0  0  0  0
  151.2279  140.2669  157.3377 H   0  0  0  0  0  0  0  0  0  0  0  0
  150.7508  141.4039  156.0846 H   0  0  0  0  0  0  0  0  0  0  0  0
  152.4370  141.2803  156.5574 H   0  0  0  0  0  0  0  0  0  0  0  0
  150.7483  137.8955  154.5207 H   0  0  0  0  0  0  0  0  0  0  0  0
  149.9929  138.5062  155.9535 H   0  0  0  0  0  0  0  0  0  0  0  0
  148.5641  140.5524  155.7376 H   0  0  0  0  0  0  0  0  0  0  0  0
  149.8222  141.4451  154.9085 H   0  0  0  0  0  0  0  0  0  0  0  0
  147.5504  142.3190  154.3510 H   0  0  0  0  0  0  0  0  0  0  0  0
  148.3938  141.7544  152.9201 H   0  0  0  0  0  0  0  0  0  0  0  0
  147.7824  139.5682  152.0168 H   0  0  0  0  0  0  0  0  0  0  0  0
  145.5500  138.2518  153.6581 H   0  0  0  0  0  0  0  0  0  0  0  0
  145.3860  138.9318  152.0567 H   0  0  0  0  0  0  0  0  0  0  0  0
  147.4477  136.9693  152.0263 H   0  0  0  0  0  0  0  0  0  0  0  0
  147.2501  135.1750  151.2401 H   0  0  0  0  0  0  0  0  0  0  0  0
  143.8640  131.1574  149.7665 H   0  0  0  0  0  0  0  0  0  0  0  0
  148.7036  137.7233  153.3972 H   0  0  0  0  0  0  0  0  0  0  0  0
  147.8748  138.3309  154.8124 H   0  0  0  0  0  0  0  0  0  0  0  0
  1  2  1  0  0  0  0
  1 21  1  0  0  0  0
  1 22  1  0  0  0  0
  1 23  1  0  0  0  0
  2  3  1  0  0  0  0
  2  4  1  0  0  0  0
  2 24  1  0  0  0  0
  3 25  1  0  0  0  0
  3 26  1  0  0  0  0
  3 27  1  0  0  0  0
  4  5  1  0  0  0  0
  4 28  1  0  0  0  0
  4 29  1  0  0  0  0
  5 20  1  0  0  0  0
  5  6  1  0  0  0  0
  6  7  1  0  0  0  0
  6 30  1  0  0  0  0
  6 31  1  0  0  0  0
  7  8  1  0  0  0  0
  7 32  1  0  0  0  0
  7 33  1  0  0  0  0
  8  9  1  0  0  0  0
  9 10  1  0  0  0  0
  9 20  1  0  0  0  0
  9 34  1  0  0  0  0
 10 11  1  0  0  0  0
 10 35  1  0  0  0  0
 10 36  1  0  0  0  0
 11 12  1  0  0  0  0
 11 37  1  0  0  0  0
 12 13  2  0  0  0  0
 12 14  1  0  0  0  0
 14 15  1  0  0  0  0
 14 38  1  0  0  0  0
 15 19  1  0  0  0  0
 15 16  2  0  0  0  0
 16 17  1  0  0  0  0
 17 18  2  0  0  0  0
 18 19  1  0  0  0  0
 18 39  1  0  0  0  0
 20 40  1  0  0  0  0
 20 41  1  0  0  0  0
M  END
> <s_m_source_file>
AV-unprocessed.smi

> <i_m_source_file_index>
2021

> <i_lp_mmshare_version>
43012

> <i_f3d_flags>
0

> <s_epik_input>
W0NIM11bQ0hdKFtDSDNdKVtDSDJdTjFbQ0gyXVtDSDJdT1tDQEhdKFtDSDJdMSlbQ0gyXVtOSF1DKD1PKVtOSF1jMm5uW2NIXXMy

> <s_epik_cmdline>
J2VwaWtfcHl0aG9uJywgJy1waCcsICc3LjAnLCAnLXRuJywgJzgnLCAnLW1hJywgJzIwMCcsICctbWV0YWxfYmluZGluZycsICctaW1hZScsICc8aW5maWxlLm1hZT4nLCAnLW9tYWUnLCAnPG91dGZpbGUubWFlPic=

> <r_lp_tautomer_probability>
1

> <r_epik_Ionization_Penalty>
1.11451

> <r_epik_Ionization_Penalty_Charging>
0

> <r_epik_Ionization_Penalty_Neutral>
1.11451

> <r_epik_State_Penalty>
1.17021

> <r_epik_Charging_Adjusted_Penalty>
1.17021

> <i_epik_Tot_Q>
0

> <i_epik_Tot_abs_Q>
0

> <r_epik_Metal_State_Penalty>
1.53642

> <b_epik_Metal_Only>
0

> <s_lp_Force_Field>
OPLS_2005

> <r_lp_Energy>
23.4775

> <b_lp_Chiralities_Consistent>
1

> <s_lp_Variant>
AV-unprocessed.smi:2021-6

> <Gold.Version>
5.8.1

> <Gold.Id.Protein>
6NUR|6NUR_protein|mol2

> <Gold.PLP.Fitness>
38.3184

> <Gold.PLP.PLP>
-32.7900

> <Gold.PLP.part.hbond>
-2.0000

> <Gold.PLP.part.metal>
0.0000

> <Gold.PLP.part.buried>
-1.7168

> <Gold.PLP.part.nonpolar>
-30.1943

> <Gold.PLP.part.repulsive>
1.7153

> <Gold.PLP.ligand.clash>
0.0000

> <Gold.PLP.ligand.torsion>
0.1897

> <Gold.PLP.Chemscore.Hbond>
1.9516

> <Gold.PLP.Chemscore.CHOScore>
0.0000

> <Gold.PLP.Chemscore.Metal>
0.0000

> <Gold.Chemscore.Hbonds>
donor molecule, donor type, donor heavy atom, donor atom, acceptor molecule, acceptor atom, score
      L1  H    11    37       P1  7948  1.00
      L1  H    14    38       P1  7948  0.94

> <Gold.PLP.Chemscore.Internal.Correction>
0.0530

> <Gold.Rescore>
     Score         DG    S(hbond)    S(metal)    S(lipo)     H(rot)  DE(clash)    DE(int)     intcor
     13.53     -15.75       1.83        0.00      75.84       1.84       0.45       1.77       ----

> <Gold.Chemscore.Fitness>
13.5259

> <Gold.Chemscore.DG>
-15.7505

> <Gold.Chemscore.ZeroCoef>
-5.4800

> <Gold.Chemscore.Hbond>
1.8296

> <Gold.Chemscore.Metal>
0.0000

> <Gold.Chemscore.Lipo>
75.8426

> <Gold.Chemscore.Internal_Hbond>
0.0000

> <Gold.Chemscore.DEClash>
0.4500

> <Gold.Chemscore.DEInternal>
1.7746

> <Gold.Chemscore.Rot>
1.8413

> <Gold.Chemscore.Internal.Correction>
   9.000000E+99

> <Gold.Chemscore.Hbonds>
donor molecule, donor type, donor heavy atom, donor atom, acceptor molecule, acceptor atom, score
      L1  H    11    37       P1  7948  1.00
      L1  H    14    38       P1  7948  0.59

> <Gold.Chemscore.Hbond.Weighted>
-6.1108

> <Gold.Chemscore.Metal.Weighted>
-0.0000

> <Gold.Chemscore.Lipo.Weighted>
-8.8736

> <Gold.Chemscore.Internal_Hbond.Weighted>
0.0000

> <Gold.Chemscore.DEClash.Weighted>
0.4500

> <Gold.Chemscore.DEInternal.Weighted>
1.7746

> <Gold.Chemscore.Rot.Weighted>
4.7138

> <Gold.Chemscore.Internal.Correction.Weighted>
   9.000000E+99

> <Gold.Protein.RotatedTorsions>
[ 6907 6896 6895 6894 ] final  -28.36 input  -60.11 | X-H torsion
[ 7974 7965 7964 7962 ] final   71.37 input  175.53 | X-H torsion
[ 8008 7997 7996 7995 ] final  154.22 input   59.86 | X-H torsion
[ 10167 10162 10161 10158 ] final   24.36 input  -65.29 | X-H torsion
[ 10718 10713 10712 10709 ] final -161.64 input   66.30 | X-H torsion
[ 10763 10752 10751 10750 ] final  179.42 input  -60.55 | X-H torsion
[ 11005 11000 10999 10996 ] final  120.78 input  -57.11 | X-H torsion

> <Gold.Protein.ActiveResidues>
 VAL166  LYS551  ARG553  GLY616  TRP617  ASP618  TYR619  PRO620  LYS621  CYS622 
 ASP623  PHE694  ASN695  SER759  ASP760  ASP761  ALA762  ILE779  LEU786  VAL792 
 PHE793  MET794  SER795  GLU796  ALA797  LYS798  CYS799  TRP800  GLU811  SER814 

> <Gold.Protein.RotatedAtoms>
  151.1340  135.0145  159.8595 H   0  0  0  0  0  0  0  0  0  0  0  0  # atno 6907 bound_to 6896
  152.5451  134.1577  159.8555 H   0  0  0  0  0  0  0  0  0  0  0  0  # atno 6908 bound_to 6896
  151.1646  133.4778  159.2627 H   0  0  0  0  0  0  0  0  0  0  0  0  # atno 6909 bound_to 6896
  145.7666  139.2824  143.1345 H   0  0  0  0  0  0  0  0  0  0  0  0  # atno 7974 bound_to 7965
  156.2542  140.1972  156.6613 H   0  0  0  0  0  0  0  0  0  0  0  0  # atno 8008 bound_to 7997
  154.6462  140.0577  156.9929 H   0  0  0  0  0  0  0  0  0  0  0  0  # atno 8009 bound_to 7997
  155.1487  140.3249  155.4439 H   0  0  0  0  0  0  0  0  0  0  0  0  # atno 8010 bound_to 7997
  140.5194  144.0028  150.6409 H   0  0  0  0  0  0  0  0  0  0  0  0  # atno 10167 bound_to 10162
  156.5991  130.8803  151.2909 H   0  0  0  0  0  0  0  0  0  0  0  0  # atno 10718 bound_to 10713
  154.5204  135.2793  155.1267 H   0  0  0  0  0  0  0  0  0  0  0  0  # atno 10763 bound_to 10752
  154.2826  135.6282  153.5357 H   0  0  0  0  0  0  0  0  0  0  0  0  # atno 10764 bound_to 10752
  152.9936  135.5655  154.5692 H   0  0  0  0  0  0  0  0  0  0  0  0  # atno 10765 bound_to 10752
  139.9199  134.9636  156.7858 H   0  0  0  0  0  0  0  0  0  0  0  0  # atno 11005 bound_to 11000
  146.0211  140.8346  142.9922 LP  0  0  0  0  0  0  0  0  0  0  0  0  # atno 17320 bound_to 7965
  144.6820  140.2631  143.7316 LP  0  0  0  0  0  0  0  0  0  0  0  0  # atno 17321 bound_to 7965
  140.3372  143.3041  152.0626 LP  0  0  0  0  0  0  0  0  0  0  0  0  # atno 17342 bound_to 10162
  139.4919  144.6468  151.6762 LP  0  0  0  0  0  0  0  0  0  0  0  0  # atno 17343 bound_to 10162
  157.7284  130.9656  150.1741 LP  0  0  0  0  0  0  0  0  0  0  0  0  # atno 17370 bound_to 10713
  156.2484  130.3698  149.8259 LP  0  0  0  0  0  0  0  0  0  0  0  0  # atno 17371 bound_to 10713
  140.6507  133.9734  155.7753 LP  0  0  0  0  0  0  0  0  0  0  0  0  # atno 17394 bound_to 11000
  141.0710  134.0205  157.3526 LP  0  0  0  0  0  0  0  0  0  0  0  0  # atno 17395 bound_to 11000

$$$$
