AV-unprocessed.smi:928|AV-procd|sdf|4192|dock4
  -GOLD-   22720 2 93D 1   1.00000     0.00000
 Structure written by MMmdl.
 43 44  0  0  0  0  0  0  0  0  1 V2000
  151.9444  141.5975  158.6156 C   0  0  0  0  0  0  0  0  0  0  0  0
  151.4854  140.2404  158.0685 C   0  0  0  0  0  0  0  0  0  0  0  0
  150.8992  140.3358  156.6993 C   0  0  0  0  0  0  0  0  0  0  0  0
  151.3002  139.6722  155.5659 C   0  0  0  0  0  0  0  0  0  0  0  0
  150.5051  139.9320  154.4473 N   0  0  0  0  0  0  0  0  0  0  0  0
  149.5118  140.7825  154.7156 C   0  0  0  0  0  0  0  0  0  0  0  0
  148.4370  141.1305  153.7356 C   0  0  0  0  0  0  0  0  0  0  0  0
  147.0064  140.8927  154.2659 C   0  0  0  0  0  0  0  0  0  0  0  0
  146.2210  140.0253  153.3890 N   0  0  0  0  0  0  0  0  0  0  0  0
  146.3616  138.6949  153.2901 C   0  0  0  0  0  0  0  0  0  0  0  0
  147.2472  138.0489  153.8503 O   0  0  0  0  0  0  0  0  0  0  0  0
  145.3849  138.1448  152.5566 N   0  0  0  0  0  0  0  0  0  0  0  0
  145.1654  136.7087  152.4009 C   0  0  1  0  0  0  0  0  0  0  0  0
  143.6583  136.3955  152.3478 C   0  0  0  0  0  0  0  0  0  0  0  0
  143.4157  134.8834  152.2179 C   0  0  0  0  0  0  0  0  0  0  0  0
  144.1385  134.3064  150.9901 C   0  0  0  0  0  0  0  0  0  0  0  0
  145.6445  134.6279  151.0172 C   0  0  0  0  0  0  0  0  0  0  0  0
  145.9176  136.1368  151.1754 C   0  0  1  0  0  0  0  0  0  0  0  0
  145.5296  136.8056  149.9897 O   0  0  0  0  0  0  0  0  0  0  0  0
  149.5251  141.3606  156.3791 S   0  0  0  0  0  0  0  0  0  0  0  0
  152.3554  141.4933  159.6198 H   0  0  0  0  0  0  0  0  0  0  0  0
  151.1136  142.3020  158.6663 H   0  0  0  0  0  0  0  0  0  0  0  0
  152.7165  142.0380  157.9843 H   0  0  0  0  0  0  0  0  0  0  0  0
  152.3301  139.5511  158.0538 H   0  0  0  0  0  0  0  0  0  0  0  0
  150.7526  139.8070  158.7499 H   0  0  0  0  0  0  0  0  0  0  0  0
  152.1220  138.9779  155.4721 H   0  0  0  0  0  0  0  0  0  0  0  0
  148.5548  142.1787  153.4587 H   0  0  0  0  0  0  0  0  0  0  0  0
  148.5938  140.5535  152.8238 H   0  0  0  0  0  0  0  0  0  0  0  0
  147.0539  140.4305  155.2519 H   0  0  0  0  0  0  0  0  0  0  0  0
  146.4997  141.8492  154.4051 H   0  0  0  0  0  0  0  0  0  0  0  0
  145.4627  140.4597  152.8836 H   0  0  0  0  0  0  0  0  0  0  0  0
  144.7013  138.7568  152.1359 H   0  0  0  0  0  0  0  0  0  0  0  0
  145.5579  136.2148  153.2925 H   0  0  0  0  0  0  0  0  0  0  0  0
  143.1678  136.7674  153.2483 H   0  0  0  0  0  0  0  0  0  0  0  0
  143.1950  136.9144  151.5075 H   0  0  0  0  0  0  0  0  0  0  0  0
  143.7665  134.3792  153.1195 H   0  0  0  0  0  0  0  0  0  0  0  0
  142.3463  134.6832  152.1481 H   0  0  0  0  0  0  0  0  0  0  0  0
  143.9919  133.2268  150.9471 H   0  0  0  0  0  0  0  0  0  0  0  0
  143.6926  134.7119  150.0811 H   0  0  0  0  0  0  0  0  0  0  0  0
  146.1042  134.0952  151.8508 H   0  0  0  0  0  0  0  0  0  0  0  0
  146.1251  134.2494  150.1142 H   0  0  0  0  0  0  0  0  0  0  0  0
  146.9905  136.2891  151.2985 H   0  0  0  0  0  0  0  0  0  0  0  0
  144.8228  137.3964  150.2004 H   0  0  0  0  0  0  0  0  0  0  0  0
  1  2  1  0  0  0  0
  1 21  1  0  0  0  0
  1 22  1  0  0  0  0
  1 23  1  0  0  0  0
  2  3  1  0  0  0  0
  2 24  1  0  0  0  0
  2 25  1  0  0  0  0
  3 20  1  0  0  0  0
  3  4  2  0  0  0  0
  4  5  1  0  0  0  0
  4 26  1  0  0  0  0
  5  6  2  0  0  0  0
  6  7  1  0  0  0  0
  6 20  1  0  0  0  0
  7  8  1  0  0  0  0
  7 27  1  0  0  0  0
  7 28  1  0  0  0  0
  8  9  1  0  0  0  0
  8 29  1  0  0  0  0
  8 30  1  0  0  0  0
  9 10  1  0  0  0  0
  9 31  1  0  0  0  0
 10 11  2  0  0  0  0
 10 12  1  0  0  0  0
 12 13  1  0  0  0  0
 12 32  1  0  0  0  0
 13 18  1  0  0  0  0
 13 14  1  0  0  0  0
 13 33  1  0  0  0  0
 14 15  1  0  0  0  0
 14 34  1  0  0  0  0
 14 35  1  0  0  0  0
 15 16  1  0  0  0  0
 15 36  1  0  0  0  0
 15 37  1  0  0  0  0
 16 17  1  0  0  0  0
 16 38  1  0  0  0  0
 16 39  1  0  0  0  0
 17 18  1  0  0  0  0
 17 40  1  0  0  0  0
 17 41  1  0  0  0  0
 18 19  1  0  0  0  0
 18 42  1  0  0  0  0
 19 43  1  0  0  0  0
M  END
> <s_m_source_file>
AV-unprocessed.smi

> <i_m_source_file_index>
928

> <i_lp_mmshare_version>
43012

> <i_f3d_flags>
0

> <s_epik_input>
W0NIM11bQ0gyXWMxW2NIXW5jKHMxKVtDSDJdW0NIMl1bTkhdQyg9TylbTkhdW0NAQEhdMltDSDJdW0NIMl1bQ0gyXVtDSDJdW0NASF0yW09IXQ==

> <s_epik_cmdline>
J2VwaWtfcHl0aG9uJywgJy1waCcsICc3LjAnLCAnLXRuJywgJzgnLCAnLW1hJywgJzIwMCcsICctbWV0YWxfYmluZGluZycsICctaW1hZScsICc8aW5maWxlLm1hZT4nLCAnLW9tYWUnLCAnPG91dGZpbGUubWFlPic=

> <r_epik_Ionization_Penalty>
0.000957396

> <r_epik_Ionization_Penalty_Charging>
0

> <r_epik_Ionization_Penalty_Neutral>
0.000957396

> <r_epik_State_Penalty>
0.000586538

> <r_epik_Charging_Adjusted_Penalty>
0.000586538

> <i_epik_Tot_Q>
0

> <i_epik_Tot_abs_Q>
0

> <r_epik_Metal_State_Penalty>
-0

> <b_epik_Metal_Only>
0

> <s_lp_Force_Field>
OPLS_2005

> <r_lp_Energy>
0.733769

> <b_lp_Chiralities_Consistent>
1

> <s_lp_Variant>
AV-unprocessed.smi:928-2

> <Gold.Version>
5.8.1

> <Gold.Id.Protein>
6NUR|6NUR_protein|mol2

> <Gold.PLP.Fitness>
46.2398

> <Gold.PLP.PLP>
-36.4531

> <Gold.PLP.part.hbond>
-5.0136

> <Gold.PLP.part.metal>
0.0000

> <Gold.PLP.part.buried>
-3.5773

> <Gold.PLP.part.nonpolar>
-28.8374

> <Gold.PLP.part.repulsive>
0.2752

> <Gold.PLP.ligand.clash>
0.0000

> <Gold.PLP.ligand.torsion>
0.8810

> <Gold.PLP.Chemscore.Hbond>
3.8240

> <Gold.PLP.Chemscore.CHOScore>
0.0000

> <Gold.PLP.Chemscore.Metal>
0.0000

> <Gold.Chemscore.Hbonds>
donor molecule, donor type, donor heavy atom, donor atom, acceptor molecule, acceptor atom, score
      L1  H     9    31       P1 10175  0.98
      L1  H    12    32       P1 10175  0.86
      L1  H    19    43       P1 10171  0.99
      P1  H  7989  7998       L1     5  1.00

> <Gold.PLP.Chemscore.Internal.Correction>
0.0767

> <Gold.Rescore>
     Score         DG    S(hbond)    S(metal)    S(lipo)     H(rot)  DE(clash)    DE(int)     intcor
     18.16     -19.03       2.87        0.00      82.11       2.21       0.04       0.83       ----

> <Gold.Chemscore.Fitness>
18.1618

> <Gold.Chemscore.DG>
-19.0285

> <Gold.Chemscore.ZeroCoef>
-5.4800

> <Gold.Chemscore.Hbond>
2.8728

> <Gold.Chemscore.Metal>
0.0000

> <Gold.Chemscore.Lipo>
82.1098

> <Gold.Chemscore.Internal_Hbond>
0.0000

> <Gold.Chemscore.DEClash>
0.0354

> <Gold.Chemscore.DEInternal>
0.8313

> <Gold.Chemscore.Rot>
2.2084

> <Gold.Chemscore.Internal.Correction>
   9.000000E+99

> <Gold.Chemscore.Hbonds>
donor molecule, donor type, donor heavy atom, donor atom, acceptor molecule, acceptor atom, score
      L1  H     9    31       P1 10175  0.80
      L1  H    12    32       P1 10175  0.82
      L1  H    19    43       P1 10171  0.90
      P1  H  7989  7998       L1     5  0.11

> <Gold.Chemscore.Hbond.Weighted>
-9.5952

> <Gold.Chemscore.Metal.Weighted>
-0.0000

> <Gold.Chemscore.Lipo.Weighted>
-9.6069

> <Gold.Chemscore.Internal_Hbond.Weighted>
0.0000

> <Gold.Chemscore.DEClash.Weighted>
0.0354

> <Gold.Chemscore.DEInternal.Weighted>
0.8313

> <Gold.Chemscore.Rot.Weighted>
5.6535

> <Gold.Chemscore.Internal.Correction.Weighted>
   9.000000E+99

> <Gold.Protein.RotatedTorsions>
[ 6907 6896 6895 6894 ] final  -25.53 input  -60.11 | X-H torsion
[ 7974 7965 7964 7962 ] final  -23.31 input  175.53 | X-H torsion
[ 8008 7997 7996 7995 ] final   11.00 input   59.86 | X-H torsion
[ 10167 10162 10161 10158 ] final -148.31 input  -65.29 | X-H torsion
[ 10718 10713 10712 10709 ] final -102.19 input   66.30 | X-H torsion
[ 10763 10752 10751 10750 ] final   54.33 input  -60.55 | X-H torsion
[ 11005 11000 10999 10996 ] final   82.79 input  -57.11 | X-H torsion

> <Gold.Protein.ActiveResidues>
 VAL166  LYS551  ARG553  GLY616  TRP617  ASP618  TYR619  PRO620  LYS621  CYS622 
 ASP623  PHE694  ASN695  SER759  ASP760  ASP761  ALA762  ILE779  LEU786  VAL792 
 PHE793  MET794  SER795  GLU796  ALA797  LYS798  CYS799  TRP800  GLU811  SER814 

> <Gold.Protein.RotatedAtoms>
  151.1739  135.0330  159.8763 H   0  0  0  0  0  0  0  0  0  0  0  0  # atno 6907 bound_to 6896
  152.5448  134.1139  159.8380 H   0  0  0  0  0  0  0  0  0  0  0  0  # atno 6908 bound_to 6896
  151.1248  133.5032  159.2633 H   0  0  0  0  0  0  0  0  0  0  0  0  # atno 6909 bound_to 6896
  146.1624  140.4598  142.8566 H   0  0  0  0  0  0  0  0  0  0  0  0  # atno 7974 bound_to 7965
  154.8010  140.2852  155.5921 H   0  0  0  0  0  0  0  0  0  0  0  0  # atno 8008 bound_to 7997
  156.2977  140.2586  156.2808 H   0  0  0  0  0  0  0  0  0  0  0  0  # atno 8009 bound_to 7997
  154.9558  140.0378  157.2155 H   0  0  0  0  0  0  0  0  0  0  0  0  # atno 8010 bound_to 7997
  139.7543  143.8471  152.2593 H   0  0  0  0  0  0  0  0  0  0  0  0  # atno 10167 bound_to 10162
  156.0220  130.5408  150.7072 H   0  0  0  0  0  0  0  0  0  0  0  0  # atno 10718 bound_to 10713
  152.9803  135.5748  154.4887 H   0  0  0  0  0  0  0  0  0  0  0  0  # atno 10763 bound_to 10752
  154.4425  135.2776  155.1840 H   0  0  0  0  0  0  0  0  0  0  0  0  # atno 10764 bound_to 10752
  154.3502  135.6211  153.5692 H   0  0  0  0  0  0  0  0  0  0  0  0  # atno 10765 bound_to 10752
  139.9052  134.8097  156.2222 H   0  0  0  0  0  0  0  0  0  0  0  0  # atno 11005 bound_to 11000
  144.8045  140.6274  143.6456 LP  0  0  0  0  0  0  0  0  0  0  0  0  # atno 17320 bound_to 7965
  145.4554  139.1518  143.3895 LP  0  0  0  0  0  0  0  0  0  0  0  0  # atno 17321 bound_to 7965
  139.8459  144.7188  150.9274 LP  0  0  0  0  0  0  0  0  0  0  0  0  # atno 17342 bound_to 10162
  140.7801  143.3942  151.1258 LP  0  0  0  0  0  0  0  0  0  0  0  0  # atno 17343 bound_to 10162
  157.4718  131.0894  151.0633 LP  0  0  0  0  0  0  0  0  0  0  0  0  # atno 17370 bound_to 10713
  157.1092  130.6014  149.5478 LP  0  0  0  0  0  0  0  0  0  0  0  0  # atno 17371 bound_to 10713
  141.0398  133.6943  156.1578 LP  0  0  0  0  0  0  0  0  0  0  0  0  # atno 17394 bound_to 11000
  140.6972  134.4603  157.5587 LP  0  0  0  0  0  0  0  0  0  0  0  0  # atno 17395 bound_to 11000

$$$$
