AV-unprocessed.smi:911|AV-procd|sdf|4139|dock5
  -GOLD-   22720 2 43D 1   1.00000     0.00000
 Structure written by MMmdl.
 47 49  0  0  0  0  0  0  0  0  3 V2000
  151.9414  145.8872  160.2427 C   0  0  0  0  0  0  0  0  0  0  0  0
  151.2785  144.6722  159.5349 C   0  0  0  0  0  0  0  0  0  0  0  0
  149.8170  144.6345  160.0624 C   0  0  0  0  0  0  0  0  0  0  0  0
  151.4003  144.6979  157.9983 C   0  0  1  0  0  0  0  0  0  0  0  0
  152.9225  144.5952  157.7507 C   0  0  0  0  0  0  0  0  0  0  0  0
  153.3873  143.6759  158.8971 C   0  0  0  0  0  0  0  0  0  0  0  0
  152.0551  143.3298  159.6196 C   0  0  1  0  0  0  0  0  0  0  0  0
  152.2714  142.7747  161.0386 C   0  0  0  0  0  0  0  0  0  0  0  0
  151.2201  142.3889  158.6897 C   0  0  2  0  0  0  0  0  0  0  0  0
  151.9741  141.2614  158.1453 N   0  0  0  0  0  0  0  0  0  0  0  0
  151.6966  139.9654  158.3509 C   0  0  0  0  0  0  0  0  0  0  0  0
  150.7040  139.5671  158.9592 O   0  0  0  0  0  0  0  0  0  0  0  0
  152.7166  138.9649  157.8022 C   0  0  0  0  0  0  0  0  0  0  0  0
  152.1589  138.2403  156.6501 N   0  0  0  0  0  0  0  0  0  0  0  0
  151.6287  136.9610  156.9091 C   0  0  0  0  0  0  0  0  0  0  0  0
  151.0428  136.2197  155.9494 C   0  0  0  0  0  0  0  0  0  0  0  0
  150.4825  134.9196  156.2437 N   0  3  0  0  0  0  0  0  0  0  0  0
  149.9756  134.2774  155.3299 O   0  0  0  0  0  0  0  0  0  0  0  0
  150.5275  134.4995  157.3963 O   0  5  0  0  0  0  0  0  0  0  0  0
  150.9785  136.7769  154.6126 C   0  0  0  0  0  0  0  0  0  0  0  0
  151.4841  138.0000  154.3574 C   0  0  0  0  0  0  0  0  0  0  0  0
  152.1121  138.8100  155.4070 C   0  0  0  0  0  0  0  0  0  0  0  0
  152.5632  139.9328  155.1819 O   0  0  0  0  0  0  0  0  0  0  0  0
  150.7812  143.3520  157.5626 C   0  0  0  0  0  0  0  0  0  0  0  0
  151.4061  146.8066  160.0039 H   0  0  0  0  0  0  0  0  0  0  0  0
  152.9822  146.0649  159.9822 H   0  0  0  0  0  0  0  0  0  0  0  0
  151.9077  145.7713  161.3262 H   0  0  0  0  0  0  0  0  0  0  0  0
  149.1974  143.8384  159.6567 H   0  0  0  0  0  0  0  0  0  0  0  0
  149.3034  145.5692  159.8346 H   0  0  0  0  0  0  0  0  0  0  0  0
  149.8006  144.5172  161.1462 H   0  0  0  0  0  0  0  0  0  0  0  0
  150.9413  145.5603  157.5137 H   0  0  0  0  0  0  0  0  0  0  0  0
  153.1554  144.1782  156.7703 H   0  0  0  0  0  0  0  0  0  0  0  0
  153.4064  145.5707  157.8068 H   0  0  0  0  0  0  0  0  0  0  0  0
  153.9357  142.8076  158.5344 H   0  0  0  0  0  0  0  0  0  0  0  0
  154.0757  144.2002  159.5599 H   0  0  0  0  0  0  0  0  0  0  0  0
  152.8745  141.8671  161.0181 H   0  0  0  0  0  0  0  0  0  0  0  0
  151.3238  142.5314  161.5190 H   0  0  0  0  0  0  0  0  0  0  0  0
  152.7911  143.4929  161.6725 H   0  0  0  0  0  0  0  0  0  0  0  0
  150.3391  142.0079  159.2084 H   0  0  0  0  0  0  0  0  0  0  0  0
  152.8087  141.4874  157.6240 H   0  0  0  0  0  0  0  0  0  0  0  0
  153.6333  139.4937  157.5354 H   0  0  0  0  0  0  0  0  0  0  0  0
  153.0092  138.2676  158.5892 H   0  0  0  0  0  0  0  0  0  0  0  0
  151.7182  136.6403  157.9372 H   0  0  0  0  0  0  0  0  0  0  0  0
  150.5223  136.2193  153.8078 H   0  0  0  0  0  0  0  0  0  0  0  0
  151.4233  138.3975  153.3547 H   0  0  0  0  0  0  0  0  0  0  0  0
  149.6945  143.4146  157.5011 H   0  0  0  0  0  0  0  0  0  0  0  0
  151.1313  143.0451  156.5757 H   0  0  0  0  0  0  0  0  0  0  0  0
  1  2  1  0  0  0  0
  1 25  1  0  0  0  0
  1 26  1  0  0  0  0
  1 27  1  0  0  0  0
  2  7  1  0  0  0  0
  2  3  1  0  0  0  0
  2  4  1  0  0  0  0
  3 28  1  0  0  0  0
  3 29  1  0  0  0  0
  3 30  1  0  0  0  0
  4 24  1  0  0  0  0
  4  5  1  0  0  0  0
  4 31  1  0  0  0  0
  5  6  1  0  0  0  0
  5 32  1  0  0  0  0
  5 33  1  0  0  0  0
  6  7  1  0  0  0  0
  6 34  1  0  0  0  0
  6 35  1  0  0  0  0
  7  8  1  0  0  0  0
  7  9  1  0  0  0  0
  8 36  1  0  0  0  0
  8 37  1  0  0  0  0
  8 38  1  0  0  0  0
  9 10  1  0  0  0  0
  9 24  1  0  0  0  0
  9 39  1  0  0  0  0
 10 11  1  0  0  0  0
 10 40  1  0  0  0  0
 11 12  2  0  0  0  0
 11 13  1  0  0  0  0
 13 14  1  0  0  0  0
 13 41  1  0  0  0  0
 13 42  1  0  0  0  0
 14 22  1  0  0  0  0
 14 15  1  0  0  0  0
 15 16  2  0  0  0  0
 15 43  1  0  0  0  0
 16 17  1  0  0  0  0
 16 20  1  0  0  0  0
 17 18  2  0  0  0  0
 17 19  1  0  0  0  0
 20 21  2  0  0  0  0
 20 44  1  0  0  0  0
 21 22  1  0  0  0  0
 21 45  1  0  0  0  0
 22 23  2  0  0  0  0
 24 46  1  0  0  0  0
 24 47  1  0  0  0  0
M  CHG  1  17   1
M  CHG  1  19  -1
M  END
> <s_m_source_file>
AV-unprocessed.smi

> <i_m_source_file_index>
911

> <i_lp_mmshare_version>
43012

> <i_f3d_flags>
0

> <s_epik_input>
W0NIM11bQ0BdMTJDKFtDSDNdKShbQ0gzXSlbQ0BIXShbQ0gyXVtDSDJdMSlbQ0gyXVtDQEBIXTJbTkhdQyg9TylbQ0gyXW4zW2NIXWMoW04rXSg9TylbTy1dKVtjSF1bY0hdYzM9Tw==

> <s_epik_cmdline>
J2VwaWtfcHl0aG9uJywgJy1waCcsICc3LjAnLCAnLXRuJywgJzgnLCAnLW1hJywgJzIwMCcsICctbWV0YWxfYmluZGluZycsICctaW1hZScsICc8aW5maWxlLm1hZT4nLCAnLW9tYWUnLCAnPG91dGZpbGUubWFlPic=

> <r_lp_tautomer_probability>
1

> <r_epik_Ionization_Penalty>
2.04092e-08

> <r_epik_Ionization_Penalty_Charging>
8.54191e-11

> <r_epik_Ionization_Penalty_Neutral>
2.03238e-08

> <r_epik_State_Penalty>
-0

> <r_epik_Charging_Adjusted_Penalty>
8.54191e-11

> <i_epik_Tot_Q>
0

> <i_epik_Tot_abs_Q>
2

> <r_epik_Metal_State_Penalty>
-0

> <b_epik_Metal_Only>
0

> <s_lp_Force_Field>
OPLS_2005

> <r_lp_Energy>
68.3511

> <b_lp_Chiralities_Consistent>
1

> <s_lp_Variant>
AV-unprocessed.smi:911-4

> <Gold.Version>
5.8.1

> <Gold.Id.Protein>
6NUR|6NUR_protein|mol2

> <Gold.PLP.Fitness>
52.4753

> <Gold.PLP.PLP>
-47.2782

> <Gold.PLP.part.hbond>
-3.2448

> <Gold.PLP.part.metal>
0.0000

> <Gold.PLP.part.buried>
-4.0260

> <Gold.PLP.part.nonpolar>
-40.2725

> <Gold.PLP.part.repulsive>
0.1739

> <Gold.PLP.ligand.clash>
0.0000

> <Gold.PLP.ligand.torsion>
0.4190

> <Gold.PLP.Chemscore.Hbond>
2.0026

> <Gold.PLP.Chemscore.CHOScore>
0.0000

> <Gold.PLP.Chemscore.Metal>
0.0000

> <Gold.Chemscore.Hbonds>
donor molecule, donor type, donor heavy atom, donor atom, acceptor molecule, acceptor atom, score
      P1  H  6896  6907       L1    19  0.54
      P1  H  7989  7998       L1    23  0.46
      P1  H  7997  8009       L1    23  1.00

> <Gold.PLP.Chemscore.Internal.Correction>
0.0273

> <Gold.Rescore>
     Score         DG    S(hbond)    S(metal)    S(lipo)     H(rot)  DE(clash)    DE(int)     intcor
     22.58     -23.73       1.65        0.00     142.21       1.53       0.61       0.55       ----

> <Gold.Chemscore.Fitness>
22.5814

> <Gold.Chemscore.DG>
-23.7347

> <Gold.Chemscore.ZeroCoef>
-5.4800

> <Gold.Chemscore.Hbond>
1.6548

> <Gold.Chemscore.Metal>
0.0000

> <Gold.Chemscore.Lipo>
142.2099

> <Gold.Chemscore.Internal_Hbond>
0.0000

> <Gold.Chemscore.DEClash>
0.6054

> <Gold.Chemscore.DEInternal>
0.5479

> <Gold.Chemscore.Rot>
1.5277

> <Gold.Chemscore.Internal.Correction>
   9.000000E+99

> <Gold.Chemscore.Hbonds>
donor molecule, donor type, donor heavy atom, donor atom, acceptor molecule, acceptor atom, score
      P1  H  6896  6907       L1    19  0.52
      P1  H  7989  7998       L1    23  0.40
      P1  H  7997  8009       L1    23  0.77

> <Gold.Chemscore.Hbond.Weighted>
-5.5271

> <Gold.Chemscore.Metal.Weighted>
-0.0000

> <Gold.Chemscore.Lipo.Weighted>
-16.6386

> <Gold.Chemscore.Internal_Hbond.Weighted>
0.0000

> <Gold.Chemscore.DEClash.Weighted>
0.6054

> <Gold.Chemscore.DEInternal.Weighted>
0.5479

> <Gold.Chemscore.Rot.Weighted>
3.9110

> <Gold.Chemscore.Internal.Correction.Weighted>
   9.000000E+99

> <Gold.Protein.RotatedTorsions>
[ 6907 6896 6895 6894 ] final -122.68 input  -60.11 | X-H torsion
[ 7974 7965 7964 7962 ] final -154.53 input  175.53 | X-H torsion
[ 8008 7997 7996 7995 ] final -143.85 input   59.86 | X-H torsion
[ 10167 10162 10161 10158 ] final   72.42 input  -65.29 | X-H torsion
[ 10718 10713 10712 10709 ] final   19.55 input   66.30 | X-H torsion
[ 10763 10752 10751 10750 ] final  140.81 input  -60.55 | X-H torsion
[ 11005 11000 10999 10996 ] final   72.73 input  -57.11 | X-H torsion

> <Gold.Protein.ActiveResidues>
 VAL166  LYS551  ARG553  GLY616  TRP617  ASP618  TYR619  PRO620  LYS621  CYS622 
 ASP623  PHE694  ASN695  SER759  ASP760  ASP761  ALA762  ILE779  LEU786  VAL792 
 PHE793  MET794  SER795  GLU796  ALA797  LYS798  CYS799  TRP800  GLU811  SER814 

> <Gold.Protein.RotatedAtoms>
  150.8599  133.7659  159.2995 H   0  0  0  0  0  0  0  0  0  0  0  0  # atno 6907 bound_to 6896
  151.5304  135.1066  159.9911 H   0  0  0  0  0  0  0  0  0  0  0  0  # atno 6908 bound_to 6896
  152.4618  133.7795  159.6899 H   0  0  0  0  0  0  0  0  0  0  0  0  # atno 6909 bound_to 6896
  144.7685  140.4376  143.5924 H   0  0  0  0  0  0  0  0  0  0  0  0  # atno 7974 bound_to 7965
  155.5174  140.0588  157.2913 H   0  0  0  0  0  0  0  0  0  0  0  0  # atno 8008 bound_to 7997
  154.4530  140.1958  156.0410 H   0  0  0  0  0  0  0  0  0  0  0  0  # atno 8009 bound_to 7997
  156.0742  140.3256  155.7617 H   0  0  0  0  0  0  0  0  0  0  0  0  # atno 8010 bound_to 7997
  140.0355  144.5432  150.7474 H   0  0  0  0  0  0  0  0  0  0  0  0  # atno 10167 bound_to 10162
  157.1120  130.6513  149.5900 H   0  0  0  0  0  0  0  0  0  0  0  0  # atno 10718 bound_to 10713
  153.9289  135.2992  155.3446 H   0  0  0  0  0  0  0  0  0  0  0  0  # atno 10763 bound_to 10752
  154.7537  135.4968  153.9338 H   0  0  0  0  0  0  0  0  0  0  0  0  # atno 10764 bound_to 10752
  153.1102  135.6757  153.9619 H   0  0  0  0  0  0  0  0  0  0  0  0  # atno 10765 bound_to 10752
  139.9476  134.7285  156.0941 H   0  0  0  0  0  0  0  0  0  0  0  0  # atno 11005 bound_to 11000
  145.6396  139.1548  143.2923 LP  0  0  0  0  0  0  0  0  0  0  0  0  # atno 17320 bound_to 7965
  146.1812  140.6494  142.9188 LP  0  0  0  0  0  0  0  0  0  0  0  0  # atno 17321 bound_to 7965
  140.7283  143.2661  151.4041 LP  0  0  0  0  0  0  0  0  0  0  0  0  # atno 17342 bound_to 10162
  139.6048  144.1220  152.2237 LP  0  0  0  0  0  0  0  0  0  0  0  0  # atno 17343 bound_to 10162
  155.9848  130.4875  150.7001 LP  0  0  0  0  0  0  0  0  0  0  0  0  # atno 17370 bound_to 10713
  157.4551  131.0877  151.0805 LP  0  0  0  0  0  0  0  0  0  0  0  0  # atno 17371 bound_to 10713
  141.1131  133.6637  156.3026 LP  0  0  0  0  0  0  0  0  0  0  0  0  # atno 17394 bound_to 11000
  140.5797  134.5758  157.5476 LP  0  0  0  0  0  0  0  0  0  0  0  0  # atno 17395 bound_to 11000

$$$$
