AV-unprocessed.smi:1283|AV-procd|sdf|5361|dock10
  -GOLD-   22720 4503D 1   1.00000     0.00000
 Structure written by MMmdl.
 30 31  0  0  0  0  0  0  0  0  1 V2000
  148.1478  141.5795  154.5952 C   0  0  0  0  0  0  0  0  0  0  0  0
  149.2287  141.3379  155.5500 N   0  0  0  0  0  0  0  0  0  0  0  0
  149.1008  142.0145  156.7446 N   0  0  0  0  0  0  0  0  0  0  0  0
  150.0016  141.8690  157.6542 C   0  0  0  0  0  0  0  0  0  0  0  0
  151.1693  141.0177  157.4794 C   0  0  0  0  0  0  0  0  0  0  0  0
  152.1425  140.8596  158.4586 N   0  0  0  0  0  0  0  0  0  0  0  0
  152.2127  141.4619  159.7816 C   0  0  0  0  0  0  0  0  0  0  0  0
  152.6171  142.9391  159.6958 C   0  0  2  0  0  0  0  0  0  0  0  0
  152.0524  143.7979  160.8262 C   0  0  0  0  0  0  0  0  0  0  0  0
  151.9863  145.1920  160.2202 C   0  0  0  0  0  0  0  0  0  0  0  0
  152.1706  144.9560  158.7184 C   0  0  0  0  0  0  0  0  0  0  0  0
  152.0491  143.5512  158.5491 O   0  0  0  0  0  0  0  0  0  0  0  0
  151.2632  140.3558  156.2942 C   0  0  0  0  0  0  0  0  0  0  0  0
  152.6081  139.3096  155.9810 Cl  0  0  0  0  0  0  0  0  0  0  0  0
  150.2538  140.4954  155.2344 C   0  0  0  0  0  0  0  0  0  0  0  0
  150.3148  139.9104  154.1522 O   0  0  0  0  0  0  0  0  0  0  0  0
  147.6258  140.6501  154.3630 H   0  0  0  0  0  0  0  0  0  0  0  0
  148.5408  141.9930  153.6654 H   0  0  0  0  0  0  0  0  0  0  0  0
  147.4091  142.2842  154.9809 H   0  0  0  0  0  0  0  0  0  0  0  0
  149.9182  142.3837  158.6104 H   0  0  0  0  0  0  0  0  0  0  0  0
  153.0008  140.4176  158.1610 H   0  0  0  0  0  0  0  0  0  0  0  0
  151.2632  141.3799  160.3092 H   0  0  0  0  0  0  0  0  0  0  0  0
  152.9504  140.9087  160.3633 H   0  0  0  0  0  0  0  0  0  0  0  0
  153.7038  143.0414  159.6619 H   0  0  0  0  0  0  0  0  0  0  0  0
  151.0459  143.4664  161.0851 H   0  0  0  0  0  0  0  0  0  0  0  0
  152.6617  143.7556  161.7292 H   0  0  0  0  0  0  0  0  0  0  0  0
  151.0276  145.6636  160.4384 H   0  0  0  0  0  0  0  0  0  0  0  0
  152.7743  145.8379  160.6089 H   0  0  0  0  0  0  0  0  0  0  0  0
  151.4361  145.4906  158.1158 H   0  0  0  0  0  0  0  0  0  0  0  0
  153.1656  145.2701  158.3999 H   0  0  0  0  0  0  0  0  0  0  0  0
  1  2  1  0  0  0  0
  1 17  1  0  0  0  0
  1 18  1  0  0  0  0
  1 19  1  0  0  0  0
  2 15  1  0  0  0  0
  2  3  1  0  0  0  0
  3  4  2  0  0  0  0
  4  5  1  0  0  0  0
  4 20  1  0  0  0  0
  5  6  1  0  0  0  0
  5 13  2  0  0  0  0
  6  7  1  0  0  0  0
  6 21  1  0  0  0  0
  7  8  1  0  0  0  0
  7 22  1  0  0  0  0
  7 23  1  0  0  0  0
  8 12  1  0  0  0  0
  8  9  1  0  0  0  0
  8 24  1  0  0  0  0
  9 10  1  0  0  0  0
  9 25  1  0  0  0  0
  9 26  1  0  0  0  0
 10 11  1  0  0  0  0
 10 27  1  0  0  0  0
 10 28  1  0  0  0  0
 11 12  1  0  0  0  0
 11 29  1  0  0  0  0
 11 30  1  0  0  0  0
 13 14  1  0  0  0  0
 13 15  1  0  0  0  0
 15 16  2  0  0  0  0
M  END
> <s_m_source_file>
AV-unprocessed.smi

> <i_m_source_file_index>
1283

> <i_lp_mmshare_version>
43012

> <i_f3d_flags>
0

> <s_epik_input>
W0NIM11uMW5bY0hdYyhjKENsKWMxPU8pW05IXVtDSDJdW0NAQEhdMltDSDJdW0NIMl1bQ0gyXU8y

> <s_epik_cmdline>
J2VwaWtfcHl0aG9uJywgJy1waCcsICc3LjAnLCAnLXRuJywgJzgnLCAnLW1hJywgJzIwMCcsICctbWV0YWxfYmluZGluZycsICctaW1hZScsICc8aW5maWxlLm1hZT4nLCAnLW9tYWUnLCAnPG91dGZpbGUubWFlPic=

> <r_lp_tautomer_probability>
1

> <r_epik_Ionization_Penalty>
2.40876e-05

> <r_epik_Ionization_Penalty_Charging>
4.17655e-09

> <r_epik_Ionization_Penalty_Neutral>
2.40834e-05

> <r_epik_State_Penalty>
-0

> <r_epik_Charging_Adjusted_Penalty>
4.17655e-09

> <i_epik_Tot_Q>
0

> <i_epik_Tot_abs_Q>
0

> <r_epik_Metal_State_Penalty>
-0

> <b_epik_Metal_Only>
0

> <s_lp_Force_Field>
OPLS_2005

> <r_lp_Energy>
38.2243

> <b_lp_Chiralities_Consistent>
1

> <s_lp_Variant>
AV-unprocessed.smi:1283-1

> <Gold.Version>
5.8.1

> <Gold.Id.Protein>
6NUR|6NUR_protein|mol2

> <Gold.PLP.Fitness>
37.5328

> <Gold.PLP.PLP>
-35.6339

> <Gold.PLP.part.hbond>
-1.0000

> <Gold.PLP.part.metal>
0.0000

> <Gold.PLP.part.buried>
-3.4348

> <Gold.PLP.part.nonpolar>
-32.8933

> <Gold.PLP.part.repulsive>
2.0391

> <Gold.PLP.ligand.clash>
0.0000

> <Gold.PLP.ligand.torsion>
0.4050

> <Gold.PLP.Chemscore.Hbond>
0.9000

> <Gold.PLP.Chemscore.CHOScore>
0.0000

> <Gold.PLP.Chemscore.Metal>
0.0000

> <Gold.Chemscore.Hbonds>
donor molecule, donor type, donor heavy atom, donor atom, acceptor molecule, acceptor atom, score
      P1  H  7989  7998       L1    16  0.85

> <Gold.PLP.Chemscore.Internal.Correction>
0.0088

> <Gold.Rescore>
     Score         DG    S(hbond)    S(metal)    S(lipo)     H(rot)  DE(clash)    DE(int)     intcor
     10.19     -13.14       0.04        0.00      90.97       1.22       0.70       2.25       ----

> <Gold.Chemscore.Fitness>
10.1870

> <Gold.Chemscore.DG>
-13.1365

> <Gold.Chemscore.ZeroCoef>
-5.4800

> <Gold.Chemscore.Hbond>
0.0415

> <Gold.Chemscore.Metal>
0.0000

> <Gold.Chemscore.Lipo>
90.9667

> <Gold.Chemscore.Internal_Hbond>
0.0000

> <Gold.Chemscore.DEClash>
0.6971

> <Gold.Chemscore.DEInternal>
2.2524

> <Gold.Chemscore.Rot>
1.2208

> <Gold.Chemscore.Internal.Correction>
   9.000000E+99

> <Gold.Chemscore.Hbonds>
donor molecule, donor type, donor heavy atom, donor atom, acceptor molecule, acceptor atom, score
      P1  H  7989  7998       L1    16  0.14

> <Gold.Chemscore.Hbond.Weighted>
-0.1387

> <Gold.Chemscore.Metal.Weighted>
-0.0000

> <Gold.Chemscore.Lipo.Weighted>
-10.6431

> <Gold.Chemscore.Internal_Hbond.Weighted>
0.0000

> <Gold.Chemscore.DEClash.Weighted>
0.6971

> <Gold.Chemscore.DEInternal.Weighted>
2.2524

> <Gold.Chemscore.Rot.Weighted>
3.1253

> <Gold.Chemscore.Internal.Correction.Weighted>
   9.000000E+99

> <Gold.Protein.RotatedTorsions>
[ 6907 6896 6895 6894 ] final   38.93 input  -60.11 | X-H torsion
[ 7974 7965 7964 7962 ] final   66.39 input  175.53 | X-H torsion
[ 8008 7997 7996 7995 ] final  102.39 input   59.86 | X-H torsion
[ 10167 10162 10161 10158 ] final    6.00 input  -65.29 | X-H torsion
[ 10718 10713 10712 10709 ] final   20.48 input   66.30 | X-H torsion
[ 10763 10752 10751 10750 ] final   32.67 input  -60.55 | X-H torsion
[ 11005 11000 10999 10996 ] final  164.24 input  -57.11 | X-H torsion

> <Gold.Protein.ActiveResidues>
 VAL166  LYS551  ARG553  GLY616  TRP617  ASP618  TYR619  PRO620  LYS621  CYS622 
 ASP623  PHE694  ASN695  SER759  ASP760  ASP761  ALA762  ILE779  LEU786  VAL792 
 PHE793  MET794  SER795  GLU796  ALA797  LYS798  CYS799  TRP800  GLU811  SER814 

> <Gold.Protein.RotatedAtoms>
  152.1628  134.8898  160.0540 H   0  0  0  0  0  0  0  0  0  0  0  0  # atno 6907 bound_to 6896
  151.9887  133.3778  159.4144 H   0  0  0  0  0  0  0  0  0  0  0  0  # atno 6908 bound_to 6896
  150.6890  134.3883  159.5108 H   0  0  0  0  0  0  0  0  0  0  0  0  # atno 6909 bound_to 6896
  145.8272  139.3118  143.1009 H   0  0  0  0  0  0  0  0  0  0  0  0  # atno 7974 bound_to 7965
  156.1388  140.3182  155.8463 H   0  0  0  0  0  0  0  0  0  0  0  0  # atno 8008 bound_to 7997
  155.4194  140.0511  157.3044 H   0  0  0  0  0  0  0  0  0  0  0  0  # atno 8009 bound_to 7997
  154.4959  140.2110  155.9461 H   0  0  0  0  0  0  0  0  0  0  0  0  # atno 8010 bound_to 7997
  140.6451  143.7681  150.7487 H   0  0  0  0  0  0  0  0  0  0  0  0  # atno 10167 bound_to 10162
  157.1250  130.6566  149.5935 H   0  0  0  0  0  0  0  0  0  0  0  0  # atno 10718 bound_to 10713
  153.0250  135.6407  154.1392 H   0  0  0  0  0  0  0  0  0  0  0  0  # atno 10763 bound_to 10752
  154.1122  135.2852  155.3229 H   0  0  0  0  0  0  0  0  0  0  0  0  # atno 10764 bound_to 10752
  154.6323  135.5488  153.7757 H   0  0  0  0  0  0  0  0  0  0  0  0  # atno 10765 bound_to 10752
  140.2439  134.8029  157.3438 H   0  0  0  0  0  0  0  0  0  0  0  0  # atno 11005 bound_to 11000
  145.9611  140.8835  143.0210 LP  0  0  0  0  0  0  0  0  0  0  0  0  # atno 17320 bound_to 7965
  144.6742  140.1814  143.7405 LP  0  0  0  0  0  0  0  0  0  0  0  0  # atno 17321 bound_to 7965
  140.1320  143.4517  152.2248 LP  0  0  0  0  0  0  0  0  0  0  0  0  # atno 17342 bound_to 10162
  139.5662  144.7436  151.4017 LP  0  0  0  0  0  0  0  0  0  0  0  0  # atno 17343 bound_to 10162
  155.9820  130.4831  150.6858 LP  0  0  0  0  0  0  0  0  0  0  0  0  # atno 17370 bound_to 10713
  157.4443  131.0865  151.0912 LP  0  0  0  0  0  0  0  0  0  0  0  0  # atno 17371 bound_to 10713
  140.1625  134.4710  155.7885 LP  0  0  0  0  0  0  0  0  0  0  0  0  # atno 17394 bound_to 11000
  141.2208  133.6907  156.7569 LP  0  0  0  0  0  0  0  0  0  0  0  0  # atno 17395 bound_to 11000

$$$$
