AV-unprocessed.smi:3011|AV-procd|sdf|11460|dock4
  -GOLD-   2272016393D 1   1.00000     0.00000
 Structure written by MMmdl.
 47 49  0  0  0  0  0  0  0  0  2 V2000
  148.2374  144.9517  161.6250 C   0  0  0  0  0  0  0  0  0  0  0  0
  148.2441  143.9812  160.5887 O   0  0  0  0  0  0  0  0  0  0  0  0
  147.1173  143.8542  159.8029 C   0  0  0  0  0  0  0  0  0  0  0  0
  145.9127  144.5646  160.0377 C   0  0  0  0  0  0  0  0  0  0  0  0
  144.8046  144.3917  159.1890 C   0  0  0  0  0  0  0  0  0  0  0  0
  144.8869  143.5114  158.0970 C   0  0  0  0  0  0  0  0  0  0  0  0
  146.0764  142.8006  157.8553 C   0  0  0  0  0  0  0  0  0  0  0  0
  147.1981  142.9638  158.7072 C   0  0  0  0  0  0  0  0  0  0  0  0
  148.3914  142.2938  158.5361 O   0  0  0  0  0  0  0  0  0  0  0  0
  148.5282  141.4205  157.4234 C   0  0  0  0  0  0  0  0  0  0  0  0
  149.8986  141.6542  156.7742 C   0  0  0  0  0  0  0  0  0  0  0  0
  151.0027  141.4591  157.7266 N   0  0  0  0  0  0  0  0  0  0  0  0
  151.8436  140.3986  157.9146 C   0  0  0  0  0  0  0  0  0  0  0  0
  151.8418  139.0931  157.1731 C   0  0  1  0  0  0  0  0  0  0  0  0
  152.0686  139.3134  155.6699 C   0  0  0  0  0  0  0  0  0  0  0  0
  152.8567  138.1828  157.6885 N   0  0  0  0  0  0  0  0  0  0  0  0
  153.0747  136.9492  157.2165 C   0  0  0  0  0  0  0  0  0  0  0  0
  152.4319  136.4623  156.2902 O   0  0  0  0  0  0  0  0  0  0  0  0
  152.6806  140.7302  158.9396 N   0  3  0  0  0  0  0  0  0  0  0  0
  152.3939  142.0178  159.3913 C   0  0  0  0  0  0  0  0  0  0  0  0
  152.9794  142.7825  160.3956 C   0  0  0  0  0  0  0  0  0  0  0  0
  152.4474  144.0725  160.5997 C   0  0  0  0  0  0  0  0  0  0  0  0
  151.3756  144.5560  159.8216 C   0  0  0  0  0  0  0  0  0  0  0  0
  150.7887  143.7698  158.8081 C   0  0  0  0  0  0  0  0  0  0  0  0
  151.3200  142.4948  158.6134 C   0  0  0  0  0  0  0  0  0  0  0  0
  149.1962  144.9301  162.1425 H   0  0  0  0  0  0  0  0  0  0  0  0
  147.4609  144.7424  162.3617 H   0  0  0  0  0  0  0  0  0  0  0  0
  148.0999  145.9585  161.2285 H   0  0  0  0  0  0  0  0  0  0  0  0
  145.8123  145.2513  160.8642 H   0  0  0  0  0  0  0  0  0  0  0  0
  143.8909  144.9368  159.3754 H   0  0  0  0  0  0  0  0  0  0  0  0
  144.0363  143.3799  157.4447 H   0  0  0  0  0  0  0  0  0  0  0  0
  146.1009  142.1326  157.0081 H   0  0  0  0  0  0  0  0  0  0  0  0
  148.4463  140.3797  157.7399 H   0  0  0  0  0  0  0  0  0  0  0  0
  147.7403  141.6167  156.6950 H   0  0  0  0  0  0  0  0  0  0  0  0
  150.0442  140.9913  155.9211 H   0  0  0  0  0  0  0  0  0  0  0  0
  149.9617  142.6687  156.3821 H   0  0  0  0  0  0  0  0  0  0  0  0
  150.8643  138.6232  157.2898 H   0  0  0  0  0  0  0  0  0  0  0  0
  151.3198  139.9892  155.2562 H   0  0  0  0  0  0  0  0  0  0  0  0
  152.0014  138.3729  155.1221 H   0  0  0  0  0  0  0  0  0  0  0  0
  153.0499  139.7440  155.4679 H   0  0  0  0  0  0  0  0  0  0  0  0
  153.4305  138.5107  158.4520 H   0  0  0  0  0  0  0  0  0  0  0  0
  153.8892  136.4394  157.7542 H   0  0  0  0  0  0  0  0  0  0  0  0
  153.8017  142.4147  160.9916 H   0  0  0  0  0  0  0  0  0  0  0  0
  152.8710  144.7041  161.3672 H   0  0  0  0  0  0  0  0  0  0  0  0
  150.9959  145.5506  160.0056 H   0  0  0  0  0  0  0  0  0  0  0  0
  149.9694  144.1515  158.2170 H   0  0  0  0  0  0  0  0  0  0  0  0
  153.4021  140.1173  159.2966 H   0  0  0  0  0  0  0  0  0  0  0  0
  1  2  1  0  0  0  0
  1 26  1  0  0  0  0
  1 27  1  0  0  0  0
  1 28  1  0  0  0  0
  2  3  1  0  0  0  0
  3  8  1  0  0  0  0
  3  4  2  0  0  0  0
  4  5  1  0  0  0  0
  4 29  1  0  0  0  0
  5  6  2  0  0  0  0
  5 30  1  0  0  0  0
  6  7  1  0  0  0  0
  6 31  1  0  0  0  0
  7  8  2  0  0  0  0
  7 32  1  0  0  0  0
  8  9  1  0  0  0  0
  9 10  1  0  0  0  0
 10 11  1  0  0  0  0
 10 33  1  0  0  0  0
 10 34  1  0  0  0  0
 11 12  1  0  0  0  0
 11 35  1  0  0  0  0
 11 36  1  0  0  0  0
 12 25  1  0  0  0  0
 12 13  1  0  0  0  0
 13 14  1  0  0  0  0
 13 19  2  0  0  0  0
 14 15  1  0  0  0  0
 14 16  1  0  0  0  0
 14 37  1  0  0  0  0
 15 38  1  0  0  0  0
 15 39  1  0  0  0  0
 15 40  1  0  0  0  0
 16 17  1  0  0  0  0
 16 41  1  0  0  0  0
 17 18  2  0  0  0  0
 17 42  1  0  0  0  0
 19 20  1  0  0  0  0
 19 47  1  0  0  0  0
 20 25  2  0  0  0  0
 20 21  1  0  0  0  0
 21 22  2  0  0  0  0
 21 43  1  0  0  0  0
 22 23  1  0  0  0  0
 22 44  1  0  0  0  0
 23 24  2  0  0  0  0
 23 45  1  0  0  0  0
 24 25  1  0  0  0  0
 24 46  1  0  0  0  0
M  CHG  1  19   1
M  END
> <s_m_source_file>
AV-unprocessed.smi

> <i_m_source_file_index>
3011

> <i_lp_mmshare_version>
43012

> <i_f3d_flags>
0

> <s_epik_input>
W0NIM11PYzFbY0hdW2NIXVtjSF1bY0hdYzFPW0NIMl1bQ0gyXW4oYyhuMilbQ0BIXShbQ0gzXSlbTkhdW0NIXT1PKWMoYzIzKVtjSF1bY0hdW2NIXVtjSF0z

> <s_epik_cmdline>
J2VwaWtfcHl0aG9uJywgJy1waCcsICc3LjAnLCAnLXRuJywgJzgnLCAnLW1hJywgJzIwMCcsICctbWV0YWxfYmluZGluZycsICctaW1hZScsICc8aW5maWxlLm1hZT4nLCAnLW9tYWUnLCAnPG91dGZpbGUubWFlPic=

> <r_lp_tautomer_probability>
1

> <r_epik_Ionization_Penalty>
1.14644

> <r_epik_Ionization_Penalty_Charging>
1.14644

> <r_epik_Ionization_Penalty_Neutral>
5.5802e-08

> <r_epik_State_Penalty>
1.20743

> <r_epik_Charging_Adjusted_Penalty>
2.35387

> <i_epik_Tot_Q>
1

> <i_epik_Tot_abs_Q>
1

> <r_epik_Metal_State_Penalty>
1.28856

> <b_epik_Metal_Only>
0

> <s_lp_Force_Field>
OPLS_2005

> <r_lp_Energy>
19.9928

> <b_lp_Chiralities_Consistent>
1

> <s_lp_Variant>
AV-unprocessed.smi:3011-4

> <Gold.Version>
5.8.1

> <Gold.Id.Protein>
6NUR|6NUR_protein|mol2

> <Gold.PLP.Fitness>
47.5654

> <Gold.PLP.PLP>
-42.7609

> <Gold.PLP.part.hbond>
-2.0000

> <Gold.PLP.part.metal>
0.0000

> <Gold.PLP.part.buried>
-7.4063

> <Gold.PLP.part.nonpolar>
-33.1448

> <Gold.PLP.part.repulsive>
0.4771

> <Gold.PLP.ligand.clash>
0.0000

> <Gold.PLP.ligand.torsion>
0.6367

> <Gold.PLP.Chemscore.Hbond>
2.0000

> <Gold.PLP.Chemscore.CHOScore>
0.0000

> <Gold.PLP.Chemscore.Metal>
0.0000

> <Gold.Chemscore.Hbonds>
donor molecule, donor type, donor heavy atom, donor atom, acceptor molecule, acceptor atom, score
      P1  H  6933  6944       L1     2  1.00
      P1  H 10752 10763       L1    18  1.00

> <Gold.PLP.Chemscore.Internal.Correction>
0.0780

> <Gold.Rescore>
     Score         DG    S(hbond)    S(metal)    S(lipo)     H(rot)  DE(clash)    DE(int)     intcor
     12.07     -16.25       1.56        0.00     105.62       2.66       0.05       4.13       ----

> <Gold.Chemscore.Fitness>
12.0672

> <Gold.Chemscore.DG>
-16.2505

> <Gold.Chemscore.ZeroCoef>
-5.4800

> <Gold.Chemscore.Hbond>
1.5641

> <Gold.Chemscore.Metal>
0.0000

> <Gold.Chemscore.Lipo>
105.6169

> <Gold.Chemscore.Internal_Hbond>
0.0000

> <Gold.Chemscore.DEClash>
0.0502

> <Gold.Chemscore.DEInternal>
4.1331

> <Gold.Chemscore.Rot>
2.6604

> <Gold.Chemscore.Internal.Correction>
   9.000000E+99

> <Gold.Chemscore.Hbonds>
donor molecule, donor type, donor heavy atom, donor atom, acceptor molecule, acceptor atom, score
      P1  H  6933  6944       L1     2  0.32
      P1  H 10752 10763       L1    18  0.97

> <Gold.Chemscore.Hbond.Weighted>
-5.2240

> <Gold.Chemscore.Metal.Weighted>
-0.0000

> <Gold.Chemscore.Lipo.Weighted>
-12.3572

> <Gold.Chemscore.Internal_Hbond.Weighted>
0.0000

> <Gold.Chemscore.DEClash.Weighted>
0.0502

> <Gold.Chemscore.DEInternal.Weighted>
4.1331

> <Gold.Chemscore.Rot.Weighted>
6.8106

> <Gold.Chemscore.Internal.Correction.Weighted>
   9.000000E+99

> <Gold.Protein.RotatedTorsions>
[ 6907 6896 6895 6894 ] final   21.15 input  -60.11 | X-H torsion
[ 7974 7965 7964 7962 ] final  170.70 input  175.53 | X-H torsion
[ 8008 7997 7996 7995 ] final  -30.37 input   59.86 | X-H torsion
[ 10167 10162 10161 10158 ] final -103.86 input  -65.29 | X-H torsion
[ 10718 10713 10712 10709 ] final   15.91 input   66.30 | X-H torsion
[ 10763 10752 10751 10750 ] final   85.19 input  -60.55 | X-H torsion
[ 11005 11000 10999 10996 ] final   26.88 input  -57.11 | X-H torsion

> <Gold.Protein.ActiveResidues>
 VAL166  LYS551  ARG553  GLY616  TRP617  ASP618  TYR619  PRO620  LYS621  CYS622 
 ASP623  PHE694  ASN695  SER759  ASP760  ASP761  ALA762  ILE779  LEU786  VAL792 
 PHE793  MET794  SER795  GLU796  ALA797  LYS798  CYS799  TRP800  GLU811  SER814 

> <Gold.Protein.RotatedAtoms>
  151.9074  135.0353  160.0511 H   0  0  0  0  0  0  0  0  0  0  0  0  # atno 6907 bound_to 6896
  152.2307  133.5052  159.5223 H   0  0  0  0  0  0  0  0  0  0  0  0  # atno 6908 bound_to 6896
  150.7025  134.1136  159.4052 H   0  0  0  0  0  0  0  0  0  0  0  0  # atno 6909 bound_to 6896
  144.7316  139.9241  143.6421 H   0  0  0  0  0  0  0  0  0  0  0  0  # atno 7974 bound_to 7965
  154.4253  140.1793  156.1397 H   0  0  0  0  0  0  0  0  0  0  0  0  # atno 8008 bound_to 7997
  156.0002  140.3360  155.6813 H   0  0  0  0  0  0  0  0  0  0  0  0  # atno 8009 bound_to 7997
  155.6253  140.0664  157.2656 H   0  0  0  0  0  0  0  0  0  0  0  0  # atno 8010 bound_to 7997
  140.2155  143.3715  152.1014 H   0  0  0  0  0  0  0  0  0  0  0  0  # atno 10167 bound_to 10162
  157.0604  130.6306  149.5785 H   0  0  0  0  0  0  0  0  0  0  0  0  # atno 10718 bound_to 10713
  153.1452  135.4626  154.9555 H   0  0  0  0  0  0  0  0  0  0  0  0  # atno 10763 bound_to 10752
  154.7780  135.3179  154.8053 H   0  0  0  0  0  0  0  0  0  0  0  0  # atno 10764 bound_to 10752
  153.8568  135.6916  153.4841 H   0  0  0  0  0  0  0  0  0  0  0  0  # atno 10765 bound_to 10752
  140.3323  134.2424  155.7700 H   0  0  0  0  0  0  0  0  0  0  0  0  # atno 11005 bound_to 11000
  146.0907  139.3897  143.0407 LP  0  0  0  0  0  0  0  0  0  0  0  0  # atno 17320 bound_to 7965
  145.7715  140.9894  143.1147 LP  0  0  0  0  0  0  0  0  0  0  0  0  # atno 17321 bound_to 7965
  139.5164  144.6976  151.5585 LP  0  0  0  0  0  0  0  0  0  0  0  0  # atno 17342 bound_to 10162
  140.6293  143.9108  150.6591 LP  0  0  0  0  0  0  0  0  0  0  0  0  # atno 17343 bound_to 10162
  155.9980  130.5053  150.7556 LP  0  0  0  0  0  0  0  0  0  0  0  0  # atno 17370 bound_to 10713
  157.4959  131.0915  151.0371 LP  0  0  0  0  0  0  0  0  0  0  0  0  # atno 17371 bound_to 10713
  141.2060  133.7845  157.0201 LP  0  0  0  0  0  0  0  0  0  0  0  0  # atno 17394 bound_to 11000
  140.0850  134.9626  157.1686 LP  0  0  0  0  0  0  0  0  0  0  0  0  # atno 17395 bound_to 11000

$$$$
