AV-unprocessed.smi:2955|AV-procd|sdf|11302|dock6
  -GOLD-   2272016203D 1   1.00000     0.00000
 Structure written by MMmdl.
 45 47  0  0  0  0  0  0  0  0  1 V2000
  153.5540  142.0247  161.1764 C   0  0  0  0  0  0  0  0  0  0  0  0
  152.7963  142.3919  159.9168 C   0  0  0  0  0  0  0  0  0  0  0  0
  152.7096  143.7376  159.5081 C   0  0  0  0  0  0  0  0  0  0  0  0
  152.0081  144.0713  158.3352 C   0  0  0  0  0  0  0  0  0  0  0  0
  151.3945  143.0618  157.5701 C   0  0  0  0  0  0  0  0  0  0  0  0
  151.4726  141.7098  157.9628 C   0  0  0  0  0  0  0  0  0  0  0  0
  150.8457  140.7858  157.1543 O   0  0  0  0  0  0  0  0  0  0  0  0
  151.3753  139.4678  157.1034 C   0  0  0  0  0  0  0  0  0  0  0  0
  151.3847  138.9612  155.6546 C   0  0  0  0  0  0  0  0  0  0  0  0
  150.0412  138.7550  155.1294 N   0  0  0  0  0  0  0  0  0  0  0  0
  149.3517  137.5951  154.9563 C   0  0  0  0  0  0  0  0  0  0  0  0
  149.9121  136.2412  155.3142 C   0  0  1  0  0  0  0  0  0  0  0  0
  149.2739  135.6651  156.5865 C   0  0  0  0  0  0  0  0  0  0  0  0
  149.6969  135.3423  154.1853 N   0  0  0  0  0  0  0  0  0  0  0  0
  149.9935  134.0367  154.1967 C   0  0  0  0  0  0  0  0  0  0  0  0
  150.4812  133.4662  155.1690 O   0  0  0  0  0  0  0  0  0  0  0  0
  148.1401  137.7250  154.4086 N   0  0  0  0  0  0  0  0  0  0  0  0
  148.0190  139.0892  154.2435 C   0  0  0  0  0  0  0  0  0  0  0  0
  146.9554  139.8605  153.7225 C   0  0  0  0  0  0  0  0  0  0  0  0
  147.0601  141.2651  153.6524 C   0  0  0  0  0  0  0  0  0  0  0  0
  148.2268  141.9166  154.1016 C   0  0  0  0  0  0  0  0  0  0  0  0
  149.2985  141.1659  154.6221 C   0  0  0  0  0  0  0  0  0  0  0  0
  149.1895  139.7637  154.6889 C   0  0  0  0  0  0  0  0  0  0  0  0
  152.1810  141.3827  159.1473 C   0  0  0  0  0  0  0  0  0  0  0  0
  153.7048  142.8956  161.8150 H   0  0  0  0  0  0  0  0  0  0  0  0
  154.5308  141.6138  160.9201 H   0  0  0  0  0  0  0  0  0  0  0  0
  153.0062  141.2762  161.7496 H   0  0  0  0  0  0  0  0  0  0  0  0
  153.1799  144.5163  160.0908 H   0  0  0  0  0  0  0  0  0  0  0  0
  151.9411  145.1027  158.0216 H   0  0  0  0  0  0  0  0  0  0  0  0
  150.8570  143.3299  156.6727 H   0  0  0  0  0  0  0  0  0  0  0  0
  152.3920  139.4535  157.4998 H   0  0  0  0  0  0  0  0  0  0  0  0
  150.7668  138.7979  157.7128 H   0  0  0  0  0  0  0  0  0  0  0  0
  151.8894  139.6906  155.0208 H   0  0  0  0  0  0  0  0  0  0  0  0
  151.9671  138.0455  155.5613 H   0  0  0  0  0  0  0  0  0  0  0  0
  150.9814  136.3088  155.5059 H   0  0  0  0  0  0  0  0  0  0  0  0
  149.4066  136.3433  157.4291 H   0  0  0  0  0  0  0  0  0  0  0  0
  149.7263  134.7101  156.8546 H   0  0  0  0  0  0  0  0  0  0  0  0
  148.2028  135.5023  156.4609 H   0  0  0  0  0  0  0  0  0  0  0  0
  149.3201  135.7433  153.3387 H   0  0  0  0  0  0  0  0  0  0  0  0
  149.7491  133.5506  153.2389 H   0  0  0  0  0  0  0  0  0  0  0  0
  146.0570  139.3706  153.3768 H   0  0  0  0  0  0  0  0  0  0  0  0
  146.2411  141.8449  153.2526 H   0  0  0  0  0  0  0  0  0  0  0  0
  148.2991  142.9928  154.0456 H   0  0  0  0  0  0  0  0  0  0  0  0
  150.1930  141.6629  154.9669 H   0  0  0  0  0  0  0  0  0  0  0  0
  152.2678  140.3613  159.4857 H   0  0  0  0  0  0  0  0  0  0  0  0
  1  2  1  0  0  0  0
  1 25  1  0  0  0  0
  1 26  1  0  0  0  0
  1 27  1  0  0  0  0
  2 24  1  0  0  0  0
  2  3  2  0  0  0  0
  3  4  1  0  0  0  0
  3 28  1  0  0  0  0
  4  5  2  0  0  0  0
  4 29  1  0  0  0  0
  5  6  1  0  0  0  0
  5 30  1  0  0  0  0
  6  7  1  0  0  0  0
  6 24  2  0  0  0  0
  7  8  1  0  0  0  0
  8  9  1  0  0  0  0
  8 31  1  0  0  0  0
  8 32  1  0  0  0  0
  9 10  1  0  0  0  0
  9 33  1  0  0  0  0
  9 34  1  0  0  0  0
 10 23  1  0  0  0  0
 10 11  1  0  0  0  0
 11 12  1  0  0  0  0
 11 17  2  0  0  0  0
 12 13  1  0  0  0  0
 12 14  1  0  0  0  0
 12 35  1  0  0  0  0
 13 36  1  0  0  0  0
 13 37  1  0  0  0  0
 13 38  1  0  0  0  0
 14 15  1  0  0  0  0
 14 39  1  0  0  0  0
 15 16  2  0  0  0  0
 15 40  1  0  0  0  0
 17 18  1  0  0  0  0
 18 23  2  0  0  0  0
 18 19  1  0  0  0  0
 19 20  2  0  0  0  0
 19 41  1  0  0  0  0
 20 21  1  0  0  0  0
 20 42  1  0  0  0  0
 21 22  2  0  0  0  0
 21 43  1  0  0  0  0
 22 23  1  0  0  0  0
 22 44  1  0  0  0  0
 24 45  1  0  0  0  0
M  END
> <s_m_source_file>
AV-unprocessed.smi

> <i_m_source_file_index>
2955

> <i_lp_mmshare_version>
43012

> <i_f3d_flags>
0

> <s_epik_input>
W0NIM11jMVtjSF1bY0hdW2NIXWMoW2NIXTEpT1tDSDJdW0NIMl1uKGMobjIpW0NASF0oW0NIM10pW05IXVtDSF09TyljKGMyMylbY0hdW2NIXVtjSF1bY0hdMw==

> <s_epik_cmdline>
J2VwaWtfcHl0aG9uJywgJy1waCcsICc3LjAnLCAnLXRuJywgJzgnLCAnLW1hJywgJzIwMCcsICctbWV0YWxfYmluZGluZycsICctaW1hZScsICc8aW5maWxlLm1hZT4nLCAnLW9tYWUnLCAnPG91dGZpbGUubWFlPic=

> <r_lp_tautomer_probability>
1

> <r_epik_Ionization_Penalty>
0.0917757

> <r_epik_Ionization_Penalty_Charging>
0

> <r_epik_Ionization_Penalty_Neutral>
0.0917757

> <r_epik_State_Penalty>
0.0820948

> <r_epik_Charging_Adjusted_Penalty>
0.0820948

> <i_epik_Tot_Q>
0

> <i_epik_Tot_abs_Q>
0

> <r_epik_Metal_State_Penalty>
0.0709956

> <b_epik_Metal_Only>
0

> <s_lp_Force_Field>
OPLS_2005

> <r_lp_Energy>
12.9149

> <b_lp_Chiralities_Consistent>
1

> <s_lp_Variant>
AV-unprocessed.smi:2955-2

> <Gold.Version>
5.8.1

> <Gold.Id.Protein>
6NUR|6NUR_protein|mol2

> <Gold.PLP.Fitness>
47.3203

> <Gold.PLP.PLP>
-46.7929

> <Gold.PLP.part.hbond>
-1.0000

> <Gold.PLP.part.metal>
0.0000

> <Gold.PLP.part.buried>
-4.6350

> <Gold.PLP.part.nonpolar>
-41.5807

> <Gold.PLP.part.repulsive>
0.2384

> <Gold.PLP.ligand.clash>
0.0000

> <Gold.PLP.ligand.torsion>
1.2830

> <Gold.PLP.Chemscore.Hbond>
1.0000

> <Gold.PLP.Chemscore.CHOScore>
0.0000

> <Gold.PLP.Chemscore.Metal>
0.0000

> <Gold.Chemscore.Hbonds>
donor molecule, donor type, donor heavy atom, donor atom, acceptor molecule, acceptor atom, score
      L1  H    14    39       P1  7948  1.00

> <Gold.PLP.Chemscore.Internal.Correction>
0.0935

> <Gold.Rescore>
     Score         DG    S(hbond)    S(metal)    S(lipo)     H(rot)  DE(clash)    DE(int)     intcor
     16.06     -17.26       0.83        0.00     126.48       2.26       0.03       1.17       ----

> <Gold.Chemscore.Fitness>
16.0603

> <Gold.Chemscore.DG>
-17.2600

> <Gold.Chemscore.ZeroCoef>
-5.4800

> <Gold.Chemscore.Hbond>
0.8300

> <Gold.Chemscore.Metal>
0.0000

> <Gold.Chemscore.Lipo>
126.4818

> <Gold.Chemscore.Internal_Hbond>
0.0000

> <Gold.Chemscore.DEClash>
0.0309

> <Gold.Chemscore.DEInternal>
1.1688

> <Gold.Chemscore.Rot>
2.2619

> <Gold.Chemscore.Internal.Correction>
   9.000000E+99

> <Gold.Chemscore.Hbonds>
donor molecule, donor type, donor heavy atom, donor atom, acceptor molecule, acceptor atom, score
      L1  H    14    39       P1  7948  0.38

> <Gold.Chemscore.Hbond.Weighted>
-2.7722

> <Gold.Chemscore.Metal.Weighted>
-0.0000

> <Gold.Chemscore.Lipo.Weighted>
-14.7984

> <Gold.Chemscore.Internal_Hbond.Weighted>
0.0000

> <Gold.Chemscore.DEClash.Weighted>
0.0309

> <Gold.Chemscore.DEInternal.Weighted>
1.1688

> <Gold.Chemscore.Rot.Weighted>
5.7906

> <Gold.Chemscore.Internal.Correction.Weighted>
   9.000000E+99

> <Gold.Protein.RotatedTorsions>
[ 6907 6896 6895 6894 ] final  128.87 input  -60.11 | X-H torsion
[ 7974 7965 7964 7962 ] final -128.64 input  175.53 | X-H torsion
[ 8008 7997 7996 7995 ] final -128.12 input   59.86 | X-H torsion
[ 10167 10162 10161 10158 ] final -138.23 input  -65.29 | X-H torsion
[ 10718 10713 10712 10709 ] final  143.02 input   66.30 | X-H torsion
[ 10763 10752 10751 10750 ] final -132.08 input  -60.55 | X-H torsion
[ 11005 11000 10999 10996 ] final   52.38 input  -57.11 | X-H torsion

> <Gold.Protein.ActiveResidues>
 VAL166  LYS551  ARG553  GLY616  TRP617  ASP618  TYR619  PRO620  LYS621  CYS622 
 ASP623  PHE694  ASN695  SER759  ASP760  ASP761  ALA762  ILE779  LEU786  VAL792 
 PHE793  MET794  SER795  GLU796  ALA797  LYS798  CYS799  TRP800  GLU811  SER814 

> <Gold.Protein.RotatedAtoms>
  152.3678  133.6379  159.6063 H   0  0  0  0  0  0  0  0  0  0  0  0  # atno 6907 bound_to 6896
  150.7647  133.9319  159.3438 H   0  0  0  0  0  0  0  0  0  0  0  0  # atno 6908 bound_to 6896
  151.7147  135.0907  160.0325 H   0  0  0  0  0  0  0  0  0  0  0  0  # atno 6909 bound_to 6896
  144.9651  140.7487  143.4705 H   0  0  0  0  0  0  0  0  0  0  0  0  # atno 7974 bound_to 7965
  155.2575  140.0434  157.2993 H   0  0  0  0  0  0  0  0  0  0  0  0  # atno 8008 bound_to 7997
  154.5731  140.2379  155.8132 H   0  0  0  0  0  0  0  0  0  0  0  0  # atno 8009 bound_to 7997
  156.2137  140.2991  155.9799 H   0  0  0  0  0  0  0  0  0  0  0  0  # atno 8010 bound_to 7997
  139.8499  143.7212  152.2658 H   0  0  0  0  0  0  0  0  0  0  0  0  # atno 10167 bound_to 10162
  157.3738  131.0982  151.0804 H   0  0  0  0  0  0  0  0  0  0  0  0  # atno 10718 bound_to 10713
  154.8746  135.3809  154.4351 H   0  0  0  0  0  0  0  0  0  0  0  0  # atno 10763 bound_to 10752
  153.5041  135.7030  153.5821 H   0  0  0  0  0  0  0  0  0  0  0  0  # atno 10764 bound_to 10752
  153.4139  135.3918  155.2034 H   0  0  0  0  0  0  0  0  0  0  0  0  # atno 10765 bound_to 10752
  140.0854  134.5282  155.8905 H   0  0  0  0  0  0  0  0  0  0  0  0  # atno 11005 bound_to 11000
  145.2642  139.1980  143.4876 LP  0  0  0  0  0  0  0  0  0  0  0  0  # atno 17320 bound_to 7965
  146.3365  140.2577  142.8601 LP  0  0  0  0  0  0  0  0  0  0  0  0  # atno 17321 bound_to 7965
  139.7475  144.7543  151.0557 LP  0  0  0  0  0  0  0  0  0  0  0  0  # atno 17342 bound_to 10162
  140.7788  143.4898  150.9907 LP  0  0  0  0  0  0  0  0  0  0  0  0  # atno 17343 bound_to 10162
  157.1898  130.6347  149.5700 LP  0  0  0  0  0  0  0  0  0  0  0  0  # atno 17370 bound_to 10713
  155.9761  130.4726  150.6504 LP  0  0  0  0  0  0  0  0  0  0  0  0  # atno 17371 bound_to 10713
  141.2060  133.6652  156.6219 LP  0  0  0  0  0  0  0  0  0  0  0  0  # atno 17394 bound_to 11000
  140.3428  134.7834  157.4410 LP  0  0  0  0  0  0  0  0  0  0  0  0  # atno 17395 bound_to 11000

$$$$
