AV-unprocessed.smi:69|AV-procd|sdf|654|dock3
  -GOLD-   2262016553D 1   1.00000     0.00000
 Structure written by MMmdl.
 32 34  0  0  0  0  0  0  0  0  1 V2000
  153.3450  141.5535  161.1144 N   0  0  0  0  0  0  0  0  0  0  0  0
  152.6762  142.1701  160.1302 C   0  0  0  0  0  0  0  0  0  0  0  0
  152.7016  143.5224  160.0855 N   0  0  0  0  0  0  0  0  0  0  0  0
  152.0409  144.1602  159.1145 C   0  0  0  0  0  0  0  0  0  0  0  0
  151.3147  143.6433  158.1203 N   0  0  0  0  0  0  0  0  0  0  0  0
  151.2873  142.2790  158.1640 C   0  0  0  0  0  0  0  0  0  0  0  0
  151.9435  141.4727  159.1364 C   0  0  0  0  0  0  0  0  0  0  0  0
  151.7061  140.1302  158.8788 N   0  0  0  0  0  0  0  0  0  0  0  0
  150.9506  140.1460  157.8143 C   0  0  0  0  0  0  0  0  0  0  0  0
  150.6442  141.3944  157.3180 N   0  0  0  0  0  0  0  0  0  0  0  0
  149.8036  141.6901  156.1146 C   0  0  1  0  0  0  0  0  0  0  0  0
  150.2545  140.9358  155.0326 O   0  0  0  0  0  0  0  0  0  0  0  0
  149.1640  140.3835  154.2904 C   0  0  1  0  0  0  0  0  0  0  0  0
  149.2697  138.8451  154.3599 C   0  0  0  0  0  0  0  0  0  0  0  0
  150.1310  138.3762  153.3443 O   0  0  0  0  0  0  0  0  0  0  0  0
  147.9031  140.9842  154.9441 C   0  0  1  0  0  0  0  0  0  0  0  0
  146.7849  140.1168  154.9365 O   0  0  0  0  0  0  0  0  0  0  0  0
  148.3473  141.3032  156.3625 C   0  0  2  0  0  0  0  0  0  0  0  0
  147.5883  142.3895  156.8577 O   0  0  0  0  0  0  0  0  0  0  0  0
  149.9524  142.7513  155.9062 H   0  0  0  0  0  0  0  0  0  0  0  0
  149.2216  140.7062  153.2497 H   0  0  0  0  0  0  0  0  0  0  0  0
  147.6436  141.9047  154.4179 H   0  0  0  0  0  0  0  0  0  0  0  0
  148.2953  140.4274  157.0119 H   0  0  0  0  0  0  0  0  0  0  0  0
  153.3405  140.5451  161.1702 H   0  0  0  0  0  0  0  0  0  0  0  0
  153.8494  142.0977  161.7989 H   0  0  0  0  0  0  0  0  0  0  0  0
  152.1018  145.2382  159.1371 H   0  0  0  0  0  0  0  0  0  0  0  0
  150.5926  139.2367  157.3538 H   0  0  0  0  0  0  0  0  0  0  0  0
  149.6031  138.5045  155.3392 H   0  0  0  0  0  0  0  0  0  0  0  0
  148.3019  138.3795  154.1749 H   0  0  0  0  0  0  0  0  0  0  0  0
  149.9459  138.8533  152.5499 H   0  0  0  0  0  0  0  0  0  0  0  0
  147.0921  139.2302  154.8226 H   0  0  0  0  0  0  0  0  0  0  0  0
  147.7431  143.1411  156.3065 H   0  0  0  0  0  0  0  0  0  0  0  0
  1  2  1  0  0  0  0
  1 24  1  0  0  0  0
  1 25  1  0  0  0  0
  2  7  1  0  0  0  0
  2  3  2  0  0  0  0
  3  4  1  0  0  0  0
  4  5  2  0  0  0  0
  4 26  1  0  0  0  0
  5  6  1  0  0  0  0
  6 10  1  0  0  0  0
  6  7  2  0  0  0  0
  7  8  1  0  0  0  0
  8  9  2  0  0  0  0
  9 10  1  0  0  0  0
  9 27  1  0  0  0  0
 10 11  1  0  0  0  0
 11 20  1  0  0  0  0
 11 18  1  0  0  0  0
 11 12  1  0  0  0  0
 12 13  1  0  0  0  0
 13 21  1  0  0  0  0
 13 14  1  0  0  0  0
 13 16  1  0  0  0  0
 14 15  1  0  0  0  0
 14 28  1  0  0  0  0
 14 29  1  0  0  0  0
 15 30  1  0  0  0  0
 16 22  1  0  0  0  0
 16 17  1  0  0  0  0
 16 18  1  0  0  0  0
 17 31  1  0  0  0  0
 18 23  1  0  0  0  0
 18 19  1  0  0  0  0
 19 32  1  0  0  0  0
M  END
> <s_m_source_file>
AV-unprocessed.smi

> <i_m_source_file_index>
69

> <i_lp_mmshare_version>
43012

> <i_f3d_flags>
0

> <s_epik_input>
bjFbY0hdbmMoW05IMl0pYyhjMTIpbltjSF1uMltDQEBIXTNPW0NASF0oW0NIMl1bT0hdKVtDQEBIXShbT0hdKVtDQEhdM1tPSF0=

> <s_epik_cmdline>
J2VwaWtfcHl0aG9uJywgJy1waCcsICc3LjAnLCAnLXRuJywgJzgnLCAnLW1hJywgJzIwMCcsICctbWV0YWxfYmluZGluZycsICctaW1hZScsICc8aW5maWxlLm1hZT4nLCAnLW9tYWUnLCAnPG91dGZpbGUubWFlPic=

> <r_lp_tautomer_probability>
1

> <r_epik_Ionization_Penalty>
0.000428445

> <r_epik_Ionization_Penalty_Charging>
0

> <r_epik_Ionization_Penalty_Neutral>
0.000428445

> <r_epik_State_Penalty>
-0

> <r_epik_Charging_Adjusted_Penalty>
0

> <i_epik_Tot_Q>
0

> <i_epik_Tot_abs_Q>
0

> <r_epik_Metal_State_Penalty>
-0

> <b_epik_Metal_Only>
0

> <s_epik_Chemistry_Notes>
This compound contains an acetal/aminal-like group ( X-CH(R)-Y where X, Y are N, S, or O) that may be acid/base labile, releasing an aldehyde.

> <s_lp_Force_Field>
OPLS_2005

> <r_lp_Energy>
41.5942

> <b_lp_Chiralities_Consistent>
1

> <s_lp_Variant>
AV-unprocessed.smi:69-12

> <Gold.Version>
5.8.1

> <Gold.Id.Protein>
6NUR|6NUR_protein|mol2

> <Gold.PLP.Fitness>
40.2388

> <Gold.PLP.PLP>
-32.7814

> <Gold.PLP.part.hbond>
-4.6576

> <Gold.PLP.part.metal>
0.0000

> <Gold.PLP.part.buried>
-3.8513

> <Gold.PLP.part.nonpolar>
-24.0802

> <Gold.PLP.part.repulsive>
0.2182

> <Gold.PLP.ligand.clash>
0.0000

> <Gold.PLP.ligand.torsion>
0.3920

> <Gold.PLP.Chemscore.Hbond>
2.7448

> <Gold.PLP.Chemscore.CHOScore>
0.0000

> <Gold.PLP.Chemscore.Metal>
0.0000

> <Gold.Chemscore.Hbonds>
donor molecule, donor type, donor heavy atom, donor atom, acceptor molecule, acceptor atom, score
      L1  H    15    30       P1  7957  1.00
      L1  H    19    32       P1  8028  0.80
      P1  H  7989  7998       L1    12  0.57

> <Gold.PLP.Chemscore.Internal.Correction>
0.0070

> <Gold.Rescore>
     Score         DG    S(hbond)    S(metal)    S(lipo)     H(rot)  DE(clash)    DE(int)     intcor
      2.44      -3.14       1.29        0.00      31.18       4.03       0.03       0.67       ----

> <Gold.Chemscore.Fitness>
2.4407

> <Gold.Chemscore.DG>
-3.1412

> <Gold.Chemscore.ZeroCoef>
-5.4800

> <Gold.Chemscore.Hbond>
1.2947

> <Gold.Chemscore.Metal>
0.0000

> <Gold.Chemscore.Lipo>
31.1788

> <Gold.Chemscore.Internal_Hbond>
0.0000

> <Gold.Chemscore.DEClash>
0.0290

> <Gold.Chemscore.DEInternal>
0.6715

> <Gold.Chemscore.Rot>
4.0277

> <Gold.Chemscore.Internal.Correction>
   9.000000E+99

> <Gold.Chemscore.Hbonds>
donor molecule, donor type, donor heavy atom, donor atom, acceptor molecule, acceptor atom, score
      L1  H    15    30       P1  7957  0.50
      L1  H    19    32       P1  8028  0.11
      P1  H  7989  7998       L1    12  0.08

> <Gold.Chemscore.Hbond.Weighted>
-4.3243

> <Gold.Chemscore.Metal.Weighted>
-0.0000

> <Gold.Chemscore.Lipo.Weighted>
-3.6479

> <Gold.Chemscore.Internal_Hbond.Weighted>
0.0000

> <Gold.Chemscore.DEClash.Weighted>
0.0290

> <Gold.Chemscore.DEInternal.Weighted>
0.6715

> <Gold.Chemscore.Rot.Weighted>
10.3110

> <Gold.Chemscore.Internal.Correction.Weighted>
   9.000000E+99

> <Gold.Protein.RotatedTorsions>
[ 6907 6896 6895 6894 ] final -120.68 input  -60.11 | X-H torsion
[ 7974 7965 7964 7962 ] final  -13.11 input  175.53 | X-H torsion
[ 8008 7997 7996 7995 ] final  -39.96 input   59.86 | X-H torsion
[ 10167 10162 10161 10158 ] final  143.27 input  -65.29 | X-H torsion
[ 10718 10713 10712 10709 ] final  104.50 input   66.30 | X-H torsion
[ 10763 10752 10751 10750 ] final  -14.40 input  -60.55 | X-H torsion
[ 11005 11000 10999 10996 ] final  -27.09 input  -57.11 | X-H torsion

> <Gold.Protein.ActiveResidues>
 VAL166  LYS551  ARG553  GLY616  TRP617  ASP618  TYR619  PRO620  LYS621  CYS622 
 ASP623  PHE694  ASN695  SER759  ASP760  ASP761  ALA762  ILE779  LEU786  VAL792 
 PHE793  MET794  SER795  GLU796  ALA797  LYS798  CYS799  TRP800  GLU811  SER814 

> <Gold.Protein.RotatedAtoms>
  150.8415  133.7928  159.3058 H   0  0  0  0  0  0  0  0  0  0  0  0  # atno 6907 bound_to 6896
  151.5628  135.1063  159.9986 H   0  0  0  0  0  0  0  0  0  0  0  0  # atno 6908 bound_to 6896
  152.4478  133.7527  159.6759 H   0  0  0  0  0  0  0  0  0  0  0  0  # atno 6909 bound_to 6896
  146.2126  140.3156  142.8386 H   0  0  0  0  0  0  0  0  0  0  0  0  # atno 7974 bound_to 7965
  154.4017  140.1538  156.2950 H   0  0  0  0  0  0  0  0  0  0  0  0  # atno 8008 bound_to 7997
  155.8752  140.3447  155.5827 H   0  0  0  0  0  0  0  0  0  0  0  0  # atno 8009 bound_to 7997
  155.7730  140.0833  157.2089 H   0  0  0  0  0  0  0  0  0  0  0  0  # atno 8010 bound_to 7997
  139.4973  144.6051  151.6396 H   0  0  0  0  0  0  0  0  0  0  0  0  # atno 10167 bound_to 10162
  157.6738  131.0805  150.5716 H   0  0  0  0  0  0  0  0  0  0  0  0  # atno 10718 bound_to 10713
  153.5277  135.7015  153.5699 H   0  0  0  0  0  0  0  0  0  0  0  0  # atno 10763 bound_to 10752
  153.3720  135.3942  155.1795 H   0  0  0  0  0  0  0  0  0  0  0  0  # atno 10764 bound_to 10752
  154.8688  135.3814  154.4772 H   0  0  0  0  0  0  0  0  0  0  0  0  # atno 10765 bound_to 10752
  140.9088  133.7475  156.0642 H   0  0  0  0  0  0  0  0  0  0  0  0  # atno 11005 bound_to 11000
  144.8957  140.7580  143.5899 LP  0  0  0  0  0  0  0  0  0  0  0  0  # atno 17320 bound_to 7965
  145.3080  139.1828  143.4654 LP  0  0  0  0  0  0  0  0  0  0  0  0  # atno 17321 bound_to 7965
  140.5711  144.0107  150.6217 LP  0  0  0  0  0  0  0  0  0  0  0  0  # atno 17342 bound_to 10162
  140.3225  143.3128  152.0770 LP  0  0  0  0  0  0  0  0  0  0  0  0  # atno 17343 bound_to 10162
  156.6017  130.4356  149.5894 LP  0  0  0  0  0  0  0  0  0  0  0  0  # atno 17370 bound_to 10713
  156.2501  130.6902  151.1636 LP  0  0  0  0  0  0  0  0  0  0  0  0  # atno 17371 bound_to 10713
  140.8137  134.3370  157.5404 LP  0  0  0  0  0  0  0  0  0  0  0  0  # atno 17394 bound_to 11000
  139.8754  134.9269  156.3411 LP  0  0  0  0  0  0  0  0  0  0  0  0  # atno 17395 bound_to 11000

$$$$
