#       Name:                AV-unprocessed.smi:1701
#       Creating user name   scv26
#       Creation time:       Fri Mar 27 08:00:50 2020


#       File generated by GOLD software.
#

@<TRIPOS>MOLECULE
AV-unprocessed.smi:1701
    57    59     1
SMALL
NO_CHARGES


@<TRIPOS>ATOM
      1 ****        -6.1924  -0.1240   2.7593 C.3            1 S1                 0.0000
      2 ****        -5.8682  -0.6433   1.3509 C.3            1 S1                 0.0000
      3 ****        -5.0495   0.2838   0.5681 N.pl3          1 S1                 0.0000
      4 ****        -5.7151   1.3164  -0.2313 C.3            1 S1                 0.0000
      5 ****        -5.8001   2.6733   0.4840 C.3            1 S1                 0.0000
      6 ****        -3.6373   0.2893   0.6995 C.ar           1 S1                 0.0000
      7 ****        -2.9693  -0.5322   1.6429 C.ar           1 S1                 0.0000
      8 ****        -1.5645  -0.4918   1.7287 C.ar           1 S1                 0.0000
      9 ****        -0.8488   0.3753   0.8726 C.ar           1 S1                 0.0000
     10 ****         0.5671   0.4891   0.8436 N.am           1 S1                 0.0000
     11 ****         1.4614   0.1286   1.7849 C.2            1 S1                 0.0000
     12 ****         1.1716  -0.2879   2.9038 O.2            1 S1                 0.0000
     13 ****         2.7452   0.2861   1.4146 N.am           1 S1                 0.0000
     14 ****         3.9532  -0.0064   2.1901 C.3            1 S1                 0.0000
     15 ****         5.2215   0.0119   1.3461 C.3            1 S1                 0.0000
     16 ****         6.3311   0.1607   2.3916 C.3            1 S1                 0.0000
     17 ****         5.7330   0.8610   3.5547 N.4            1 S1                 1.0000
     18 ****         6.4444   2.1096   3.9387 C.3            1 S1                 0.0000
     19 ****         5.5774   2.9719   4.8679 C.3            1 S1                 0.0000
     20 ****         4.2755   3.4151   4.1738 C.3            1 S1                 0.0000
     21 ****         3.8711   2.4753   3.0219 C.3            1 S1                 0.0000
     22 ****         4.2693   1.0067   3.3097 C.3            1 S1                 0.0000
     23 ****        -1.5935   1.1455  -0.0406 C.ar           1 S1                 0.0000
     24 ****        -2.9390   1.1091  -0.1247 N.ar           1 S1                 0.0000
     25 ****        -6.7673  -0.8644   3.3159 H              1 S1                 0.0000
     26 ****        -6.7876   0.7873   2.7225 H              1 S1                 0.0000
     27 ****        -5.2882   0.0884   3.3297 H              1 S1                 0.0000
     28 ****        -5.3894  -1.6210   1.4023 H              1 S1                 0.0000
     29 ****        -6.8033  -0.8181   0.8182 H              1 S1                 0.0000
     30 ****        -5.2137   1.4290  -1.1931 H              1 S1                 0.0000
     31 ****        -6.7246   0.9822  -0.4719 H              1 S1                 0.0000
     32 ****        -6.2935   3.4090  -0.1511 H              1 S1                 0.0000
     33 ****        -4.8108   3.0609   0.7271 H              1 S1                 0.0000
     34 ****        -6.3698   2.6073   1.4096 H              1 S1                 0.0000
     35 ****        -3.5005  -1.1945   2.3083 H              1 S1                 0.0000
     36 ****        -1.0694  -1.1362   2.4379 H              1 S1                 0.0000
     37 ****         0.9466   0.9188   0.0133 H              1 S1                 0.0000
     38 ****         2.8983   0.6797   0.4972 H              1 S1                 0.0000
     39 ****         3.8682  -1.0040   2.6263 H              1 S1                 0.0000
     40 ****         5.3379  -0.8822   0.7328 H              1 S1                 0.0000
     41 ****         5.2221   0.8776   0.6815 H              1 S1                 0.0000
     42 ****         6.6611  -0.8229   2.7277 H              1 S1                 0.0000
     43 ****         7.2034   0.6723   1.9820 H              1 S1                 0.0000
     44 ****         7.3849   1.8477   4.4243 H              1 S1                 0.0000
     45 ****         6.6989   2.6874   3.0484 H              1 S1                 0.0000
     46 ****         5.3361   2.3957   5.7624 H              1 S1                 0.0000
     47 ****         6.1333   3.8455   5.2098 H              1 S1                 0.0000
     48 ****         3.4773   3.4632   4.9155 H              1 S1                 0.0000
     49 ****         4.3852   4.4270   3.7819 H              1 S1                 0.0000
     50 ****         2.7984   2.5682   2.8519 H              1 S1                 0.0000
     51 ****         4.3530   2.8052   2.1003 H              1 S1                 0.0000
     52 ****         3.7479   0.7002   4.2176 H              1 S1                 0.0000
     53 ****        -1.0962   1.8151  -0.7271 H              1 S1                 0.0000
     54 ****         5.8189   0.2296   4.3385 H              1 S1                 0.0000
     55 ****         0.2121  -0.3792   3.1703 LP             1 S1                 0.0000
     56 ****         1.8952  -0.5356   3.5480 LP             1 S1                 0.0000
     57 ****        -3.4180   1.6822  -0.7896 LP             1 S1                 0.0000
@<TRIPOS>BOND
    1    1    2 1     
    2    1   25 1     
    3    1   26 1     
    4    1   27 1     
    5    2    3 1     
    6    2   28 1     
    7    2   29 1     
    8    3    4 1     
    9    3    6 1     
   10    4    5 1     
   11    4   30 1     
   12    4   31 1     
   13    5   32 1     
   14    5   33 1     
   15    5   34 1     
   16    6   24 ar    
   17    6    7 ar    
   18    7    8 ar    
   19    7   35 1     
   20    8    9 ar    
   21    8   36 1     
   22    9   10 1     
   23    9   23 ar    
   24   10   11 am    
   25   10   37 1     
   26   11   12 2     
   27   11   13 am    
   28   13   14 1     
   29   13   38 1     
   30   14   22 1     
   31   14   15 1     
   32   14   39 1     
   33   15   16 1     
   34   15   40 1     
   35   15   41 1     
   36   16   17 1     
   37   16   42 1     
   38   16   43 1     
   39   17   22 1     
   40   17   18 1     
   41   17   54 1     
   42   18   19 1     
   43   18   44 1     
   44   18   45 1     
   45   19   20 1     
   46   19   46 1     
   47   19   47 1     
   48   20   21 1     
   49   20   48 1     
   50   20   49 1     
   51   21   22 1     
   52   21   50 1     
   53   21   51 1     
   54   22   52 1     
   55   23   24 ar    
   56   23   53 1     
   57   12   55 1     
   58   12   56 1     
   59   24   57 1     
@<TRIPOS>SUBSTRUCTURE
      1 S1             1
@<TRIPOS>SET
LONE_PAIRS      STATIC     ATOMS    <user>   **** ""
3 55 56 57
DONOR_HYDROGENS      STATIC     ATOMS    <user>   **** ""
3 37 38 54
ATOM$BLUE        STATIC     ATOMS    COLORGROUP SYSTEM
3 55 56 57
ATOM$RED        STATIC     ATOMS    COLORGROUP SYSTEM
3 37 38 54
