AV-unprocessed.smi:3017|AV-procd|sdf|11475|dock1
  -GOLD-   2272016413D 1   1.00000     0.00000
 Structure written by MMmdl.
 37 38  0  0  0  0  0  0  0  0  1 V2000
  141.7091  135.2859  152.9712 C   0  0  0  0  0  0  0  0  0  0  0  0
  143.1506  135.1874  152.4522 C   0  0  2  0  0  0  0  0  0  0  0  0
  143.6262  136.5233  151.8499 C   0  0  0  0  0  0  0  0  0  0  0  0
  145.0665  136.4243  151.3227 C   0  0  0  0  0  0  0  0  0  0  0  0
  145.2099  135.2837  150.3024 C   0  0  0  0  0  0  0  0  0  0  0  0
  144.7425  133.9345  150.8872 C   0  0  1  0  0  0  0  0  0  0  0  0
  145.5730  133.5225  151.9659 O   0  0  0  0  0  0  0  0  0  0  0  0
  146.9334  133.2969  151.6212 C   0  0  0  0  0  0  0  0  0  0  0  0
  147.7597  133.1793  152.9016 C   0  0  0  0  0  0  0  0  0  0  0  0
  147.6011  132.2023  153.6333 O   0  0  0  0  0  0  0  0  0  0  0  0
  148.6114  134.1919  153.1511 N   0  0  0  0  0  0  0  0  0  0  0  0
  149.5114  134.3348  154.2391 C   0  0  0  0  0  0  0  0  0  0  0  0
  150.2778  135.5240  154.2499 C   0  0  0  0  0  0  0  0  0  0  0  0
  151.1811  135.8010  155.2166 N   0  0  0  0  0  0  0  0  0  0  0  0
  151.3249  134.8775  156.1907 C   0  0  0  0  0  0  0  0  0  0  0  0
  150.5696  133.6879  156.1968 C   0  0  0  0  0  0  0  0  0  0  0  0
  149.6683  133.4174  155.2277 N   0  0  0  0  0  0  0  0  0  0  0  0
  143.3039  134.0461  151.4253 C   0  0  0  0  0  0  0  0  0  0  0  0
  141.0112  135.5140  152.1648 H   0  0  0  0  0  0  0  0  0  0  0  0
  141.6158  136.0688  153.7244 H   0  0  0  0  0  0  0  0  0  0  0  0
  141.3932  134.3489  153.4306 H   0  0  0  0  0  0  0  0  0  0  0  0
  143.7880  134.9598  153.3079 H   0  0  0  0  0  0  0  0  0  0  0  0
  142.9622  136.8185  151.0365 H   0  0  0  0  0  0  0  0  0  0  0  0
  143.5658  137.3131  152.5995 H   0  0  0  0  0  0  0  0  0  0  0  0
  145.3592  137.3697  150.8655 H   0  0  0  0  0  0  0  0  0  0  0  0
  145.7515  136.2597  152.1553 H   0  0  0  0  0  0  0  0  0  0  0  0
  144.6096  135.5168  149.4222 H   0  0  0  0  0  0  0  0  0  0  0  0
  146.2397  135.2240  149.9519 H   0  0  0  0  0  0  0  0  0  0  0  0
  144.7560  133.1707  150.1076 H   0  0  0  0  0  0  0  0  0  0  0  0
  147.0335  132.3742  151.0481 H   0  0  0  0  0  0  0  0  0  0  0  0
  147.3253  134.1129  151.0139 H   0  0  0  0  0  0  0  0  0  0  0  0
  148.6277  134.9364  152.4692 H   0  0  0  0  0  0  0  0  0  0  0  0
  150.1673  136.2657  153.4720 H   0  0  0  0  0  0  0  0  0  0  0  0
  152.0446  135.0877  156.9680 H   0  0  0  0  0  0  0  0  0  0  0  0
  150.6890  132.9528  156.9788 H   0  0  0  0  0  0  0  0  0  0  0  0
  143.0064  133.0971  151.8732 H   0  0  0  0  0  0  0  0  0  0  0  0
  142.6223  134.2157  150.5906 H   0  0  0  0  0  0  0  0  0  0  0  0
  1  2  1  0  0  0  0
  1 19  1  0  0  0  0
  1 20  1  0  0  0  0
  1 21  1  0  0  0  0
  2 18  1  0  0  0  0
  2  3  1  0  0  0  0
  2 22  1  0  0  0  0
  3  4  1  0  0  0  0
  3 23  1  0  0  0  0
  3 24  1  0  0  0  0
  4  5  1  0  0  0  0
  4 25  1  0  0  0  0
  4 26  1  0  0  0  0
  5  6  1  0  0  0  0
  5 27  1  0  0  0  0
  5 28  1  0  0  0  0
  6  7  1  0  0  0  0
  6 18  1  0  0  0  0
  6 29  1  0  0  0  0
  7  8  1  0  0  0  0
  8  9  1  0  0  0  0
  8 30  1  0  0  0  0
  8 31  1  0  0  0  0
  9 10  2  0  0  0  0
  9 11  1  0  0  0  0
 11 12  1  0  0  0  0
 11 32  1  0  0  0  0
 12 17  1  0  0  0  0
 12 13  2  0  0  0  0
 13 14  1  0  0  0  0
 13 33  1  0  0  0  0
 14 15  2  0  0  0  0
 15 16  1  0  0  0  0
 15 34  1  0  0  0  0
 16 17  2  0  0  0  0
 16 35  1  0  0  0  0
 18 36  1  0  0  0  0
 18 37  1  0  0  0  0
M  END
> <s_m_source_file>
AV-unprocessed.smi

> <i_m_source_file_index>
3017

> <i_lp_mmshare_version>
43012

> <i_f3d_flags>
0

> <s_epik_input>
W0NIM11bQ0BASF0xW0NIMl1bQ0gyXVtDSDJdW0NASF0oW0NIMl0xKU9bQ0gyXUMoPU8pW05IXWMyW2NIXW5bY0hdW2NIXW4y

> <s_epik_cmdline>
J2VwaWtfcHl0aG9uJywgJy1waCcsICc3LjAnLCAnLXRuJywgJzgnLCAnLW1hJywgJzIwMCcsICctbWV0YWxfYmluZGluZycsICctaW1hZScsICc8aW5maWxlLm1hZT4nLCAnLW9tYWUnLCAnPG91dGZpbGUubWFlPic=

> <r_lp_tautomer_probability>
1

> <r_epik_Ionization_Penalty>
2.89243e-06

> <r_epik_Ionization_Penalty_Charging>
0

> <r_epik_Ionization_Penalty_Neutral>
2.89243e-06

> <r_epik_State_Penalty>
-0

> <r_epik_Charging_Adjusted_Penalty>
0

> <i_epik_Tot_Q>
0

> <i_epik_Tot_abs_Q>
0

> <r_epik_Metal_State_Penalty>
-0

> <b_epik_Metal_Only>
0

> <s_lp_Force_Field>
OPLS_2005

> <r_lp_Energy>
20.5488

> <b_lp_Chiralities_Consistent>
1

> <s_lp_Variant>
AV-unprocessed.smi:3017-1

> <Gold.Version>
5.8.1

> <Gold.Id.Protein>
6NUR|6NUR_protein|mol2

> <Gold.PLP.Fitness>
40.5649

> <Gold.PLP.PLP>
-32.5097

> <Gold.PLP.part.hbond>
-2.0000

> <Gold.PLP.part.metal>
0.0000

> <Gold.PLP.part.buried>
-4.1540

> <Gold.PLP.part.nonpolar>
-26.5514

> <Gold.PLP.part.repulsive>
0.2524

> <Gold.PLP.ligand.clash>
0.0000

> <Gold.PLP.ligand.torsion>
0.1219

> <Gold.PLP.Chemscore.Hbond>
2.0000

> <Gold.PLP.Chemscore.CHOScore>
0.7634

> <Gold.PLP.Chemscore.Metal>
0.0000

> <Gold.Chemscore.Hbonds>
donor molecule, donor type, donor heavy atom, donor atom, acceptor molecule, acceptor atom, score
      L1  H    11    32       P1  7948  0.57
      P1  H 10752 10763       L1    14  0.30
      L1  C    13    33       P1  7948  0.38

> <Gold.PLP.Chemscore.Internal.Correction>
0.0089

> <Gold.Rescore>
     Score         DG    S(hbond)    S(metal)    S(lipo)     H(rot)  DE(clash)    DE(int)     intcor
      8.86     -10.43       0.57        0.00      59.03       1.51       0.21       1.35       ----

> <Gold.Chemscore.Fitness>
8.8648

> <Gold.Chemscore.DG>
-10.4297

> <Gold.Chemscore.ZeroCoef>
-5.4800

> <Gold.Chemscore.Hbond>
0.5728

> <Gold.Chemscore.Metal>
0.0000

> <Gold.Chemscore.Lipo>
59.0347

> <Gold.Chemscore.Internal_Hbond>
0.0000

> <Gold.Chemscore.DEClash>
0.2114

> <Gold.Chemscore.DEInternal>
1.3535

> <Gold.Chemscore.Rot>
1.5119

> <Gold.Chemscore.Internal.Correction>
   9.000000E+99

> <Gold.Chemscore.Hbonds>
donor molecule, donor type, donor heavy atom, donor atom, acceptor molecule, acceptor atom, score
      L1  H    11    32       P1  7948  0.08

> <Gold.Chemscore.Hbond.Weighted>
-1.9132

> <Gold.Chemscore.Metal.Weighted>
-0.0000

> <Gold.Chemscore.Lipo.Weighted>
-6.9071

> <Gold.Chemscore.Internal_Hbond.Weighted>
0.0000

> <Gold.Chemscore.DEClash.Weighted>
0.2114

> <Gold.Chemscore.DEInternal.Weighted>
1.3535

> <Gold.Chemscore.Rot.Weighted>
3.8706

> <Gold.Chemscore.Internal.Correction.Weighted>
   9.000000E+99

> <Gold.Protein.RotatedTorsions>
[ 6907 6896 6895 6894 ] final  143.60 input  -60.11 | X-H torsion
[ 7974 7965 7964 7962 ] final -146.63 input  175.53 | X-H torsion
[ 8008 7997 7996 7995 ] final -132.07 input   59.86 | X-H torsion
[ 10167 10162 10161 10158 ] final   48.02 input  -65.29 | X-H torsion
[ 10718 10713 10712 10709 ] final  110.91 input   66.30 | X-H torsion
[ 10763 10752 10751 10750 ] final   76.95 input  -60.55 | X-H torsion
[ 11005 11000 10999 10996 ] final  108.50 input  -57.11 | X-H torsion

> <Gold.Protein.ActiveResidues>
 VAL166  LYS551  ARG553  GLY616  TRP617  ASP618  TYR619  PRO620  LYS621  CYS622 
 ASP623  PHE694  ASN695  SER759  ASP760  ASP761  ALA762  ILE779  LEU786  VAL792 
 PHE793  MET794  SER795  GLU796  ALA797  LYS798  CYS799  TRP800  GLU811  SER814 

> <Gold.Protein.RotatedAtoms>
  152.2042  133.4863  159.5074 H   0  0  0  0  0  0  0  0  0  0  0  0  # atno 6907 bound_to 6896
  150.6976  134.1551  159.4164 H   0  0  0  0  0  0  0  0  0  0  0  0  # atno 6908 bound_to 6896
  151.9469  135.0187  160.0590 H   0  0  0  0  0  0  0  0  0  0  0  0  # atno 6909 bound_to 6896
  144.8146  140.5431  143.5619 H   0  0  0  0  0  0  0  0  0  0  0  0  # atno 7974 bound_to 7965
  155.3228  140.0463  157.3040 H   0  0  0  0  0  0  0  0  0  0  0  0  # atno 8008 bound_to 7997
  154.5371  140.2275  155.8671 H   0  0  0  0  0  0  0  0  0  0  0  0  # atno 8009 bound_to 7997
  156.1845  140.3066  155.9218 H   0  0  0  0  0  0  0  0  0  0  0  0  # atno 8010 bound_to 7997
  140.2976  144.2972  150.6226 H   0  0  0  0  0  0  0  0  0  0  0  0  # atno 10167 bound_to 10162
  157.6471  131.0941  150.6671 H   0  0  0  0  0  0  0  0  0  0  0  0  # atno 10718 bound_to 10713
  153.0762  135.4932  154.8410 H   0  0  0  0  0  0  0  0  0  0  0  0  # atno 10763 bound_to 10752
  154.7091  135.3016  154.9227 H   0  0  0  0  0  0  0  0  0  0  0  0  # atno 10764 bound_to 10752
  153.9927  135.6776  153.4808 H   0  0  0  0  0  0  0  0  0  0  0  0  # atno 10765 bound_to 10752
  139.8845  134.9432  156.5982 H   0  0  0  0  0  0  0  0  0  0  0  0  # atno 11005 bound_to 11000
  145.5243  139.1476  143.3535 LP  0  0  0  0  0  0  0  0  0  0  0  0  # atno 17320 bound_to 7965
  146.2449  140.5384  142.8918 LP  0  0  0  0  0  0  0  0  0  0  0  0  # atno 17321 bound_to 7965
  140.5678  143.2184  151.7652 LP  0  0  0  0  0  0  0  0  0  0  0  0  # atno 17342 bound_to 10162
  139.4922  144.4259  151.9926 LP  0  0  0  0  0  0  0  0  0  0  0  0  # atno 17343 bound_to 10162
  156.6987  130.4617  149.5579 LP  0  0  0  0  0  0  0  0  0  0  0  0  # atno 17370 bound_to 10713
  156.1810  130.6499  151.0952 LP  0  0  0  0  0  0  0  0  0  0  0  0  # atno 17371 bound_to 10713
  140.7904  133.8587  155.8641 LP  0  0  0  0  0  0  0  0  0  0  0  0  # atno 17394 bound_to 11000
  140.9682  134.1566  157.4598 LP  0  0  0  0  0  0  0  0  0  0  0  0  # atno 17395 bound_to 11000

$$$$
