#       Name:                AV-unprocessed.smi:3351
#       Creating user name   scv26
#       Creation time:       Fri Mar 27 19:38:37 2020


#       File generated by GOLD software.
#

@<TRIPOS>MOLECULE
AV-unprocessed.smi:3351
    39    40     1
SMALL
NO_CHARGES


@<TRIPOS>ATOM
      1 ****        -2.6168  -0.9406   2.8002 C.3            1 S1                 0.0000
      2 ****        -1.9782  -0.2894   1.5660 C.3            1 S1                 0.0000
      3 ****        -2.5193  -0.9117   0.2593 C.3            1 S1                 0.0000
      4 ****        -2.0030  -0.2637  -0.9342 N.pl3          1 S1                 0.0000
      5 ****        -1.1030  -0.7923  -1.8505 C.2            1 S1                 0.0000
      6 ****        -0.8874   0.1818  -2.7984 C.2            1 S1                 0.0000
      7 ****        -1.6525   1.3059  -2.4971 N.2            1 S1                 0.0000
      8 ****        -2.2908   0.9654  -1.3847 C.2            1 S1                 0.0000
      9 ****        -0.5251  -0.4342   1.6485 N.am           1 S1                 0.0000
     10 ****         0.3714   0.4960   1.2834 C.2            1 S1                 0.0000
     11 ****         0.0624   1.6238   0.8981 O.2            1 S1                 0.0000
     12 ****         1.8454   0.0941   1.3578 C.3            1 S1                 0.0000
     13 ****         2.4436   0.0933   0.0240 N.am           1 S1                 0.0000
     14 ****         3.1568   1.2737  -0.4464 C.3            1 S1                 0.0000
     15 ****         3.2241   1.1921  -1.9723 C.3            1 S1                 0.0000
     16 ****         3.1104  -0.5500  -2.4257 S.3            1 S1                 0.0000
     17 ****         2.3772  -0.9866  -0.8460 C.2            1 S1                 0.0000
     18 ****         1.8889  -2.0946  -0.6313 O.2            1 S1                 0.0000
     19 ****        -3.7010  -0.8266   2.7861 H              1 S1                 0.0000
     20 ****        -2.2508  -0.4830   3.7200 H              1 S1                 0.0000
     21 ****        -2.3957  -2.0075   2.8471 H              1 S1                 0.0000
     22 ****        -2.2460   0.7685   1.5872 H              1 S1                 0.0000
     23 ****        -2.2750  -1.9741   0.2136 H              1 S1                 0.0000
     24 ****        -3.6073  -0.8404   0.2330 H              1 S1                 0.0000
     25 ****        -0.6907  -1.7853  -1.7485 H              1 S1                 0.0000
     26 ****        -0.2458   0.1597  -3.6669 H              1 S1                 0.0000
     27 ****        -2.9735   1.6310  -0.8774 H              1 S1                 0.0000
     28 ****        -0.1754  -1.3302   1.9564 H              1 S1                 0.0000
     29 ****         2.3727   0.8014   1.9991 H              1 S1                 0.0000
     30 ****         1.9556  -0.8870   1.8238 H              1 S1                 0.0000
     31 ****         2.6711   2.1947  -0.1219 H              1 S1                 0.0000
     32 ****         4.1608   1.2610  -0.0209 H              1 S1                 0.0000
     33 ****         2.3679   1.7070  -2.4096 H              1 S1                 0.0000
     34 ****         4.1293   1.6487  -2.3729 H              1 S1                 0.0000
     35 ****        -1.7079   2.1678  -3.0011 LP             1 S1                 0.0000
     36 ****        -0.9007   1.8875   0.8446 LP             1 S1                 0.0000
     37 ****         0.7745   2.2761   0.6387 LP             1 S1                 0.0000
     38 ****         1.4776  -2.2960   0.2577 LP             1 S1                 0.0000
     39 ****         1.9031  -2.7942  -1.3457 LP             1 S1                 0.0000
@<TRIPOS>BOND
    1    1    2 1     
    2    1   19 1     
    3    1   20 1     
    4    1   21 1     
    5    2    3 1     
    6    2    9 1     
    7    2   22 1     
    8    3    4 1     
    9    3   23 1     
   10    3   24 1     
   11    4    8 1     
   12    4    5 1     
   13    5    6 2     
   14    5   25 1     
   15    6    7 1     
   16    6   26 1     
   17    7    8 2     
   18    8   27 1     
   19    9   10 am    
   20    9   28 1     
   21   10   11 2     
   22   10   12 1     
   23   12   13 1     
   24   12   29 1     
   25   12   30 1     
   26   13   17 am    
   27   13   14 1     
   28   14   15 1     
   29   14   31 1     
   30   14   32 1     
   31   15   16 1     
   32   15   33 1     
   33   15   34 1     
   34   16   17 1     
   35   17   18 2     
   36    7   35 1     
   37   11   36 1     
   38   11   37 1     
   39   18   38 1     
   40   18   39 1     
@<TRIPOS>SUBSTRUCTURE
      1 S1             1
@<TRIPOS>SET
LONE_PAIRS      STATIC     ATOMS    <user>   **** ""
5 35 36 37 38 39
DONOR_HYDROGENS      STATIC     ATOMS    <user>   **** ""
1 28
ATOM$BLUE        STATIC     ATOMS    COLORGROUP SYSTEM
5 35 36 37 38 39
ATOM$RED        STATIC     ATOMS    COLORGROUP SYSTEM
1 28
