#       Name:                AV-unprocessed.smi:35
#       Creating user name   scv26
#       Creation time:       Thu Mar 26 16:01:56 2020


#       File generated by GOLD software.
#

@<TRIPOS>MOLECULE
AV-unprocessed.smi:35
    41    42     1
SMALL
NO_CHARGES


@<TRIPOS>ATOM
      1 ****         1.2075   4.5628   1.4049 O.2            1 S1                 0.0000
      2 ****         0.6822   3.5342   0.9846 C.2            1 S1                 0.0000
      3 ****        -0.2215   2.8264   1.7806 N.am           1 S1                 0.0000
      4 ****        -0.8716   1.6454   1.4173 C.2            1 S1                 0.0000
      5 ****        -1.6854   1.1374   2.1871 O.2            1 S1                 0.0000
      6 ****        -0.5583   1.0904   0.1536 N.am           1 S1                 0.0000
      7 ****        -1.2759  -0.1744  -0.2940 C.3            1 S1                 0.0000
      8 ****        -0.7466  -0.6009  -1.5192 O.3            1 S1                 0.0000
      9 ****         0.1074  -1.7329  -1.3609 C.3            1 S1                 0.0000
     10 ****         1.5620  -1.2945  -1.0695 C.3            1 S1                 0.0000
     11 ****         2.1646  -0.8108  -2.2508 O.3            1 S1                 0.0000
     12 ****        -0.5914  -2.4741  -0.2162 C.3            1 S1                 0.0000
     13 ****         0.2600  -3.3718   0.4693 O.3            1 S1                 0.0000
     14 ****        -1.0804  -1.3531   0.6919 C.3            1 S1                 0.0000
     15 ****        -2.2948  -1.7418   1.3036 O.3            1 S1                 0.0000
     16 ****         0.2867   1.7993  -0.6956 C.2            1 S1                 0.0000
     17 ****         0.9016   2.9490  -0.3323 C.2            1 S1                 0.0000
     18 ****         2.0809   3.7873  -1.6855 Br             1 S1                 0.0000
     19 ****        -0.4322   3.2095   2.6908 H              1 S1                 0.0000
     20 ****        -2.3143   0.1332  -0.4313 H              1 S1                 0.0000
     21 ****         0.0889  -2.3437  -2.2646 H              1 S1                 0.0000
     22 ****         1.6275  -0.5539  -0.2740 H              1 S1                 0.0000
     23 ****         2.1607  -2.1470  -0.7498 H              1 S1                 0.0000
     24 ****         3.0617  -0.5834  -2.0592 H              1 S1                 0.0000
     25 ****        -1.4389  -3.0262  -0.6268 H              1 S1                 0.0000
     26 ****        -0.2344  -3.7772   1.1654 H              1 S1                 0.0000
     27 ****        -0.3236  -1.1046   1.4379 H              1 S1                 0.0000
     28 ****        -2.6008  -1.0247   1.8387 H              1 S1                 0.0000
     29 ****         0.4780   1.4414  -1.6956 H              1 S1                 0.0000
     30 ****         1.8452   5.0710   0.8261 LP             1 S1                 0.0000
     31 ****         0.9972   4.8914   2.3256 LP             1 S1                 0.0000
     32 ****        -1.8783   1.5702   3.0677 LP             1 S1                 0.0000
     33 ****        -2.1541   0.2915   1.9323 LP             1 S1                 0.0000
     34 ****        -0.2206   0.1476  -1.9230 LP             1 S1                 0.0000
     35 ****        -1.4998  -0.8463  -2.1296 LP             1 S1                 0.0000
     36 ****         1.6732  -0.0018  -2.5731 LP             1 S1                 0.0000
     37 ****         2.1396  -1.5190  -2.9564 LP             1 S1                 0.0000
     38 ****         1.0379  -2.8740   0.8527 LP             1 S1                 0.0000
     39 ****         0.5914  -4.0726  -0.1625 LP             1 S1                 0.0000
     40 ****        -2.1427  -2.5487   1.8744 LP             1 S1                 0.0000
     41 ****        -2.9744  -1.9537   0.6013 LP             1 S1                 0.0000
@<TRIPOS>BOND
    1    1    2 2     
    2    2   17 1     
    3    2    3 1     
    4    3   19 1     
    5    3    4 1     
    6    4    5 2     
    7    4    6 1     
    8    6    7 1     
    9    6   16 1     
   10    7   14 1     
   11    7    8 1     
   12    7   20 1     
   13    8    9 1     
   14    9   10 1     
   15    9   12 1     
   16    9   21 1     
   17   10   11 1     
   18   10   22 1     
   19   10   23 1     
   20   11   24 1     
   21   12   13 1     
   22   12   14 1     
   23   12   25 1     
   24   13   26 1     
   25   14   15 1     
   26   14   27 1     
   27   15   28 1     
   28   16   17 2     
   29   16   29 1     
   30   17   18 1     
   31    1   30 1     
   32    1   31 1     
   33    5   32 1     
   34    5   33 1     
   35    8   34 1     
   36    8   35 1     
   37   11   36 1     
   38   11   37 1     
   39   13   38 1     
   40   13   39 1     
   41   15   40 1     
   42   15   41 1     
@<TRIPOS>SUBSTRUCTURE
      1 S1             1
@<TRIPOS>SET
LONE_PAIRS      STATIC     ATOMS    <user>   **** ""
12 30 31 32 33 34 35 36 37 38 39 40 41
DONOR_HYDROGENS      STATIC     ATOMS    <user>   **** ""
4 19 24 26 28
ATOM$BLUE        STATIC     ATOMS    COLORGROUP SYSTEM
12 30 31 32 33 34 35 36 37 38 39 40 41
ATOM$RED        STATIC     ATOMS    COLORGROUP SYSTEM
4 19 24 26 28
