#       Name:                AV-unprocessed.smi:3232
#       Creating user name   scv26
#       Creation time:       Fri Mar 27 18:20:59 2020


#       File generated by GOLD software.
#

@<TRIPOS>MOLECULE
AV-unprocessed.smi:3232
    44    45     1
SMALL
NO_CHARGES


@<TRIPOS>ATOM
      1 ****        -4.7126   0.6386   1.0099 C.3            1 S1                 0.0000
      2 ****        -3.2167   0.9804   0.9942 C.3            1 S1                 0.0000
      3 ****        -2.6131   0.7897  -0.3465 N.4            1 S1                 1.0000
      4 ****        -3.0936   1.7300  -1.3815 C.3            1 S1                 0.0000
      5 ****        -1.9869   1.7660  -2.4273 C.3            1 S1                 0.0000
      6 ****        -0.7229   1.6678  -1.5822 C.3            1 S1                 0.0000
      7 ****        -1.1281   0.8202  -0.3597 C.3            1 S1                 0.0000
      8 ****        -0.5682  -0.6175  -0.3896 C.3            1 S1                 0.0000
      9 ****         0.8902  -0.6504  -0.3941 N.am           1 S1                 0.0000
     10 ****         1.6717  -0.4146   0.6710 C.2            1 S1                 0.0000
     11 ****         1.2235  -0.1414   1.7852 O.2            1 S1                 0.0000
     12 ****         3.1863  -0.5053   0.4335 C.3            1 S1                 0.0000
     13 ****         3.9907   0.4111   1.3737 C.3            1 S1                 0.0000
     14 ****         3.6284  -1.8882   0.5400 N.pl3          1 S1                 0.0000
     15 ****         3.6639  -2.7193   1.5856 C.2            1 S1                 0.0000
     16 ****         4.1222  -3.9285   1.2949 N.2            1 S1                 0.0000
     17 ****         4.3663  -3.7652  -0.0391 C.2            1 S1                 0.0000
     18 ****         4.0839  -2.5635  -0.5423 N.2            1 S1                 0.0000
     19 ****        -5.1201   0.7401   2.0159 H              1 S1                 0.0000
     20 ****        -4.8861  -0.3875   0.6848 H              1 S1                 0.0000
     21 ****        -5.2843   1.2995   0.3585 H              1 S1                 0.0000
     22 ****        -3.0561   2.0043   1.3348 H              1 S1                 0.0000
     23 ****        -2.7041   0.3305   1.7046 H              1 S1                 0.0000
     24 ****        -4.0503   1.4171  -1.8008 H              1 S1                 0.0000
     25 ****        -3.2209   2.7246  -0.9506 H              1 S1                 0.0000
     26 ****        -2.0647   0.8973  -3.0828 H              1 S1                 0.0000
     27 ****        -2.0160   2.6625  -3.0474 H              1 S1                 0.0000
     28 ****         0.1171   1.2593  -2.1447 H              1 S1                 0.0000
     29 ****        -0.4335   2.6659  -1.2501 H              1 S1                 0.0000
     30 ****        -0.7679   1.3276   0.5373 H              1 S1                 0.0000
     31 ****        -0.9401  -1.1885   0.4630 H              1 S1                 0.0000
     32 ****        -0.9190  -1.1361  -1.2826 H              1 S1                 0.0000
     33 ****         1.3406  -0.8762  -1.2697 H              1 S1                 0.0000
     34 ****         3.3774  -0.1680  -0.5874 H              1 S1                 0.0000
     35 ****         3.6579   1.4468   1.2957 H              1 S1                 0.0000
     36 ****         5.0510   0.3896   1.1204 H              1 S1                 0.0000
     37 ****         3.8956   0.1082   2.4173 H              1 S1                 0.0000
     38 ****         3.3455  -2.4348   2.5780 H              1 S1                 0.0000
     39 ****         4.7612  -4.5566  -0.6588 H              1 S1                 0.0000
     40 ****        -2.8694  -0.1346  -0.6629 H              1 S1                 0.0000
     41 ****         0.2351  -0.0871   1.9270 LP             1 S1                 0.0000
     42 ****         1.8480   0.0261   2.5481 LP             1 S1                 0.0000
     43 ****         4.2517  -4.7279   1.8816 LP             1 S1                 0.0000
     44 ****         4.1835  -2.2411  -1.4836 LP             1 S1                 0.0000
@<TRIPOS>BOND
    1    1    2 1     
    2    1   19 1     
    3    1   20 1     
    4    1   21 1     
    5    2    3 1     
    6    2   22 1     
    7    2   23 1     
    8    3    7 1     
    9    3    4 1     
   10    3   40 1     
   11    4    5 1     
   12    4   24 1     
   13    4   25 1     
   14    5    6 1     
   15    5   26 1     
   16    5   27 1     
   17    6    7 1     
   18    6   28 1     
   19    6   29 1     
   20    7    8 1     
   21    7   30 1     
   22    8    9 1     
   23    8   31 1     
   24    8   32 1     
   25    9   10 am    
   26    9   33 1     
   27   10   11 2     
   28   10   12 1     
   29   12   13 1     
   30   12   14 1     
   31   12   34 1     
   32   13   35 1     
   33   13   36 1     
   34   13   37 1     
   35   14   18 1     
   36   14   15 1     
   37   15   16 2     
   38   15   38 1     
   39   16   17 1     
   40   17   18 2     
   41   17   39 1     
   42   11   41 1     
   43   11   42 1     
   44   16   43 1     
   45   18   44 1     
@<TRIPOS>SUBSTRUCTURE
      1 S1             1
@<TRIPOS>SET
LONE_PAIRS      STATIC     ATOMS    <user>   **** ""
4 41 42 43 44
DONOR_HYDROGENS      STATIC     ATOMS    <user>   **** ""
2 40 33
ATOM$BLUE        STATIC     ATOMS    COLORGROUP SYSTEM
4 41 42 43 44
ATOM$RED        STATIC     ATOMS    COLORGROUP SYSTEM
2 40 33
