AV-unprocessed.smi:2954|AV-procd|sdf|11298|dock9
  -GOLD-   2272016193D 1   1.00000     0.00000
 Structure written by MMmdl.
 42 44  0  0  0  0  0  0  0  0  1 V2000
  151.6869  140.5836  156.6578 C   0  0  0  0  0  0  0  0  0  0  0  0
  151.7179  139.0761  156.9410 C   0  0  1  0  0  0  0  0  0  0  0  0
  152.1647  138.3470  155.7568 N   0  0  0  0  0  0  0  0  0  0  0  0
  151.6792  138.5397  154.5234 C   0  0  0  0  0  0  0  0  0  0  0  0
  150.8035  139.3616  154.2661 O   0  0  0  0  0  0  0  0  0  0  0  0
  152.6260  138.7365  158.0972 C   0  0  0  0  0  0  0  0  0  0  0  0
  153.6176  139.5454  158.4812 N   0  0  0  0  0  0  0  0  0  0  0  0
  154.1884  138.8570  159.5324 C   0  0  0  0  0  0  0  0  0  0  0  0
  155.2913  139.1841  160.3532 C   0  0  0  0  0  0  0  0  0  0  0  0
  155.7029  138.3076  161.3783 C   0  0  0  0  0  0  0  0  0  0  0  0
  155.0185  137.0948  161.5972 C   0  0  0  0  0  0  0  0  0  0  0  0
  153.9153  136.7518  160.7923 C   0  0  0  0  0  0  0  0  0  0  0  0
  153.5078  137.6306  159.7705 C   0  0  0  0  0  0  0  0  0  0  0  0
  152.4910  137.5944  158.8203 N   0  0  0  0  0  0  0  0  0  0  0  0
  151.5174  136.5228  158.6575 C   0  0  0  0  0  0  0  0  0  0  0  0
  150.1114  136.9510  159.1040 C   0  0  0  0  0  0  0  0  0  0  0  0
  149.2570  135.8155  159.0847 O   0  0  0  0  0  0  0  0  0  0  0  0
  148.5415  135.5103  160.2217 C   0  0  0  0  0  0  0  0  0  0  0  0
  148.5029  136.3355  161.3741 C   0  0  0  0  0  0  0  0  0  0  0  0
  147.7463  135.9548  162.4990 C   0  0  0  0  0  0  0  0  0  0  0  0
  147.0229  134.7484  162.4885 C   0  0  0  0  0  0  0  0  0  0  0  0
  147.0580  133.9210  161.3510 C   0  0  0  0  0  0  0  0  0  0  0  0
  147.8138  134.2995  160.2241 C   0  0  0  0  0  0  0  0  0  0  0  0
  147.8357  133.2718  158.8353 Cl  0  0  0  0  0  0  0  0  0  0  0  0
  151.3344  141.1353  157.5297 H   0  0  0  0  0  0  0  0  0  0  0  0
  151.0177  140.8144  155.8284 H   0  0  0  0  0  0  0  0  0  0  0  0
  152.6776  140.9618  156.4030 H   0  0  0  0  0  0  0  0  0  0  0  0
  150.6984  138.7597  157.1572 H   0  0  0  0  0  0  0  0  0  0  0  0
  152.8859  137.6523  155.8854 H   0  0  0  0  0  0  0  0  0  0  0  0
  152.1605  137.8818  153.7836 H   0  0  0  0  0  0  0  0  0  0  0  0
  155.8235  140.1099  160.1918 H   0  0  0  0  0  0  0  0  0  0  0  0
  156.5486  138.5664  161.9984 H   0  0  0  0  0  0  0  0  0  0  0  0
  155.3413  136.4269  162.3823 H   0  0  0  0  0  0  0  0  0  0  0  0
  153.3936  135.8207  160.9550 H   0  0  0  0  0  0  0  0  0  0  0  0
  151.4946  136.2356  157.6060 H   0  0  0  0  0  0  0  0  0  0  0  0
  151.8512  135.6397  159.2026 H   0  0  0  0  0  0  0  0  0  0  0  0
  150.1522  137.3772  160.1073 H   0  0  0  0  0  0  0  0  0  0  0  0
  149.7336  137.7200  158.4300 H   0  0  0  0  0  0  0  0  0  0  0  0
  149.0504  137.2645  161.4204 H   0  0  0  0  0  0  0  0  0  0  0  0
  147.7222  136.5899  163.3723 H   0  0  0  0  0  0  0  0  0  0  0  0
  146.4423  134.4578  163.3516 H   0  0  0  0  0  0  0  0  0  0  0  0
  146.5025  132.9947  161.3433 H   0  0  0  0  0  0  0  0  0  0  0  0
  1  2  1  0  0  0  0
  1 25  1  0  0  0  0
  1 26  1  0  0  0  0
  1 27  1  0  0  0  0
  2  3  1  0  0  0  0
  2  6  1  0  0  0  0
  2 28  1  0  0  0  0
  3  4  1  0  0  0  0
  3 29  1  0  0  0  0
  4  5  2  0  0  0  0
  4 30  1  0  0  0  0
  6 14  1  0  0  0  0
  6  7  2  0  0  0  0
  7  8  1  0  0  0  0
  8 13  2  0  0  0  0
  8  9  1  0  0  0  0
  9 10  2  0  0  0  0
  9 31  1  0  0  0  0
 10 11  1  0  0  0  0
 10 32  1  0  0  0  0
 11 12  2  0  0  0  0
 11 33  1  0  0  0  0
 12 13  1  0  0  0  0
 12 34  1  0  0  0  0
 13 14  1  0  0  0  0
 14 15  1  0  0  0  0
 15 16  1  0  0  0  0
 15 35  1  0  0  0  0
 15 36  1  0  0  0  0
 16 17  1  0  0  0  0
 16 37  1  0  0  0  0
 16 38  1  0  0  0  0
 17 18  1  0  0  0  0
 18 23  1  0  0  0  0
 18 19  2  0  0  0  0
 19 20  1  0  0  0  0
 19 39  1  0  0  0  0
 20 21  2  0  0  0  0
 20 40  1  0  0  0  0
 21 22  1  0  0  0  0
 21 41  1  0  0  0  0
 22 23  2  0  0  0  0
 22 42  1  0  0  0  0
 23 24  1  0  0  0  0
M  END
> <s_m_source_file>
AV-unprocessed.smi

> <i_m_source_file_index>
2954

> <i_lp_mmshare_version>
43012

> <i_f3d_flags>
0

> <s_epik_input>
Tz1bQ0hdW05IXVtDQEBIXShbQ0gzXSljKG4xKW4oYyhjMTIpW2NIXVtjSF1bY0hdW2NIXTIpW0NIMl1bQ0gyXU9jM1tjSF1bY0hdW2NIXVtjSF1jM0Ns

> <s_epik_cmdline>
J2VwaWtfcHl0aG9uJywgJy1waCcsICc3LjAnLCAnLXRuJywgJzgnLCAnLW1hJywgJzIwMCcsICctbWV0YWxfYmluZGluZycsICctaW1hZScsICc8aW5maWxlLm1hZT4nLCAnLW9tYWUnLCAnPG91dGZpbGUubWFlPic=

> <r_lp_tautomer_probability>
1

> <r_epik_Ionization_Penalty>
0.0861383

> <r_epik_Ionization_Penalty_Charging>
0

> <r_epik_Ionization_Penalty_Neutral>
0.0861383

> <r_epik_State_Penalty>
0.0766841

> <r_epik_Charging_Adjusted_Penalty>
0.0766841

> <i_epik_Tot_Q>
0

> <i_epik_Tot_abs_Q>
0

> <r_epik_Metal_State_Penalty>
0.0668745

> <b_epik_Metal_Only>
0

> <s_lp_Force_Field>
OPLS_2005

> <r_lp_Energy>
11.8377

> <b_lp_Chiralities_Consistent>
1

> <s_lp_Variant>
AV-unprocessed.smi:2954-2

> <Gold.Version>
5.8.1

> <Gold.Id.Protein>
6NUR|6NUR_protein|mol2

> <Gold.PLP.Fitness>
45.4506

> <Gold.PLP.PLP>
-39.2259

> <Gold.PLP.part.hbond>
-3.0000

> <Gold.PLP.part.metal>
0.0000

> <Gold.PLP.part.buried>
0.8911

> <Gold.PLP.part.nonpolar>
-37.3737

> <Gold.PLP.part.repulsive>
0.3118

> <Gold.PLP.ligand.clash>
0.0000

> <Gold.PLP.ligand.torsion>
1.2438

> <Gold.PLP.Chemscore.Hbond>
2.8933

> <Gold.PLP.Chemscore.CHOScore>
0.0000

> <Gold.PLP.Chemscore.Metal>
0.0000

> <Gold.Chemscore.Hbonds>
donor molecule, donor type, donor heavy atom, donor atom, acceptor molecule, acceptor atom, score
      P1  H  6896  6908       L1    17  0.33
      P1  H  7989  7998       L1     5  1.00
      P1  H  7997  8009       L1     7  1.00

> <Gold.PLP.Chemscore.Internal.Correction>
0.0325

> <Gold.Rescore>
     Score         DG    S(hbond)    S(metal)    S(lipo)     H(rot)  DE(clash)    DE(int)     intcor
     12.79     -17.16       1.24        0.00     114.31       2.28       1.68       2.69       ----

> <Gold.Chemscore.Fitness>
12.7857

> <Gold.Chemscore.DG>
-17.1557

> <Gold.Chemscore.ZeroCoef>
-5.4800

> <Gold.Chemscore.Hbond>
1.2430

> <Gold.Chemscore.Metal>
0.0000

> <Gold.Chemscore.Lipo>
114.3050

> <Gold.Chemscore.Internal_Hbond>
0.0000

> <Gold.Chemscore.DEClash>
1.6780

> <Gold.Chemscore.DEInternal>
2.6920

> <Gold.Chemscore.Rot>
2.2849

> <Gold.Chemscore.Internal.Correction>
   9.000000E+99

> <Gold.Chemscore.Hbonds>
donor molecule, donor type, donor heavy atom, donor atom, acceptor molecule, acceptor atom, score
      P1  H  7989  7998       L1     5  0.65
      P1  H  7997  8009       L1     7  0.82

> <Gold.Chemscore.Hbond.Weighted>
-4.1515

> <Gold.Chemscore.Metal.Weighted>
-0.0000

> <Gold.Chemscore.Lipo.Weighted>
-13.3737

> <Gold.Chemscore.Internal_Hbond.Weighted>
0.0000

> <Gold.Chemscore.DEClash.Weighted>
1.6780

> <Gold.Chemscore.DEInternal.Weighted>
2.6920

> <Gold.Chemscore.Rot.Weighted>
5.8495

> <Gold.Chemscore.Internal.Correction.Weighted>
   9.000000E+99

> <Gold.Protein.RotatedTorsions>
[ 6907 6896 6895 6894 ] final  175.08 input  -60.11 | X-H torsion
[ 7974 7965 7964 7962 ] final  -78.89 input  175.53 | X-H torsion
[ 8008 7997 7996 7995 ] final  147.36 input   59.86 | X-H torsion
[ 10167 10162 10161 10158 ] final  -46.94 input  -65.29 | X-H torsion
[ 10718 10713 10712 10709 ] final -110.63 input   66.30 | X-H torsion
[ 10763 10752 10751 10750 ] final -126.08 input  -60.55 | X-H torsion
[ 11005 11000 10999 10996 ] final   -3.79 input  -57.11 | X-H torsion

> <Gold.Protein.ActiveResidues>
 VAL166  LYS551  ARG553  GLY616  TRP617  ASP618  TYR619  PRO620  LYS621  CYS622 
 ASP623  PHE694  ASN695  SER759  ASP760  ASP761  ALA762  ILE779  LEU786  VAL792 
 PHE793  MET794  SER795  GLU796  ALA797  LYS798  CYS799  TRP800  GLU811  SER814 

> <Gold.Protein.RotatedAtoms>
  151.7420  133.3322  159.3368 H   0  0  0  0  0  0  0  0  0  0  0  0  # atno 6907 bound_to 6896
  150.7569  134.6269  159.6175 H   0  0  0  0  0  0  0  0  0  0  0  0  # atno 6908 bound_to 6896
  152.3524  134.6989  160.0284 H   0  0  0  0  0  0  0  0  0  0  0  0  # atno 6909 bound_to 6896
  145.5805  140.9449  143.1346 H   0  0  0  0  0  0  0  0  0  0  0  0  # atno 7974 bound_to 7965
  156.2827  140.2157  156.5526 H   0  0  0  0  0  0  0  0  0  0  0  0  # atno 8008 bound_to 7997
  154.7279  140.0498  157.0722 H   0  0  0  0  0  0  0  0  0  0  0  0  # atno 8009 bound_to 7997
  155.0393  140.3144  155.4733 H   0  0  0  0  0  0  0  0  0  0  0  0  # atno 8010 bound_to 7997
  140.6796  143.2807  151.3856 H   0  0  0  0  0  0  0  0  0  0  0  0  # atno 10167 bound_to 10162
  156.0601  130.5825  150.8263 H   0  0  0  0  0  0  0  0  0  0  0  0  # atno 10718 bound_to 10713
  154.8742  135.4008  154.3372 H   0  0  0  0  0  0  0  0  0  0  0  0  # atno 10763 bound_to 10752
  153.4177  135.7022  153.6321 H   0  0  0  0  0  0  0  0  0  0  0  0  # atno 10764 bound_to 10752
  153.4996  135.3730  155.2503 H   0  0  0  0  0  0  0  0  0  0  0  0  # atno 10765 bound_to 10752
  140.6731  133.9219  155.8507 H   0  0  0  0  0  0  0  0  0  0  0  0  # atno 11005 bound_to 11000
  144.7396  139.7486  143.7316 LP  0  0  0  0  0  0  0  0  0  0  0  0  # atno 17320 bound_to 7965
  146.1720  139.4874  142.9921 LP  0  0  0  0  0  0  0  0  0  0  0  0  # atno 17321 bound_to 7965
  139.6110  144.1099  152.2298 LP  0  0  0  0  0  0  0  0  0  0  0  0  # atno 17342 bound_to 10162
  140.0513  144.5930  150.7334 LP  0  0  0  0  0  0  0  0  0  0  0  0  # atno 17343 bound_to 10162
  157.5604  131.0946  150.9568 LP  0  0  0  0  0  0  0  0  0  0  0  0  # atno 17370 bound_to 10713
  156.9807  130.5526  149.5296 LP  0  0  0  0  0  0  0  0  0  0  0  0  # atno 17371 bound_to 10713
  141.0376  134.0667  157.3940 LP  0  0  0  0  0  0  0  0  0  0  0  0  # atno 17394 bound_to 11000
  139.8975  135.0150  156.7103 LP  0  0  0  0  0  0  0  0  0  0  0  0  # atno 17395 bound_to 11000

$$$$
