AV-unprocessed.smi:1836|AV-procd|sdf|7479|dock2
  -GOLD-   22720 9173D 1   1.00000     0.00000
 Structure written by MMmdl.
 32 33  0  0  0  0  0  0  0  0  2 V2000
  152.0783  139.3457  157.5695 C   0  0  0  0  0  0  0  0  0  0  0  0
  151.8945  140.8645  157.6924 C   0  0  2  0  0  0  0  0  0  0  0  0
  151.8093  141.2962  159.1748 C   0  0  0  0  0  0  0  0  0  0  0  0
  151.9169  142.7446  159.3455 N   0  0  0  0  0  0  0  0  0  0  0  0
  152.0415  143.6215  158.1923 C   0  0  0  0  0  0  0  0  0  0  0  0
  152.4577  144.9780  158.7759 C   0  0  0  0  0  0  0  0  0  0  0  0
  152.1199  144.9025  160.2686 C   0  0  0  0  0  0  0  0  0  0  0  0
  151.9188  143.4148  160.5041 C   0  0  0  0  0  0  0  0  0  0  0  0
  151.7888  142.9276  161.6263 O   0  0  0  0  0  0  0  0  0  0  0  0
  150.6741  141.2429  156.9796 N   0  0  0  0  0  0  0  0  0  0  0  0
  150.3628  140.9302  155.7125 C   0  0  0  0  0  0  0  0  0  0  0  0
  151.1194  140.2192  155.0471 O   0  0  0  0  0  0  0  0  0  0  0  0
  149.2040  141.4804  155.2854 N   0  5  0  0  0  0  0  0  0  0  0  0
  148.3851  140.7748  154.4881 C   0  0  0  0  0  0  0  0  0  0  0  0
  148.5858  139.4746  154.2205 N   0  0  0  0  0  0  0  0  0  0  0  0
  147.6238  138.9367  153.3759 N   0  0  0  0  0  0  0  0  0  0  0  0
  146.7138  139.8480  153.0332 C   0  0  0  0  0  0  0  0  0  0  0  0
  146.9463  141.4447  153.7127 S   0  0  0  0  0  0  0  0  0  0  0  0
  152.9940  139.0208  158.0641 H   0  0  0  0  0  0  0  0  0  0  0  0
  152.1445  139.0416  156.5244 H   0  0  0  0  0  0  0  0  0  0  0  0
  151.2458  138.8060  158.0223 H   0  0  0  0  0  0  0  0  0  0  0  0
  152.7636  141.3286  157.2233 H   0  0  0  0  0  0  0  0  0  0  0  0
  150.8798  140.9391  159.6213 H   0  0  0  0  0  0  0  0  0  0  0  0
  152.6147  140.8283  159.7430 H   0  0  0  0  0  0  0  0  0  0  0  0
  152.7733  143.2486  157.4745 H   0  0  0  0  0  0  0  0  0  0  0  0
  151.0758  143.6910  157.6903 H   0  0  0  0  0  0  0  0  0  0  0  0
  153.5320  145.1208  158.6493 H   0  0  0  0  0  0  0  0  0  0  0  0
  151.9532  145.8069  158.2785 H   0  0  0  0  0  0  0  0  0  0  0  0
  152.9193  145.3023  160.8931 H   0  0  0  0  0  0  0  0  0  0  0  0
  151.1950  145.4334  160.4957 H   0  0  0  0  0  0  0  0  0  0  0  0
  150.0186  141.8234  157.4820 H   0  0  0  0  0  0  0  0  0  0  0  0
  145.8988  139.5776  152.3784 H   0  0  0  0  0  0  0  0  0  0  0  0
  1  2  1  0  0  0  0
  1 19  1  0  0  0  0
  1 20  1  0  0  0  0
  1 21  1  0  0  0  0
  2  3  1  0  0  0  0
  2 10  1  0  0  0  0
  2 22  1  0  0  0  0
  3  4  1  0  0  0  0
  3 23  1  0  0  0  0
  3 24  1  0  0  0  0
  4  8  1  0  0  0  0
  4  5  1  0  0  0  0
  5  6  1  0  0  0  0
  5 25  1  0  0  0  0
  5 26  1  0  0  0  0
  6  7  1  0  0  0  0
  6 27  1  0  0  0  0
  6 28  1  0  0  0  0
  7  8  1  0  0  0  0
  7 29  1  0  0  0  0
  7 30  1  0  0  0  0
  8  9  2  0  0  0  0
 10 11  1  0  0  0  0
 10 31  1  0  0  0  0
 11 12  2  0  0  0  0
 11 13  1  0  0  0  0
 13 14  1  0  0  0  0
 14 18  1  0  0  0  0
 14 15  2  0  0  0  0
 15 16  1  0  0  0  0
 16 17  2  0  0  0  0
 17 18  1  0  0  0  0
 17 32  1  0  0  0  0
M  CHG  1  13  -1
M  END
> <s_m_source_file>
AV-unprocessed.smi

> <i_m_source_file_index>
1836

> <i_lp_mmshare_version>
43012

> <i_f3d_flags>
0

> <s_epik_input>
Tz1DMVtDSDJdW0NIMl1bQ0gyXU4xW0NIMl1bQ0BASF0oW0NIM10pW05IXUMoPU8pW05IXWMybm5bY0hdczI=

> <s_epik_cmdline>
J2VwaWtfcHl0aG9uJywgJy1waCcsICc3LjAnLCAnLXRuJywgJzgnLCAnLW1hJywgJzIwMCcsICctbWV0YWxfYmluZGluZycsICctaW1hZScsICc8aW5maWxlLm1hZT4nLCAnLW9tYWUnLCAnPG91dGZpbGUubWFlPic=

> <r_lp_tautomer_probability>
1

> <r_epik_Ionization_Penalty>
3.44722

> <r_epik_Ionization_Penalty_Charging>
3.40341

> <r_epik_Ionization_Penalty_Neutral>
0.0438099

> <r_epik_State_Penalty>
3.40151

> <r_epik_Charging_Adjusted_Penalty>
6.80491

> <i_epik_Tot_Q>
-1

> <i_epik_Tot_abs_Q>
1

> <r_epik_Metal_State_Penalty>
0.49534

> <b_epik_Metal_Only>
1

> <s_lp_Force_Field>
OPLS_2005

> <r_lp_Energy>
15.5322

> <b_lp_Chiralities_Consistent>
1

> <s_lp_Variant>
AV-unprocessed.smi:1836-3

> <Gold.Version>
5.8.1

> <Gold.Id.Protein>
6NUR|6NUR_protein|mol2

> <Gold.PLP.Fitness>
43.4906

> <Gold.PLP.PLP>
-37.0805

> <Gold.PLP.part.hbond>
-2.0000

> <Gold.PLP.part.metal>
0.0000

> <Gold.PLP.part.buried>
-6.6590

> <Gold.PLP.part.nonpolar>
-30.1299

> <Gold.PLP.part.repulsive>
1.5782

> <Gold.PLP.ligand.clash>
0.0095

> <Gold.PLP.ligand.torsion>
0.4273

> <Gold.PLP.Chemscore.Hbond>
1.4888

> <Gold.PLP.Chemscore.CHOScore>
0.8875

> <Gold.PLP.Chemscore.Metal>
0.0000

> <Gold.Chemscore.Hbonds>
donor molecule, donor type, donor heavy atom, donor atom, acceptor molecule, acceptor atom, score
      P1  H  6933  6945       L1     9  0.42
      P1  H  7989  7998       L1    12  1.00
      L1  C    17    32       P1 10175  0.92

> <Gold.PLP.Chemscore.Internal.Correction>
0.1453

> <Gold.Rescore>
     Score         DG    S(hbond)    S(metal)    S(lipo)     H(rot)  DE(clash)    DE(int)     intcor
     11.75     -15.00       1.64        0.00      72.38       1.73       0.04       3.21       ----

> <Gold.Chemscore.Fitness>
11.7451

> <Gold.Chemscore.DG>
-14.9981

> <Gold.Chemscore.ZeroCoef>
-5.4800

> <Gold.Chemscore.Hbond>
1.6403

> <Gold.Chemscore.Metal>
0.0000

> <Gold.Chemscore.Lipo>
72.3832

> <Gold.Chemscore.Internal_Hbond>
0.0000

> <Gold.Chemscore.DEClash>
0.0442

> <Gold.Chemscore.DEInternal>
3.2088

> <Gold.Chemscore.Rot>
1.7302

> <Gold.Chemscore.Internal.Correction>
   9.000000E+99

> <Gold.Chemscore.Hbonds>
donor molecule, donor type, donor heavy atom, donor atom, acceptor molecule, acceptor atom, score
      P1  H  6933  6945       L1     9  0.40
      P1  H  7989  7998       L1    12  0.92

> <Gold.Chemscore.Hbond.Weighted>
-5.4787

> <Gold.Chemscore.Metal.Weighted>
-0.0000

> <Gold.Chemscore.Lipo.Weighted>
-8.4688

> <Gold.Chemscore.Internal_Hbond.Weighted>
0.0000

> <Gold.Chemscore.DEClash.Weighted>
0.0442

> <Gold.Chemscore.DEInternal.Weighted>
3.2088

> <Gold.Chemscore.Rot.Weighted>
4.4294

> <Gold.Chemscore.Internal.Correction.Weighted>
   9.000000E+99

> <Gold.Protein.RotatedTorsions>
[ 6907 6896 6895 6894 ] final   93.33 input  -60.11 | X-H torsion
[ 7974 7965 7964 7962 ] final  -60.09 input  175.53 | X-H torsion
[ 8008 7997 7996 7995 ] final   38.01 input   59.86 | X-H torsion
[ 10167 10162 10161 10158 ] final  142.95 input  -65.29 | X-H torsion
[ 10718 10713 10712 10709 ] final   96.16 input   66.30 | X-H torsion
[ 10763 10752 10751 10750 ] final  168.37 input  -60.55 | X-H torsion
[ 11005 11000 10999 10996 ] final  -17.85 input  -57.11 | X-H torsion

> <Gold.Protein.ActiveResidues>
 VAL166  LYS551  ARG553  GLY616  TRP617  ASP618  TYR619  PRO620  LYS621  CYS622 
 ASP623  PHE694  ASN695  SER759  ASP760  ASP761  ALA762  ILE779  LEU786  VAL792 
 PHE793  MET794  SER795  GLU796  ALA797  LYS798  CYS799  TRP800  GLU811  SER814 

> <Gold.Protein.RotatedAtoms>
  152.5452  134.1364  159.8460 H   0  0  0  0  0  0  0  0  0  0  0  0  # atno 6907 bound_to 6896
  151.1404  133.4968  159.2604 H   0  0  0  0  0  0  0  0  0  0  0  0  # atno 6908 bound_to 6896
  151.1579  135.0269  159.8752 H   0  0  0  0  0  0  0  0  0  0  0  0  # atno 6909 bound_to 6896
  145.8197  140.8548  143.0139 H   0  0  0  0  0  0  0  0  0  0  0  0  # atno 7974 bound_to 7965
  155.2132  140.3325  155.4326 H   0  0  0  0  0  0  0  0  0  0  0  0  # atno 8008 bound_to 7997
  156.2362  140.1873  156.7160 H   0  0  0  0  0  0  0  0  0  0  0  0  # atno 8009 bound_to 7997
  154.6064  140.0615  156.9422 H   0  0  0  0  0  0  0  0  0  0  0  0  # atno 8010 bound_to 7997
  139.4981  144.6073  151.6351 H   0  0  0  0  0  0  0  0  0  0  0  0  # atno 10167 bound_to 10162
  157.6930  131.0569  150.4448 H   0  0  0  0  0  0  0  0  0  0  0  0  # atno 10718 bound_to 10713
  154.3675  135.2753  155.2285 H   0  0  0  0  0  0  0  0  0  0  0  0  # atno 10763 bound_to 10752
  154.4446  135.5946  153.6155 H   0  0  0  0  0  0  0  0  0  0  0  0  # atno 10764 bound_to 10752
  152.9840  135.6027  154.3903 H   0  0  0  0  0  0  0  0  0  0  0  0  # atno 10765 bound_to 10752
  140.8210  133.8069  155.9659 H   0  0  0  0  0  0  0  0  0  0  0  0  # atno 11005 bound_to 11000
  144.6749  140.0515  143.7478 LP  0  0  0  0  0  0  0  0  0  0  0  0  # atno 17320 bound_to 7965
  145.9689  139.2855  143.1111 LP  0  0  0  0  0  0  0  0  0  0  0  0  # atno 17321 bound_to 7965
  140.5738  144.0064  150.6230 LP  0  0  0  0  0  0  0  0  0  0  0  0  # atno 17342 bound_to 10162
  140.3190  143.3149  152.0803 LP  0  0  0  0  0  0  0  0  0  0  0  0  # atno 17343 bound_to 10162
  156.4804  130.4072  149.6465 LP  0  0  0  0  0  0  0  0  0  0  0  0  # atno 17370 bound_to 10713
  156.3512  130.7433  151.2393 LP  0  0  0  0  0  0  0  0  0  0  0  0  # atno 17371 bound_to 10713
  140.9099  134.2273  157.4992 LP  0  0  0  0  0  0  0  0  0  0  0  0  # atno 17394 bound_to 11000
  139.8708  134.9745  156.4850 LP  0  0  0  0  0  0  0  0  0  0  0  0  # atno 17395 bound_to 11000

$$$$
