AV-unprocessed.smi:1071|AV-procd|sdf|4682|dock4
  -GOLD-   22720 3203D 1   1.00000     0.00000
 Structure written by MMmdl.
 46 47  0  0  0  0  0  0  0  0  1 V2000
  154.0636  136.7664  161.0509 C   0  0  0  0  0  0  0  0  0  0  0  0
  153.3947  136.3510  159.8728 O   0  0  0  0  0  0  0  0  0  0  0  0
  153.0794  137.4361  159.0163 C   0  0  0  0  0  0  0  0  0  0  0  0
  152.5083  136.8882  157.7056 C   0  0  0  0  0  0  0  0  0  0  0  0
  151.2141  136.3502  157.9605 O   0  0  0  0  0  0  0  0  0  0  0  0
  150.5486  135.7186  156.9299 C   0  0  0  0  0  0  0  0  0  0  0  0
  149.3090  135.1076  157.2033 C   0  0  0  0  0  0  0  0  0  0  0  0
  148.6210  134.4630  156.1573 C   0  0  0  0  0  0  0  0  0  0  0  0
  149.1942  134.4576  154.8636 C   0  0  0  0  0  0  0  0  0  0  0  0
  148.6116  133.8274  153.7311 N   0  0  0  0  0  0  0  0  0  0  0  0
  147.6285  132.9065  153.6915 C   0  0  0  0  0  0  0  0  0  0  0  0
  147.1672  132.3552  154.6900 O   0  0  0  0  0  0  0  0  0  0  0  0
  147.2895  132.5607  152.4247 N   0  0  0  0  0  0  0  0  0  0  0  0
  147.0722  133.5886  151.3940 C   0  0  0  0  0  0  0  0  0  0  0  0
  145.5690  133.9355  151.3456 C   0  0  0  0  0  0  0  0  0  0  0  0
  144.7843  132.7370  151.0392 N   0  0  0  0  0  0  0  0  0  0  0  0
  143.3670  133.0678  151.0275 C   0  0  0  0  0  0  0  0  0  0  0  0
  145.0368  131.6786  152.0208 C   0  0  0  0  0  0  0  0  0  0  0  0
  146.5436  131.3430  152.0455 C   0  0  2  0  0  0  0  0  0  0  0  0
  146.8539  130.0878  152.8875 C   0  0  0  0  0  0  0  0  0  0  0  0
  150.4471  135.0832  154.6986 C   0  0  0  0  0  0  0  0  0  0  0  0
  151.1108  135.7041  155.6962 N   0  0  0  0  0  0  0  0  0  0  0  0
  154.2863  135.8980  161.6709 H   0  0  0  0  0  0  0  0  0  0  0  0
  153.4443  137.4471  161.6364 H   0  0  0  0  0  0  0  0  0  0  0  0
  155.0059  137.2635  160.8163 H   0  0  0  0  0  0  0  0  0  0  0  0
  152.3517  138.0939  159.4942 H   0  0  0  0  0  0  0  0  0  0  0  0
  153.9756  138.0248  158.8147 H   0  0  0  0  0  0  0  0  0  0  0  0
  152.4449  137.6913  156.9691 H   0  0  0  0  0  0  0  0  0  0  0  0
  153.1710  136.1165  157.3106 H   0  0  0  0  0  0  0  0  0  0  0  0
  148.8935  135.1291  158.1999 H   0  0  0  0  0  0  0  0  0  0  0  0
  147.6822  133.9772  156.3728 H   0  0  0  0  0  0  0  0  0  0  0  0
  148.8954  134.1994  152.8365 H   0  0  0  0  0  0  0  0  0  0  0  0
  147.6443  134.5000  151.5716 H   0  0  0  0  0  0  0  0  0  0  0  0
  147.4091  133.2187  150.4243 H   0  0  0  0  0  0  0  0  0  0  0  0
  145.2506  134.3598  152.2994 H   0  0  0  0  0  0  0  0  0  0  0  0
  145.3893  134.6921  150.5808 H   0  0  0  0  0  0  0  0  0  0  0  0
  142.7713  132.1905  150.7728 H   0  0  0  0  0  0  0  0  0  0  0  0
  143.1603  133.8372  150.2829 H   0  0  0  0  0  0  0  0  0  0  0  0
  143.0368  133.4349  152.0003 H   0  0  0  0  0  0  0  0  0  0  0  0
  144.6983  131.9884  153.0111 H   0  0  0  0  0  0  0  0  0  0  0  0
  144.4630  130.7925  151.7465 H   0  0  0  0  0  0  0  0  0  0  0  0
  146.8489  131.0855  151.0295 H   0  0  0  0  0  0  0  0  0  0  0  0
  146.4296  129.2008  152.4166 H   0  0  0  0  0  0  0  0  0  0  0  0
  146.4314  130.1415  153.8903 H   0  0  0  0  0  0  0  0  0  0  0  0
  147.9285  129.9256  152.9769 H   0  0  0  0  0  0  0  0  0  0  0  0
  150.9321  135.0927  153.7333 H   0  0  0  0  0  0  0  0  0  0  0  0
  1  2  1  0  0  0  0
  1 23  1  0  0  0  0
  1 24  1  0  0  0  0
  1 25  1  0  0  0  0
  2  3  1  0  0  0  0
  3  4  1  0  0  0  0
  3 26  1  0  0  0  0
  3 27  1  0  0  0  0
  4  5  1  0  0  0  0
  4 28  1  0  0  0  0
  4 29  1  0  0  0  0
  5  6  1  0  0  0  0
  6 22  1  0  0  0  0
  6  7  2  0  0  0  0
  7  8  1  0  0  0  0
  7 30  1  0  0  0  0
  8  9  2  0  0  0  0
  8 31  1  0  0  0  0
  9 10  1  0  0  0  0
  9 21  1  0  0  0  0
 10 11  1  0  0  0  0
 10 32  1  0  0  0  0
 11 12  2  0  0  0  0
 11 13  1  0  0  0  0
 13 19  1  0  0  0  0
 13 14  1  0  0  0  0
 14 15  1  0  0  0  0
 14 33  1  0  0  0  0
 14 34  1  0  0  0  0
 15 16  1  0  0  0  0
 15 35  1  0  0  0  0
 15 36  1  0  0  0  0
 16 17  1  0  0  0  0
 16 18  1  0  0  0  0
 17 37  1  0  0  0  0
 17 38  1  0  0  0  0
 17 39  1  0  0  0  0
 18 19  1  0  0  0  0
 18 40  1  0  0  0  0
 18 41  1  0  0  0  0
 19 20  1  0  0  0  0
 19 42  1  0  0  0  0
 20 43  1  0  0  0  0
 20 44  1  0  0  0  0
 20 45  1  0  0  0  0
 21 22  2  0  0  0  0
 21 46  1  0  0  0  0
M  END
> <s_m_source_file>
AV-unprocessed.smi

> <i_m_source_file_index>
1071

> <i_lp_mmshare_version>
43012

> <i_f3d_flags>
0

> <s_epik_input>
W0NIM11PW0NIMl1bQ0gyXU9jMVtjSF1bY0hdYyhbY0hdbjEpW05IXUMoPU8pTjJbQ0gyXVtDSDJdTihbQ0gzXSlbQ0gyXVtDQEhdMltDSDNd

> <s_epik_cmdline>
J2VwaWtfcHl0aG9uJywgJy1waCcsICc3LjAnLCAnLXRuJywgJzgnLCAnLW1hJywgJzIwMCcsICctbWV0YWxfYmluZGluZycsICctaW1hZScsICc8aW5maWxlLm1hZT4nLCAnLW9tYWUnLCAnPG91dGZpbGUubWFlPic=

> <r_lp_tautomer_probability>
1

> <r_epik_Ionization_Penalty>
0.623446

> <r_epik_Ionization_Penalty_Charging>
0

> <r_epik_Ionization_Penalty_Neutral>
0.623446

> <r_epik_State_Penalty>
0.639577

> <r_epik_Charging_Adjusted_Penalty>
0.639577

> <i_epik_Tot_Q>
0

> <i_epik_Tot_abs_Q>
0

> <r_epik_Metal_State_Penalty>
0.639567

> <b_epik_Metal_Only>
0

> <s_lp_Force_Field>
OPLS_2005

> <r_lp_Energy>
48.0993

> <b_lp_Chiralities_Consistent>
1

> <s_lp_Variant>
AV-unprocessed.smi:1071-6

> <Gold.Version>
5.8.1

> <Gold.Id.Protein>
6NUR|6NUR_protein|mol2

> <Gold.PLP.Fitness>
35.3031

> <Gold.PLP.PLP>
-28.0603

> <Gold.PLP.part.hbond>
-3.9248

> <Gold.PLP.part.metal>
0.0000

> <Gold.PLP.part.buried>
-1.5541

> <Gold.PLP.part.nonpolar>
-21.6861

> <Gold.PLP.part.repulsive>
0.2218

> <Gold.PLP.ligand.clash>
0.0000

> <Gold.PLP.ligand.torsion>
0.5344

> <Gold.PLP.Chemscore.Hbond>
1.8963

> <Gold.PLP.Chemscore.CHOScore>
0.6674

> <Gold.PLP.Chemscore.Metal>
0.0000

> <Gold.Chemscore.Hbonds>
donor molecule, donor type, donor heavy atom, donor atom, acceptor molecule, acceptor atom, score
      L1  H    10    32       P1  7948  0.15
      P1  H  6896  6908       L1     5  0.06
      P1  H  6896  6909       L1     2  1.00
      P1  H 10752 10763       L1    22  0.60
      L1  C    21    46       P1  7949  0.65

> <Gold.PLP.Chemscore.Internal.Correction>
0.6205

> <Gold.Rescore>
     Score         DG    S(hbond)    S(metal)    S(lipo)     H(rot)  DE(clash)    DE(int)     intcor
     11.37     -14.77       1.48        0.00      71.73       1.57       0.28       3.12       ----

> <Gold.Chemscore.Fitness>
11.3676

> <Gold.Chemscore.DG>
-14.7711

> <Gold.Chemscore.ZeroCoef>
-5.4800

> <Gold.Chemscore.Hbond>
1.4757

> <Gold.Chemscore.Metal>
0.0000

> <Gold.Chemscore.Lipo>
71.7290

> <Gold.Chemscore.Internal_Hbond>
0.0000

> <Gold.Chemscore.DEClash>
0.2831

> <Gold.Chemscore.DEInternal>
3.1204

> <Gold.Chemscore.Rot>
1.5743

> <Gold.Chemscore.Internal.Correction>
   9.000000E+99

> <Gold.Chemscore.Hbonds>
donor molecule, donor type, donor heavy atom, donor atom, acceptor molecule, acceptor atom, score
      P1  H  6896  6908       L1     5  0.01
      P1  H  6896  6909       L1     2  0.91
      P1  H 10752 10763       L1    22  0.06

> <Gold.Chemscore.Hbond.Weighted>
-4.9289

> <Gold.Chemscore.Metal.Weighted>
-0.0000

> <Gold.Chemscore.Lipo.Weighted>
-8.3923

> <Gold.Chemscore.Internal_Hbond.Weighted>
0.0000

> <Gold.Chemscore.DEClash.Weighted>
0.2831

> <Gold.Chemscore.DEInternal.Weighted>
3.1204

> <Gold.Chemscore.Rot.Weighted>
4.0301

> <Gold.Chemscore.Internal.Correction.Weighted>
   9.000000E+99

> <Gold.Protein.RotatedTorsions>
[ 6907 6896 6895 6894 ] final  177.03 input  -60.11 | X-H torsion
[ 7974 7965 7964 7962 ] final  -44.98 input  175.53 | X-H torsion
[ 8008 7997 7996 7995 ] final -114.21 input   59.86 | X-H torsion
[ 10167 10162 10161 10158 ] final  -57.29 input  -65.29 | X-H torsion
[ 10718 10713 10712 10709 ] final -158.97 input   66.30 | X-H torsion
[ 10763 10752 10751 10750 ] final   71.21 input  -60.55 | X-H torsion
[ 11005 11000 10999 10996 ] final  109.03 input  -57.11 | X-H torsion

> <Gold.Protein.ActiveResidues>
 VAL166  LYS551  ARG553  GLY616  TRP617  ASP618  TYR619  PRO620  LYS621  CYS622 
 ASP623  PHE694  ASN695  SER759  ASP760  ASP761  ALA762  ILE779  LEU786  VAL792 
 PHE793  MET794  SER795  GLU796  ALA797  LYS798  CYS799  TRP800  GLU811  SER814 

> <Gold.Protein.RotatedAtoms>
  151.7106  133.3312  159.3289 H   0  0  0  0  0  0  0  0  0  0  0  0  # atno 6907 bound_to 6896
  150.7696  134.6536  159.6311 H   0  0  0  0  0  0  0  0  0  0  0  0  # atno 6908 bound_to 6896
  152.3714  134.6731  160.0226 H   0  0  0  0  0  0  0  0  0  0  0  0  # atno 6909 bound_to 6896
  145.9867  140.7226  142.9337 H   0  0  0  0  0  0  0  0  0  0  0  0  # atno 7974 bound_to 7965
  155.0328  140.0393  157.2480 H   0  0  0  0  0  0  0  0  0  0  0  0  # atno 8008 bound_to 7997
  154.7283  140.2725  155.6456 H   0  0  0  0  0  0  0  0  0  0  0  0  # atno 8009 bound_to 7997
  156.2835  140.2689  156.1975 H   0  0  0  0  0  0  0  0  0  0  0  0  # atno 8010 bound_to 7997
  140.6267  143.2441  151.5346 H   0  0  0  0  0  0  0  0  0  0  0  0  # atno 10167 bound_to 10162
  156.5615  130.8649  151.2811 H   0  0  0  0  0  0  0  0  0  0  0  0  # atno 10718 bound_to 10713
  153.0385  135.5145  154.7558 H   0  0  0  0  0  0  0  0  0  0  0  0  # atno 10763 bound_to 10752
  154.6514  135.2925  154.9984 H   0  0  0  0  0  0  0  0  0  0  0  0  # atno 10764 bound_to 10752
  154.0866  135.6656  153.4898 H   0  0  0  0  0  0  0  0  0  0  0  0  # atno 10765 bound_to 10752
  139.8854  134.9447  156.6063 H   0  0  0  0  0  0  0  0  0  0  0  0  # atno 11005 bound_to 11000
  144.6877  140.2999  143.7265 LP  0  0  0  0  0  0  0  0  0  0  0  0  # atno 17320 bound_to 7965
  145.7691  139.1851  143.2223 LP  0  0  0  0  0  0  0  0  0  0  0  0  # atno 17321 bound_to 7965
  139.5486  144.2454  152.1489 LP  0  0  0  0  0  0  0  0  0  0  0  0  # atno 17342 bound_to 10162
  140.1688  144.4956  150.6591 LP  0  0  0  0  0  0  0  0  0  0  0  0  # atno 17343 bound_to 10162
  157.7367  130.9784  150.2153 LP  0  0  0  0  0  0  0  0  0  0  0  0  # atno 17370 bound_to 10713
  156.2794  130.3731  149.7950 LP  0  0  0  0  0  0  0  0  0  0  0  0  # atno 17371 bound_to 10713
  140.7846  133.8632  155.8595 LP  0  0  0  0  0  0  0  0  0  0  0  0  # atno 17394 bound_to 11000
  140.9731  134.1505  157.4559 LP  0  0  0  0  0  0  0  0  0  0  0  0  # atno 17395 bound_to 11000

$$$$
