AV-unprocessed.smi:232|AV-procd|sdf|1782|dock2
  -GOLD-   2262020333D 1   1.00000     0.00000
 Structure written by MMmdl.
 52 55  0  0  0  0  0  0  0  0  1 V2000
  153.5290  140.3653  161.0150 C   0  0  0  0  0  0  0  0  0  0  0  0
  152.7726  140.6580  159.7134 C   0  0  0  0  0  0  0  0  0  0  0  0
  152.0754  142.0361  159.7151 C   0  0  1  0  0  0  0  0  0  0  0  0
  152.9814  143.1753  160.2221 C   0  0  0  0  0  0  0  0  0  0  0  0
  152.8514  144.2999  159.1882 C   0  0  0  0  0  0  0  0  0  0  0  0
  151.6377  143.9151  158.3410 C   0  0  2  0  0  0  0  0  0  0  0  0
  150.3361  144.5297  158.8973 C   0  0  0  0  0  0  0  0  0  0  0  0
  151.6466  142.4565  158.3811 N   0  0  0  0  0  0  0  0  0  0  0  0
  150.6398  141.8154  157.7296 C   0  0  0  0  0  0  0  0  0  0  0  0
  149.3444  142.1203  158.0101 N   0  0  0  0  0  0  0  0  0  0  0  0
  148.3492  141.5159  157.3554 C   0  0  0  0  0  0  0  0  0  0  0  0
  148.4226  140.5965  156.3917 N   0  0  0  0  0  0  0  0  0  0  0  0
  149.7187  140.2844  156.1050 C   0  0  0  0  0  0  0  0  0  0  0  0
  150.8762  140.8367  156.7234 C   0  0  0  0  0  0  0  0  0  0  0  0
  152.0195  140.2629  156.1796 N   0  0  0  0  0  0  0  0  0  0  0  0
  151.5653  139.4319  155.2823 C   0  0  0  0  0  0  0  0  0  0  0  0
  150.1953  139.3995  155.1534 N   0  0  0  0  0  0  0  0  0  0  0  0
  149.4289  138.5803  154.2306 C   0  0  0  0  0  0  0  0  0  0  0  0
  148.0248  139.1475  153.9179 C   0  0  1  0  0  0  0  0  0  0  0  0
  147.7525  138.7783  152.5814 O   0  0  0  0  0  0  0  0  0  0  0  0
  146.8711  138.5958  154.7889 C   0  0  1  0  0  0  0  0  0  0  0  0
  145.4537  139.0027  154.3756 C   0  0  0  0  0  0  0  0  0  0  0  0
  144.5772  137.8820  154.9086 C   0  0  0  0  0  0  0  0  0  0  0  0
  145.5616  136.7436  155.1774 C   0  0  0  0  0  0  0  0  0  0  0  0
  146.7930  137.1864  154.6253 O   0  0  0  0  0  0  0  0  0  0  0  0
  153.9730  139.3701  160.9880 H   0  0  0  0  0  0  0  0  0  0  0  0
  152.8599  140.4070  161.8747 H   0  0  0  0  0  0  0  0  0  0  0  0
  154.3342  141.0810  161.1808 H   0  0  0  0  0  0  0  0  0  0  0  0
  153.4582  140.5919  158.8677 H   0  0  0  0  0  0  0  0  0  0  0  0
  152.0408  139.8645  159.5661 H   0  0  0  0  0  0  0  0  0  0  0  0
  151.1945  141.9888  160.3573 H   0  0  0  0  0  0  0  0  0  0  0  0
  152.6494  143.5087  161.2058 H   0  0  0  0  0  0  0  0  0  0  0  0
  154.0244  142.8704  160.3157 H   0  0  0  0  0  0  0  0  0  0  0  0
  152.7648  145.2873  159.6431 H   0  0  0  0  0  0  0  0  0  0  0  0
  153.7414  144.3097  158.5572 H   0  0  0  0  0  0  0  0  0  0  0  0
  151.7928  144.2708  157.3228 H   0  0  0  0  0  0  0  0  0  0  0  0
  150.3946  145.6182  158.9043 H   0  0  0  0  0  0  0  0  0  0  0  0
  150.1369  144.2033  159.9185 H   0  0  0  0  0  0  0  0  0  0  0  0
  149.4739  144.2591  158.2871 H   0  0  0  0  0  0  0  0  0  0  0  0
  147.3522  141.8165  157.6409 H   0  0  0  0  0  0  0  0  0  0  0  0
  152.2232  138.8249  154.6773 H   0  0  0  0  0  0  0  0  0  0  0  0
  150.0137  138.5060  153.3126 H   0  0  0  0  0  0  0  0  0  0  0  0
  149.3491  137.5675  154.6274 H   0  0  0  0  0  0  0  0  0  0  0  0
  148.0449  140.2366  153.9707 H   0  0  0  0  0  0  0  0  0  0  0  0
  148.3481  139.2439  152.0146 H   0  0  0  0  0  0  0  0  0  0  0  0
  147.0283  138.8353  155.8426 H   0  0  0  0  0  0  0  0  0  0  0  0
  145.1604  139.9747  154.7709 H   0  0  0  0  0  0  0  0  0  0  0  0
  145.3709  139.0365  153.2886 H   0  0  0  0  0  0  0  0  0  0  0  0
  144.0713  138.1760  155.8286 H   0  0  0  0  0  0  0  0  0  0  0  0
  143.8159  137.5998  154.1805 H   0  0  0  0  0  0  0  0  0  0  0  0
  145.6822  136.5838  156.2498 H   0  0  0  0  0  0  0  0  0  0  0  0
  145.2476  135.8027  154.7248 H   0  0  0  0  0  0  0  0  0  0  0  0
  1  2  1  0  0  0  0
  1 26  1  0  0  0  0
  1 27  1  0  0  0  0
  1 28  1  0  0  0  0
  2  3  1  0  0  0  0
  2 29  1  0  0  0  0
  2 30  1  0  0  0  0
  3  8  1  0  0  0  0
  3  4  1  0  0  0  0
  3 31  1  0  0  0  0
  4  5  1  0  0  0  0
  4 32  1  0  0  0  0
  4 33  1  0  0  0  0
  5  6  1  0  0  0  0
  5 34  1  0  0  0  0
  5 35  1  0  0  0  0
  6  7  1  0  0  0  0
  6  8  1  0  0  0  0
  6 36  1  0  0  0  0
  7 37  1  0  0  0  0
  7 38  1  0  0  0  0
  7 39  1  0  0  0  0
  8  9  1  0  0  0  0
  9 14  1  0  0  0  0
  9 10  2  0  0  0  0
 10 11  1  0  0  0  0
 11 12  2  0  0  0  0
 11 40  1  0  0  0  0
 12 13  1  0  0  0  0
 13 17  1  0  0  0  0
 13 14  2  0  0  0  0
 14 15  1  0  0  0  0
 15 16  2  0  0  0  0
 16 17  1  0  0  0  0
 16 41  1  0  0  0  0
 17 18  1  0  0  0  0
 18 19  1  0  0  0  0
 18 42  1  0  0  0  0
 18 43  1  0  0  0  0
 19 20  1  0  0  0  0
 19 21  1  0  0  0  0
 19 44  1  0  0  0  0
 20 45  1  0  0  0  0
 21 25  1  0  0  0  0
 21 22  1  0  0  0  0
 21 46  1  0  0  0  0
 22 23  1  0  0  0  0
 22 47  1  0  0  0  0
 22 48  1  0  0  0  0
 23 24  1  0  0  0  0
 23 49  1  0  0  0  0
 23 50  1  0  0  0  0
 24 25  1  0  0  0  0
 24 51  1  0  0  0  0
 24 52  1  0  0  0  0
M  END
> <s_m_source_file>
AV-unprocessed.smi

> <i_m_source_file_index>
232

> <i_lp_mmshare_version>
43012

> <i_f3d_flags>
0

> <s_epik_input>
W0NIM11bQ0gyXVtDQEBIXTFbQ0gyXVtDSDJdW0NAQEhdKFtDSDNdKU4xYyhuW2NIXW4yKWMoYzIzKW5bY0hdbjNbQ0gyXVtDQEhdKFtPSF0pW0NAQEhdNFtDSDJdW0NIMl1bQ0gyXU80

> <s_epik_cmdline>
J2VwaWtfcHl0aG9uJywgJy1waCcsICc3LjAnLCAnLXRuJywgJzgnLCAnLW1hJywgJzIwMCcsICctbWV0YWxfYmluZGluZycsICctaW1hZScsICc8aW5maWxlLm1hZT4nLCAnLW9tYWUnLCAnPG91dGZpbGUubWFlPic=

> <r_lp_tautomer_probability>
1

> <r_epik_Ionization_Penalty>
0.00258048

> <r_epik_Ionization_Penalty_Charging>
0

> <r_epik_Ionization_Penalty_Neutral>
0.00258048

> <r_epik_State_Penalty>
0.00168551

> <r_epik_Charging_Adjusted_Penalty>
0.00168551

> <i_epik_Tot_Q>
0

> <i_epik_Tot_abs_Q>
0

> <r_epik_Metal_State_Penalty>
-0

> <b_epik_Metal_Only>
0

> <s_lp_Force_Field>
OPLS_2005

> <r_lp_Energy>
55.4366

> <b_lp_Chiralities_Consistent>
1

> <s_lp_Variant>
AV-unprocessed.smi:232-16

> <Gold.Version>
5.8.1

> <Gold.Id.Protein>
6NUR|6NUR_protein|mol2

> <Gold.PLP.Fitness>
42.2106

> <Gold.PLP.PLP>
-38.3660

> <Gold.PLP.part.hbond>
-2.6268

> <Gold.PLP.part.metal>
0.0000

> <Gold.PLP.part.buried>
-2.9696

> <Gold.PLP.part.nonpolar>
-33.9140

> <Gold.PLP.part.repulsive>
0.2326

> <Gold.PLP.ligand.clash>
0.0000

> <Gold.PLP.ligand.torsion>
1.2314

> <Gold.PLP.Chemscore.Hbond>
2.0000

> <Gold.PLP.Chemscore.CHOScore>
0.0000

> <Gold.PLP.Chemscore.Metal>
0.0000

> <Gold.Chemscore.Hbonds>
donor molecule, donor type, donor heavy atom, donor atom, acceptor molecule, acceptor atom, score
      L1  H    20    45       P1  7957  1.00
      P1  H  7997  8009       L1    15  0.28

> <Gold.PLP.Chemscore.Internal.Correction>
0.3073

> <Gold.Rescore>
     Score         DG    S(hbond)    S(metal)    S(lipo)     H(rot)  DE(clash)    DE(int)     intcor
     11.69     -16.54       1.79        0.00      96.54       2.43       0.45       4.40       ----

> <Gold.Chemscore.Fitness>
11.6934

> <Gold.Chemscore.DG>
-16.5433

> <Gold.Chemscore.ZeroCoef>
-5.4800

> <Gold.Chemscore.Hbond>
1.7899

> <Gold.Chemscore.Metal>
0.0000

> <Gold.Chemscore.Lipo>
96.5444

> <Gold.Chemscore.Internal_Hbond>
0.0000

> <Gold.Chemscore.DEClash>
0.4512

> <Gold.Chemscore.DEInternal>
4.3988

> <Gold.Chemscore.Rot>
2.4260

> <Gold.Chemscore.Internal.Correction>
   9.000000E+99

> <Gold.Chemscore.Hbonds>
donor molecule, donor type, donor heavy atom, donor atom, acceptor molecule, acceptor atom, score
      L1  H    20    45       P1  7957  1.00
      P1  H  7997  8009       L1    15  0.22

> <Gold.Chemscore.Hbond.Weighted>
-5.9783

> <Gold.Chemscore.Metal.Weighted>
-0.0000

> <Gold.Chemscore.Lipo.Weighted>
-11.2957

> <Gold.Chemscore.Internal_Hbond.Weighted>
0.0000

> <Gold.Chemscore.DEClash.Weighted>
0.4512

> <Gold.Chemscore.DEInternal.Weighted>
4.3988

> <Gold.Chemscore.Rot.Weighted>
6.2107

> <Gold.Chemscore.Internal.Correction.Weighted>
   9.000000E+99

> <Gold.Protein.RotatedTorsions>
[ 6907 6896 6895 6894 ] final -152.96 input  -60.11 | X-H torsion
[ 7974 7965 7964 7962 ] final  -30.11 input  175.53 | X-H torsion
[ 8008 7997 7996 7995 ] final -163.18 input   59.86 | X-H torsion
[ 10167 10162 10161 10158 ] final -173.00 input  -65.29 | X-H torsion
[ 10718 10713 10712 10709 ] final  -42.91 input   66.30 | X-H torsion
[ 10763 10752 10751 10750 ] final -155.77 input  -60.55 | X-H torsion
[ 11005 11000 10999 10996 ] final  -88.30 input  -57.11 | X-H torsion

> <Gold.Protein.ActiveResidues>
 VAL166  LYS551  ARG553  GLY616  TRP617  ASP618  TYR619  PRO620  LYS621  CYS622 
 ASP623  PHE694  ASN695  SER759  ASP760  ASP761  ALA762  ILE779  LEU786  VAL792 
 PHE793  MET794  SER795  GLU796  ALA797  LYS798  CYS799  TRP800  GLU811  SER814 

> <Gold.Protein.RotatedAtoms>
  151.2356  133.4427  159.2605 H   0  0  0  0  0  0  0  0  0  0  0  0  # atno 6907 bound_to 6896
  151.0754  134.9825  159.8339 H   0  0  0  0  0  0  0  0  0  0  0  0  # atno 6908 bound_to 6896
  152.5417  134.2298  159.8873 H   0  0  0  0  0  0  0  0  0  0  0  0  # atno 6909 bound_to 6896
  146.1167  140.5498  142.8753 H   0  0  0  0  0  0  0  0  0  0  0  0  # atno 7974 bound_to 7965
  155.8176  140.0915  157.1868 H   0  0  0  0  0  0  0  0  0  0  0  0  # atno 8008 bound_to 7997
  154.3979  140.1443  156.3521 H   0  0  0  0  0  0  0  0  0  0  0  0  # atno 8009 bound_to 7997
  155.8300  140.3443  155.5569 H   0  0  0  0  0  0  0  0  0  0  0  0  # atno 8010 bound_to 7997
  139.5713  144.1636  152.1387 H   0  0  0  0  0  0  0  0  0  0  0  0  # atno 10167 bound_to 10162
  156.2545  130.4191  149.8611 H   0  0  0  0  0  0  0  0  0  0  0  0  # atno 10718 bound_to 10713
  154.7762  135.3160  154.8086 H   0  0  0  0  0  0  0  0  0  0  0  0  # atno 10763 bound_to 10752
  153.8809  135.6835  153.4771 H   0  0  0  0  0  0  0  0  0  0  0  0  # atno 10764 bound_to 10752
  153.1387  135.4748  154.9398 H   0  0  0  0  0  0  0  0  0  0  0  0  # atno 10765 bound_to 10752
  141.1604  133.7561  156.9431 H   0  0  0  0  0  0  0  0  0  0  0  0  # atno 11005 bound_to 11000
  144.7559  140.5307  143.6769 LP  0  0  0  0  0  0  0  0  0  0  0  0  # atno 17320 bound_to 7965
  145.5551  139.1477  143.3372 LP  0  0  0  0  0  0  0  0  0  0  0  0  # atno 17321 bound_to 7965
  140.1169  144.5407  150.6888 LP  0  0  0  0  0  0  0  0  0  0  0  0  # atno 17342 bound_to 10162
  140.6997  143.2426  151.4900 LP  0  0  0  0  0  0  0  0  0  0  0  0  # atno 17343 bound_to 10162
  156.6148  130.8602  151.3462 LP  0  0  0  0  0  0  0  0  0  0  0  0  # atno 17370 bound_to 10713
  157.7227  130.9580  150.1506 LP  0  0  0  0  0  0  0  0  0  0  0  0  # atno 17371 bound_to 10713
  140.1308  134.9357  157.2334 LP  0  0  0  0  0  0  0  0  0  0  0  0  # atno 17394 bound_to 11000
  140.2955  134.3191  155.7303 LP  0  0  0  0  0  0  0  0  0  0  0  0  # atno 17395 bound_to 11000

$$$$
