#       Name:                AV-unprocessed.smi:17
#       Creating user name   scv26
#       Creation time:       Thu Mar 26 15:24:39 2020


#       File generated by GOLD software.
#

@<TRIPOS>MOLECULE
AV-unprocessed.smi:17
    64    66     1
SMALL
NO_CHARGES


@<TRIPOS>ATOM
      1 ****        -3.7008  -3.5044   0.7150 C.3            1 S1                 0.0000
      2 ****        -3.7621  -2.5727  -0.5036 C.3            1 S1                 0.0000
      3 ****        -3.0494  -1.3119  -0.2775 N.pl3          1 S1                 0.0000
      4 ****        -1.6921  -1.3327  -0.1764 C.ar           1 S1                 0.0000
      5 ****        -1.0016  -2.1873  -0.9772 N.ar           1 S1                 0.0000
      6 ****         0.3324  -2.2321  -0.9360 C.ar           1 S1                 0.0000
      7 ****         1.1665  -1.5254  -0.1733 N.ar           1 S1                 0.0000
      8 ****         0.4836  -0.6797   0.6492 C.ar           1 S1                 0.0000
      9 ****        -0.9308  -0.5243   0.7199 C.ar           1 S1                 0.0000
     10 ****        -1.2462   0.4094   1.7025 N.2            1 S1                 0.0000
     11 ****        -0.0901   0.8014   2.1622 C.2            1 S1                 0.0000
     12 ****         1.0023   0.2044   1.5776 N.pl3          1 S1                 0.0000
     13 ****         2.4000   0.4468   1.8852 C.3            1 S1                 0.0000
     14 ****         3.1604   1.2175   0.7728 C.3            1 S1                 0.0000
     15 ****         2.5230   2.5989   0.4733 C.3            1 S1                 0.0000
     16 ****         1.3564   2.4826  -0.3157 O.3            1 S1                 0.0000
     17 ****         4.6612   1.3615   1.1378 C.3            1 S1                 0.0000
     18 ****         5.5324   1.9546   0.0358 C.3            1 S1                 0.0000
     19 ****         6.9263   1.3790   0.2984 C.3            1 S1                 0.0000
     20 ****         6.7637   0.3881   1.3051 O.3            1 S1                 0.0000
     21 ****         5.3920   0.0404   1.3871 C.3            1 S1                 0.0000
     22 ****        -3.7759  -0.0437  -0.1455 C.3            1 S1                 0.0000
     23 ****        -4.7033  -0.0615   1.0807 C.3            1 S1                 0.0000
     24 ****        -4.5350   0.3489  -1.4317 C.3            1 S1                 0.0000
     25 ****        -3.4120   0.8053  -2.8325 S.o2           1 S1                 0.0000
     26 ****        -3.1728  -0.8006  -3.6991 C.3            1 S1                 0.0000
     27 ****        -4.1572   1.6894  -3.7411 O.2            1 S1                 0.0000
     28 ****        -2.1119   1.2371  -2.2963 O.2            1 S1                 0.0000
     29 ****        -4.2667  -4.4174   0.5305 H              1 S1                 0.0000
     30 ****        -4.1220  -3.0257   1.5994 H              1 S1                 0.0000
     31 ****        -2.6753  -3.7934   0.9458 H              1 S1                 0.0000
     32 ****        -3.3680  -3.0809  -1.3839 H              1 S1                 0.0000
     33 ****        -4.8077  -2.3653  -0.7284 H              1 S1                 0.0000
     34 ****         0.7980  -2.9332  -1.6126 H              1 S1                 0.0000
     35 ****        -0.0024   1.5457   2.9402 H              1 S1                 0.0000
     36 ****         2.4586   0.9923   2.8278 H              1 S1                 0.0000
     37 ****         2.8561  -0.5265   2.0639 H              1 S1                 0.0000
     38 ****         3.1136   0.6235  -0.1414 H              1 S1                 0.0000
     39 ****         2.2896   3.1279   1.3978 H              1 S1                 0.0000
     40 ****         3.2048   3.2366  -0.0873 H              1 S1                 0.0000
     41 ****         1.0218   3.3489  -0.4909 H              1 S1                 0.0000
     42 ****         4.7613   1.9804   2.0311 H              1 S1                 0.0000
     43 ****         5.1837   1.6278  -0.9449 H              1 S1                 0.0000
     44 ****         5.5332   3.0450   0.0432 H              1 S1                 0.0000
     45 ****         7.3417   0.9330  -0.6059 H              1 S1                 0.0000
     46 ****         7.6202   2.1430   0.6496 H              1 S1                 0.0000
     47 ****         5.1648  -0.3962   2.3597 H              1 S1                 0.0000
     48 ****         5.1559  -0.6935   0.6146 H              1 S1                 0.0000
     49 ****        -3.0675   0.7643   0.0228 H              1 S1                 0.0000
     50 ****        -5.1769   0.9094   1.2267 H              1 S1                 0.0000
     51 ****        -4.1463  -0.2933   1.9890 H              1 S1                 0.0000
     52 ****        -5.4960  -0.8025   0.9775 H              1 S1                 0.0000
     53 ****        -5.2285  -0.4207  -1.7679 H              1 S1                 0.0000
     54 ****        -5.1349   1.2360  -1.2267 H              1 S1                 0.0000
     55 ****        -2.5847  -0.6368  -4.6016 H              1 S1                 0.0000
     56 ****        -4.1412  -1.2187  -3.9717 H              1 S1                 0.0000
     57 ****        -2.6429  -1.4986  -3.0556 H              1 S1                 0.0000
     58 ****        -1.4978  -2.7885  -1.6035 LP             1 S1                 0.0000
     59 ****         2.1629  -1.6052  -0.2009 LP             1 S1                 0.0000
     60 ****        -2.1547   0.7117   1.9912 LP             1 S1                 0.0000
     61 ****         0.6686   1.9494   0.1770 LP             1 S1                 0.0000
     62 ****         1.5772   2.0264  -1.1777 LP             1 S1                 0.0000
     63 ****         7.0719   0.7494   2.1852 LP             1 S1                 0.0000
     64 ****         7.3020  -0.4212   1.0701 LP             1 S1                 0.0000
@<TRIPOS>BOND
    1    1    2 1     
    2    1   29 1     
    3    1   30 1     
    4    1   31 1     
    5    2    3 1     
    6    2   32 1     
    7    2   33 1     
    8    3    4 1     
    9    3   22 1     
   10    4    9 ar    
   11    4    5 ar    
   12    5    6 ar    
   13    6    7 ar    
   14    6   34 1     
   15    7    8 ar    
   16    8   12 1     
   17    8    9 ar    
   18    9   10 1     
   19   10   11 2     
   20   11   12 1     
   21   11   35 1     
   22   12   13 1     
   23   13   14 1     
   24   13   36 1     
   25   13   37 1     
   26   14   15 1     
   27   14   17 1     
   28   14   38 1     
   29   15   16 1     
   30   15   39 1     
   31   15   40 1     
   32   16   41 1     
   33   17   21 1     
   34   17   18 1     
   35   17   42 1     
   36   18   19 1     
   37   18   43 1     
   38   18   44 1     
   39   19   20 1     
   40   19   45 1     
   41   19   46 1     
   42   20   21 1     
   43   21   47 1     
   44   21   48 1     
   45   22   23 1     
   46   22   24 1     
   47   22   49 1     
   48   23   50 1     
   49   23   51 1     
   50   23   52 1     
   51   24   25 1     
   52   24   53 1     
   53   24   54 1     
   54   25   26 1     
   55   25   27 2     
   56   25   28 2     
   57   26   55 1     
   58   26   56 1     
   59   26   57 1     
   60    5   58 1     
   61    7   59 1     
   62   10   60 1     
   63   16   61 1     
   64   16   62 1     
   65   20   63 1     
   66   20   64 1     
@<TRIPOS>SUBSTRUCTURE
      1 S1             1
@<TRIPOS>SET
LONE_PAIRS      STATIC     ATOMS    <user>   **** ""
9 58 59 60 61 62 63 64 27 28
DONOR_HYDROGENS      STATIC     ATOMS    <user>   **** ""
1 41
ATOM$BLUE        STATIC     ATOMS    COLORGROUP SYSTEM
9 58 59 60 61 62 63 64 27 28
ATOM$RED        STATIC     ATOMS    COLORGROUP SYSTEM
1 41
