AV-unprocessed.smi:2620|AV-procd|sdf|10224|dock2
  -GOLD-   2272014233D 1   1.00000     0.00000
 Structure written by MMmdl.
 35 36  0  0  0  0  0  0  0  0  2 V2000
  148.2866  133.3652  153.1169 C   0  0  0  0  0  0  0  0  0  0  0  0
  149.4321  133.3980  153.9502 O   0  0  0  0  0  0  0  0  0  0  0  0
  149.5463  134.6151  154.6673 C   0  0  0  0  0  0  0  0  0  0  0  0
  150.4983  134.4045  155.8539 C   0  0  0  0  0  0  0  0  0  0  0  0
  150.4297  135.5250  156.8011 N   0  0  0  0  0  0  0  0  0  0  0  0
  149.2740  135.6103  157.6011 C   0  0  0  0  0  0  0  0  0  0  0  0
  149.0970  136.5920  158.5053 C   0  0  0  0  0  0  0  0  0  0  0  0
  147.8581  136.6490  159.3191 C   0  0  0  0  0  0  0  0  0  0  0  0
  146.9833  137.4848  159.0860 O   0  0  0  0  0  0  0  0  0  0  0  0
  147.6922  135.6451  160.4133 C   0  0  0  0  0  0  0  0  0  0  0  0
  147.8116  134.2692  160.1036 C   0  0  0  0  0  0  0  0  0  0  0  0
  147.6506  133.2896  161.1013 C   0  0  0  0  0  0  0  0  0  0  0  0
  147.3677  133.6740  162.4238 C   0  0  0  0  0  0  0  0  0  0  0  0
  147.2491  135.0381  162.7468 C   0  0  0  0  0  0  0  0  0  0  0  0
  147.4098  136.0260  161.7535 C   0  0  0  0  0  0  0  0  0  0  0  0
  147.3059  137.3369  162.1314 O   0  5  0  0  0  0  0  0  0  0  0  0
  150.1427  137.5896  158.6275 C   0  0  0  0  0  0  0  0  0  0  0  0
  151.2461  137.5197  157.8568 C   0  0  0  0  0  0  0  0  0  0  0  0
  152.2816  138.4944  157.9545 C   0  0  0  0  0  0  0  0  0  0  0  0
  153.1337  139.2752  158.0185 N   0  0  0  0  0  0  0  0  0  0  0  0
  151.4388  136.4451  156.8729 C   0  0  0  0  0  0  0  0  0  0  0  0
  152.4373  136.3725  156.1542 O   0  0  0  0  0  0  0  0  0  0  0  0
  148.2433  132.4115  152.5910 H   0  0  0  0  0  0  0  0  0  0  0  0
  148.3188  134.1600  152.3705 H   0  0  0  0  0  0  0  0  0  0  0  0
  147.3709  133.4695  153.7002 H   0  0  0  0  0  0  0  0  0  0  0  0
  149.9261  135.3995  154.0104 H   0  0  0  0  0  0  0  0  0  0  0  0
  148.5646  134.9303  155.0247 H   0  0  0  0  0  0  0  0  0  0  0  0
  150.2484  133.4704  156.3594 H   0  0  0  0  0  0  0  0  0  0  0  0
  151.5187  134.2647  155.4927 H   0  0  0  0  0  0  0  0  0  0  0  0
  148.5482  134.8281  157.4265 H   0  0  0  0  0  0  0  0  0  0  0  0
  148.0195  133.9531  159.0916 H   0  0  0  0  0  0  0  0  0  0  0  0
  147.7410  132.2431  160.8509 H   0  0  0  0  0  0  0  0  0  0  0  0
  147.2425  132.9242  163.1907 H   0  0  0  0  0  0  0  0  0  0  0  0
  147.0364  135.3263  163.7662 H   0  0  0  0  0  0  0  0  0  0  0  0
  150.0415  138.4066  159.3276 H   0  0  0  0  0  0  0  0  0  0  0  0
  1  2  1  0  0  0  0
  1 23  1  0  0  0  0
  1 24  1  0  0  0  0
  1 25  1  0  0  0  0
  2  3  1  0  0  0  0
  3  4  1  0  0  0  0
  3 26  1  0  0  0  0
  3 27  1  0  0  0  0
  4  5  1  0  0  0  0
  4 28  1  0  0  0  0
  4 29  1  0  0  0  0
  5 21  1  0  0  0  0
  5  6  1  0  0  0  0
  6  7  2  0  0  0  0
  6 30  1  0  0  0  0
  7  8  1  0  0  0  0
  7 17  1  0  0  0  0
  8  9  2  0  0  0  0
  8 10  1  0  0  0  0
 10 15  1  0  0  0  0
 10 11  2  0  0  0  0
 11 12  1  0  0  0  0
 11 31  1  0  0  0  0
 12 13  2  0  0  0  0
 12 32  1  0  0  0  0
 13 14  1  0  0  0  0
 13 33  1  0  0  0  0
 14 15  2  0  0  0  0
 14 34  1  0  0  0  0
 15 16  1  0  0  0  0
 17 18  2  0  0  0  0
 17 35  1  0  0  0  0
 18 19  1  0  0  0  0
 18 21  1  0  0  0  0
 19 20  3  0  0  0  0
 21 22  2  0  0  0  0
M  CHG  1  16  -1
M  END
> <s_m_source_file>
AV-unprocessed.smi

> <i_m_source_file_index>
2620

> <i_lp_mmshare_version>
43012

> <i_f3d_flags>
0

> <s_epik_input>
W0NIM11PW0NIMl1bQ0gyXW4xW2NIXWMoW2NIXWMoQyNOKWMxPU8pQyg9TyljMltjSF1bY0hdW2NIXVtjSF1jMltPSF0=

> <s_epik_cmdline>
J2VwaWtfcHl0aG9uJywgJy1waCcsICc3LjAnLCAnLXRuJywgJzgnLCAnLW1hJywgJzIwMCcsICctbWV0YWxfYmluZGluZycsICctaW1hZScsICc8aW5maWxlLm1hZT4nLCAnLW9tYWUnLCAnPG91dGZpbGUubWFlPic=

> <r_epik_Ionization_Penalty>
0.694682

> <r_epik_Ionization_Penalty_Charging>
0.694682

> <r_epik_Ionization_Penalty_Neutral>
1.08437e-11

> <r_epik_State_Penalty>
0.716871

> <r_epik_Charging_Adjusted_Penalty>
1.41155

> <i_epik_Tot_Q>
-1

> <i_epik_Tot_abs_Q>
1

> <r_epik_Metal_State_Penalty>
0.716871

> <b_epik_Metal_Only>
0

> <s_lp_Force_Field>
OPLS_2005

> <r_lp_Energy>
23.3851

> <b_lp_Chiralities_Consistent>
1

> <s_lp_Variant>
AV-unprocessed.smi:2620-2

> <Gold.Version>
5.8.1

> <Gold.Id.Protein>
6NUR|6NUR_protein|mol2

> <Gold.PLP.Fitness>
48.7340

> <Gold.PLP.PLP>
-37.7558

> <Gold.PLP.part.hbond>
-4.3412

> <Gold.PLP.part.metal>
0.0000

> <Gold.PLP.part.buried>
-5.0923

> <Gold.PLP.part.nonpolar>
-28.8166

> <Gold.PLP.part.repulsive>
0.1503

> <Gold.PLP.ligand.clash>
0.0000

> <Gold.PLP.ligand.torsion>
2.6462

> <Gold.PLP.Chemscore.Hbond>
4.8480

> <Gold.PLP.Chemscore.CHOScore>
0.0000

> <Gold.PLP.Chemscore.Metal>
0.0000

> <Gold.Chemscore.Hbonds>
donor molecule, donor type, donor heavy atom, donor atom, acceptor molecule, acceptor atom, score
      P1  H  6931  6943       L1    16  1.57
      P1  H  6934  6947       L1    16  1.22
      P1  H  7997  8010       L1    20  1.00
      P1  H 10752 10765       L1    22  1.00

> <Gold.PLP.Chemscore.Internal.Correction>
1.7265

> <Gold.Rescore>
     Score         DG    S(hbond)    S(metal)    S(lipo)     H(rot)  DE(clash)    DE(int)     intcor
     19.65     -22.85       3.72        0.00      73.89       1.44       0.04       3.17       ----

> <Gold.Chemscore.Fitness>
19.6522

> <Gold.Chemscore.DG>
-22.8550

> <Gold.Chemscore.ZeroCoef>
-5.4800

> <Gold.Chemscore.Hbond>
3.7153

> <Gold.Chemscore.Metal>
0.0000

> <Gold.Chemscore.Lipo>
73.8929

> <Gold.Chemscore.Internal_Hbond>
0.0000

> <Gold.Chemscore.DEClash>
0.0351

> <Gold.Chemscore.DEInternal>
3.1677

> <Gold.Chemscore.Rot>
1.4374

> <Gold.Chemscore.Internal.Correction>
   9.000000E+99

> <Gold.Chemscore.Hbonds>
donor molecule, donor type, donor heavy atom, donor atom, acceptor molecule, acceptor atom, score
      P1  H  6931  6943       L1    16  0.60
      P1  H  6934  6947       L1    16  0.58
      P1  H  7997  8010       L1    20  0.99
      P1  H 10752 10765       L1    22  0.97

> <Gold.Chemscore.Hbond.Weighted>
-12.4093

> <Gold.Chemscore.Metal.Weighted>
-0.0000

> <Gold.Chemscore.Lipo.Weighted>
-8.6455

> <Gold.Chemscore.Internal_Hbond.Weighted>
0.0000

> <Gold.Chemscore.DEClash.Weighted>
0.0351

> <Gold.Chemscore.DEInternal.Weighted>
3.1677

> <Gold.Chemscore.Rot.Weighted>
3.6797

> <Gold.Chemscore.Internal.Correction.Weighted>
   9.000000E+99

> <Gold.Protein.RotatedTorsions>
[ 6907 6896 6895 6894 ] final   91.86 input  -60.11 | X-H torsion
[ 7974 7965 7964 7962 ] final    7.03 input  175.53 | X-H torsion
[ 8008 7997 7996 7995 ] final   30.17 input   59.86 | X-H torsion
[ 10167 10162 10161 10158 ] final  -69.77 input  -65.29 | X-H torsion
[ 10718 10713 10712 10709 ] final -115.76 input   66.30 | X-H torsion
[ 10763 10752 10751 10750 ] final -151.13 input  -60.55 | X-H torsion
[ 11005 11000 10999 10996 ] final  -63.76 input  -57.11 | X-H torsion

> <Gold.Protein.ActiveResidues>
 VAL166  LYS551  ARG553  GLY616  TRP617  ASP618  TYR619  PRO620  LYS621  CYS622 
 ASP623  PHE694  ASN695  SER759  ASP760  ASP761  ALA762  ILE779  LEU786  VAL792 
 PHE793  MET794  SER795  GLU796  ALA797  LYS798  CYS799  TRP800  GLU811  SER814 

> <Gold.Protein.RotatedAtoms>
  152.5451  134.1592  159.8550 H   0  0  0  0  0  0  0  0  0  0  0  0  # atno 6907 bound_to 6896
  151.1612  133.4837  159.2602 H   0  0  0  0  0  0  0  0  0  0  0  0  # atno 6908 bound_to 6896
  151.1371  135.0171  159.8664 H   0  0  0  0  0  0  0  0  0  0  0  0  # atno 6909 bound_to 6896
  146.2430  140.0144  142.8403 H   0  0  0  0  0  0  0  0  0  0  0  0  # atno 7974 bound_to 7965
  155.0862  140.3215  155.4587 H   0  0  0  0  0  0  0  0  0  0  0  0  # atno 8008 bound_to 7997
  156.2754  140.2086  156.5936 H   0  0  0  0  0  0  0  0  0  0  0  0  # atno 8009 bound_to 7997
  154.6939  140.0513  157.0378 H   0  0  0  0  0  0  0  0  0  0  0  0  # atno 8010 bound_to 7997
  140.5405  143.2315  151.7098 H   0  0  0  0  0  0  0  0  0  0  0  0  # atno 10167 bound_to 10162
  156.0917  130.6098  150.8948 H   0  0  0  0  0  0  0  0  0  0  0  0  # atno 10718 bound_to 10713
  154.8076  135.3267  154.7389 H   0  0  0  0  0  0  0  0  0  0  0  0  # atno 10763 bound_to 10752
  153.8045  135.6901  153.4855 H   0  0  0  0  0  0  0  0  0  0  0  0  # atno 10764 bound_to 10752
  153.1833  135.4578  155.0001 H   0  0  0  0  0  0  0  0  0  0  0  0  # atno 10765 bound_to 10752
  141.1403  133.6656  156.5730 H   0  0  0  0  0  0  0  0  0  0  0  0  # atno 11005 bound_to 11000
  145.1298  140.9511  143.4551 LP  0  0  0  0  0  0  0  0  0  0  0  0  # atno 17320 bound_to 7965
  145.0399  139.3269  143.5982 LP  0  0  0  0  0  0  0  0  0  0  0  0  # atno 17321 bound_to 7965
  139.4987  144.3976  152.0215 LP  0  0  0  0  0  0  0  0  0  0  0  0  # atno 17342 bound_to 10162
  140.3085  144.3565  150.6040 LP  0  0  0  0  0  0  0  0  0  0  0  0  # atno 17343 bound_to 10162
  157.6068  131.0938  150.8864 LP  0  0  0  0  0  0  0  0  0  0  0  0  # atno 17370 bound_to 10713
  156.9011  130.5247  149.5283 LP  0  0  0  0  0  0  0  0  0  0  0  0  # atno 17371 bound_to 10713
  140.3898  134.7450  157.4714 LP  0  0  0  0  0  0  0  0  0  0  0  0  # atno 17394 bound_to 11000
  140.0575  134.6043  155.8788 LP  0  0  0  0  0  0  0  0  0  0  0  0  # atno 17395 bound_to 11000

$$$$
