AV-unprocessed.smi:213|AV-procd|sdf|1639|dock10
  -GOLD-   2262020 03D 1   1.00000     0.00000
 Structure written by MMmdl.
 59 62  0  0  0  0  0  0  0  0  2 V2000
  145.8409  136.9119  150.4248 C   0  0  0  0  0  0  0  0  0  0  0  0
  145.4192  136.3668  151.7991 C   0  0  2  0  0  0  0  0  0  0  0  0
  144.1598  135.4736  151.6890 C   0  0  0  0  0  0  0  0  0  0  0  0
  144.3727  134.2688  150.8470 N   0  3  0  0  0  0  0  0  0  0  0  0
  144.0071  133.0086  151.5333 C   0  0  0  0  0  0  0  0  0  0  0  0
  144.3442  131.8026  150.6404 C   0  0  0  0  0  0  0  0  0  0  0  0
  143.6736  131.9283  149.3920 O   0  0  0  0  0  0  0  0  0  0  0  0
  144.0738  133.0967  148.6861 C   0  0  0  0  0  0  0  0  0  0  0  0
  143.7237  134.3434  149.5153 C   0  0  0  0  0  0  0  0  0  0  0  0
  145.2602  137.4494  152.7820 N   0  0  0  0  0  0  0  0  0  0  0  0
  143.9432  137.7086  153.3629 C   0  0  0  0  0  0  0  0  0  0  0  0
  146.3391  137.7227  153.5627 C   0  0  0  0  0  0  0  0  0  0  0  0
  146.9210  136.7169  154.2707 N   0  0  0  0  0  0  0  0  0  0  0  0
  148.0103  136.9502  155.0080 C   0  0  0  0  0  0  0  0  0  0  0  0
  148.6763  138.0941  155.1712 N   0  0  0  0  0  0  0  0  0  0  0  0
  148.0916  139.1105  154.4752 C   0  0  0  0  0  0  0  0  0  0  0  0
  146.9316  139.0143  153.6557 C   0  0  0  0  0  0  0  0  0  0  0  0
  146.6334  140.2592  153.1136 N   0  0  0  0  0  0  0  0  0  0  0  0
  147.5631  141.0450  153.5842 C   0  0  0  0  0  0  0  0  0  0  0  0
  148.4805  140.4363  154.4093 N   0  0  0  0  0  0  0  0  0  0  0  0
  149.6064  141.0700  155.0721 C   0  0  0  0  0  0  0  0  0  0  0  0
  150.5622  140.0447  155.7135 C   0  0  1  0  0  0  0  0  0  0  0  0
  151.3575  139.4137  154.7275 O   0  0  0  0  0  0  0  0  0  0  0  0
  151.4534  140.6620  156.8104 C   0  0  1  0  0  0  0  0  0  0  0  0
  150.7279  141.3166  157.9901 C   0  0  0  0  0  0  0  0  0  0  0  0
  151.7850  141.2381  159.0686 C   0  0  0  0  0  0  0  0  0  0  0  0
  152.4183  139.8786  158.7845 C   0  0  0  0  0  0  0  0  0  0  0  0
  152.3456  139.7020  157.3724 O   0  0  0  0  0  0  0  0  0  0  0  0
  146.0726  136.0962  149.7397 H   0  0  0  0  0  0  0  0  0  0  0  0
  146.7341  137.5321  150.5071 H   0  0  0  0  0  0  0  0  0  0  0  0
  145.0571  137.5111  149.9614 H   0  0  0  0  0  0  0  0  0  0  0  0
  146.2384  135.7238  152.1133 H   0  0  0  0  0  0  0  0  0  0  0  0
  143.8685  135.1601  152.6926 H   0  0  0  0  0  0  0  0  0  0  0  0
  143.3181  136.0455  151.2957 H   0  0  0  0  0  0  0  0  0  0  0  0
  144.5502  132.9276  152.4756 H   0  0  0  0  0  0  0  0  0  0  0  0
  142.9426  133.0157  151.7734 H   0  0  0  0  0  0  0  0  0  0  0  0
  145.4212  131.7254  150.4816 H   0  0  0  0  0  0  0  0  0  0  0  0
  144.0256  130.8780  151.1221 H   0  0  0  0  0  0  0  0  0  0  0  0
  145.1429  133.0592  148.4712 H   0  0  0  0  0  0  0  0  0  0  0  0
  143.5578  133.1254  147.7263 H   0  0  0  0  0  0  0  0  0  0  0  0
  142.6423  134.4207  149.6365 H   0  0  0  0  0  0  0  0  0  0  0  0
  144.0495  135.2334  148.9781 H   0  0  0  0  0  0  0  0  0  0  0  0
  143.9227  138.6831  153.8526 H   0  0  0  0  0  0  0  0  0  0  0  0
  143.6867  136.9480  154.1011 H   0  0  0  0  0  0  0  0  0  0  0  0
  143.1663  137.7140  152.5996 H   0  0  0  0  0  0  0  0  0  0  0  0
  148.4096  136.0977  155.5379 H   0  0  0  0  0  0  0  0  0  0  0  0
  147.6037  142.0977  153.3438 H   0  0  0  0  0  0  0  0  0  0  0  0
  150.1344  141.6877  154.3444 H   0  0  0  0  0  0  0  0  0  0  0  0
  149.2180  141.7487  155.8325 H   0  0  0  0  0  0  0  0  0  0  0  0
  149.9628  139.2585  156.1745 H   0  0  0  0  0  0  0  0  0  0  0  0
  151.9010  138.7675  155.1524 H   0  0  0  0  0  0  0  0  0  0  0  0
  152.0872  141.4213  156.3494 H   0  0  0  0  0  0  0  0  0  0  0  0
  150.4066  142.3367  157.7787 H   0  0  0  0  0  0  0  0  0  0  0  0
  149.8533  140.7420  158.2968 H   0  0  0  0  0  0  0  0  0  0  0  0
  152.5198  142.0324  158.9320 H   0  0  0  0  0  0  0  0  0  0  0  0
  151.3775  141.3167  160.0767 H   0  0  0  0  0  0  0  0  0  0  0  0
  153.4454  139.8128  159.1432 H   0  0  0  0  0  0  0  0  0  0  0  0
  151.8415  139.0852  159.2615 H   0  0  0  0  0  0  0  0  0  0  0  0
  145.3685  134.2152  150.6830 H   0  0  0  0  0  0  0  0  0  0  0  0
  1  2  1  0  0  0  0
  1 29  1  0  0  0  0
  1 30  1  0  0  0  0
  1 31  1  0  0  0  0
  2  3  1  0  0  0  0
  2 10  1  0  0  0  0
  2 32  1  0  0  0  0
  3  4  1  0  0  0  0
  3 33  1  0  0  0  0
  3 34  1  0  0  0  0
  4  9  1  0  0  0  0
  4  5  1  0  0  0  0
  4 59  1  0  0  0  0
  5  6  1  0  0  0  0
  5 35  1  0  0  0  0
  5 36  1  0  0  0  0
  6  7  1  0  0  0  0
  6 37  1  0  0  0  0
  6 38  1  0  0  0  0
  7  8  1  0  0  0  0
  8  9  1  0  0  0  0
  8 39  1  0  0  0  0
  8 40  1  0  0  0  0
  9 41  1  0  0  0  0
  9 42  1  0  0  0  0
 10 11  1  0  0  0  0
 10 12  1  0  0  0  0
 11 43  1  0  0  0  0
 11 44  1  0  0  0  0
 11 45  1  0  0  0  0
 12 17  1  0  0  0  0
 12 13  2  0  0  0  0
 13 14  1  0  0  0  0
 14 15  2  0  0  0  0
 14 46  1  0  0  0  0
 15 16  1  0  0  0  0
 16 20  1  0  0  0  0
 16 17  2  0  0  0  0
 17 18  1  0  0  0  0
 18 19  2  0  0  0  0
 19 20  1  0  0  0  0
 19 47  1  0  0  0  0
 20 21  1  0  0  0  0
 21 22  1  0  0  0  0
 21 48  1  0  0  0  0
 21 49  1  0  0  0  0
 22 23  1  0  0  0  0
 22 24  1  0  0  0  0
 22 50  1  0  0  0  0
 23 51  1  0  0  0  0
 24 28  1  0  0  0  0
 24 25  1  0  0  0  0
 24 52  1  0  0  0  0
 25 26  1  0  0  0  0
 25 53  1  0  0  0  0
 25 54  1  0  0  0  0
 26 27  1  0  0  0  0
 26 55  1  0  0  0  0
 26 56  1  0  0  0  0
 27 28  1  0  0  0  0
 27 57  1  0  0  0  0
 27 58  1  0  0  0  0
M  CHG  1   4   1
M  END
> <s_m_source_file>
AV-unprocessed.smi

> <i_m_source_file_index>
213

> <i_lp_mmshare_version>
43012

> <i_f3d_flags>
0

> <s_epik_input>
W0NIMl0xW0NIMl1PW0NIMl1bQ0gyXU4xW0NIMl1bQ0BASF0oW0NIM10pTihbQ0gzXSljKG5bY0hdbjIpYyhjMjMpbltjSF1uM1tDSDJdW0NASF0oW09IXSlbQ0BASF00W0NIMl1bQ0gyXVtDSDJdTzQ=

> <s_epik_cmdline>
J2VwaWtfcHl0aG9uJywgJy1waCcsICc3LjAnLCAnLXRuJywgJzgnLCAnLW1hJywgJzIwMCcsICctbWV0YWxfYmluZGluZycsICctaW1hZScsICc8aW5maWxlLm1hZT4nLCAnLW9tYWUnLCAnPG91dGZpbGUubWFlPic=

> <r_lp_tautomer_probability>
1

> <r_epik_Ionization_Penalty>
0.399679

> <r_epik_Ionization_Penalty_Charging>
0.399433

> <r_epik_Ionization_Penalty_Neutral>
0.000246213

> <r_epik_State_Penalty>
0.286032

> <r_epik_Charging_Adjusted_Penalty>
0.685465

> <i_epik_Tot_Q>
1

> <i_epik_Tot_abs_Q>
1

> <r_epik_Metal_State_Penalty>
0.286072

> <b_epik_Metal_Only>
0

> <s_lp_Force_Field>
OPLS_2005

> <r_lp_Energy>
47.0923

> <b_lp_Chiralities_Consistent>
1

> <s_lp_Variant>
AV-unprocessed.smi:213-7

> <Gold.Version>
5.8.1

> <Gold.Id.Protein>
6NUR|6NUR_protein|mol2

> <Gold.PLP.Fitness>
44.5074

> <Gold.PLP.PLP>
-39.8402

> <Gold.PLP.part.hbond>
-3.0000

> <Gold.PLP.part.metal>
0.0000

> <Gold.PLP.part.buried>
2.1780

> <Gold.PLP.part.nonpolar>
-39.3880

> <Gold.PLP.part.repulsive>
0.9813

> <Gold.PLP.ligand.clash>
0.0000

> <Gold.PLP.ligand.torsion>
2.5873

> <Gold.PLP.Chemscore.Hbond>
2.8480

> <Gold.PLP.Chemscore.CHOScore>
0.0000

> <Gold.PLP.Chemscore.Metal>
0.0000

> <Gold.Chemscore.Hbonds>
donor molecule, donor type, donor heavy atom, donor atom, acceptor molecule, acceptor atom, score
      P1  H  7989  7998       L1    23  1.00
      P1  H  7997  8010       L1    28  0.60
      P1  H 10785 10796       L1     7  0.90

> <Gold.PLP.Chemscore.Internal.Correction>
1.2978

> <Gold.Rescore>
     Score         DG    S(hbond)    S(metal)    S(lipo)     H(rot)  DE(clash)    DE(int)     intcor
     11.57     -16.07       1.97        0.00      96.03       2.83       0.45       4.05       ----

> <Gold.Chemscore.Fitness>
11.5668

> <Gold.Chemscore.DG>
-16.0737

> <Gold.Chemscore.ZeroCoef>
-5.4800

> <Gold.Chemscore.Hbond>
1.9734

> <Gold.Chemscore.Metal>
0.0000

> <Gold.Chemscore.Lipo>
96.0310

> <Gold.Chemscore.Internal_Hbond>
0.0000

> <Gold.Chemscore.DEClash>
0.4540

> <Gold.Chemscore.DEInternal>
4.0530

> <Gold.Chemscore.Rot>
2.8254

> <Gold.Chemscore.Internal.Correction>
   9.000000E+99

> <Gold.Chemscore.Hbonds>
donor molecule, donor type, donor heavy atom, donor atom, acceptor molecule, acceptor atom, score
      P1  H  7989  7998       L1    23  0.35
      P1  H  7997  8010       L1    28  0.21
      P1  H 10785 10796       L1     7  0.61

> <Gold.Chemscore.Hbond.Weighted>
-6.5911

> <Gold.Chemscore.Metal.Weighted>
-0.0000

> <Gold.Chemscore.Lipo.Weighted>
-11.2356

> <Gold.Chemscore.Internal_Hbond.Weighted>
0.0000

> <Gold.Chemscore.DEClash.Weighted>
0.4540

> <Gold.Chemscore.DEInternal.Weighted>
4.0530

> <Gold.Chemscore.Rot.Weighted>
7.2330

> <Gold.Chemscore.Internal.Correction.Weighted>
   9.000000E+99

> <Gold.Protein.RotatedTorsions>
[ 6907 6896 6895 6894 ] final  161.99 input  -60.11 | X-H torsion
[ 7974 7965 7964 7962 ] final   79.80 input  175.53 | X-H torsion
[ 8008 7997 7996 7995 ] final   60.37 input   59.86 | X-H torsion
[ 10167 10162 10161 10158 ] final  143.97 input  -65.29 | X-H torsion
[ 10718 10713 10712 10709 ] final  -52.23 input   66.30 | X-H torsion
[ 10763 10752 10751 10750 ] final -131.19 input  -60.55 | X-H torsion
[ 11005 11000 10999 10996 ] final   76.26 input  -57.11 | X-H torsion

> <Gold.Protein.ActiveResidues>
 VAL166  LYS551  ARG553  GLY616  TRP617  ASP618  TYR619  PRO620  LYS621  CYS622 
 ASP623  PHE694  ASN695  SER759  ASP760  ASP761  ALA762  ILE779  LEU786  VAL792 
 PHE793  MET794  SER795  GLU796  ALA797  LYS798  CYS799  TRP800  GLU811  SER814 

> <Gold.Protein.RotatedAtoms>
  151.9472  133.3655  159.3986 H   0  0  0  0  0  0  0  0  0  0  0  0  # atno 6907 bound_to 6896
  150.6987  134.4378  159.5287 H   0  0  0  0  0  0  0  0  0  0  0  0  # atno 6908 bound_to 6896
  152.2045  134.8558  160.0555 H   0  0  0  0  0  0  0  0  0  0  0  0  # atno 6909 bound_to 6896
  145.6595  139.2468  143.1930 H   0  0  0  0  0  0  0  0  0  0  0  0  # atno 7974 bound_to 7965
  155.5813  140.3491  155.4541 H   0  0  0  0  0  0  0  0  0  0  0  0  # atno 8008 bound_to 7997
  156.0371  140.1287  157.0221 H   0  0  0  0  0  0  0  0  0  0  0  0  # atno 8009 bound_to 7997
  154.4376  140.1031  156.6169 H   0  0  0  0  0  0  0  0  0  0  0  0  # atno 8010 bound_to 7997
  139.4957  144.6004  151.6494 H   0  0  0  0  0  0  0  0  0  0  0  0  # atno 10167 bound_to 10162
  156.1639  130.4149  149.9750 H   0  0  0  0  0  0  0  0  0  0  0  0  # atno 10718 bound_to 10713
  154.8752  135.3838  154.4205 H   0  0  0  0  0  0  0  0  0  0  0  0  # atno 10763 bound_to 10752
  153.4909  135.7030  153.5890 H   0  0  0  0  0  0  0  0  0  0  0  0  # atno 10764 bound_to 10752
  153.4264  135.3889  155.2110 H   0  0  0  0  0  0  0  0  0  0  0  0  # atno 10765 bound_to 10752
  139.9306  134.7586  156.1374 H   0  0  0  0  0  0  0  0  0  0  0  0  # atno 11005 bound_to 11000
  146.1137  140.7397  142.9491 LP  0  0  0  0  0  0  0  0  0  0  0  0  # atno 17320 bound_to 7965
  144.7094  140.3980  143.7092 LP  0  0  0  0  0  0  0  0  0  0  0  0  # atno 17321 bound_to 7965
  140.5652  144.0202  150.6189 LP  0  0  0  0  0  0  0  0  0  0  0  0  # atno 17342 bound_to 10162
  140.3301  143.3083  152.0696 LP  0  0  0  0  0  0  0  0  0  0  0  0  # atno 17343 bound_to 10162
  156.7570  130.9137  151.3640 LP  0  0  0  0  0  0  0  0  0  0  0  0  # atno 17370 bound_to 10713
  157.6753  130.9089  150.0137 LP  0  0  0  0  0  0  0  0  0  0  0  0  # atno 17371 bound_to 10713
  141.0892  133.6721  156.2503 LP  0  0  0  0  0  0  0  0  0  0  0  0  # atno 17394 bound_to 11000
  140.6213  134.5359  157.5548 LP  0  0  0  0  0  0  0  0  0  0  0  0  # atno 17395 bound_to 11000

$$$$
