AV-unprocessed.smi:258|AV-procd|sdf|1971|dock6
  -GOLD-   2262021133D 1   1.00000     0.00000
 Structure written by MMmdl.
 57 60  0  0  0  0  0  0  0  0  1 V2000
  146.3473  133.0314  150.4923 O   0  0  0  0  0  0  0  0  0  0  0  0
  146.2858  132.7101  151.8656 C   0  0  0  0  0  0  0  0  0  0  0  0
  147.6854  132.3695  152.3915 C   0  0  0  0  0  0  0  0  0  0  0  0
  148.0375  133.3045  153.4011 O   0  0  0  0  0  0  0  0  0  0  0  0
  149.3806  133.7664  153.3380 C   0  0  2  0  0  0  0  0  0  0  0  0
  150.3640  132.6790  153.8156 C   0  0  0  0  0  0  0  0  0  0  0  0
  151.7892  133.2465  153.8903 C   0  0  0  0  0  0  0  0  0  0  0  0
  151.8377  134.4981  154.7803 C   0  0  0  0  0  0  0  0  0  0  0  0
  150.8575  135.4886  154.3398 N   0  0  0  0  0  0  0  0  0  0  0  0
  151.0044  136.7782  154.7403 C   0  0  0  0  0  0  0  0  0  0  0  0
  151.2757  137.6988  153.7782 N   0  0  0  0  0  0  0  0  0  0  0  0
  151.4353  138.9867  154.0943 C   0  0  0  0  0  0  0  0  0  0  0  0
  151.3636  139.5656  155.2932 N   0  0  0  0  0  0  0  0  0  0  0  0
  151.0878  138.6513  156.2660 C   0  0  0  0  0  0  0  0  0  0  0  0
  150.8989  137.2501  156.0844 C   0  0  0  0  0  0  0  0  0  0  0  0
  150.6305  136.6566  157.3145 N   0  0  0  0  0  0  0  0  0  0  0  0
  150.6630  137.6434  158.1672 C   0  0  0  0  0  0  0  0  0  0  0  0
  150.9215  138.8784  157.6201 N   0  0  0  0  0  0  0  0  0  0  0  0
  151.0015  140.1454  158.3246 C   0  0  0  0  0  0  0  0  0  0  0  0
  151.4100  141.3359  157.4202 C   0  0  1  0  0  0  0  0  0  0  0  0
  150.2063  141.9584  156.6654 C   0  0  0  0  0  0  0  0  0  0  0  0
  149.1562  142.2964  157.5479 O   0  0  0  0  0  0  0  0  0  0  0  0
  152.2251  142.3621  158.2497 C   0  0  1  0  0  0  0  0  0  0  0  0
  151.4900  143.0427  159.3902 C   0  0  0  0  0  0  0  0  0  0  0  0
  152.6464  143.6583  160.1729 C   0  0  0  0  0  0  0  0  0  0  0  0
  153.7525  142.7767  159.9948 O   0  0  0  0  0  0  0  0  0  0  0  0
  153.4737  141.8346  158.9623 C   0  0  0  0  0  0  0  0  0  0  0  0
  149.4773  135.0102  154.2395 C   0  0  0  0  0  0  0  0  0  0  0  0
  146.9268  132.4188  150.0664 H   0  0  0  0  0  0  0  0  0  0  0  0
  145.8960  133.5825  152.3909 H   0  0  0  0  0  0  0  0  0  0  0  0
  145.5866  131.8909  152.0362 H   0  0  0  0  0  0  0  0  0  0  0  0
  147.7257  131.3401  152.7483 H   0  0  0  0  0  0  0  0  0  0  0  0
  148.4023  132.4564  151.5738 H   0  0  0  0  0  0  0  0  0  0  0  0
  149.6256  134.0648  152.3168 H   0  0  0  0  0  0  0  0  0  0  0  0
  150.0628  132.3153  154.7989 H   0  0  0  0  0  0  0  0  0  0  0  0
  150.3510  131.8190  153.1465 H   0  0  0  0  0  0  0  0  0  0  0  0
  152.4744  132.4902  154.2735 H   0  0  0  0  0  0  0  0  0  0  0  0
  152.1348  133.4988  152.8870 H   0  0  0  0  0  0  0  0  0  0  0  0
  151.6290  134.2221  155.8145 H   0  0  0  0  0  0  0  0  0  0  0  0
  152.8419  134.9227  154.7498 H   0  0  0  0  0  0  0  0  0  0  0  0
  151.6498  139.6480  153.2677 H   0  0  0  0  0  0  0  0  0  0  0  0
  150.4856  137.4983  159.2228 H   0  0  0  0  0  0  0  0  0  0  0  0
  150.0355  140.3409  158.7916 H   0  0  0  0  0  0  0  0  0  0  0  0
  151.7178  140.0253  159.1384 H   0  0  0  0  0  0  0  0  0  0  0  0
  152.1017  140.9501  156.6697 H   0  0  0  0  0  0  0  0  0  0  0  0
  150.5121  142.8477  156.1138 H   0  0  0  0  0  0  0  0  0  0  0  0
  149.7876  141.2680  155.9360 H   0  0  0  0  0  0  0  0  0  0  0  0
  148.7350  143.0802  157.2293 H   0  0  0  0  0  0  0  0  0  0  0  0
  152.5446  143.1595  157.5764 H   0  0  0  0  0  0  0  0  0  0  0  0
  150.7693  143.7865  159.0494 H   0  0  0  0  0  0  0  0  0  0  0  0
  150.9645  142.3275  160.0209 H   0  0  0  0  0  0  0  0  0  0  0  0
  152.9096  144.6319  159.7576 H   0  0  0  0  0  0  0  0  0  0  0  0
  152.4101  143.7944  161.2284 H   0  0  0  0  0  0  0  0  0  0  0  0
  153.2924  140.8685  159.4326 H   0  0  0  0  0  0  0  0  0  0  0  0
  154.3231  141.7260  158.2880 H   0  0  0  0  0  0  0  0  0  0  0  0
  148.8125  135.7823  153.8512 H   0  0  0  0  0  0  0  0  0  0  0  0
  149.1231  134.7701  155.2430 H   0  0  0  0  0  0  0  0  0  0  0  0
  1  2  1  0  0  0  0
  1 29  1  0  0  0  0
  2  3  1  0  0  0  0
  2 30  1  0  0  0  0
  2 31  1  0  0  0  0
  3  4  1  0  0  0  0
  3 32  1  0  0  0  0
  3 33  1  0  0  0  0
  4  5  1  0  0  0  0
  5 28  1  0  0  0  0
  5  6  1  0  0  0  0
  5 34  1  0  0  0  0
  6  7  1  0  0  0  0
  6 35  1  0  0  0  0
  6 36  1  0  0  0  0
  7  8  1  0  0  0  0
  7 37  1  0  0  0  0
  7 38  1  0  0  0  0
  8  9  1  0  0  0  0
  8 39  1  0  0  0  0
  8 40  1  0  0  0  0
  9 10  1  0  0  0  0
  9 28  1  0  0  0  0
 10 15  1  0  0  0  0
 10 11  2  0  0  0  0
 11 12  1  0  0  0  0
 12 13  2  0  0  0  0
 12 41  1  0  0  0  0
 13 14  1  0  0  0  0
 14 18  1  0  0  0  0
 14 15  2  0  0  0  0
 15 16  1  0  0  0  0
 16 17  2  0  0  0  0
 17 18  1  0  0  0  0
 17 42  1  0  0  0  0
 18 19  1  0  0  0  0
 19 20  1  0  0  0  0
 19 43  1  0  0  0  0
 19 44  1  0  0  0  0
 20 21  1  0  0  0  0
 20 23  1  0  0  0  0
 20 45  1  0  0  0  0
 21 22  1  0  0  0  0
 21 46  1  0  0  0  0
 21 47  1  0  0  0  0
 22 48  1  0  0  0  0
 23 27  1  0  0  0  0
 23 24  1  0  0  0  0
 23 49  1  0  0  0  0
 24 25  1  0  0  0  0
 24 50  1  0  0  0  0
 24 51  1  0  0  0  0
 25 26  1  0  0  0  0
 25 52  1  0  0  0  0
 25 53  1  0  0  0  0
 26 27  1  0  0  0  0
 27 54  1  0  0  0  0
 27 55  1  0  0  0  0
 28 56  1  0  0  0  0
 28 57  1  0  0  0  0
M  END
> <s_m_source_file>
AV-unprocessed.smi

> <i_m_source_file_index>
258

> <i_lp_mmshare_version>
43012

> <i_f3d_flags>
0

> <s_epik_input>
W09IXVtDSDJdW0NIMl1PW0NAQEhdMVtDSDJdW0NIMl1bQ0gyXU4oW0NIMl0xKWMobltjSF1uMiljKGMyMyluW2NIXW4zW0NIMl1bQ0BIXShbQ0gyXVtPSF0pW0NAQEhdNFtDSDJdW0NIMl1PW0NIMl00

> <s_epik_cmdline>
J2VwaWtfcHl0aG9uJywgJy1waCcsICc3LjAnLCAnLXRuJywgJzgnLCAnLW1hJywgJzIwMCcsICctbWV0YWxfYmluZGluZycsICctaW1hZScsICc8aW5maWxlLm1hZT4nLCAnLW9tYWUnLCAnPG91dGZpbGUubWFlPic=

> <r_lp_tautomer_probability>
1

> <r_epik_Ionization_Penalty>
0.00349036

> <r_epik_Ionization_Penalty_Charging>
0

> <r_epik_Ionization_Penalty_Neutral>
0.00349036

> <r_epik_State_Penalty>
0.00229798

> <r_epik_Charging_Adjusted_Penalty>
0.00229798

> <i_epik_Tot_Q>
0

> <i_epik_Tot_abs_Q>
0

> <r_epik_Metal_State_Penalty>
-0

> <b_epik_Metal_Only>
0

> <s_lp_Force_Field>
OPLS_2005

> <r_lp_Energy>
47.622

> <b_lp_Chiralities_Consistent>
1

> <s_lp_Variant>
AV-unprocessed.smi:258-7

> <Gold.Version>
5.8.1

> <Gold.Id.Protein>
6NUR|6NUR_protein|mol2

> <Gold.PLP.Fitness>
51.9038

> <Gold.PLP.PLP>
-44.9398

> <Gold.PLP.part.hbond>
-3.0000

> <Gold.PLP.part.metal>
0.0000

> <Gold.PLP.part.buried>
-9.4937

> <Gold.PLP.part.nonpolar>
-34.1525

> <Gold.PLP.part.repulsive>
0.3165

> <Gold.PLP.ligand.clash>
0.0000

> <Gold.PLP.ligand.torsion>
1.4804

> <Gold.PLP.Chemscore.Hbond>
3.0000

> <Gold.PLP.Chemscore.CHOScore>
0.0000

> <Gold.PLP.Chemscore.Metal>
0.0000

> <Gold.Chemscore.Hbonds>
donor molecule, donor type, donor heavy atom, donor atom, acceptor molecule, acceptor atom, score
      L1  H    22    48       P1  8028  0.37

> <Gold.PLP.Chemscore.Internal.Correction>
0.9248

> <Gold.Rescore>
     Score         DG    S(hbond)    S(metal)    S(lipo)     H(rot)  DE(clash)    DE(int)     intcor
     12.14     -15.16       2.74        0.00      96.92       4.22       0.00       3.02       ----

> <Gold.Chemscore.Fitness>
12.1396

> <Gold.Chemscore.DG>
-15.1628

> <Gold.Chemscore.ZeroCoef>
-5.4800

> <Gold.Chemscore.Hbond>
2.7420

> <Gold.Chemscore.Metal>
0.0000

> <Gold.Chemscore.Lipo>
96.9161

> <Gold.Chemscore.Internal_Hbond>
0.0000

> <Gold.Chemscore.DEClash>
0.0000

> <Gold.Chemscore.DEInternal>
3.0232

> <Gold.Chemscore.Rot>
4.2246

> <Gold.Chemscore.Internal.Correction>
   9.000000E+99

> <Gold.Chemscore.Hbonds>
donor molecule, donor type, donor heavy atom, donor atom, acceptor molecule, acceptor atom, score
      L1  H    22    48       P1  8028  0.18

> <Gold.Chemscore.Hbond.Weighted>
-9.1584

> <Gold.Chemscore.Metal.Weighted>
-0.0000

> <Gold.Chemscore.Lipo.Weighted>
-11.3392

> <Gold.Chemscore.Internal_Hbond.Weighted>
0.0000

> <Gold.Chemscore.DEClash.Weighted>
0.0000

> <Gold.Chemscore.DEInternal.Weighted>
3.0232

> <Gold.Chemscore.Rot.Weighted>
10.8149

> <Gold.Chemscore.Internal.Correction.Weighted>
   9.000000E+99

> <Gold.Protein.RotatedTorsions>
[ 6907 6896 6895 6894 ] final -133.02 input  -60.11 | X-H torsion
[ 7974 7965 7964 7962 ] final   79.66 input  175.53 | X-H torsion
[ 8008 7997 7996 7995 ] final  -27.57 input   59.86 | X-H torsion
[ 10167 10162 10161 10158 ] final -107.39 input  -65.29 | X-H torsion
[ 10718 10713 10712 10709 ] final -121.41 input   66.30 | X-H torsion
[ 10763 10752 10751 10750 ] final  -56.95 input  -60.55 | X-H torsion
[ 11005 11000 10999 10996 ] final   20.65 input  -57.11 | X-H torsion

> <Gold.Protein.ActiveResidues>
 VAL166  LYS551  ARG553  GLY616  TRP617  ASP618  TYR619  PRO620  LYS621  CYS622 
 ASP623  PHE694  ASN695  SER759  ASP760  ASP761  ALA762  ILE779  LEU786  VAL792 
 PHE793  MET794  SER795  GLU796  ALA797  LYS798  CYS799  TRP800  GLU811  SER814 

> <Gold.Protein.RotatedAtoms>
  150.9691  133.6363  159.2740 H   0  0  0  0  0  0  0  0  0  0  0  0  # atno 6907 bound_to 6896
  151.3658  135.0912  159.9459 H   0  0  0  0  0  0  0  0  0  0  0  0  # atno 6908 bound_to 6896
  152.5176  133.9255  159.7610 H   0  0  0  0  0  0  0  0  0  0  0  0  # atno 6909 bound_to 6896
  145.6614  139.2472  143.1921 H   0  0  0  0  0  0  0  0  0  0  0  0  # atno 7974 bound_to 7965
  154.4371  140.1868  156.0953 H   0  0  0  0  0  0  0  0  0  0  0  0  # atno 8008 bound_to 7997
  156.0334  140.3328  155.7138 H   0  0  0  0  0  0  0  0  0  0  0  0  # atno 8009 bound_to 7997
  155.5806  140.0621  157.2775 H   0  0  0  0  0  0  0  0  0  0  0  0  # atno 8010 bound_to 7997
  140.1775  143.3993  152.1307 H   0  0  0  0  0  0  0  0  0  0  0  0  # atno 10167 bound_to 10162
  156.1335  130.6413  150.9660 H   0  0  0  0  0  0  0  0  0  0  0  0  # atno 10718 bound_to 10713
  154.2147  135.6388  153.5126 H   0  0  0  0  0  0  0  0  0  0  0  0  # atno 10763 bound_to 10752
  152.9982  135.5482  154.6178 H   0  0  0  0  0  0  0  0  0  0  0  0  # atno 10764 bound_to 10752
  154.5623  135.2910  155.0881 H   0  0  0  0  0  0  0  0  0  0  0  0  # atno 10765 bound_to 10752
  140.4002  134.1726  155.7664 H   0  0  0  0  0  0  0  0  0  0  0  0  # atno 11005 bound_to 11000
  146.1122  140.7414  142.9497 LP  0  0  0  0  0  0  0  0  0  0  0  0  # atno 17320 bound_to 7965
  144.7088  140.3958  143.7097 LP  0  0  0  0  0  0  0  0  0  0  0  0  # atno 17321 bound_to 7965
  139.5311  144.7159  151.5054 LP  0  0  0  0  0  0  0  0  0  0  0  0  # atno 17342 bound_to 10162
  140.6542  143.8634  150.6817 LP  0  0  0  0  0  0  0  0  0  0  0  0  # atno 17343 bound_to 10162
  157.6511  131.0897  150.8049 LP  0  0  0  0  0  0  0  0  0  0  0  0  # atno 17370 bound_to 10713
  156.8131  130.4959  149.5353 LP  0  0  0  0  0  0  0  0  0  0  0  0  # atno 17371 bound_to 10713
  141.1859  133.8313  157.1087 LP  0  0  0  0  0  0  0  0  0  0  0  0  # atno 17394 bound_to 11000
  140.0342  134.9886  157.0838 LP  0  0  0  0  0  0  0  0  0  0  0  0  # atno 17395 bound_to 11000

$$$$
