AV-unprocessed.smi:3308|AV-procd|sdf|12710|dock1
  -GOLD-   2272019 43D 1   1.00000     0.00000
 Structure written by MMmdl.
 41 42  0  0  0  0  0  0  0  0  2 V2000
  152.8457  140.1112  159.3929 C   0  0  0  0  0  0  0  0  0  0  0  0
  152.1322  141.2544  158.6548 C   0  0  2  0  0  0  0  0  0  0  0  0
  151.9305  140.8900  157.2336 N   0  3  0  0  0  0  0  0  0  0  0  0
  150.6871  141.4107  156.6253 C   0  0  0  0  0  0  0  0  0  0  0  0
  150.2695  140.6154  155.3807 C   0  0  0  0  0  0  0  0  0  0  0  0
  151.0668  139.8331  154.8607 O   0  0  0  0  0  0  0  0  0  0  0  0
  149.0279  140.8078  154.8904 N   0  0  0  0  0  0  0  0  0  0  0  0
  148.0643  141.7412  155.4706 C   0  0  0  0  0  0  0  0  0  0  0  0
  146.9265  141.8452  154.4548 C   0  0  0  0  0  0  0  0  0  0  0  0
  146.9812  140.5262  153.6966 C   0  0  0  0  0  0  0  0  0  0  0  0
  148.4601  140.1378  153.7205 C   0  0  0  0  0  0  0  0  0  0  0  0
  152.8638  142.6149  158.7979 C   0  0  1  0  0  0  0  0  0  0  0  0
  152.1884  143.7779  158.0396 C   0  0  0  0  0  0  0  0  0  0  0  0
  153.0997  142.9445  160.2000 N   0  0  0  0  0  0  0  0  0  0  0  0
  152.7129  144.0817  160.8791 C   0  0  0  0  0  0  0  0  0  0  0  0
  153.1911  143.9817  162.1541 C   0  0  0  0  0  0  0  0  0  0  0  0
  153.8796  142.7372  162.1606 C   0  0  0  0  0  0  0  0  0  0  0  0
  153.8325  142.1244  160.9892 N   0  0  0  0  0  0  0  0  0  0  0  0
  153.0137  140.3635  160.4404 H   0  0  0  0  0  0  0  0  0  0  0  0
  153.8122  139.8783  158.9458 H   0  0  0  0  0  0  0  0  0  0  0  0
  152.2473  139.1999  159.3691 H   0  0  0  0  0  0  0  0  0  0  0  0
  151.1544  141.3575  159.1293 H   0  0  0  0  0  0  0  0  0  0  0  0
  152.7144  141.2448  156.7036 H   0  0  0  0  0  0  0  0  0  0  0  0
  149.8908  141.3764  157.3696 H   0  0  0  0  0  0  0  0  0  0  0  0
  150.8317  142.4536  156.3416 H   0  0  0  0  0  0  0  0  0  0  0  0
  147.6995  141.3334  156.4145 H   0  0  0  0  0  0  0  0  0  0  0  0
  148.5059  142.7187  155.6713 H   0  0  0  0  0  0  0  0  0  0  0  0
  145.9577  142.0255  154.9213 H   0  0  0  0  0  0  0  0  0  0  0  0
  147.1244  142.6687  153.7674 H   0  0  0  0  0  0  0  0  0  0  0  0
  146.3968  139.7752  154.2301 H   0  0  0  0  0  0  0  0  0  0  0  0
  146.5811  140.6033  152.6853 H   0  0  0  0  0  0  0  0  0  0  0  0
  148.9625  140.4993  152.8223 H   0  0  0  0  0  0  0  0  0  0  0  0
  148.5773  139.0542  153.7656 H   0  0  0  0  0  0  0  0  0  0  0  0
  153.8525  142.4936  158.3524 H   0  0  0  0  0  0  0  0  0  0  0  0
  152.1665  143.5960  156.9655 H   0  0  0  0  0  0  0  0  0  0  0  0
  152.7346  144.7093  158.1936 H   0  0  0  0  0  0  0  0  0  0  0  0
  151.1616  143.9412  158.3682 H   0  0  0  0  0  0  0  0  0  0  0  0
  152.1350  144.8607  160.4039 H   0  0  0  0  0  0  0  0  0  0  0  0
  153.0701  144.6914  162.9592 H   0  0  0  0  0  0  0  0  0  0  0  0
  154.4130  142.2673  162.9735 H   0  0  0  0  0  0  0  0  0  0  0  0
  151.9226  139.8833  157.1527 H   0  0  0  0  0  0  0  0  0  0  0  0
  1  2  1  0  0  0  0
  1 19  1  0  0  0  0
  1 20  1  0  0  0  0
  1 21  1  0  0  0  0
  2  3  1  0  0  0  0
  2 12  1  0  0  0  0
  2 22  1  0  0  0  0
  3  4  1  0  0  0  0
  3 23  1  0  0  0  0
  3 41  1  0  0  0  0
  4  5  1  0  0  0  0
  4 24  1  0  0  0  0
  4 25  1  0  0  0  0
  5  6  2  0  0  0  0
  5  7  1  0  0  0  0
  7 11  1  0  0  0  0
  7  8  1  0  0  0  0
  8  9  1  0  0  0  0
  8 26  1  0  0  0  0
  8 27  1  0  0  0  0
  9 10  1  0  0  0  0
  9 28  1  0  0  0  0
  9 29  1  0  0  0  0
 10 11  1  0  0  0  0
 10 30  1  0  0  0  0
 10 31  1  0  0  0  0
 11 32  1  0  0  0  0
 11 33  1  0  0  0  0
 12 13  1  0  0  0  0
 12 14  1  0  0  0  0
 12 34  1  0  0  0  0
 13 35  1  0  0  0  0
 13 36  1  0  0  0  0
 13 37  1  0  0  0  0
 14 18  1  0  0  0  0
 14 15  1  0  0  0  0
 15 16  2  0  0  0  0
 15 38  1  0  0  0  0
 16 17  1  0  0  0  0
 16 39  1  0  0  0  0
 17 18  2  0  0  0  0
 17 40  1  0  0  0  0
M  CHG  1   3   1
M  END
> <s_m_source_file>
AV-unprocessed.smi

> <i_m_source_file_index>
3308

> <i_lp_mmshare_version>
43012

> <i_f3d_flags>
0

> <s_epik_input>
bjFbY0hdW2NIXVtjSF1uMVtDQEBIXShbQ0gzXSlbQ0BIXShbQ0gzXSlbTkhdW0NIMl1DKD1PKU4yW0NIMl1bQ0gyXVtDSDJdW0NIMl0y

> <s_epik_cmdline>
J2VwaWtfcHl0aG9uJywgJy1waCcsICc3LjAnLCAnLXRuJywgJzgnLCAnLW1hJywgJzIwMCcsICctbWV0YWxfYmluZGluZycsICctaW1hZScsICc8aW5maWxlLm1hZT4nLCAnLW9tYWUnLCAnPG91dGZpbGUubWFlPic=

> <r_lp_tautomer_probability>
1

> <r_epik_Ionization_Penalty>
0.141739

> <r_epik_Ionization_Penalty_Charging>
0.141731

> <r_epik_Ionization_Penalty_Neutral>
8.82171e-06

> <r_epik_State_Penalty>
0.131043

> <r_epik_Charging_Adjusted_Penalty>
0.272773

> <i_epik_Tot_Q>
1

> <i_epik_Tot_abs_Q>
1

> <r_epik_Metal_State_Penalty>
0.131385

> <b_epik_Metal_Only>
0

> <s_lp_Force_Field>
OPLS_2005

> <r_lp_Energy>
34.1001

> <b_lp_Chiralities_Consistent>
1

> <s_lp_Variant>
AV-unprocessed.smi:3308-3

> <Gold.Version>
5.8.1

> <Gold.Id.Protein>
6NUR|6NUR_protein|mol2

> <Gold.PLP.Fitness>
46.0781

> <Gold.PLP.PLP>
-44.2738

> <Gold.PLP.part.hbond>
-1.0000

> <Gold.PLP.part.metal>
0.0000

> <Gold.PLP.part.buried>
1.0627

> <Gold.PLP.part.nonpolar>
-43.9487

> <Gold.PLP.part.repulsive>
0.1719

> <Gold.PLP.ligand.clash>
0.0000

> <Gold.PLP.ligand.torsion>
0.7240

> <Gold.PLP.Chemscore.Hbond>
1.0000

> <Gold.PLP.Chemscore.CHOScore>
0.0000

> <Gold.PLP.Chemscore.Metal>
0.0000

> <Gold.Chemscore.Hbonds>
donor molecule, donor type, donor heavy atom, donor atom, acceptor molecule, acceptor atom, score
      P1  H  7989  7998       L1     6  0.95

> <Gold.PLP.Chemscore.Internal.Correction>
0.2525

> <Gold.Rescore>
     Score         DG    S(hbond)    S(metal)    S(lipo)     H(rot)  DE(clash)    DE(int)     intcor
     13.53     -15.90       0.98        0.00     100.09       1.78       0.04       2.34       ----

> <Gold.Chemscore.Fitness>
13.5271

> <Gold.Chemscore.DG>
-15.9047

> <Gold.Chemscore.ZeroCoef>
-5.4800

> <Gold.Chemscore.Hbond>
0.9820

> <Gold.Chemscore.Metal>
0.0000

> <Gold.Chemscore.Lipo>
100.0938

> <Gold.Chemscore.Internal_Hbond>
0.0000

> <Gold.Chemscore.DEClash>
0.0406

> <Gold.Chemscore.DEInternal>
2.3370

> <Gold.Chemscore.Rot>
1.7836

> <Gold.Chemscore.Internal.Correction>
   9.000000E+99

> <Gold.Chemscore.Hbonds>
donor molecule, donor type, donor heavy atom, donor atom, acceptor molecule, acceptor atom, score
      P1  H  7989  7998       L1     6  0.22

> <Gold.Chemscore.Hbond.Weighted>
-3.2798

> <Gold.Chemscore.Metal.Weighted>
-0.0000

> <Gold.Chemscore.Lipo.Weighted>
-11.7110

> <Gold.Chemscore.Internal_Hbond.Weighted>
0.0000

> <Gold.Chemscore.DEClash.Weighted>
0.0406

> <Gold.Chemscore.DEInternal.Weighted>
2.3370

> <Gold.Chemscore.Rot.Weighted>
4.5660

> <Gold.Chemscore.Internal.Correction.Weighted>
   9.000000E+99

> <Gold.Protein.RotatedTorsions>
[ 6907 6896 6895 6894 ] final   58.27 input  -60.11 | X-H torsion
[ 7974 7965 7964 7962 ] final -133.45 input  175.53 | X-H torsion
[ 8008 7997 7996 7995 ] final  -81.37 input   59.86 | X-H torsion
[ 10167 10162 10161 10158 ] final -155.15 input  -65.29 | X-H torsion
[ 10718 10713 10712 10709 ] final  152.06 input   66.30 | X-H torsion
[ 10763 10752 10751 10750 ] final  -72.87 input  -60.55 | X-H torsion
[ 11005 11000 10999 10996 ] final    3.71 input  -57.11 | X-H torsion

> <Gold.Protein.ActiveResidues>
 VAL166  LYS551  ARG553  GLY616  TRP617  ASP618  TYR619  PRO620  LYS621  CYS622 
 ASP623  PHE694  ASN695  SER759  ASP760  ASP761  ALA762  ILE779  LEU786  VAL792 
 PHE793  MET794  SER795  GLU796  ALA797  LYS798  CYS799  TRP800  GLU811  SER814 

> <Gold.Protein.RotatedAtoms>
  152.3808  134.6593  160.0143 H   0  0  0  0  0  0  0  0  0  0  0  0  # atno 6907 bound_to 6896
  151.6856  133.3306  159.3238 H   0  0  0  0  0  0  0  0  0  0  0  0  # atno 6908 bound_to 6896
  150.7746  134.6679  159.6420 H   0  0  0  0  0  0  0  0  0  0  0  0  # atno 6909 bound_to 6896
  144.9192  140.6992  143.4976 H   0  0  0  0  0  0  0  0  0  0  0  0  # atno 7974 bound_to 7965
  154.5976  140.0649  156.9325 H   0  0  0  0  0  0  0  0  0  0  0  0  # atno 8008 bound_to 7997
  155.2187  140.3328  155.4300 H   0  0  0  0  0  0  0  0  0  0  0  0  # atno 8009 bound_to 7997
  156.2297  140.1835  156.7257 H   0  0  0  0  0  0  0  0  0  0  0  0  # atno 8010 bound_to 7997
  139.6955  143.9350  152.2405 H   0  0  0  0  0  0  0  0  0  0  0  0  # atno 10167 bound_to 10162
  157.2627  131.0801  151.1654 H   0  0  0  0  0  0  0  0  0  0  0  0  # atno 10718 bound_to 10713
  154.4516  135.5916  153.6196 H   0  0  0  0  0  0  0  0  0  0  0  0  # atno 10763 bound_to 10752
  152.9814  135.6022  154.3597 H   0  0  0  0  0  0  0  0  0  0  0  0  # atno 10764 bound_to 10752
  154.3459  135.2841  155.2377 H   0  0  0  0  0  0  0  0  0  0  0  0  # atno 10765 bound_to 10752
  140.5900  133.9933  155.8085 H   0  0  0  0  0  0  0  0  0  0  0  0  # atno 11005 bound_to 11000
  145.3325  139.1755  143.4529 LP  0  0  0  0  0  0  0  0  0  0  0  0  # atno 17320 bound_to 7965
  146.3196  140.3356  142.8644 LP  0  0  0  0  0  0  0  0  0  0  0  0  # atno 17321 bound_to 7965
  139.9178  144.6818  150.8494 LP  0  0  0  0  0  0  0  0  0  0  0  0  # atno 17342 bound_to 10162
  140.7695  143.3397  151.2234 LP  0  0  0  0  0  0  0  0  0  0  0  0  # atno 17343 bound_to 10162
  157.3157  130.6912  149.6241 LP  0  0  0  0  0  0  0  0  0  0  0  0  # atno 17370 bound_to 10713
  155.9664  130.4350  150.5073 LP  0  0  0  0  0  0  0  0  0  0  0  0  # atno 17371 bound_to 10713
  141.0941  133.9871  157.3189 LP  0  0  0  0  0  0  0  0  0  0  0  0  # atno 17394 bound_to 11000
  139.9278  135.0201  156.8296 LP  0  0  0  0  0  0  0  0  0  0  0  0  # atno 17395 bound_to 11000

$$$$
