AV-unprocessed.smi:1604|AV-procd|sdf|6447|dock5
  -GOLD-   22720 7103D 1   1.00000     0.00000
 Structure written by MMmdl.
 46 48  0  0  0  0  0  0  0  0  1 V2000
  150.8977  139.7542  157.2344 O   0  0  0  0  0  0  0  0  0  0  0  0
  150.6421  140.9019  157.5999 C   0  0  0  0  0  0  0  0  0  0  0  0
  151.3017  141.5746  158.5572 N   0  0  0  0  0  0  0  0  0  0  0  0
  152.4346  141.1456  159.3034 C   0  0  0  0  0  0  0  0  0  0  0  0
  152.8051  139.7800  159.3605 C   0  0  0  0  0  0  0  0  0  0  0  0
  153.8893  139.3927  160.1665 C   0  0  0  0  0  0  0  0  0  0  0  0
  154.5576  140.3850  160.9024 C   0  0  0  0  0  0  0  0  0  0  0  0
  154.2086  141.6866  160.8695 N   0  0  0  0  0  0  0  0  0  0  0  0
  153.1741  142.0787  160.0855 C   0  0  0  0  0  0  0  0  0  0  0  0
  152.8664  143.4589  160.0772 N   0  0  0  0  0  0  0  0  0  0  0  0
  151.8365  143.9372  160.9957 C   0  0  0  0  0  0  0  0  0  0  0  0
  151.0711  145.0389  160.2549 C   0  0  0  0  0  0  0  0  0  0  0  0
  152.0451  145.4875  159.1698 C   0  0  0  0  0  0  0  0  0  0  0  0
  152.7588  144.1859  158.8165 C   0  0  0  0  0  0  0  0  0  0  0  0
  149.6692  141.6538  157.0663 N   0  0  0  0  0  0  0  0  0  0  0  0
  148.7573  141.2418  155.9998 C   0  0  2  0  0  0  0  0  0  0  0  0
  147.7045  140.2400  156.5403 C   0  0  0  0  0  0  0  0  0  0  0  0
  147.0765  139.2887  155.5005 C   0  0  0  0  0  0  0  0  0  0  0  0
  146.4597  139.9717  154.2634 C   0  0  0  0  0  0  0  0  0  0  0  0
  147.3850  140.9100  153.4519 C   0  0  0  0  0  0  0  0  0  0  0  0
  148.8130  140.6329  153.6049 N   0  0  0  0  0  0  0  0  0  0  0  0
  149.5172  140.7844  154.7398 C   0  0  0  0  0  0  0  0  0  0  0  0
  150.7234  140.5456  154.7830 O   0  0  0  0  0  0  0  0  0  0  0  0
  151.0410  142.5417  158.6833 H   0  0  0  0  0  0  0  0  0  0  0  0
  152.2601  139.0222  158.8184 H   0  0  0  0  0  0  0  0  0  0  0  0
  154.1917  138.3579  160.2289 H   0  0  0  0  0  0  0  0  0  0  0  0
  155.3900  140.1270  161.5402 H   0  0  0  0  0  0  0  0  0  0  0  0
  151.1688  143.1371  161.3190 H   0  0  0  0  0  0  0  0  0  0  0  0
  152.3200  144.3525  161.8802 H   0  0  0  0  0  0  0  0  0  0  0  0
  150.1780  144.6178  159.7914 H   0  0  0  0  0  0  0  0  0  0  0  0
  150.7578  145.8517  160.9105 H   0  0  0  0  0  0  0  0  0  0  0  0
  151.5510  145.9475  158.3139 H   0  0  0  0  0  0  0  0  0  0  0  0
  152.7564  146.2059  159.5797 H   0  0  0  0  0  0  0  0  0  0  0  0
  153.7397  144.3667  158.3760 H   0  0  0  0  0  0  0  0  0  0  0  0
  152.1569  143.6282  158.0979 H   0  0  0  0  0  0  0  0  0  0  0  0
  149.5343  142.5848  157.4331 H   0  0  0  0  0  0  0  0  0  0  0  0
  148.2242  142.1439  155.6964 H   0  0  0  0  0  0  0  0  0  0  0  0
  148.1598  139.6206  157.3144 H   0  0  0  0  0  0  0  0  0  0  0  0
  146.9121  140.7979  157.0409 H   0  0  0  0  0  0  0  0  0  0  0  0
  147.8235  138.5628  155.1763 H   0  0  0  0  0  0  0  0  0  0  0  0
  146.3049  138.6963  155.9928 H   0  0  0  0  0  0  0  0  0  0  0  0
  146.1032  139.1839  153.5987 H   0  0  0  0  0  0  0  0  0  0  0  0
  145.5683  140.5255  154.5599 H   0  0  0  0  0  0  0  0  0  0  0  0
  147.1338  140.8404  152.3932 H   0  0  0  0  0  0  0  0  0  0  0  0
  147.1934  141.9487  153.7230 H   0  0  0  0  0  0  0  0  0  0  0  0
  149.3076  140.3186  152.7826 H   0  0  0  0  0  0  0  0  0  0  0  0
  1  2  2  0  0  0  0
  2  3  1  0  0  0  0
  2 15  1  0  0  0  0
  3  4  1  0  0  0  0
  3 24  1  0  0  0  0
  4  9  1  0  0  0  0
  4  5  2  0  0  0  0
  5  6  1  0  0  0  0
  5 25  1  0  0  0  0
  6  7  2  0  0  0  0
  6 26  1  0  0  0  0
  7  8  1  0  0  0  0
  7 27  1  0  0  0  0
  8  9  2  0  0  0  0
  9 10  1  0  0  0  0
 10 14  1  0  0  0  0
 10 11  1  0  0  0  0
 11 12  1  0  0  0  0
 11 28  1  0  0  0  0
 11 29  1  0  0  0  0
 12 13  1  0  0  0  0
 12 30  1  0  0  0  0
 12 31  1  0  0  0  0
 13 14  1  0  0  0  0
 13 32  1  0  0  0  0
 13 33  1  0  0  0  0
 14 34  1  0  0  0  0
 14 35  1  0  0  0  0
 15 16  1  0  0  0  0
 15 36  1  0  0  0  0
 16 22  1  0  0  0  0
 16 17  1  0  0  0  0
 16 37  1  0  0  0  0
 17 18  1  0  0  0  0
 17 38  1  0  0  0  0
 17 39  1  0  0  0  0
 18 19  1  0  0  0  0
 18 40  1  0  0  0  0
 18 41  1  0  0  0  0
 19 20  1  0  0  0  0
 19 42  1  0  0  0  0
 19 43  1  0  0  0  0
 20 21  1  0  0  0  0
 20 44  1  0  0  0  0
 20 45  1  0  0  0  0
 21 22  1  0  0  0  0
 21 46  1  0  0  0  0
 22 23  2  0  0  0  0
M  END
> <s_m_source_file>
AV-unprocessed.smi

> <i_m_source_file_index>
1604

> <i_lp_mmshare_version>
43012

> <i_f3d_flags>
0

> <s_epik_input>
Tz1DMVtOSF1bQ0gyXVtDSDJdW0NIMl1bQ0gyXVtDQEhdMVtOSF1DKD1PKVtOSF1jMltjSF1bY0hdW2NIXW5jMk4zW0NIMl1bQ0gyXVtDSDJdW0NIMl0z

> <s_epik_cmdline>
J2VwaWtfcHl0aG9uJywgJy1waCcsICc3LjAnLCAnLXRuJywgJzgnLCAnLW1hJywgJzIwMCcsICctbWV0YWxfYmluZGluZycsICctaW1hZScsICc8aW5maWxlLm1hZT4nLCAnLW9tYWUnLCAnPG91dGZpbGUubWFlPic=

> <r_lp_tautomer_probability>
1

> <r_epik_Ionization_Penalty>
0.0837267

> <r_epik_Ionization_Penalty_Charging>
0

> <r_epik_Ionization_Penalty_Neutral>
0.0837267

> <r_epik_State_Penalty>
0.0738331

> <r_epik_Charging_Adjusted_Penalty>
0.0738331

> <i_epik_Tot_Q>
0

> <i_epik_Tot_abs_Q>
0

> <r_epik_Metal_State_Penalty>
0.0646802

> <b_epik_Metal_Only>
0

> <s_lp_Force_Field>
OPLS_2005

> <r_lp_Energy>
41.479

> <b_lp_Chiralities_Consistent>
1

> <s_lp_Variant>
AV-unprocessed.smi:1604-1

> <Gold.Version>
5.8.1

> <Gold.Id.Protein>
6NUR|6NUR_protein|mol2

> <Gold.PLP.Fitness>
48.5233

> <Gold.PLP.PLP>
-43.2687

> <Gold.PLP.part.hbond>
-2.6018

> <Gold.PLP.part.metal>
0.0000

> <Gold.PLP.part.buried>
-6.9186

> <Gold.PLP.part.nonpolar>
-33.5754

> <Gold.PLP.part.repulsive>
0.3814

> <Gold.PLP.ligand.clash>
0.0000

> <Gold.PLP.ligand.torsion>
0.5554

> <Gold.PLP.Chemscore.Hbond>
2.0000

> <Gold.PLP.Chemscore.CHOScore>
0.0000

> <Gold.PLP.Chemscore.Metal>
0.0000

> <Gold.Chemscore.Hbonds>
donor molecule, donor type, donor heavy atom, donor atom, acceptor molecule, acceptor atom, score
      L1  H    21    46       P1  7957  1.00
      P1  H  7989  7998       L1    23  1.00

> <Gold.PLP.Chemscore.Internal.Correction>
0.3654

> <Gold.Rescore>
     Score         DG    S(hbond)    S(metal)    S(lipo)     H(rot)  DE(clash)    DE(int)     intcor
     15.51     -19.93       1.94        0.00      95.40       1.25       0.01       4.41       ----

> <Gold.Chemscore.Fitness>
15.5146

> <Gold.Chemscore.DG>
-19.9349

> <Gold.Chemscore.ZeroCoef>
-5.4800

> <Gold.Chemscore.Hbond>
1.9412

> <Gold.Chemscore.Metal>
0.0000

> <Gold.Chemscore.Lipo>
95.3962

> <Gold.Chemscore.Internal_Hbond>
0.0000

> <Gold.Chemscore.DEClash>
0.0060

> <Gold.Chemscore.DEInternal>
4.4143

> <Gold.Chemscore.Rot>
1.2461

> <Gold.Chemscore.Internal.Correction>
   9.000000E+99

> <Gold.Chemscore.Hbonds>
donor molecule, donor type, donor heavy atom, donor atom, acceptor molecule, acceptor atom, score
      L1  H    21    46       P1  7957  0.99
      P1  H  7989  7998       L1    23  0.91

> <Gold.Chemscore.Hbond.Weighted>
-6.4835

> <Gold.Chemscore.Metal.Weighted>
-0.0000

> <Gold.Chemscore.Lipo.Weighted>
-11.1614

> <Gold.Chemscore.Internal_Hbond.Weighted>
0.0000

> <Gold.Chemscore.DEClash.Weighted>
0.0060

> <Gold.Chemscore.DEInternal.Weighted>
4.4143

> <Gold.Chemscore.Rot.Weighted>
3.1899

> <Gold.Chemscore.Internal.Correction.Weighted>
   9.000000E+99

> <Gold.Protein.RotatedTorsions>
[ 6907 6896 6895 6894 ] final   26.12 input  -60.11 | X-H torsion
[ 7974 7965 7964 7962 ] final   61.82 input  175.53 | X-H torsion
[ 8008 7997 7996 7995 ] final  122.80 input   59.86 | X-H torsion
[ 10167 10162 10161 10158 ] final   28.27 input  -65.29 | X-H torsion
[ 10718 10713 10712 10709 ] final   41.53 input   66.30 | X-H torsion
[ 10763 10752 10751 10750 ] final -135.64 input  -60.55 | X-H torsion
[ 11005 11000 10999 10996 ] final  -77.26 input  -57.11 | X-H torsion

> <Gold.Protein.ActiveResidues>
 VAL166  LYS551  ARG553  GLY616  TRP617  ASP618  TYR619  PRO620  LYS621  CYS622 
 ASP623  PHE694  ASN695  SER759  ASP760  ASP761  ALA762  ILE779  LEU786  VAL792 
 PHE793  MET794  SER795  GLU796  ALA797  LYS798  CYS799  TRP800  GLU811  SER814 

> <Gold.Protein.RotatedAtoms>
  151.9827  135.0020  160.0557 H   0  0  0  0  0  0  0  0  0  0  0  0  # atno 6907 bound_to 6896
  152.1681  133.4621  159.4903 H   0  0  0  0  0  0  0  0  0  0  0  0  # atno 6908 bound_to 6896
  150.6897  134.1905  159.4326 H   0  0  0  0  0  0  0  0  0  0  0  0  # atno 6909 bound_to 6896
  145.8804  139.3439  143.0709 H   0  0  0  0  0  0  0  0  0  0  0  0  # atno 7974 bound_to 7965
  156.2742  140.2777  156.1525 H   0  0  0  0  0  0  0  0  0  0  0  0  # atno 8008 bound_to 7997
  155.0838  140.0388  157.2665 H   0  0  0  0  0  0  0  0  0  0  0  0  # atno 8009 bound_to 7997
  154.6943  140.2636  155.6787 H   0  0  0  0  0  0  0  0  0  0  0  0  # atno 8010 bound_to 7997
  140.4867  144.0531  150.6283 H   0  0  0  0  0  0  0  0  0  0  0  0  # atno 10167 bound_to 10162
  157.3946  130.7826  149.7298 H   0  0  0  0  0  0  0  0  0  0  0  0  # atno 10718 bound_to 10713
  154.8699  135.3697  154.4931 H   0  0  0  0  0  0  0  0  0  0  0  0  # atno 10763 bound_to 10752
  153.5577  135.7023  153.5567 H   0  0  0  0  0  0  0  0  0  0  0  0  # atno 10764 bound_to 10752
  153.3657  135.4034  155.1715 H   0  0  0  0  0  0  0  0  0  0  0  0  # atno 10765 bound_to 10752
  141.1659  133.7015  156.7793 H   0  0  0  0  0  0  0  0  0  0  0  0  # atno 11005 bound_to 11000
  145.9030  140.9230  143.0493 LP  0  0  0  0  0  0  0  0  0  0  0  0  # atno 17320 bound_to 7965
  144.6727  140.1058  143.7458 LP  0  0  0  0  0  0  0  0  0  0  0  0  # atno 17321 bound_to 7965
  140.3788  143.2814  152.0194 LP  0  0  0  0  0  0  0  0  0  0  0  0  # atno 17342 bound_to 10162
  139.4843  144.6171  151.7326 LP  0  0  0  0  0  0  0  0  0  0  0  0  # atno 17343 bound_to 10162
  155.9807  130.4027  150.3513 LP  0  0  0  0  0  0  0  0  0  0  0  0  # atno 17370 bound_to 10713
  157.1633  131.0350  151.2830 LP  0  0  0  0  0  0  0  0  0  0  0  0  # atno 17371 bound_to 10713
  140.2406  134.8616  157.3570 LP  0  0  0  0  0  0  0  0  0  0  0  0  # atno 17394 bound_to 11000
  140.1799  134.4502  155.7778 LP  0  0  0  0  0  0  0  0  0  0  0  0  # atno 17395 bound_to 11000

$$$$
