AV-unprocessed.smi:1605|AV-procd|sdf|6453|dock1
  -GOLD-   22720 7103D 1   1.00000     0.00000
 Structure written by MMmdl.
 51 53  0  0  0  0  0  0  0  0  2 V2000
  156.9649  137.8695  164.8271 C   0  0  0  0  0  0  0  0  0  0  0  0
  156.8289  136.6943  164.0431 O   0  0  0  0  0  0  0  0  0  0  0  0
  155.5208  136.1338  164.0450 C   0  0  2  0  0  0  0  0  0  0  0  0
  155.4636  135.0605  162.9471 C   0  0  0  0  0  0  0  0  0  0  0  0
  155.5621  135.6786  161.5409 C   0  0  0  0  0  0  0  0  0  0  0  0
  154.5050  136.7000  161.3261 N   0  3  2  0  0  0  0  0  0  0  0  0
  154.4880  137.2126  159.9314 C   0  0  0  0  0  0  0  0  0  0  0  0
  153.8485  138.6112  159.8280 C   0  0  2  0  0  0  0  0  0  0  0  0
  153.3054  138.7714  158.5311 O   0  0  0  0  0  0  0  0  0  0  0  0
  154.8681  139.7351  160.0943 C   0  0  0  0  0  0  0  0  0  0  0  0
  154.3063  140.8064  160.8969 N   0  0  0  0  0  0  0  0  0  0  0  0
  154.5628  141.0794  162.1909 C   0  0  0  0  0  0  0  0  0  0  0  0
  153.9361  142.1220  162.7283 N   0  0  0  0  0  0  0  0  0  0  0  0
  153.1817  142.5763  161.6600 C   0  0  0  0  0  0  0  0  0  0  0  0
  152.2871  143.6645  161.5646 C   0  0  0  0  0  0  0  0  0  0  0  0
  151.6144  143.9459  160.3540 C   0  0  0  0  0  0  0  0  0  0  0  0
  150.6616  145.1270  160.2957 C   0  0  0  0  0  0  0  0  0  0  0  0
  151.8323  143.1313  159.2137 C   0  0  0  0  0  0  0  0  0  0  0  0
  151.1181  143.4126  157.9035 C   0  0  0  0  0  0  0  0  0  0  0  0
  152.7248  142.0417  159.2909 C   0  0  0  0  0  0  0  0  0  0  0  0
  153.3882  141.7726  160.5010 C   0  0  0  0  0  0  0  0  0  0  0  0
  154.5725  137.7777  162.3491 C   0  0  0  0  0  0  0  0  0  0  0  0
  154.4452  137.2018  163.7699 C   0  0  0  0  0  0  0  0  0  0  0  0
  158.0009  138.2066  164.7955 H   0  0  0  0  0  0  0  0  0  0  0  0
  156.7079  137.6814  165.8701 H   0  0  0  0  0  0  0  0  0  0  0  0
  156.3426  138.6824  164.4538 H   0  0  0  0  0  0  0  0  0  0  0  0
  155.3319  135.6534  165.0067 H   0  0  0  0  0  0  0  0  0  0  0  0
  156.2635  134.3337  163.0933 H   0  0  0  0  0  0  0  0  0  0  0  0
  154.5281  134.5059  163.0315 H   0  0  0  0  0  0  0  0  0  0  0  0
  156.5437  136.1316  161.3931 H   0  0  0  0  0  0  0  0  0  0  0  0
  155.4646  134.8861  160.7980 H   0  0  0  0  0  0  0  0  0  0  0  0
  155.5076  137.2268  159.5434 H   0  0  0  0  0  0  0  0  0  0  0  0
  153.9303  136.5295  159.2886 H   0  0  0  0  0  0  0  0  0  0  0  0
  153.0357  138.7073  160.5468 H   0  0  0  0  0  0  0  0  0  0  0  0
  153.2637  137.9250  158.1123 H   0  0  0  0  0  0  0  0  0  0  0  0
  155.7365  139.3391  160.6226 H   0  0  0  0  0  0  0  0  0  0  0  0
  155.2370  140.1531  159.1563 H   0  0  0  0  0  0  0  0  0  0  0  0
  155.2522  140.4824  162.7701 H   0  0  0  0  0  0  0  0  0  0  0  0
  152.1210  144.2844  162.4333 H   0  0  0  0  0  0  0  0  0  0  0  0
  150.9879  145.8442  159.5422 H   0  0  0  0  0  0  0  0  0  0  0  0
  150.6125  145.6466  161.2530 H   0  0  0  0  0  0  0  0  0  0  0  0
  149.6543  144.7944  160.0444 H   0  0  0  0  0  0  0  0  0  0  0  0
  151.3834  142.6803  157.1404 H   0  0  0  0  0  0  0  0  0  0  0  0
  151.3849  144.4005  157.5275 H   0  0  0  0  0  0  0  0  0  0  0  0
  150.0373  143.3744  158.0413 H   0  0  0  0  0  0  0  0  0  0  0  0
  152.9010  141.4147  158.4295 H   0  0  0  0  0  0  0  0  0  0  0  0
  155.5131  138.3215  162.2475 H   0  0  0  0  0  0  0  0  0  0  0  0
  153.7748  138.5026  162.1930 H   0  0  0  0  0  0  0  0  0  0  0  0
  153.4579  136.7527  163.8839 H   0  0  0  0  0  0  0  0  0  0  0  0
  154.4923  138.0045  164.5051 H   0  0  0  0  0  0  0  0  0  0  0  0
  153.6241  136.2230  161.4578 H   0  0  0  0  0  0  0  0  0  0  0  0
  1  2  1  0  0  0  0
  1 24  1  0  0  0  0
  1 25  1  0  0  0  0
  1 26  1  0  0  0  0
  2  3  1  0  0  0  0
  3 23  1  0  0  0  0
  3  4  1  0  0  0  0
  3 27  1  0  0  0  0
  4  5  1  0  0  0  0
  4 28  1  0  0  0  0
  4 29  1  0  0  0  0
  5  6  1  0  0  0  0
  5 30  1  0  0  0  0
  5 31  1  0  0  0  0
  6  7  1  0  0  0  0
  6 22  1  0  0  0  0
  6 51  1  0  0  0  0
  7  8  1  0  0  0  0
  7 32  1  0  0  0  0
  7 33  1  0  0  0  0
  8  9  1  0  0  0  0
  8 10  1  0  0  0  0
  8 34  1  0  0  0  0
  9 35  1  0  0  0  0
 10 11  1  0  0  0  0
 10 36  1  0  0  0  0
 10 37  1  0  0  0  0
 11 21  1  0  0  0  0
 11 12  1  0  0  0  0
 12 13  2  0  0  0  0
 12 38  1  0  0  0  0
 13 14  1  0  0  0  0
 14 21  2  0  0  0  0
 14 15  1  0  0  0  0
 15 16  2  0  0  0  0
 15 39  1  0  0  0  0
 16 17  1  0  0  0  0
 16 18  1  0  0  0  0
 17 40  1  0  0  0  0
 17 41  1  0  0  0  0
 17 42  1  0  0  0  0
 18 19  1  0  0  0  0
 18 20  2  0  0  0  0
 19 43  1  0  0  0  0
 19 44  1  0  0  0  0
 19 45  1  0  0  0  0
 20 21  1  0  0  0  0
 20 46  1  0  0  0  0
 22 23  1  0  0  0  0
 22 47  1  0  0  0  0
 22 48  1  0  0  0  0
 23 49  1  0  0  0  0
 23 50  1  0  0  0  0
M  CHG  1   6   1
M  END
> <s_m_source_file>
AV-unprocessed.smi

> <i_m_source_file_index>
1605

> <i_lp_mmshare_version>
43012

> <i_f3d_flags>
0

> <s_epik_input>
W0NIM11PW0NIXTFbQ0gyXVtDSDJdTihbQ0gyXVtDSDJdMSlbQ0gyXVtDQEhdKFtPSF0pW0NIMl1uKFtjSF1uMiljKGMyMylbY0hdYyhbQ0gzXSljKFtjSF0zKVtDSDNd

> <s_epik_cmdline>
J2VwaWtfcHl0aG9uJywgJy1waCcsICc3LjAnLCAnLXRuJywgJzgnLCAnLW1hJywgJzIwMCcsICctbWV0YWxfYmluZGluZycsICctaW1hZScsICc8aW5maWxlLm1hZT4nLCAnLW9tYWUnLCAnPG91dGZpbGUubWFlPic=

> <r_epik_Ionization_Penalty>
0.110943

> <r_epik_Ionization_Penalty_Charging>
0.0229283

> <r_epik_Ionization_Penalty_Neutral>
0.0880146

> <r_epik_State_Penalty>
0.0947554

> <r_epik_Charging_Adjusted_Penalty>
0.117684

> <i_epik_Tot_Q>
1

> <i_epik_Tot_abs_Q>
1

> <r_epik_Metal_State_Penalty>
0.0192456

> <b_epik_Metal_Only>
0

> <s_lp_Force_Field>
OPLS_2005

> <r_lp_Energy>
23.6879

> <b_lp_Chiralities_Consistent>
1

> <s_lp_Variant>
AV-unprocessed.smi:1605-3

> <Gold.Version>
5.8.1

> <Gold.Id.Protein>
6NUR|6NUR_protein|mol2

> <Gold.PLP.Fitness>
53.2351

> <Gold.PLP.PLP>
-52.9785

> <Gold.PLP.part.hbond>
-1.4011

> <Gold.PLP.part.metal>
0.0000

> <Gold.PLP.part.buried>
-5.7446

> <Gold.PLP.part.nonpolar>
-45.4595

> <Gold.PLP.part.repulsive>
0.1569

> <Gold.PLP.ligand.clash>
0.0000

> <Gold.PLP.ligand.torsion>
1.4167

> <Gold.PLP.Chemscore.Hbond>
1.0000

> <Gold.PLP.Chemscore.CHOScore>
0.0000

> <Gold.PLP.Chemscore.Metal>
0.0000

> <Gold.Chemscore.Hbonds>
donor molecule, donor type, donor heavy atom, donor atom, acceptor molecule, acceptor atom, score
      P1  H  7997  8010       L1     9  0.23

> <Gold.PLP.Chemscore.Internal.Correction>
0.0901

> <Gold.Rescore>
     Score         DG    S(hbond)    S(metal)    S(lipo)     H(rot)  DE(clash)    DE(int)     intcor
     18.66     -20.23       0.96        0.00     147.22       2.22       0.13       1.44       ----

> <Gold.Chemscore.Fitness>
18.6635

> <Gold.Chemscore.DG>
-20.2340

> <Gold.Chemscore.ZeroCoef>
-5.4800

> <Gold.Chemscore.Hbond>
0.9595

> <Gold.Chemscore.Metal>
0.0000

> <Gold.Chemscore.Lipo>
147.2184

> <Gold.Chemscore.Internal_Hbond>
0.0000

> <Gold.Chemscore.DEClash>
0.1314

> <Gold.Chemscore.DEInternal>
1.4391

> <Gold.Chemscore.Rot>
2.2169

> <Gold.Chemscore.Internal.Correction>
   9.000000E+99

> <Gold.Chemscore.Hbonds>
donor molecule, donor type, donor heavy atom, donor atom, acceptor molecule, acceptor atom, score
      P1  H  7997  8010       L1     9  0.08

> <Gold.Chemscore.Hbond.Weighted>
-3.2048

> <Gold.Chemscore.Metal.Weighted>
-0.0000

> <Gold.Chemscore.Lipo.Weighted>
-17.2246

> <Gold.Chemscore.Internal_Hbond.Weighted>
0.0000

> <Gold.Chemscore.DEClash.Weighted>
0.1314

> <Gold.Chemscore.DEInternal.Weighted>
1.4391

> <Gold.Chemscore.Rot.Weighted>
5.6753

> <Gold.Chemscore.Internal.Correction.Weighted>
   9.000000E+99

> <Gold.Protein.RotatedTorsions>
[ 6907 6896 6895 6894 ] final -144.03 input  -60.11 | X-H torsion
[ 7974 7965 7964 7962 ] final -101.19 input  175.53 | X-H torsion
[ 8008 7997 7996 7995 ] final   26.19 input   59.86 | X-H torsion
[ 10167 10162 10161 10158 ] final -117.31 input  -65.29 | X-H torsion
[ 10718 10713 10712 10709 ] final  -60.94 input   66.30 | X-H torsion
[ 10763 10752 10751 10750 ] final   81.54 input  -60.55 | X-H torsion
[ 11005 11000 10999 10996 ] final -109.17 input  -57.11 | X-H torsion

> <Gold.Protein.ActiveResidues>
 VAL166  LYS551  ARG553  GLY616  TRP617  ASP618  TYR619  PRO620  LYS621  CYS622 
 ASP623  PHE694  ASN695  SER759  ASP760  ASP761  ALA762  ILE779  LEU786  VAL792 
 PHE793  MET794  SER795  GLU796  ALA797  LYS798  CYS799  TRP800  GLU811  SER814 

> <Gold.Protein.RotatedAtoms>
  151.1085  133.5191  159.2606 H   0  0  0  0  0  0  0  0  0  0  0  0  # atno 6907 bound_to 6896
  151.1994  135.0436  159.8876 H   0  0  0  0  0  0  0  0  0  0  0  0  # atno 6908 bound_to 6896
  152.5448  134.0915  159.8332 H   0  0  0  0  0  0  0  0  0  0  0  0  # atno 6909 bound_to 6896
  145.2848  140.9336  143.2911 H   0  0  0  0  0  0  0  0  0  0  0  0  # atno 7974 bound_to 7965
  155.0234  140.3150  155.4785 H   0  0  0  0  0  0  0  0  0  0  0  0  # atno 8008 bound_to 7997
  156.2888  140.2193  156.5295 H   0  0  0  0  0  0  0  0  0  0  0  0  # atno 8009 bound_to 7997
  154.7433  140.0472  157.0818 H   0  0  0  0  0  0  0  0  0  0  0  0  # atno 8010 bound_to 7997
  140.0698  143.4888  152.1986 H   0  0  0  0  0  0  0  0  0  0  0  0  # atno 10167 bound_to 10162
  156.0955  130.4193  150.0925 H   0  0  0  0  0  0  0  0  0  0  0  0  # atno 10718 bound_to 10713
  153.1125  135.4762  154.9060 H   0  0  0  0  0  0  0  0  0  0  0  0  # atno 10763 bound_to 10752
  154.7495  135.3102  154.8585 H   0  0  0  0  0  0  0  0  0  0  0  0  # atno 10764 bound_to 10752
  153.9171  135.6859  153.4802 H   0  0  0  0  0  0  0  0  0  0  0  0  # atno 10765 bound_to 10752
  141.0862  133.9134  157.2180 H   0  0  0  0  0  0  0  0  0  0  0  0  # atno 11005 bound_to 11000
  144.9223  139.4397  143.6535 LP  0  0  0  0  0  0  0  0  0  0  0  0  # atno 17320 bound_to 7965
  146.3204  139.8089  142.8950 LP  0  0  0  0  0  0  0  0  0  0  0  0  # atno 17321 bound_to 7965
  139.5843  144.7524  151.3560 LP  0  0  0  0  0  0  0  0  0  0  0  0  # atno 17342 bound_to 10162
  140.7131  143.7338  150.7604 LP  0  0  0  0  0  0  0  0  0  0  0  0  # atno 17343 bound_to 10162
  156.8925  130.9593  151.3587 LP  0  0  0  0  0  0  0  0  0  0  0  0  # atno 17370 bound_to 10713
  157.6115  130.8587  149.8960 LP  0  0  0  0  0  0  0  0  0  0  0  0  # atno 17371 bound_to 10713
  139.9681  135.0136  156.9440 LP  0  0  0  0  0  0  0  0  0  0  0  0  # atno 17394 bound_to 11000
  140.5357  134.0769  155.7327 LP  0  0  0  0  0  0  0  0  0  0  0  0  # atno 17395 bound_to 11000

$$$$
