AV-unprocessed.smi:1701|AV-procd|sdf|6822|dock1
  -GOLD-   22720 8 03D 1   1.00000     0.00000
 Structure written by MMmdl.
 55 57  0  0  0  0  0  0  0  0  3 V2000
  151.4653  143.8245  157.5569 C   0  0  0  0  0  0  0  0  0  0  0  0
  150.9715  142.7784  156.5463 C   0  0  0  0  0  0  0  0  0  0  0  0
  150.8671  141.4329  157.1111 N   0  0  0  0  0  0  0  0  0  0  0  0
  151.3352  141.1884  158.4777 C   0  0  0  0  0  0  0  0  0  0  0  0
  152.4038  140.0881  158.5644 C   0  0  0  0  0  0  0  0  0  0  0  0
  150.1543  140.4233  156.4190 C   0  0  0  0  0  0  0  0  0  0  0  0
  149.3501  139.4485  157.0617 C   0  0  0  0  0  0  0  0  0  0  0  0
  148.6733  138.4765  156.2971 C   0  0  0  0  0  0  0  0  0  0  0  0
  148.7889  138.4814  154.8920 C   0  0  0  0  0  0  0  0  0  0  0  0
  148.1019  137.4710  154.1657 N   0  0  0  0  0  0  0  0  0  0  0  0
  146.8987  136.9203  154.4220 C   0  0  0  0  0  0  0  0  0  0  0  0
  146.2086  137.1740  155.4061 O   0  0  0  0  0  0  0  0  0  0  0  0
  146.4954  136.0222  153.5051 N   0  0  0  0  0  0  0  0  0  0  0  0
  145.2526  135.2467  153.4793 C   0  0  1  0  0  0  0  0  0  0  0  0
  144.2787  135.7205  152.4074 C   0  0  0  0  0  0  0  0  0  0  0  0
  143.3328  134.5269  152.2437 C   0  0  0  0  0  0  0  0  0  0  0  0
  144.0999  133.3162  152.6265 N   0  3  1  0  0  0  0  0  0  0  0  0
  144.1404  132.2677  151.5721 C   0  0  0  0  0  0  0  0  0  0  0  0
  145.2427  131.2390  151.8640 C   0  0  0  0  0  0  0  0  0  0  0  0
  146.6371  131.8937  151.8717 C   0  0  0  0  0  0  0  0  0  0  0  0
  146.5785  133.4034  152.1745 C   0  0  0  0  0  0  0  0  0  0  0  0
  145.4271  133.7501  153.1500 C   0  0  1  0  0  0  0  0  0  0  0  0
  149.6084  139.4672  154.2947 C   0  0  0  0  0  0  0  0  0  0  0  0
  150.2401  140.3775  155.0665 N   0  3  0  0  0  0  0  0  0  0  0  0
  151.4808  144.8155  157.1035 H   0  0  0  0  0  0  0  0  0  0  0  0
  152.4776  143.6087  157.8956 H   0  0  0  0  0  0  0  0  0  0  0  0
  150.8213  143.8745  158.4348 H   0  0  0  0  0  0  0  0  0  0  0  0
  150.0159  143.0810  156.1186 H   0  0  0  0  0  0  0  0  0  0  0  0
  151.6624  142.7509  155.7033 H   0  0  0  0  0  0  0  0  0  0  0  0
  151.7121  142.1133  158.9153 H   0  0  0  0  0  0  0  0  0  0  0  0
  150.4841  140.9037  159.0970 H   0  0  0  0  0  0  0  0  0  0  0  0
  152.7363  139.9594  159.5946 H   0  0  0  0  0  0  0  0  0  0  0  0
  153.2812  140.3301  157.9646 H   0  0  0  0  0  0  0  0  0  0  0  0
  152.0217  139.1265  158.2248 H   0  0  0  0  0  0  0  0  0  0  0  0
  149.2415  139.4196  158.1349 H   0  0  0  0  0  0  0  0  0  0  0  0
  148.0656  137.7337  156.7933 H   0  0  0  0  0  0  0  0  0  0  0  0
  148.5970  137.0987  153.3692 H   0  0  0  0  0  0  0  0  0  0  0  0
  147.1385  135.8418  152.7472 H   0  0  0  0  0  0  0  0  0  0  0  0
  144.7472  135.3425  154.4424 H   0  0  0  0  0  0  0  0  0  0  0  0
  143.7554  136.6371  152.6818 H   0  0  0  0  0  0  0  0  0  0  0  0
  144.8063  135.9033  151.4699 H   0  0  0  0  0  0  0  0  0  0  0  0
  142.4912  134.6202  152.9310 H   0  0  0  0  0  0  0  0  0  0  0  0
  142.9223  134.4755  151.2343 H   0  0  0  0  0  0  0  0  0  0  0  0
  143.1658  131.7815  151.5172 H   0  0  0  0  0  0  0  0  0  0  0  0
  144.3228  132.7207  150.5960 H   0  0  0  0  0  0  0  0  0  0  0  0
  145.0500  130.7793  152.8343 H   0  0  0  0  0  0  0  0  0  0  0  0
  145.2150  130.4299  151.1334 H   0  0  0  0  0  0  0  0  0  0  0  0
  147.2618  131.3882  152.6088 H   0  0  0  0  0  0  0  0  0  0  0  0
  147.1264  131.7452  150.9083 H   0  0  0  0  0  0  0  0  0  0  0  0
  147.5427  133.7211  152.5714 H   0  0  0  0  0  0  0  0  0  0  0  0
  146.4392  133.9533  151.2426 H   0  0  0  0  0  0  0  0  0  0  0  0
  145.6120  133.2065  154.0775 H   0  0  0  0  0  0  0  0  0  0  0  0
  149.7984  139.5643  153.2367 H   0  0  0  0  0  0  0  0  0  0  0  0
  143.6125  132.9113  153.4133 H   0  0  0  0  0  0  0  0  0  0  0  0
  150.8220  141.0736  154.6003 H   0  0  0  0  0  0  0  0  0  0  0  0
  1  2  1  0  0  0  0
  1 25  1  0  0  0  0
  1 26  1  0  0  0  0
  1 27  1  0  0  0  0
  2  3  1  0  0  0  0
  2 28  1  0  0  0  0
  2 29  1  0  0  0  0
  3  4  1  0  0  0  0
  3  6  1  0  0  0  0
  4  5  1  0  0  0  0
  4 30  1  0  0  0  0
  4 31  1  0  0  0  0
  5 32  1  0  0  0  0
  5 33  1  0  0  0  0
  5 34  1  0  0  0  0
  6 24  1  0  0  0  0
  6  7  2  0  0  0  0
  7  8  1  0  0  0  0
  7 35  1  0  0  0  0
  8  9  2  0  0  0  0
  8 36  1  0  0  0  0
  9 10  1  0  0  0  0
  9 23  1  0  0  0  0
 10 11  1  0  0  0  0
 10 37  1  0  0  0  0
 11 12  2  0  0  0  0
 11 13  1  0  0  0  0
 13 14  1  0  0  0  0
 13 38  1  0  0  0  0
 14 22  1  0  0  0  0
 14 15  1  0  0  0  0
 14 39  1  0  0  0  0
 15 16  1  0  0  0  0
 15 40  1  0  0  0  0
 15 41  1  0  0  0  0
 16 17  1  0  0  0  0
 16 42  1  0  0  0  0
 16 43  1  0  0  0  0
 17 22  1  0  0  0  0
 17 18  1  0  0  0  0
 17 54  1  0  0  0  0
 18 19  1  0  0  0  0
 18 44  1  0  0  0  0
 18 45  1  0  0  0  0
 19 20  1  0  0  0  0
 19 46  1  0  0  0  0
 19 47  1  0  0  0  0
 20 21  1  0  0  0  0
 20 48  1  0  0  0  0
 20 49  1  0  0  0  0
 21 22  1  0  0  0  0
 21 50  1  0  0  0  0
 21 51  1  0  0  0  0
 22 52  1  0  0  0  0
 23 24  2  0  0  0  0
 23 53  1  0  0  0  0
 24 55  1  0  0  0  0
M  CHG  1  17   1
M  CHG  1  24   1
M  END
> <s_m_source_file>
AV-unprocessed.smi

> <i_m_source_file_index>
1701

> <i_lp_mmshare_version>
43012

> <i_f3d_flags>
0

> <s_epik_input>
W0NIM11bQ0gyXU4oW0NIMl1bQ0gzXSljMVtjSF1bY0hdYyhbY0hdbjEpW05IXUMoPU8pW05IXVtDQEhdKFtDSDJdW0NIMl0yKVtDQEBIXShOMjMpW0NIMl1bQ0gyXVtDSDJdW0NIMl0z

> <s_epik_cmdline>
J2VwaWtfcHl0aG9uJywgJy1waCcsICc3LjAnLCAnLXRuJywgJzgnLCAnLW1hJywgJzIwMCcsICctbWV0YWxfYmluZGluZycsICctaW1hZScsICc8aW5maWxlLm1hZT4nLCAnLW9tYWUnLCAnPG91dGZpbGUubWFlPic=

> <r_lp_tautomer_probability>
0.999994

> <r_epik_Ionization_Penalty>
0.302862

> <r_epik_Ionization_Penalty_Charging>
0.302842

> <r_epik_Ionization_Penalty_Neutral>
1.95166e-05

> <r_epik_State_Penalty>
0.019791

> <r_epik_Charging_Adjusted_Penalty>
0.322633

> <i_epik_Tot_Q>
2

> <i_epik_Tot_abs_Q>
2

> <r_epik_Metal_State_Penalty>
0.0536763

> <b_epik_Metal_Only>
0

> <s_lp_Force_Field>
OPLS_2005

> <r_lp_Energy>
68.1576

> <b_lp_Chiralities_Consistent>
1

> <s_lp_Variant>
AV-unprocessed.smi:1701-2

> <Gold.Version>
5.8.1

> <Gold.Id.Protein>
6NUR|6NUR_protein|mol2

> <Gold.PLP.Fitness>
42.5878

> <Gold.PLP.PLP>
-32.5704

> <Gold.PLP.part.hbond>
-2.9544

> <Gold.PLP.part.metal>
0.0000

> <Gold.PLP.part.buried>
-4.5865

> <Gold.PLP.part.nonpolar>
-26.0487

> <Gold.PLP.part.repulsive>
0.1472

> <Gold.PLP.ligand.clash>
0.0000

> <Gold.PLP.ligand.torsion>
0.9841

> <Gold.PLP.Chemscore.Hbond>
3.9172

> <Gold.PLP.Chemscore.CHOScore>
0.0000

> <Gold.PLP.Chemscore.Metal>
0.0000

> <Gold.Chemscore.Hbonds>
donor molecule, donor type, donor heavy atom, donor atom, acceptor molecule, acceptor atom, score
      L1  H    10    37       P1  7948  1.00
      L1  H    13    38       P1  7948  0.95
      L1  H    17    54       P1 10957  2.00

> <Gold.PLP.Chemscore.Internal.Correction>
0.2340

> <Gold.Rescore>
     Score         DG    S(hbond)    S(metal)    S(lipo)     H(rot)  DE(clash)    DE(int)     intcor
     19.12     -21.39       2.81        0.00      84.33       1.30       0.18       2.09       ----

> <Gold.Chemscore.Fitness>
19.1230

> <Gold.Chemscore.DG>
-21.3913

> <Gold.Chemscore.ZeroCoef>
-5.4800

> <Gold.Chemscore.Hbond>
2.8076

> <Gold.Chemscore.Metal>
0.0000

> <Gold.Chemscore.Lipo>
84.3331

> <Gold.Chemscore.Internal_Hbond>
0.0000

> <Gold.Chemscore.DEClash>
0.1819

> <Gold.Chemscore.DEInternal>
2.0864

> <Gold.Chemscore.Rot>
1.3020

> <Gold.Chemscore.Internal.Correction>
   9.000000E+99

> <Gold.Chemscore.Hbonds>
donor molecule, donor type, donor heavy atom, donor atom, acceptor molecule, acceptor atom, score
      L1  H    10    37       P1  7948  1.00
      L1  H    13    38       P1  7948  0.85
      L1  H    17    54       P1 10957  0.71

> <Gold.Chemscore.Hbond.Weighted>
-9.3774

> <Gold.Chemscore.Metal.Weighted>
-0.0000

> <Gold.Chemscore.Lipo.Weighted>
-9.8670

> <Gold.Chemscore.Internal_Hbond.Weighted>
0.0000

> <Gold.Chemscore.DEClash.Weighted>
0.1819

> <Gold.Chemscore.DEInternal.Weighted>
2.0864

> <Gold.Chemscore.Rot.Weighted>
3.3330

> <Gold.Chemscore.Internal.Correction.Weighted>
   9.000000E+99

> <Gold.Protein.RotatedTorsions>
[ 6907 6896 6895 6894 ] final -118.80 input  -60.11 | X-H torsion
[ 7974 7965 7964 7962 ] final  138.39 input  175.53 | X-H torsion
[ 8008 7997 7996 7995 ] final  -25.16 input   59.86 | X-H torsion
[ 10167 10162 10161 10158 ] final  -55.76 input  -65.29 | X-H torsion
[ 10718 10713 10712 10709 ] final   -6.48 input   66.30 | X-H torsion
[ 10763 10752 10751 10750 ] final  159.64 input  -60.55 | X-H torsion
[ 11005 11000 10999 10996 ] final   44.40 input  -57.11 | X-H torsion

> <Gold.Protein.ActiveResidues>
 VAL166  LYS551  ARG553  GLY616  TRP617  ASP618  TYR619  PRO620  LYS621  CYS622 
 ASP623  PHE694  ASN695  SER759  ASP760  ASP761  ALA762  ILE779  LEU786  VAL792 
 PHE793  MET794  SER795  GLU796  ALA797  LYS798  CYS799  TRP800  GLU811  SER814 

> <Gold.Protein.RotatedAtoms>
  150.8250  133.8187  159.3122 H   0  0  0  0  0  0  0  0  0  0  0  0  # atno 6907 bound_to 6896
  151.5934  135.1050  160.0053 H   0  0  0  0  0  0  0  0  0  0  0  0  # atno 6908 bound_to 6896
  152.4336  133.7280  159.6627 H   0  0  0  0  0  0  0  0  0  0  0  0  # atno 6909 bound_to 6896
  144.9377  139.4969  143.5587 H   0  0  0  0  0  0  0  0  0  0  0  0  # atno 7974 bound_to 7965
  154.4490  140.1934  156.0577 H   0  0  0  0  0  0  0  0  0  0  0  0  # atno 8008 bound_to 7997
  156.0607  140.3297  155.7431 H   0  0  0  0  0  0  0  0  0  0  0  0  # atno 8009 bound_to 7997
  155.5417  140.0587  157.2859 H   0  0  0  0  0  0  0  0  0  0  0  0  # atno 8010 bound_to 7997
  140.6356  143.2480  151.5127 H   0  0  0  0  0  0  0  0  0  0  0  0  # atno 10167 bound_to 10162
  156.7312  130.5181  149.5845 H   0  0  0  0  0  0  0  0  0  0  0  0  # atno 10718 bound_to 10713
  154.2350  135.2777  155.2875 H   0  0  0  0  0  0  0  0  0  0  0  0  # atno 10763 bound_to 10752
  154.5592  135.5652  153.6995 H   0  0  0  0  0  0  0  0  0  0  0  0  # atno 10764 bound_to 10752
  153.0012  135.6294  154.2493 H   0  0  0  0  0  0  0  0  0  0  0  0  # atno 10765 bound_to 10752
  140.1556  134.4407  155.8352 H   0  0  0  0  0  0  0  0  0  0  0  0  # atno 11005 bound_to 11000
  146.3273  139.8374  142.8897 LP  0  0  0  0  0  0  0  0  0  0  0  0  # atno 17320 bound_to 7965
  145.3040  141.0202  143.3592 LP  0  0  0  0  0  0  0  0  0  0  0  0  # atno 17321 bound_to 7965
  139.5567  144.2259  152.1623 LP  0  0  0  0  0  0  0  0  0  0  0  0  # atno 17342 bound_to 10162
  140.1514  144.5111  150.6685 LP  0  0  0  0  0  0  0  0  0  0  0  0  # atno 17343 bound_to 10162
  156.1527  130.6321  151.0617 LP  0  0  0  0  0  0  0  0  0  0  0  0  # atno 17370 bound_to 10713
  157.6858  131.0825  150.7247 LP  0  0  0  0  0  0  0  0  0  0  0  0  # atno 17371 bound_to 10713
  141.2204  133.6891  156.7500 LP  0  0  0  0  0  0  0  0  0  0  0  0  # atno 17394 bound_to 11000
  140.2552  134.8509  157.3706 LP  0  0  0  0  0  0  0  0  0  0  0  0  # atno 17395 bound_to 11000

$$$$
