AV-unprocessed.smi:1973|AV-procd|sdf|7976|dock2
  -GOLD-   2272010153D 1   1.00000     0.00000
 Structure written by MMmdl.
 48 50  0  0  0  0  0  0  0  0  2 V2000
  152.3111  142.1964  159.3029 C   0  0  0  0  0  0  0  0  0  0  0  0
  151.5771  142.3734  158.1040 O   0  0  0  0  0  0  0  0  0  0  0  0
  151.2204  141.1417  157.4997 C   0  0  0  0  0  0  0  0  0  0  0  0
  150.8303  141.4003  156.0364 C   0  0  0  0  0  0  0  0  0  0  0  0
  150.5495  140.1510  155.3208 N   0  0  0  0  0  0  0  0  0  0  0  0
  149.2896  140.0982  154.7479 N   0  0  0  0  0  0  0  0  0  0  0  0
  148.9116  139.0452  154.1003 C   0  0  0  0  0  0  0  0  0  0  0  0
  147.5480  138.9953  153.4992 C   0  0  0  0  0  0  0  0  0  0  0  0
  146.7161  139.8731  153.7358 O   0  0  0  0  0  0  0  0  0  0  0  0
  147.2846  137.9480  152.6981 N   0  0  0  0  0  0  0  0  0  0  0  0
  146.0131  137.6992  152.0269 C   0  0  0  0  0  0  0  0  0  0  0  0
  145.6595  136.2002  151.9887 C   0  0  2  0  0  0  0  0  0  0  0  0
  146.8723  135.2746  152.0247 C   0  0  0  0  0  0  0  0  0  0  0  0
  146.3022  133.9633  151.4917 C   0  0  0  0  0  0  0  0  0  0  0  0
  145.3257  134.3543  150.4530 N   0  3  1  0  0  0  0  0  0  0  0  0
  144.2043  133.4040  150.2958 C   0  0  0  0  0  0  0  0  0  0  0  0
  144.6466  131.9688  150.1398 C   0  0  0  0  0  0  0  0  0  0  0  0
  144.1581  132.7468  148.9371 C   0  0  0  0  0  0  0  0  0  0  0  0
  144.9062  135.7488  150.7273 C   0  0  0  0  0  0  0  0  0  0  0  0
  149.8055  137.9038  153.9496 C   0  0  0  0  0  0  0  0  0  0  0  0
  151.0334  137.9746  154.5084 C   0  0  0  0  0  0  0  0  0  0  0  0
  151.4804  139.1523  155.2530 C   0  0  0  0  0  0  0  0  0  0  0  0
  152.5934  139.2376  155.7709 O   0  0  0  0  0  0  0  0  0  0  0  0
  152.5700  143.1690  159.7215 H   0  0  0  0  0  0  0  0  0  0  0  0
  153.2378  141.6499  159.1221 H   0  0  0  0  0  0  0  0  0  0  0  0
  151.7247  141.6556  160.0468 H   0  0  0  0  0  0  0  0  0  0  0  0
  152.0607  140.4472  157.5475 H   0  0  0  0  0  0  0  0  0  0  0  0
  150.3880  140.6902  158.0415 H   0  0  0  0  0  0  0  0  0  0  0  0
  149.9648  142.0638  155.9920 H   0  0  0  0  0  0  0  0  0  0  0  0
  151.6363  141.9424  155.5383 H   0  0  0  0  0  0  0  0  0  0  0  0
  148.0154  137.2646  152.5604 H   0  0  0  0  0  0  0  0  0  0  0  0
  145.2388  138.2533  152.5587 H   0  0  0  0  0  0  0  0  0  0  0  0
  146.0422  138.1072  151.0152 H   0  0  0  0  0  0  0  0  0  0  0  0
  145.0403  135.9586  152.8545 H   0  0  0  0  0  0  0  0  0  0  0  0
  147.6529  135.6410  151.3562 H   0  0  0  0  0  0  0  0  0  0  0  0
  147.3003  135.1740  153.0225 H   0  0  0  0  0  0  0  0  0  0  0  0
  147.0709  133.3027  151.0901 H   0  0  0  0  0  0  0  0  0  0  0  0
  145.7929  133.4345  152.2994 H   0  0  0  0  0  0  0  0  0  0  0  0
  143.2835  133.6462  150.8241 H   0  0  0  0  0  0  0  0  0  0  0  0
  145.7113  131.7482  150.1969 H   0  0  0  0  0  0  0  0  0  0  0  0
  143.9901  131.1951  150.5328 H   0  0  0  0  0  0  0  0  0  0  0  0
  143.1796  132.4854  148.5388 H   0  0  0  0  0  0  0  0  0  0  0  0
  144.8981  133.0427  148.1954 H   0  0  0  0  0  0  0  0  0  0  0  0
  143.8268  135.8428  150.8583 H   0  0  0  0  0  0  0  0  0  0  0  0
  145.1850  136.3571  149.8662 H   0  0  0  0  0  0  0  0  0  0  0  0
  149.5173  137.0165  153.4064 H   0  0  0  0  0  0  0  0  0  0  0  0
  151.7082  137.1377  154.4036 H   0  0  0  0  0  0  0  0  0  0  0  0
  145.8270  134.3776  149.5766 H   0  0  0  0  0  0  0  0  0  0  0  0
  1  2  1  0  0  0  0
  1 24  1  0  0  0  0
  1 25  1  0  0  0  0
  1 26  1  0  0  0  0
  2  3  1  0  0  0  0
  3  4  1  0  0  0  0
  3 27  1  0  0  0  0
  3 28  1  0  0  0  0
  4  5  1  0  0  0  0
  4 29  1  0  0  0  0
  4 30  1  0  0  0  0
  5 22  1  0  0  0  0
  5  6  1  0  0  0  0
  6  7  2  0  0  0  0
  7  8  1  0  0  0  0
  7 20  1  0  0  0  0
  8  9  2  0  0  0  0
  8 10  1  0  0  0  0
 10 11  1  0  0  0  0
 10 31  1  0  0  0  0
 11 12  1  0  0  0  0
 11 32  1  0  0  0  0
 11 33  1  0  0  0  0
 12 19  1  0  0  0  0
 12 13  1  0  0  0  0
 12 34  1  0  0  0  0
 13 14  1  0  0  0  0
 13 35  1  0  0  0  0
 13 36  1  0  0  0  0
 14 15  1  0  0  0  0
 14 37  1  0  0  0  0
 14 38  1  0  0  0  0
 15 16  1  0  0  0  0
 15 19  1  0  0  0  0
 15 48  1  0  0  0  0
 16 18  1  0  0  0  0
 16 17  1  0  0  0  0
 16 39  1  0  0  0  0
 17 18  1  0  0  0  0
 17 40  1  0  0  0  0
 17 41  1  0  0  0  0
 18 42  1  0  0  0  0
 18 43  1  0  0  0  0
 19 44  1  0  0  0  0
 19 45  1  0  0  0  0
 20 21  2  0  0  0  0
 20 46  1  0  0  0  0
 21 22  1  0  0  0  0
 21 47  1  0  0  0  0
 22 23  2  0  0  0  0
M  CHG  1  15   1
M  END
> <s_m_source_file>
AV-unprocessed.smi

> <i_m_source_file_index>
1973

> <i_lp_mmshare_version>
43012

> <i_f3d_flags>
0

> <s_epik_input>
W0NIM11PW0NIMl1bQ0gyXW4xbmMoW2NIXVtjSF1jMT1PKUMoPU8pW05IXVtDSDJdW0NAQEhdMltDSDJdW0NIMl1OKFtDSDJdMilbQ0hdM1tDSDJdW0NIMl0z

> <s_epik_cmdline>
J2VwaWtfcHl0aG9uJywgJy1waCcsICc3LjAnLCAnLXRuJywgJzgnLCAnLW1hJywgJzIwMCcsICctbWV0YWxfYmluZGluZycsICctaW1hZScsICc8aW5maWxlLm1hZT4nLCAnLW9tYWUnLCAnPG91dGZpbGUubWFlPic=

> <r_lp_tautomer_probability>
1

> <r_epik_Ionization_Penalty>
0.000225706

> <r_epik_Ionization_Penalty_Charging>
0.000223776

> <r_epik_Ionization_Penalty_Neutral>
1.93004e-06

> <r_epik_State_Penalty>
-0

> <r_epik_Charging_Adjusted_Penalty>
0.000223776

> <i_epik_Tot_Q>
1

> <i_epik_Tot_abs_Q>
1

> <r_epik_Metal_State_Penalty>
-0

> <b_epik_Metal_Only>
0

> <s_lp_Force_Field>
OPLS_2005

> <r_lp_Energy>
57.8958

> <b_lp_Chiralities_Consistent>
1

> <s_lp_Variant>
AV-unprocessed.smi:1973-1

> <Gold.Version>
5.8.1

> <Gold.Id.Protein>
6NUR|6NUR_protein|mol2

> <Gold.PLP.Fitness>
45.6379

> <Gold.PLP.PLP>
-38.5306

> <Gold.PLP.part.hbond>
-3.0000

> <Gold.PLP.part.metal>
0.0000

> <Gold.PLP.part.buried>
4.5534

> <Gold.PLP.part.nonpolar>
-39.9088

> <Gold.PLP.part.repulsive>
0.3933

> <Gold.PLP.ligand.clash>
0.0000

> <Gold.PLP.ligand.torsion>
1.4991

> <Gold.PLP.Chemscore.Hbond>
2.9425

> <Gold.PLP.Chemscore.CHOScore>
0.0000

> <Gold.PLP.Chemscore.Metal>
0.0000

> <Gold.Chemscore.Hbonds>
donor molecule, donor type, donor heavy atom, donor atom, acceptor molecule, acceptor atom, score
      L1  H    10    31       P1  7948  1.00
      L1  H    15    48       P1  7921  1.00
      P1  H  7997  8010       L1    23  0.89

> <Gold.PLP.Chemscore.Internal.Correction>
1.2780

> <Gold.Rescore>
     Score         DG    S(hbond)    S(metal)    S(lipo)     H(rot)  DE(clash)    DE(int)     intcor
     17.80     -21.56       2.78        0.00     101.17       1.97       2.22       1.54       ----

> <Gold.Chemscore.Fitness>
17.8020

> <Gold.Chemscore.DG>
-21.5617

> <Gold.Chemscore.ZeroCoef>
-5.4800

> <Gold.Chemscore.Hbond>
2.7819

> <Gold.Chemscore.Metal>
0.0000

> <Gold.Chemscore.Lipo>
101.1651

> <Gold.Chemscore.Internal_Hbond>
0.0000

> <Gold.Chemscore.DEClash>
2.2180

> <Gold.Chemscore.DEInternal>
1.5418

> <Gold.Chemscore.Rot>
1.9711

> <Gold.Chemscore.Internal.Correction>
   9.000000E+99

> <Gold.Chemscore.Hbonds>
donor molecule, donor type, donor heavy atom, donor atom, acceptor molecule, acceptor atom, score
      L1  H    10    31       P1  7948  0.95
      L1  H    15    48       P1  7921  0.62
      P1  H  7997  8010       L1    23  0.86

> <Gold.Chemscore.Hbond.Weighted>
-9.2914

> <Gold.Chemscore.Metal.Weighted>
-0.0000

> <Gold.Chemscore.Lipo.Weighted>
-11.8363

> <Gold.Chemscore.Internal_Hbond.Weighted>
0.0000

> <Gold.Chemscore.DEClash.Weighted>
2.2180

> <Gold.Chemscore.DEInternal.Weighted>
1.5418

> <Gold.Chemscore.Rot.Weighted>
5.0460

> <Gold.Chemscore.Internal.Correction.Weighted>
   9.000000E+99

> <Gold.Protein.RotatedTorsions>
[ 6907 6896 6895 6894 ] final  144.38 input  -60.11 | X-H torsion
[ 7974 7965 7964 7962 ] final -179.27 input  175.53 | X-H torsion
[ 8008 7997 7996 7995 ] final  101.91 input   59.86 | X-H torsion
[ 10167 10162 10161 10158 ] final   62.61 input  -65.29 | X-H torsion
[ 10718 10713 10712 10709 ] final  137.89 input   66.30 | X-H torsion
[ 10763 10752 10751 10750 ] final  149.94 input  -60.55 | X-H torsion
[ 11005 11000 10999 10996 ] final   30.20 input  -57.11 | X-H torsion

> <Gold.Protein.ActiveResidues>
 VAL166  LYS551  ARG553  GLY616  TRP617  ASP618  TYR619  PRO620  LYS621  CYS622 
 ASP623  PHE694  ASN695  SER759  ASP760  ASP761  ALA762  ILE779  LEU786  VAL792 
 PHE793  MET794  SER795  GLU796  ALA797  LYS798  CYS799  TRP800  GLU811  SER814 

> <Gold.Protein.RotatedAtoms>
  152.1944  133.4796  159.5024 H   0  0  0  0  0  0  0  0  0  0  0  0  # atno 6907 bound_to 6896
  150.6957  134.1670  159.4207 H   0  0  0  0  0  0  0  0  0  0  0  0  # atno 6908 bound_to 6896
  151.9586  135.0134  160.0597 H   0  0  0  0  0  0  0  0  0  0  0  0  # atno 6909 bound_to 6896
  144.7135  140.0742  143.6428 H   0  0  0  0  0  0  0  0  0  0  0  0  # atno 7974 bound_to 7965
  156.1344  140.3190  155.8398 H   0  0  0  0  0  0  0  0  0  0  0  0  # atno 8008 bound_to 7997
  155.4272  140.0516  157.3038 H   0  0  0  0  0  0  0  0  0  0  0  0  # atno 8009 bound_to 7997
  154.4925  140.2098  155.9531 H   0  0  0  0  0  0  0  0  0  0  0  0  # atno 8010 bound_to 7997
  140.1420  144.4544  150.6806 H   0  0  0  0  0  0  0  0  0  0  0  0  # atno 10167 bound_to 10162
  157.4312  131.1048  151.0248 H   0  0  0  0  0  0  0  0  0  0  0  0  # atno 10718 bound_to 10713
  154.0793  135.2860  155.3293 H   0  0  0  0  0  0  0  0  0  0  0  0  # atno 10763 bound_to 10752
  154.6694  135.5305  153.8122 H   0  0  0  0  0  0  0  0  0  0  0  0  # atno 10764 bound_to 10752
  153.0455  135.6554  154.0969 H   0  0  0  0  0  0  0  0  0  0  0  0  # atno 10765 bound_to 10752
  140.2969  134.2801  155.7763 H   0  0  0  0  0  0  0  0  0  0  0  0  # atno 11005 bound_to 11000
  145.9757  139.2903  143.1072 LP  0  0  0  0  0  0  0  0  0  0  0  0  # atno 17320 bound_to 7965
  145.9067  140.9207  143.0475 LP  0  0  0  0  0  0  0  0  0  0  0  0  # atno 17321 bound_to 7965
  140.6755  143.2303  151.5519 LP  0  0  0  0  0  0  0  0  0  0  0  0  # atno 17342 bound_to 10162
  139.5467  144.2501  152.1456 LP  0  0  0  0  0  0  0  0  0  0  0  0  # atno 17343 bound_to 10162
  157.1144  130.6035  149.5489 LP  0  0  0  0  0  0  0  0  0  0  0  0  # atno 17370 bound_to 10713
  155.9914  130.4968  150.7297 LP  0  0  0  0  0  0  0  0  0  0  0  0  # atno 17371 bound_to 10713
  141.2136  133.7621  156.9708 LP  0  0  0  0  0  0  0  0  0  0  0  0  # atno 17394 bound_to 11000
  140.1144  134.9456  157.2113 LP  0  0  0  0  0  0  0  0  0  0  0  0  # atno 17395 bound_to 11000

$$$$
