AV-unprocessed.smi:223|AV-procd|sdf|1703|dock6
  -GOLD-   2262020163D 1   1.00000     0.00000
 Structure written by MMmdl.
 47 50  0  0  0  0  0  0  0  0  1 V2000
  154.1605  140.3083  161.0122 C   0  0  0  0  0  0  0  0  0  0  0  0
  153.6483  141.7432  160.8394 C   0  0  2  0  0  0  0  0  0  0  0  0
  153.4991  142.3866  162.1559 C   0  0  0  0  0  0  0  0  0  0  0  0
  153.3825  142.8921  163.1901 N   0  0  0  0  0  0  0  0  0  0  0  0
  152.3420  141.7671  160.0193 C   0  0  0  0  0  0  0  0  0  0  0  0
  152.5057  142.2948  158.6644 N   0  0  0  0  0  0  0  0  0  0  0  0
  151.9205  141.5968  157.6544 C   0  0  0  0  0  0  0  0  0  0  0  0
  150.9559  142.1949  156.9039 N   0  0  0  0  0  0  0  0  0  0  0  0
  150.3455  141.5245  155.9234 C   0  0  0  0  0  0  0  0  0  0  0  0
  150.5443  140.2678  155.5240 N   0  0  0  0  0  0  0  0  0  0  0  0
  151.5183  139.6628  156.2616 C   0  0  0  0  0  0  0  0  0  0  0  0
  152.2499  140.2474  157.3353 C   0  0  0  0  0  0  0  0  0  0  0  0
  153.1612  139.3250  157.8367 N   0  0  0  0  0  0  0  0  0  0  0  0
  152.9695  138.2565  157.1131 C   0  0  0  0  0  0  0  0  0  0  0  0
  152.0080  138.3743  156.1355 N   0  0  0  0  0  0  0  0  0  0  0  0
  151.5951  137.3472  155.1904 C   0  0  0  0  0  0  0  0  0  0  0  0
  150.0825  137.0271  155.2438 C   0  0  1  0  0  0  0  0  0  0  0  0
  149.8547  135.7751  154.6191 O   0  0  0  0  0  0  0  0  0  0  0  0
  149.5399  136.9568  156.6657 C   0  0  0  0  0  0  0  0  0  0  0  0
  148.0813  137.3558  156.4879 C   0  0  0  0  0  0  0  0  0  0  0  0
  148.1503  138.3916  155.5228 O   0  0  0  0  0  0  0  0  0  0  0  0
  149.1709  138.0795  154.5784 C   0  0  0  0  0  0  0  0  0  0  0  0
  152.5869  143.7470  158.5287 C   0  0  0  0  0  0  0  0  0  0  0  0
  152.0576  144.6219  159.6432 C   0  0  0  0  0  0  0  0  0  0  0  0
  151.3091  144.5288  158.3342 C   0  0  0  0  0  0  0  0  0  0  0  0
  155.0968  140.2928  161.5707 H   0  0  0  0  0  0  0  0  0  0  0  0
  154.3443  139.8364  160.0465 H   0  0  0  0  0  0  0  0  0  0  0  0
  153.4396  139.6949  161.5536 H   0  0  0  0  0  0  0  0  0  0  0  0
  154.4143  142.3076  160.3076 H   0  0  0  0  0  0  0  0  0  0  0  0
  151.9676  140.7476  159.9217 H   0  0  0  0  0  0  0  0  0  0  0  0
  151.5695  142.3040  160.5660 H   0  0  0  0  0  0  0  0  0  0  0  0
  149.5881  142.0727  155.3829 H   0  0  0  0  0  0  0  0  0  0  0  0
  153.5333  137.3482  157.2690 H   0  0  0  0  0  0  0  0  0  0  0  0
  151.8778  137.6719  154.1883 H   0  0  0  0  0  0  0  0  0  0  0  0
  152.1752  136.4459  155.3922 H   0  0  0  0  0  0  0  0  0  0  0  0
  149.6923  135.9248  153.7002 H   0  0  0  0  0  0  0  0  0  0  0  0
  149.6642  135.9809  157.1371 H   0  0  0  0  0  0  0  0  0  0  0  0
  150.0346  137.6961  157.2972 H   0  0  0  0  0  0  0  0  0  0  0  0
  147.4926  136.5260  156.0941 H   0  0  0  0  0  0  0  0  0  0  0  0
  147.6201  137.6986  157.4144 H   0  0  0  0  0  0  0  0  0  0  0  0
  149.7035  139.0012  154.3470 H   0  0  0  0  0  0  0  0  0  0  0  0
  148.7285  137.7168  153.6495 H   0  0  0  0  0  0  0  0  0  0  0  0
  153.4630  144.1257  158.0052 H   0  0  0  0  0  0  0  0  0  0  0  0
  151.6167  144.1320  160.5094 H   0  0  0  0  0  0  0  0  0  0  0  0
  152.5948  145.5443  159.8526 H   0  0  0  0  0  0  0  0  0  0  0  0
  151.3452  145.3908  157.6713 H   0  0  0  0  0  0  0  0  0  0  0  0
  150.3703  143.9783  158.3333 H   0  0  0  0  0  0  0  0  0  0  0  0
  1  2  1  0  0  0  0
  1 26  1  0  0  0  0
  1 27  1  0  0  0  0
  1 28  1  0  0  0  0
  2  3  1  0  0  0  0
  2  5  1  0  0  0  0
  2 29  1  0  0  0  0
  3  4  3  0  0  0  0
  5  6  1  0  0  0  0
  5 30  1  0  0  0  0
  5 31  1  0  0  0  0
  6  7  1  0  0  0  0
  6 23  1  0  0  0  0
  7 12  1  0  0  0  0
  7  8  2  0  0  0  0
  8  9  1  0  0  0  0
  9 10  2  0  0  0  0
  9 32  1  0  0  0  0
 10 11  1  0  0  0  0
 11 15  1  0  0  0  0
 11 12  2  0  0  0  0
 12 13  1  0  0  0  0
 13 14  2  0  0  0  0
 14 15  1  0  0  0  0
 14 33  1  0  0  0  0
 15 16  1  0  0  0  0
 16 17  1  0  0  0  0
 16 34  1  0  0  0  0
 16 35  1  0  0  0  0
 17 22  1  0  0  0  0
 17 18  1  0  0  0  0
 17 19  1  0  0  0  0
 18 36  1  0  0  0  0
 19 20  1  0  0  0  0
 19 37  1  0  0  0  0
 19 38  1  0  0  0  0
 20 21  1  0  0  0  0
 20 39  1  0  0  0  0
 20 40  1  0  0  0  0
 21 22  1  0  0  0  0
 22 41  1  0  0  0  0
 22 42  1  0  0  0  0
 23 25  1  0  0  0  0
 23 24  1  0  0  0  0
 23 43  1  0  0  0  0
 24 25  1  0  0  0  0
 24 44  1  0  0  0  0
 24 45  1  0  0  0  0
 25 46  1  0  0  0  0
 25 47  1  0  0  0  0
M  END
> <s_m_source_file>
AV-unprocessed.smi

> <i_m_source_file_index>
223

> <i_lp_mmshare_version>
43012

> <i_f3d_flags>
0

> <s_epik_input>
TiNDW0NAQEhdKFtDSDNdKVtDSDJdTihbQ0hdMVtDSDJdW0NIMl0xKWMobltjSF1uMiljKGMyMyluW2NIXW4zW0NIMl1bQ0BAXTQoW09IXSlbQ0gyXVtDSDJdT1tDSDJdNA==

> <s_epik_cmdline>
J2VwaWtfcHl0aG9uJywgJy1waCcsICc3LjAnLCAnLXRuJywgJzgnLCAnLW1hJywgJzIwMCcsICctbWV0YWxfYmluZGluZycsICctaW1hZScsICc8aW5maWxlLm1hZT4nLCAnLW9tYWUnLCAnPG91dGZpbGUubWFlPic=

> <r_lp_tautomer_probability>
1

> <r_epik_Ionization_Penalty>
0.000756152

> <r_epik_Ionization_Penalty_Charging>
0

> <r_epik_Ionization_Penalty_Neutral>
0.000756152

> <r_epik_State_Penalty>
0.00038036

> <r_epik_Charging_Adjusted_Penalty>
0.00038036

> <i_epik_Tot_Q>
0

> <i_epik_Tot_abs_Q>
0

> <r_epik_Metal_State_Penalty>
-0

> <b_epik_Metal_Only>
0

> <s_lp_Force_Field>
OPLS_2005

> <r_lp_Energy>
37.204

> <b_lp_Chiralities_Consistent>
1

> <s_lp_Variant>
AV-unprocessed.smi:223-1

> <Gold.Version>
5.8.1

> <Gold.Id.Protein>
6NUR|6NUR_protein|mol2

> <Gold.PLP.Fitness>
54.4219

> <Gold.PLP.PLP>
-47.4372

> <Gold.PLP.part.hbond>
-3.2154

> <Gold.PLP.part.metal>
0.0000

> <Gold.PLP.part.buried>
-5.4300

> <Gold.PLP.part.nonpolar>
-38.3570

> <Gold.PLP.part.repulsive>
0.3289

> <Gold.PLP.ligand.clash>
0.0000

> <Gold.PLP.ligand.torsion>
2.2389

> <Gold.PLP.Chemscore.Hbond>
2.3917

> <Gold.PLP.Chemscore.CHOScore>
0.9793

> <Gold.PLP.Chemscore.Metal>
0.0000

> <Gold.Chemscore.Hbonds>
donor molecule, donor type, donor heavy atom, donor atom, acceptor molecule, acceptor atom, score
      L1  H    18    36       P1  7948  0.95
      P1  H  7989  7998       L1    10  0.10
      P1  H  7997  8009       L1    13  0.85
      L1  C     9    32       P1  8028  0.44

> <Gold.PLP.Chemscore.Internal.Correction>
1.3497

> <Gold.Rescore>
     Score         DG    S(hbond)    S(metal)    S(lipo)     H(rot)  DE(clash)    DE(int)     intcor
      7.64     -12.49       1.10        0.00      88.09       2.72       0.17       4.68       ----

> <Gold.Chemscore.Fitness>
7.6377

> <Gold.Chemscore.DG>
-12.4913

> <Gold.Chemscore.ZeroCoef>
-5.4800

> <Gold.Chemscore.Hbond>
1.0960

> <Gold.Chemscore.Metal>
0.0000

> <Gold.Chemscore.Lipo>
88.0887

> <Gold.Chemscore.Internal_Hbond>
0.0000

> <Gold.Chemscore.DEClash>
0.1704

> <Gold.Chemscore.DEInternal>
4.6831

> <Gold.Chemscore.Rot>
2.7171

> <Gold.Chemscore.Internal.Correction>
   9.000000E+99

> <Gold.Chemscore.Hbonds>
donor molecule, donor type, donor heavy atom, donor atom, acceptor molecule, acceptor atom, score
      L1  H    18    36       P1  7948  0.21
      P1  H  7989  7998       L1    10  0.01
      P1  H  7997  8009       L1    13  0.05

> <Gold.Chemscore.Hbond.Weighted>
-3.6607

> <Gold.Chemscore.Metal.Weighted>
-0.0000

> <Gold.Chemscore.Lipo.Weighted>
-10.3064

> <Gold.Chemscore.Internal_Hbond.Weighted>
0.0000

> <Gold.Chemscore.DEClash.Weighted>
0.1704

> <Gold.Chemscore.DEInternal.Weighted>
4.6831

> <Gold.Chemscore.Rot.Weighted>
6.9558

> <Gold.Chemscore.Internal.Correction.Weighted>
   9.000000E+99

> <Gold.Protein.RotatedTorsions>
[ 6907 6896 6895 6894 ] final  -25.84 input  -60.11 | X-H torsion
[ 7974 7965 7964 7962 ] final   35.58 input  175.53 | X-H torsion
[ 8008 7997 7996 7995 ] final  149.57 input   59.86 | X-H torsion
[ 10167 10162 10161 10158 ] final  170.67 input  -65.29 | X-H torsion
[ 10718 10713 10712 10709 ] final   13.62 input   66.30 | X-H torsion
[ 10763 10752 10751 10750 ] final  144.07 input  -60.55 | X-H torsion
[ 11005 11000 10999 10996 ] final   48.22 input  -57.11 | X-H torsion

> <Gold.Protein.ActiveResidues>
 VAL166  LYS551  ARG553  GLY616  TRP617  ASP618  TYR619  PRO620  LYS621  CYS622 
 ASP623  PHE694  ASN695  SER759  ASP760  ASP761  ALA762  ILE779  LEU786  VAL792 
 PHE793  MET794  SER795  GLU796  ALA797  LYS798  CYS799  TRP800  GLU811  SER814 

> <Gold.Protein.RotatedAtoms>
  151.1695  135.0311  159.8745 H   0  0  0  0  0  0  0  0  0  0  0  0  # atno 6907 bound_to 6896
  152.5449  134.1187  159.8400 H   0  0  0  0  0  0  0  0  0  0  0  0  # atno 6908 bound_to 6896
  151.1291  133.5003  159.2632 H   0  0  0  0  0  0  0  0  0  0  0  0  # atno 6909 bound_to 6896
  146.1272  139.6124  142.9250 H   0  0  0  0  0  0  0  0  0  0  0  0  # atno 7974 bound_to 7965
  156.2749  140.2098  156.5879 H   0  0  0  0  0  0  0  0  0  0  0  0  # atno 8008 bound_to 7997
  154.7006  140.0521  157.0477 H   0  0  0  0  0  0  0  0  0  0  0  0  # atno 8009 bound_to 7997
  155.0741  140.3180  155.4624 H   0  0  0  0  0  0  0  0  0  0  0  0  # atno 8010 bound_to 7997
  139.5025  144.3571  151.9863 H   0  0  0  0  0  0  0  0  0  0  0  0  # atno 10167 bound_to 10162
  157.0273  130.6178  149.5730 H   0  0  0  0  0  0  0  0  0  0  0  0  # atno 10718 bound_to 10713
  153.9829  135.2939  155.3418 H   0  0  0  0  0  0  0  0  0  0  0  0  # atno 10763 bound_to 10752
  154.7259  135.5089  153.8888 H   0  0  0  0  0  0  0  0  0  0  0  0  # atno 10764 bound_to 10752
  153.0846  135.6689  154.0090 H   0  0  0  0  0  0  0  0  0  0  0  0  # atno 10765 bound_to 10752
  140.1210  134.4829  155.8597 H   0  0  0  0  0  0  0  0  0  0  0  0  # atno 11005 bound_to 11000
  145.5338  141.0425  143.2368 LP  0  0  0  0  0  0  0  0  0  0  0  0  # atno 17320 bound_to 7965
  144.7654  139.6856  143.7217 LP  0  0  0  0  0  0  0  0  0  0  0  0  # atno 17321 bound_to 7965
  140.3007  144.3650  150.6061 LP  0  0  0  0  0  0  0  0  0  0  0  0  # atno 17342 bound_to 10162
  140.5875  143.2169  151.7314 LP  0  0  0  0  0  0  0  0  0  0  0  0  # atno 17343 bound_to 10162
  156.0081  130.5170  150.7900 LP  0  0  0  0  0  0  0  0  0  0  0  0  # atno 17370 bound_to 10713
  157.5204  131.0931  151.0085 LP  0  0  0  0  0  0  0  0  0  0  0  0  # atno 17371 bound_to 10713
  141.2151  133.6760  156.6888 LP  0  0  0  0  0  0  0  0  0  0  0  0  # atno 17394 bound_to 11000
  140.2965  134.8198  157.4061 LP  0  0  0  0  0  0  0  0  0  0  0  0  # atno 17395 bound_to 11000

$$$$
