AV-unprocessed.smi:3300|AV-procd|sdf|12651|dock1
  -GOLD-   2272018583D 1   1.00000     0.00000
 Structure written by MMmdl.
 36 37  0  0  0  0  0  0  0  0  1 V2000
  149.6117  134.3302  154.9243 C   0  0  0  0  0  0  0  0  0  0  0  0
  150.6219  135.1496  155.7358 C   0  0  0  0  0  0  0  0  0  0  0  0
  150.7088  136.5885  155.2620 C   0  0  0  0  0  0  0  0  0  0  0  0
  151.8863  136.9813  154.7266 N   0  0  0  0  0  0  0  0  0  0  0  0
  151.9629  138.2451  154.3034 C   0  0  0  0  0  0  0  0  0  0  0  0
  150.9949  139.1634  154.3509 N   0  0  0  0  0  0  0  0  0  0  0  0
  149.8022  138.7831  154.8721 C   0  0  0  0  0  0  0  0  0  0  0  0
  148.7596  139.7249  154.9581 N   0  0  0  0  0  0  0  0  0  0  0  0
  149.3061  141.0131  155.3725 C   0  0  0  0  0  0  0  0  0  0  0  0
  148.1811  142.0244  155.6239 C   0  0  0  0  0  0  0  0  0  0  0  0
  147.3970  142.1383  154.4454 O   0  0  0  0  0  0  0  0  0  0  0  0
  146.7712  140.9057  154.1109 C   0  0  0  0  0  0  0  0  0  0  0  0
  147.8263  139.8089  153.8242 C   0  0  2  0  0  0  0  0  0  0  0  0
  147.1368  138.4493  153.5356 C   0  0  0  0  0  0  0  0  0  0  0  0
  146.3778  138.4043  152.1995 C   0  0  0  0  0  0  0  0  0  0  0  0
  147.2901  138.5109  151.1279 O   0  0  0  0  0  0  0  0  0  0  0  0
  149.6109  137.4707  155.3609 C   0  0  0  0  0  0  0  0  0  0  0  0
  148.4273  137.0762  155.8914 F   0  0  0  0  0  0  0  0  0  0  0  0
  149.5674  133.3021  155.2840 H   0  0  0  0  0  0  0  0  0  0  0  0
  149.8833  134.3020  153.8688 H   0  0  0  0  0  0  0  0  0  0  0  0
  148.6102  134.7546  155.0018 H   0  0  0  0  0  0  0  0  0  0  0  0
  150.3528  135.1276  156.7921 H   0  0  0  0  0  0  0  0  0  0  0  0
  151.6093  134.6919  155.6642 H   0  0  0  0  0  0  0  0  0  0  0  0
  152.9062  138.5579  153.8805 H   0  0  0  0  0  0  0  0  0  0  0  0
  149.9005  140.8972  156.2800 H   0  0  0  0  0  0  0  0  0  0  0  0
  149.9752  141.3885  154.5965 H   0  0  0  0  0  0  0  0  0  0  0  0
  147.5597  141.7212  156.4683 H   0  0  0  0  0  0  0  0  0  0  0  0
  148.6002  143.0005  155.8684 H   0  0  0  0  0  0  0  0  0  0  0  0
  146.1002  140.6027  154.9166 H   0  0  0  0  0  0  0  0  0  0  0  0
  146.1507  141.0832  153.2333 H   0  0  0  0  0  0  0  0  0  0  0  0
  148.3953  140.1097  152.9433 H   0  0  0  0  0  0  0  0  0  0  0  0
  147.8745  137.6473  153.5143 H   0  0  0  0  0  0  0  0  0  0  0  0
  146.4571  138.2047  154.3532 H   0  0  0  0  0  0  0  0  0  0  0  0
  145.8228  137.4737  152.0853 H   0  0  0  0  0  0  0  0  0  0  0  0
  145.6623  139.2249  152.1370 H   0  0  0  0  0  0  0  0  0  0  0  0
  147.8352  139.2697  151.2703 H   0  0  0  0  0  0  0  0  0  0  0  0
  1  2  1  0  0  0  0
  1 19  1  0  0  0  0
  1 20  1  0  0  0  0
  1 21  1  0  0  0  0
  2  3  1  0  0  0  0
  2 22  1  0  0  0  0
  2 23  1  0  0  0  0
  3 17  1  0  0  0  0
  3  4  2  0  0  0  0
  4  5  1  0  0  0  0
  5  6  2  0  0  0  0
  5 24  1  0  0  0  0
  6  7  1  0  0  0  0
  7  8  1  0  0  0  0
  7 17  2  0  0  0  0
  8 13  1  0  0  0  0
  8  9  1  0  0  0  0
  9 10  1  0  0  0  0
  9 25  1  0  0  0  0
  9 26  1  0  0  0  0
 10 11  1  0  0  0  0
 10 27  1  0  0  0  0
 10 28  1  0  0  0  0
 11 12  1  0  0  0  0
 12 13  1  0  0  0  0
 12 29  1  0  0  0  0
 12 30  1  0  0  0  0
 13 14  1  0  0  0  0
 13 31  1  0  0  0  0
 14 15  1  0  0  0  0
 14 32  1  0  0  0  0
 14 33  1  0  0  0  0
 15 16  1  0  0  0  0
 15 34  1  0  0  0  0
 15 35  1  0  0  0  0
 16 36  1  0  0  0  0
 17 18  1  0  0  0  0
M  END
> <s_m_source_file>
AV-unprocessed.smi

> <i_m_source_file_index>
3300

> <i_lp_mmshare_version>
43012

> <i_f3d_flags>
0

> <s_epik_input>
W0NIM11bQ0gyXWMxbltjSF1uYyhjMUYpTjJbQ0gyXVtDSDJdT1tDSDJdW0NASF0yW0NIMl1bQ0gyXVtPSF0=

> <s_epik_cmdline>
J2VwaWtfcHl0aG9uJywgJy1waCcsICc3LjAnLCAnLXRuJywgJzgnLCAnLW1hJywgJzIwMCcsICctbWV0YWxfYmluZGluZycsICctaW1hZScsICc8aW5maWxlLm1hZT4nLCAnLW9tYWUnLCAnPG91dGZpbGUubWFlPic=

> <r_lp_tautomer_probability>
1

> <r_epik_Ionization_Penalty>
2.51351e-05

> <r_epik_Ionization_Penalty_Charging>
0

> <r_epik_Ionization_Penalty_Neutral>
2.51351e-05

> <r_epik_State_Penalty>
-0

> <r_epik_Charging_Adjusted_Penalty>
0

> <i_epik_Tot_Q>
0

> <i_epik_Tot_abs_Q>
0

> <r_epik_Metal_State_Penalty>
-0

> <b_epik_Metal_Only>
0

> <s_lp_Force_Field>
OPLS_2005

> <r_lp_Energy>
16.3992

> <b_lp_Chiralities_Consistent>
1

> <s_lp_Variant>
AV-unprocessed.smi:3300-2

> <Gold.Version>
5.8.1

> <Gold.Id.Protein>
6NUR|6NUR_protein|mol2

> <Gold.PLP.Fitness>
36.8015

> <Gold.PLP.PLP>
-26.3180

> <Gold.PLP.part.hbond>
-4.8712

> <Gold.PLP.part.metal>
0.0000

> <Gold.PLP.part.buried>
0.8857

> <Gold.PLP.part.nonpolar>
-21.2453

> <Gold.PLP.part.repulsive>
0.4921

> <Gold.PLP.ligand.clash>
0.0000

> <Gold.PLP.ligand.torsion>
0.7232

> <Gold.PLP.Chemscore.Hbond>
3.9280

> <Gold.PLP.Chemscore.CHOScore>
0.0000

> <Gold.PLP.Chemscore.Metal>
0.0000

> <Gold.Chemscore.Hbonds>
donor molecule, donor type, donor heavy atom, donor atom, acceptor molecule, acceptor atom, score
      L1  H    16    36       P1  7957  0.93
      P1  H  7954  7966       L1    16  0.80
      P1  H  7989  7998       L1     6  1.00
      P1  H 10752 10764       L1     4  1.00

> <Gold.PLP.Chemscore.Internal.Correction>
0.1458

> <Gold.Rescore>
     Score         DG    S(hbond)    S(metal)    S(lipo)     H(rot)  DE(clash)    DE(int)     intcor
     13.42     -15.01       2.78        0.00      53.57       2.35       1.02       0.58       ----

> <Gold.Chemscore.Fitness>
13.4188

> <Gold.Chemscore.DG>
-15.0140

> <Gold.Chemscore.ZeroCoef>
-5.4800

> <Gold.Chemscore.Hbond>
2.7759

> <Gold.Chemscore.Metal>
0.0000

> <Gold.Chemscore.Lipo>
53.5690

> <Gold.Chemscore.Internal_Hbond>
0.0000

> <Gold.Chemscore.DEClash>
1.0199

> <Gold.Chemscore.DEInternal>
0.5753

> <Gold.Chemscore.Rot>
2.3458

> <Gold.Chemscore.Internal.Correction>
   9.000000E+99

> <Gold.Chemscore.Hbonds>
donor molecule, donor type, donor heavy atom, donor atom, acceptor molecule, acceptor atom, score
      L1  H    16    36       P1  7957  0.73
      P1  H  7954  7966       L1    16  0.11
      P1  H  7989  7998       L1     6  0.67
      P1  H 10752 10764       L1     4  0.80

> <Gold.Chemscore.Hbond.Weighted>
-9.2716

> <Gold.Chemscore.Metal.Weighted>
-0.0000

> <Gold.Chemscore.Lipo.Weighted>
-6.2676

> <Gold.Chemscore.Internal_Hbond.Weighted>
0.0000

> <Gold.Chemscore.DEClash.Weighted>
1.0199

> <Gold.Chemscore.DEInternal.Weighted>
0.5753

> <Gold.Chemscore.Rot.Weighted>
6.0051

> <Gold.Chemscore.Internal.Correction.Weighted>
   9.000000E+99

> <Gold.Protein.RotatedTorsions>
[ 6907 6896 6895 6894 ] final   55.35 input  -60.11 | X-H torsion
[ 7974 7965 7964 7962 ] final  -94.82 input  175.53 | X-H torsion
[ 8008 7997 7996 7995 ] final  125.10 input   59.86 | X-H torsion
[ 10167 10162 10161 10158 ] final -109.64 input  -65.29 | X-H torsion
[ 10718 10713 10712 10709 ] final  -91.87 input   66.30 | X-H torsion
[ 10763 10752 10751 10750 ] final  -67.71 input  -60.55 | X-H torsion
[ 11005 11000 10999 10996 ] final  -59.28 input  -57.11 | X-H torsion

> <Gold.Protein.ActiveResidues>
 VAL166  LYS551  ARG553  GLY616  TRP617  ASP618  TYR619  PRO620  LYS621  CYS622 
 ASP623  PHE694  ASN695  SER759  ASP760  ASP761  ALA762  ILE779  LEU786  VAL792 
 PHE793  MET794  SER795  GLU796  ALA797  LYS798  CYS799  TRP800  GLU811  SER814 

> <Gold.Protein.RotatedAtoms>
  152.3530  134.6979  160.0230 H   0  0  0  0  0  0  0  0  0  0  0  0  # atno 6907 bound_to 6896
  151.7327  133.3313  159.3352 H   0  0  0  0  0  0  0  0  0  0  0  0  # atno 6908 bound_to 6896
  150.7553  134.6283  159.6217 H   0  0  0  0  0  0  0  0  0  0  0  0  # atno 6909 bound_to 6896
  145.3683  140.9502  143.2462 H   0  0  0  0  0  0  0  0  0  0  0  0  # atno 7974 bound_to 7965
  156.2823  140.2724  156.1895 H   0  0  0  0  0  0  0  0  0  0  0  0  # atno 8008 bound_to 7997
  155.0473  140.0386  157.2549 H   0  0  0  0  0  0  0  0  0  0  0  0  # atno 8009 bound_to 7997
  154.7225  140.2690  155.6534 H   0  0  0  0  0  0  0  0  0  0  0  0  # atno 8010 bound_to 7997
  140.1531  143.4182  152.1480 H   0  0  0  0  0  0  0  0  0  0  0  0  # atno 10167 bound_to 10162
  155.9997  130.4965  150.5540 H   0  0  0  0  0  0  0  0  0  0  0  0  # atno 10718 bound_to 10713
  154.3784  135.6079  153.5777 H   0  0  0  0  0  0  0  0  0  0  0  0  # atno 10763 bound_to 10752
  152.9788  135.5855  154.4439 H   0  0  0  0  0  0  0  0  0  0  0  0  # atno 10764 bound_to 10752
  154.4204  135.2846  155.1957 H   0  0  0  0  0  0  0  0  0  0  0  0  # atno 10765 bound_to 10752
  141.1242  133.6615  156.5047 H   0  0  0  0  0  0  0  0  0  0  0  0  # atno 11005 bound_to 11000
  144.8595  139.5198  143.6819 LP  0  0  0  0  0  0  0  0  0  0  0  0  # atno 17320 bound_to 7965
  146.2897  139.7103  142.9170 LP  0  0  0  0  0  0  0  0  0  0  0  0  # atno 17321 bound_to 7965
  139.5416  144.7261  151.4715 LP  0  0  0  0  0  0  0  0  0  0  0  0  # atno 17342 bound_to 10162
  140.6690  143.8336  150.6976 LP  0  0  0  0  0  0  0  0  0  0  0  0  # atno 17343 bound_to 10162
  157.3459  131.0725  151.1752 LP  0  0  0  0  0  0  0  0  0  0  0  0  # atno 17370 bound_to 10713
  157.2585  130.6647  149.5963 LP  0  0  0  0  0  0  0  0  0  0  0  0  # atno 17371 bound_to 10713
  140.4417  134.7009  157.4995 LP  0  0  0  0  0  0  0  0  0  0  0  0  # atno 17394 bound_to 11000
  140.0224  134.6527  155.9220 LP  0  0  0  0  0  0  0  0  0  0  0  0  # atno 17395 bound_to 11000

$$$$
