AV-unprocessed.smi:1941|AV-procd|sdf|7846|dock4
  -GOLD-   22720 9593D 1   1.00000     0.00000
 Structure written by MMmdl.
 40 41  0  0  0  0  0  0  0  0  1 V2000
  146.3610  132.1115  151.8710 C   0  0  0  0  0  0  0  0  0  0  0  0
  145.8182  133.4712  151.5949 C   0  0  0  0  0  0  0  0  0  0  0  0
  146.2335  134.5728  152.2245 N   0  0  0  0  0  0  0  0  0  0  0  0
  145.5553  135.7207  151.8036 C   0  0  0  0  0  0  0  0  0  0  0  0
  145.8666  137.0465  152.4350 C   0  0  0  0  0  0  0  0  0  0  0  0
  146.1684  138.1628  151.4157 C   0  0  0  0  0  0  0  0  0  0  0  0
  147.1985  139.0855  151.8880 N   0  0  0  0  0  0  0  0  0  0  0  0
  147.2586  139.6207  153.1162 C   0  0  0  0  0  0  0  0  0  0  0  0
  146.4580  139.3731  154.0181 O   0  0  0  0  0  0  0  0  0  0  0  0
  148.2849  140.4751  153.2336 N   0  0  0  0  0  0  0  0  0  0  0  0
  148.5858  141.2798  154.4155 C   0  0  1  0  0  0  0  0  0  0  0  0
  147.2665  141.8142  154.9944 C   0  0  0  0  0  0  0  0  0  0  0  0
  149.3745  140.4327  155.4360 C   0  0  2  0  0  0  0  0  0  0  0  0
  149.6835  141.1464  156.7533 C   0  0  0  0  0  0  0  0  0  0  0  0
  150.8912  140.3808  157.2415 C   0  0  0  0  0  0  0  0  0  0  0  0
  151.6455  140.1310  155.9402 C   0  0  0  0  0  0  0  0  0  0  0  0
  150.6551  140.0754  154.9174 O   0  0  0  0  0  0  0  0  0  0  0  0
  144.6291  135.4726  150.8208 C   0  0  0  0  0  0  0  0  0  0  0  0
  144.5649  133.7836  150.4011 S   0  0  0  0  0  0  0  0  0  0  0  0
  146.8810  132.0949  152.8292 H   0  0  0  0  0  0  0  0  0  0  0  0
  147.0609  131.8239  151.0864 H   0  0  0  0  0  0  0  0  0  0  0  0
  145.5490  131.3848  151.9031 H   0  0  0  0  0  0  0  0  0  0  0  0
  145.0330  137.3583  153.0656 H   0  0  0  0  0  0  0  0  0  0  0  0
  146.7184  136.9419  153.1080 H   0  0  0  0  0  0  0  0  0  0  0  0
  146.4529  137.7268  150.4564 H   0  0  0  0  0  0  0  0  0  0  0  0
  145.2619  138.7385  151.2283 H   0  0  0  0  0  0  0  0  0  0  0  0
  147.9039  139.3572  151.2189 H   0  0  0  0  0  0  0  0  0  0  0  0
  148.8815  140.6107  152.4312 H   0  0  0  0  0  0  0  0  0  0  0  0
  149.1934  142.1407  154.1300 H   0  0  0  0  0  0  0  0  0  0  0  0
  147.4429  142.4734  155.8443 H   0  0  0  0  0  0  0  0  0  0  0  0
  146.6219  141.0016  155.3314 H   0  0  0  0  0  0  0  0  0  0  0  0
  146.7164  142.3893  154.2489 H   0  0  0  0  0  0  0  0  0  0  0  0
  148.8381  139.5069  155.6515 H   0  0  0  0  0  0  0  0  0  0  0  0
  149.9511  142.1888  156.5742 H   0  0  0  0  0  0  0  0  0  0  0  0
  148.8519  141.1215  157.4577 H   0  0  0  0  0  0  0  0  0  0  0  0
  151.4802  140.9271  157.9788 H   0  0  0  0  0  0  0  0  0  0  0  0
  150.5797  139.4335  157.6838 H   0  0  0  0  0  0  0  0  0  0  0  0
  152.3191  140.9603  155.7219 H   0  0  0  0  0  0  0  0  0  0  0  0
  152.2357  139.2151  155.9732 H   0  0  0  0  0  0  0  0  0  0  0  0
  143.9740  136.1765  150.3296 H   0  0  0  0  0  0  0  0  0  0  0  0
  1  2  1  0  0  0  0
  1 20  1  0  0  0  0
  1 21  1  0  0  0  0
  1 22  1  0  0  0  0
  2 19  1  0  0  0  0
  2  3  2  0  0  0  0
  3  4  1  0  0  0  0
  4  5  1  0  0  0  0
  4 18  2  0  0  0  0
  5  6  1  0  0  0  0
  5 23  1  0  0  0  0
  5 24  1  0  0  0  0
  6  7  1  0  0  0  0
  6 25  1  0  0  0  0
  6 26  1  0  0  0  0
  7  8  1  0  0  0  0
  7 27  1  0  0  0  0
  8  9  2  0  0  0  0
  8 10  1  0  0  0  0
 10 11  1  0  0  0  0
 10 28  1  0  0  0  0
 11 12  1  0  0  0  0
 11 13  1  0  0  0  0
 11 29  1  0  0  0  0
 12 30  1  0  0  0  0
 12 31  1  0  0  0  0
 12 32  1  0  0  0  0
 13 17  1  0  0  0  0
 13 14  1  0  0  0  0
 13 33  1  0  0  0  0
 14 15  1  0  0  0  0
 14 34  1  0  0  0  0
 14 35  1  0  0  0  0
 15 16  1  0  0  0  0
 15 36  1  0  0  0  0
 15 37  1  0  0  0  0
 16 17  1  0  0  0  0
 16 38  1  0  0  0  0
 16 39  1  0  0  0  0
 18 19  1  0  0  0  0
 18 40  1  0  0  0  0
M  END
> <s_m_source_file>
AV-unprocessed.smi

> <i_m_source_file_index>
1941

> <i_lp_mmshare_version>
43012

> <i_f3d_flags>
0

> <s_epik_input>
W0NIM11jMW5jKFtjSF1zMSlbQ0gyXVtDSDJdW05IXUMoPU8pW05IXVtDQEhdKFtDSDNdKVtDQEBIXTJbQ0gyXVtDSDJdW0NIMl1PMg==

> <s_epik_cmdline>
J2VwaWtfcHl0aG9uJywgJy1waCcsICc3LjAnLCAnLXRuJywgJzgnLCAnLW1hJywgJzIwMCcsICctbWV0YWxfYmluZGluZycsICctaW1hZScsICc8aW5maWxlLm1hZT4nLCAnLW9tYWUnLCAnPG91dGZpbGUubWFlPic=

> <r_epik_Ionization_Penalty>
0.00195486

> <r_epik_Ionization_Penalty_Charging>
0

> <r_epik_Ionization_Penalty_Neutral>
0.00195486

> <r_epik_State_Penalty>
0.00129472

> <r_epik_Charging_Adjusted_Penalty>
0.00129472

> <i_epik_Tot_Q>
0

> <i_epik_Tot_abs_Q>
0

> <r_epik_Metal_State_Penalty>
-0

> <b_epik_Metal_Only>
0

> <s_lp_Force_Field>
OPLS_2005

> <r_lp_Energy>
10.9889

> <b_lp_Chiralities_Consistent>
1

> <s_lp_Variant>
AV-unprocessed.smi:1941-2

> <Gold.Version>
5.8.1

> <Gold.Id.Protein>
6NUR|6NUR_protein|mol2

> <Gold.PLP.Fitness>
45.1116

> <Gold.PLP.PLP>
-34.9917

> <Gold.PLP.part.hbond>
-2.8752

> <Gold.PLP.part.metal>
0.0000

> <Gold.PLP.part.buried>
-3.7330

> <Gold.PLP.part.nonpolar>
-30.4179

> <Gold.PLP.part.repulsive>
0.5458

> <Gold.PLP.ligand.clash>
0.0000

> <Gold.PLP.ligand.torsion>
0.7277

> <Gold.PLP.Chemscore.Hbond>
2.8480

> <Gold.PLP.Chemscore.CHOScore>
1.0000

> <Gold.PLP.Chemscore.Metal>
0.0000

> <Gold.Chemscore.Hbonds>
donor molecule, donor type, donor heavy atom, donor atom, acceptor molecule, acceptor atom, score
      L1  H     7    27       P1  7957  0.85
      L1  H    10    28       P1  7957  1.00
      P1  H  7989  7998       L1    17  0.95
      L1  C    18    40       P1 10171  1.00

> <Gold.PLP.Chemscore.Internal.Correction>
0.0314

> <Gold.Rescore>
     Score         DG    S(hbond)    S(metal)    S(lipo)     H(rot)  DE(clash)    DE(int)     intcor
     15.33     -19.19       2.75        0.00      75.76       1.69       0.30       3.56       ----

> <Gold.Chemscore.Fitness>
15.3347

> <Gold.Chemscore.DG>
-19.1928

> <Gold.Chemscore.ZeroCoef>
-5.4800

> <Gold.Chemscore.Hbond>
2.7489

> <Gold.Chemscore.Metal>
0.0000

> <Gold.Chemscore.Lipo>
75.7593

> <Gold.Chemscore.Internal_Hbond>
0.0000

> <Gold.Chemscore.DEClash>
0.3005

> <Gold.Chemscore.DEInternal>
3.5576

> <Gold.Chemscore.Rot>
1.6923

> <Gold.Chemscore.Internal.Correction>
   9.000000E+99

> <Gold.Chemscore.Hbonds>
donor molecule, donor type, donor heavy atom, donor atom, acceptor molecule, acceptor atom, score
      L1  H     7    27       P1  7957  0.68
      L1  H    10    28       P1  7957  0.92
      P1  H  7989  7998       L1    17  0.21

> <Gold.Chemscore.Hbond.Weighted>
-9.1813

> <Gold.Chemscore.Metal.Weighted>
-0.0000

> <Gold.Chemscore.Lipo.Weighted>
-8.8638

> <Gold.Chemscore.Internal_Hbond.Weighted>
0.0000

> <Gold.Chemscore.DEClash.Weighted>
0.3005

> <Gold.Chemscore.DEInternal.Weighted>
3.5576

> <Gold.Chemscore.Rot.Weighted>
4.3323

> <Gold.Chemscore.Internal.Correction.Weighted>
   9.000000E+99

> <Gold.Protein.RotatedTorsions>
[ 6907 6896 6895 6894 ] final   83.36 input  -60.11 | X-H torsion
[ 7974 7965 7964 7962 ] final -167.04 input  175.53 | X-H torsion
[ 8008 7997 7996 7995 ] final  175.36 input   59.86 | X-H torsion
[ 10167 10162 10161 10158 ] final   20.23 input  -65.29 | X-H torsion
[ 10718 10713 10712 10709 ] final -150.34 input   66.30 | X-H torsion
[ 10763 10752 10751 10750 ] final  -50.63 input  -60.55 | X-H torsion
[ 11005 11000 10999 10996 ] final   28.73 input  -57.11 | X-H torsion

> <Gold.Protein.ActiveResidues>
 VAL166  LYS551  ARG553  GLY616  TRP617  ASP618  TYR619  PRO620  LYS621  CYS622 
 ASP623  PHE694  ASN695  SER759  ASP760  ASP761  ALA762  ILE779  LEU786  VAL792 
 PHE793  MET794  SER795  GLU796  ALA797  LYS798  CYS799  TRP800  GLU811  SER814 

> <Gold.Protein.RotatedAtoms>
  152.5325  134.2908  159.9041 H   0  0  0  0  0  0  0  0  0  0  0  0  # atno 6907 bound_to 6896
  151.2860  133.4181  159.2637 H   0  0  0  0  0  0  0  0  0  0  0  0  # atno 6908 bound_to 6896
  151.0242  134.9507  159.8133 H   0  0  0  0  0  0  0  0  0  0  0  0  # atno 6909 bound_to 6896
  144.7231  140.2577  143.6269 H   0  0  0  0  0  0  0  0  0  0  0  0  # atno 7974 bound_to 7965
  156.0879  140.1411  156.9630 H   0  0  0  0  0  0  0  0  0  0  0  0  # atno 8008 bound_to 7997
  154.4624  140.0938  156.6976 H   0  0  0  0  0  0  0  0  0  0  0  0  # atno 8009 bound_to 7997
  155.4968  140.3450  155.4366 H   0  0  0  0  0  0  0  0  0  0  0  0  # atno 8010 bound_to 7997
  140.5519  143.9493  150.6584 H   0  0  0  0  0  0  0  0  0  0  0  0  # atno 10167 bound_to 10162
  156.4448  130.8139  151.2370 H   0  0  0  0  0  0  0  0  0  0  0  0  # atno 10718 bound_to 10713
  154.1135  135.6545  153.4889 H   0  0  0  0  0  0  0  0  0  0  0  0  # atno 10763 bound_to 10752
  153.0249  135.5253  154.7168 H   0  0  0  0  0  0  0  0  0  0  0  0  # atno 10764 bound_to 10752
  154.6355  135.2981  155.0135 H   0  0  0  0  0  0  0  0  0  0  0  0  # atno 10765 bound_to 10752
  140.3125  134.2634  155.7731 H   0  0  0  0  0  0  0  0  0  0  0  0  # atno 11005 bound_to 11000
  145.8166  139.2026  143.1962 LP  0  0  0  0  0  0  0  0  0  0  0  0  # atno 17320 bound_to 7965
  146.0550  140.8030  142.9763 LP  0  0  0  0  0  0  0  0  0  0  0  0  # atno 17321 bound_to 7965
  140.2921  143.3317  152.1052 LP  0  0  0  0  0  0  0  0  0  0  0  0  # atno 17342 bound_to 10162
  139.5031  144.6749  151.6153 LP  0  0  0  0  0  0  0  0  0  0  0  0  # atno 17343 bound_to 10162
  157.7505  131.0156  150.3513 LP  0  0  0  0  0  0  0  0  0  0  0  0  # atno 17370 bound_to 10713
  156.3878  130.3892  149.7052 LP  0  0  0  0  0  0  0  0  0  0  0  0  # atno 17371 bound_to 10713
  141.2105  133.7718  156.9928 LP  0  0  0  0  0  0  0  0  0  0  0  0  # atno 17394 bound_to 11000
  140.1012  134.9534  157.1926 LP  0  0  0  0  0  0  0  0  0  0  0  0  # atno 17395 bound_to 11000

$$$$
