#       Name:                AV-unprocessed.smi:1433
#       Creating user name   scv26
#       Creation time:       Fri Mar 27 05:50:07 2020


#       File generated by GOLD software.
#

@<TRIPOS>MOLECULE
AV-unprocessed.smi:1433
    50    51     1
SMALL
NO_CHARGES


@<TRIPOS>ATOM
      1 ****        -0.8565  -3.6778   2.7141 C.3            1 S1                 0.0000
      2 ****        -1.2819  -2.2061   2.7410 C.3            1 S1                 0.0000
      3 ****        -0.7062  -1.4135   1.5523 C.3            1 S1                 0.0000
      4 ****        -1.1619  -0.0195   1.5187 N.3            1 S1                 0.0000
      5 ****        -0.6284   0.7293   0.3565 C.3            1 S1                 0.0000
      6 ****        -1.1236   2.1974   0.3133 C.3            1 S1                 0.0000
      7 ****         0.9270   0.7174   0.2750 C.3            1 S1                 0.0000
      8 ****         1.4610   1.4372  -0.8781 N.am           1 S1                 0.0000
      9 ****         1.4117   1.0069  -2.1484 C.2            1 S1                 0.0000
     10 ****         0.9016  -0.0619  -2.4843 O.2            1 S1                 0.0000
     11 ****         2.0327   1.9219  -3.2041 C.3            1 S1                 0.0000
     12 ****         3.3520   1.4542  -3.5888 N.pl3          1 S1                 0.0000
     13 ****         3.6824   0.5076  -4.5363 C.2            1 S1                 0.0000
     14 ****         5.0437   0.3995  -4.5458 C.2            1 S1                 0.0000
     15 ****         5.4632   1.3297  -3.5539 C.2            1 S1                 0.0000
     16 ****         4.4489   1.9599  -2.9831 N.2            1 S1                 0.0000
     17 ****        -2.6287  -0.0234   1.5560 C.3            1 S1                 0.0000
     18 ****        -3.2001  -0.8207   2.7441 C.3            1 S1                 0.0000
     19 ****        -4.7310  -0.8833   2.7171 C.3            1 S1                 0.0000
     20 ****        -2.7017  -2.1513   2.6954 O.3            1 S1                 0.0000
     21 ****         0.2285  -3.7730   2.7615 H              1 S1                 0.0000
     22 ****        -1.1965  -4.1709   1.8031 H              1 S1                 0.0000
     23 ****        -1.2750  -4.2198   3.5624 H              1 S1                 0.0000
     24 ****        -0.9399  -1.7608   3.6769 H              1 S1                 0.0000
     25 ****         0.3771  -1.4600   1.6415 H              1 S1                 0.0000
     26 ****        -0.9708  -1.9104   0.6176 H              1 S1                 0.0000
     27 ****        -1.0002   0.2447  -0.5476 H              1 S1                 0.0000
     28 ****        -0.6927   2.7582  -0.5151 H              1 S1                 0.0000
     29 ****        -0.8706   2.7257   1.2329 H              1 S1                 0.0000
     30 ****        -2.2007   2.2665   0.1687 H              1 S1                 0.0000
     31 ****         1.3491   1.1618   1.1770 H              1 S1                 0.0000
     32 ****         1.3243  -0.2952   0.2152 H              1 S1                 0.0000
     33 ****         1.9045   2.3258  -0.6951 H              1 S1                 0.0000
     34 ****         1.3958   1.9423  -4.0892 H              1 S1                 0.0000
     35 ****         2.1012   2.9474  -2.8363 H              1 S1                 0.0000
     36 ****         2.9290  -0.0046  -5.1167 H              1 S1                 0.0000
     37 ****         5.6476  -0.2468  -5.1651 H              1 S1                 0.0000
     38 ****         6.4677   1.5640  -3.2341 H              1 S1                 0.0000
     39 ****        -3.0111   0.9922   1.6411 H              1 S1                 0.0000
     40 ****        -3.0190  -0.4319   0.6225 H              1 S1                 0.0000
     41 ****        -2.8857  -0.3568   3.6807 H              1 S1                 0.0000
     42 ****        -5.1668   0.1151   2.7628 H              1 S1                 0.0000
     43 ****        -5.1118  -1.4512   3.5662 H              1 S1                 0.0000
     44 ****        -5.0899  -1.3646   1.8069 H              1 S1                 0.0000
     45 ****        -0.8050   0.4659   2.3169 LP             1 S1                 0.0000
     46 ****         0.4951  -0.6607  -1.7942 LP             1 S1                 0.0000
     47 ****         0.8938  -0.3314  -3.4472 LP             1 S1                 0.0000
     48 ****         4.4860   2.6545  -2.2647 LP             1 S1                 0.0000
     49 ****        -3.0669  -2.6587   3.4759 LP             1 S1                 0.0000
     50 ****        -3.0114  -2.5783   1.8459 LP             1 S1                 0.0000
@<TRIPOS>BOND
    1    1    2 1     
    2    1   21 1     
    3    1   22 1     
    4    1   23 1     
    5    2   20 1     
    6    2    3 1     
    7    2   24 1     
    8    3    4 1     
    9    3   25 1     
   10    3   26 1     
   11    4    5 1     
   12    4   17 1     
   13    5    6 1     
   14    5    7 1     
   15    5   27 1     
   16    6   28 1     
   17    6   29 1     
   18    6   30 1     
   19    7    8 1     
   20    7   31 1     
   21    7   32 1     
   22    8    9 am    
   23    8   33 1     
   24    9   10 2     
   25    9   11 1     
   26   11   12 1     
   27   11   34 1     
   28   11   35 1     
   29   12   16 1     
   30   12   13 1     
   31   13   14 2     
   32   13   36 1     
   33   14   15 1     
   34   14   37 1     
   35   15   16 2     
   36   15   38 1     
   37   17   18 1     
   38   17   39 1     
   39   17   40 1     
   40   18   19 1     
   41   18   20 1     
   42   18   41 1     
   43   19   42 1     
   44   19   43 1     
   45   19   44 1     
   46    4   45 1     
   47   10   46 1     
   48   10   47 1     
   49   16   48 1     
   50   20   49 1     
   51   20   50 1     
@<TRIPOS>SUBSTRUCTURE
      1 S1             1
@<TRIPOS>SET
LONE_PAIRS      STATIC     ATOMS    <user>   **** ""
6 45 46 47 48 49 50
DONOR_HYDROGENS      STATIC     ATOMS    <user>   **** ""
1 33
ATOM$BLUE        STATIC     ATOMS    COLORGROUP SYSTEM
6 45 46 47 48 49 50
ATOM$RED        STATIC     ATOMS    COLORGROUP SYSTEM
1 33
