AV-unprocessed.smi:107|AV-procd|sdf|1028|dock1
  -GOLD-   2262018 33D 1   1.00000     0.00000
 Structure written by MMmdl.
 30 31  0  0  0  0  0  0  0  0  2 V2000
  151.1114  143.1947  158.5781 C   0  0  0  0  0  0  0  0  0  0  0  0
  151.3263  142.0071  157.6562 C   0  0  0  0  0  0  0  0  0  0  0  0
  150.6400  141.8572  156.5011 C   0  0  0  0  0  0  0  0  0  0  0  0
  150.8388  140.7719  155.6633 N   0  0  0  0  0  0  0  0  0  0  0  0
  150.0668  140.6092  154.3678 C   0  0  1  0  0  0  0  0  0  0  0  0
  149.2012  139.3361  154.4057 C   0  0  0  0  0  0  0  0  0  0  0  0
  147.8205  139.8375  154.0205 C   0  0  2  0  0  0  0  0  0  0  0  0
  147.6098  139.7059  152.6269 O   0  0  0  0  0  0  0  0  0  0  0  0
  147.8637  141.3042  154.4642 C   0  0  2  0  0  0  0  0  0  0  0  0
  146.8603  142.2639  153.8011 C   0  0  0  0  0  0  0  0  0  0  0  0
  145.5445  141.9713  154.2229 O   0  0  0  0  0  0  0  0  0  0  0  0
  149.2031  141.6952  154.1859 O   0  0  0  0  0  0  0  0  0  0  0  0
  151.7974  139.7850  156.0144 C   0  0  0  0  0  0  0  0  0  0  0  0
  151.9562  138.8349  155.2473 O   0  0  0  0  0  0  0  0  0  0  0  0
  152.4941  139.9280  157.1777 N   0  5  0  0  0  0  0  0  0  0  0  0
  152.3120  140.9831  158.0223 C   0  0  0  0  0  0  0  0  0  0  0  0
  152.9455  141.0978  159.0714 O   0  0  0  0  0  0  0  0  0  0  0  0
  150.3539  143.8718  158.1831 H   0  0  0  0  0  0  0  0  0  0  0  0
  152.0382  143.7569  158.6967 H   0  0  0  0  0  0  0  0  0  0  0  0
  150.7835  142.8583  159.5623 H   0  0  0  0  0  0  0  0  0  0  0  0
  149.9197  142.6156  156.2373 H   0  0  0  0  0  0  0  0  0  0  0  0
  150.8163  140.6141  153.5747 H   0  0  0  0  0  0  0  0  0  0  0  0
  149.5978  138.5710  153.7372 H   0  0  0  0  0  0  0  0  0  0  0  0
  149.1816  138.9334  155.4195 H   0  0  0  0  0  0  0  0  0  0  0  0
  147.0344  139.2861  154.5371 H   0  0  0  0  0  0  0  0  0  0  0  0
  148.3669  140.0494  152.1772 H   0  0  0  0  0  0  0  0  0  0  0  0
  147.7295  141.3414  155.5469 H   0  0  0  0  0  0  0  0  0  0  0  0
  147.0899  143.2916  154.0832 H   0  0  0  0  0  0  0  0  0  0  0  0
  146.9170  142.2150  152.7136 H   0  0  0  0  0  0  0  0  0  0  0  0
  145.1508  141.3862  153.5938 H   0  0  0  0  0  0  0  0  0  0  0  0
  1  2  1  0  0  0  0
  1 18  1  0  0  0  0
  1 19  1  0  0  0  0
  1 20  1  0  0  0  0
  2 16  1  0  0  0  0
  2  3  2  0  0  0  0
  3  4  1  0  0  0  0
  3 21  1  0  0  0  0
  4  5  1  0  0  0  0
  4 13  1  0  0  0  0
  5 12  1  0  0  0  0
  5  6  1  0  0  0  0
  5 22  1  0  0  0  0
  6  7  1  0  0  0  0
  6 23  1  0  0  0  0
  6 24  1  0  0  0  0
  7  8  1  0  0  0  0
  7  9  1  0  0  0  0
  7 25  1  0  0  0  0
  8 26  1  0  0  0  0
  9 10  1  0  0  0  0
  9 12  1  0  0  0  0
  9 27  1  0  0  0  0
 10 11  1  0  0  0  0
 10 28  1  0  0  0  0
 10 29  1  0  0  0  0
 11 30  1  0  0  0  0
 13 14  2  0  0  0  0
 13 15  1  0  0  0  0
 15 16  1  0  0  0  0
 16 17  2  0  0  0  0
M  CHG  1  15  -1
M  END
> <s_m_source_file>
AV-unprocessed.smi

> <i_m_source_file_index>
107

> <i_lp_mmshare_version>
43012

> <i_f3d_flags>
0

> <s_epik_input>
Tz1jMVtuSF1jKD1PKW4oW2NIXWMxW0NIM10pW0NAQEhdMltDSDJdW0NAQEhdKFtPSF0pW0NASF0oTzIpW0NIMl1bT0hd

> <s_epik_cmdline>
J2VwaWtfcHl0aG9uJywgJy1waCcsICc3LjAnLCAnLXRuJywgJzgnLCAnLW1hJywgJzIwMCcsICctbWV0YWxfYmluZGluZycsICctaW1hZScsICc8aW5maWxlLm1hZT4nLCAnLW9tYWUnLCAnPG91dGZpbGUubWFlPic=

> <r_lp_tautomer_probability>
0.999537

> <r_epik_Ionization_Penalty>
3.66603

> <r_epik_Ionization_Penalty_Charging>
1.09773e-07

> <r_epik_Ionization_Penalty_Neutral>
3.66603

> <r_epik_State_Penalty>
3.66562

> <r_epik_Charging_Adjusted_Penalty>
3.66562

> <i_epik_Tot_Q>
-1

> <i_epik_Tot_abs_Q>
1

> <r_epik_Metal_State_Penalty>
0.234536

> <b_epik_Metal_Only>
1

> <s_epik_Chemistry_Notes>
This compound contains an acetal/aminal-like group ( X-CH(R)-Y where X, Y are N, S, or O) that may be acid/base labile, releasing an aldehyde.

> <s_lp_Force_Field>
OPLS_2005

> <r_lp_Energy>
39.9297

> <b_lp_Chiralities_Consistent>
1

> <s_lp_Variant>
AV-unprocessed.smi:107-16

> <Gold.Version>
5.8.1

> <Gold.Id.Protein>
6NUR|6NUR_protein|mol2

> <Gold.PLP.Fitness>
46.4304

> <Gold.PLP.PLP>
-30.0871

> <Gold.PLP.part.hbond>
-4.4672

> <Gold.PLP.part.metal>
0.0000

> <Gold.PLP.part.buried>
-1.9066

> <Gold.PLP.part.nonpolar>
-23.0567

> <Gold.PLP.part.repulsive>
0.2058

> <Gold.PLP.ligand.clash>
0.0000

> <Gold.PLP.ligand.torsion>
0.0462

> <Gold.PLP.Chemscore.Hbond>
4.4774

> <Gold.PLP.Chemscore.CHOScore>
1.0000

> <Gold.PLP.Chemscore.Metal>
0.0000

> <Gold.Chemscore.Hbonds>
donor molecule, donor type, donor heavy atom, donor atom, acceptor molecule, acceptor atom, score
      L1  H     8    26       P1  7957  1.00
      L1  H    11    30       P1 10175  0.94
      P1  H  7997  8008       L1    15  2.00
      P1  H  8011  8017       L1    12  0.50
      L1  C     3    21       P1  8028  1.00

> <Gold.PLP.Chemscore.Internal.Correction>
0.0036

> <Gold.Rescore>
     Score         DG    S(hbond)    S(metal)    S(lipo)     H(rot)  DE(clash)    DE(int)     intcor
      9.83     -12.42       2.44        0.00      48.58       2.69       1.37       1.22       ----

> <Gold.Chemscore.Fitness>
9.8340

> <Gold.Chemscore.DG>
-12.4184

> <Gold.Chemscore.ZeroCoef>
-5.4800

> <Gold.Chemscore.Hbond>
2.4354

> <Gold.Chemscore.Metal>
0.0000

> <Gold.Chemscore.Lipo>
48.5753

> <Gold.Chemscore.Internal_Hbond>
0.0000

> <Gold.Chemscore.DEClash>
1.3688

> <Gold.Chemscore.DEInternal>
1.2155

> <Gold.Chemscore.Rot>
2.6871

> <Gold.Chemscore.Internal.Correction>
   9.000000E+99

> <Gold.Chemscore.Hbonds>
donor molecule, donor type, donor heavy atom, donor atom, acceptor molecule, acceptor atom, score
      L1  H     8    26       P1  7957  0.97
      L1  H    11    30       P1 10175  0.20
      P1  H  7997  8008       L1    15  0.24
      P1  H  8011  8017       L1    12  0.16

> <Gold.Chemscore.Hbond.Weighted>
-8.1342

> <Gold.Chemscore.Metal.Weighted>
-0.0000

> <Gold.Chemscore.Lipo.Weighted>
-5.6833

> <Gold.Chemscore.Internal_Hbond.Weighted>
0.0000

> <Gold.Chemscore.DEClash.Weighted>
1.3688

> <Gold.Chemscore.DEInternal.Weighted>
1.2155

> <Gold.Chemscore.Rot.Weighted>
6.8791

> <Gold.Chemscore.Internal.Correction.Weighted>
   9.000000E+99

> <Gold.Protein.RotatedTorsions>
[ 6907 6896 6895 6894 ] final -100.32 input  -60.11 | X-H torsion
[ 7974 7965 7964 7962 ] final   82.34 input  175.53 | X-H torsion
[ 8008 7997 7996 7995 ] final  -67.28 input   59.86 | X-H torsion
[ 10167 10162 10161 10158 ] final -126.90 input  -65.29 | X-H torsion
[ 10718 10713 10712 10709 ] final -117.19 input   66.30 | X-H torsion
[ 10763 10752 10751 10750 ] final -128.34 input  -60.55 | X-H torsion
[ 11005 11000 10999 10996 ] final   94.49 input  -57.11 | X-H torsion

> <Gold.Protein.ActiveResidues>
 VAL166  LYS551  ARG553  GLY616  TRP617  ASP618  TYR619  PRO620  LYS621  CYS622 
 ASP623  PHE694  ASN695  SER759  ASP760  ASP761  ALA762  ILE779  LEU786  VAL792 
 PHE793  MET794  SER795  GLU796  ALA797  LYS798  CYS799  TRP800  GLU811  SER814 

> <Gold.Protein.RotatedAtoms>
  150.7111  134.0906  159.3929 H   0  0  0  0  0  0  0  0  0  0  0  0  # atno 6907 bound_to 6896
  151.8891  135.0421  160.0505 H   0  0  0  0  0  0  0  0  0  0  0  0  # atno 6908 bound_to 6896
  152.2506  133.5176  159.5360 H   0  0  0  0  0  0  0  0  0  0  0  0  # atno 6909 bound_to 6896
  145.6263  139.2396  143.2110 H   0  0  0  0  0  0  0  0  0  0  0  0  # atno 7974 bound_to 7965
  154.4789  140.0896  156.7330 H   0  0  0  0  0  0  0  0  0  0  0  0  # atno 8008 bound_to 7997
  155.4522  140.3458  155.4284 H   0  0  0  0  0  0  0  0  0  0  0  0  # atno 8009 bound_to 7997
  156.1161  140.1461  156.9259 H   0  0  0  0  0  0  0  0  0  0  0  0  # atno 8010 bound_to 7997
  139.9665  143.5892  152.2427 H   0  0  0  0  0  0  0  0  0  0  0  0  # atno 10167 bound_to 10162
  156.1017  130.6177  150.9133 H   0  0  0  0  0  0  0  0  0  0  0  0  # atno 10718 bound_to 10713
  154.8756  135.3931  154.3741 H   0  0  0  0  0  0  0  0  0  0  0  0  # atno 10763 bound_to 10752
  153.4497  135.7028  153.6122 H   0  0  0  0  0  0  0  0  0  0  0  0  # atno 10764 bound_to 10752
  153.4667  135.3800  155.2337 H   0  0  0  0  0  0  0  0  0  0  0  0  # atno 10765 bound_to 10752
  139.8798  134.8848  156.3872 H   0  0  0  0  0  0  0  0  0  0  0  0  # atno 11005 bound_to 11000
  146.1392  140.7081  142.9375 LP  0  0  0  0  0  0  0  0  0  0  0  0  # atno 17320 bound_to 7965
  144.7211  140.4376  143.7007 LP  0  0  0  0  0  0  0  0  0  0  0  0  # atno 17321 bound_to 7965
  139.6514  144.7661  151.2141 LP  0  0  0  0  0  0  0  0  0  0  0  0  # atno 17342 bound_to 10162
  140.7536  143.6155  150.8563 LP  0  0  0  0  0  0  0  0  0  0  0  0  # atno 17343 bound_to 10162
  157.6188  131.0931  150.8662 LP  0  0  0  0  0  0  0  0  0  0  0  0  # atno 17370 bound_to 10713
  156.8788  130.5172  149.5292 LP  0  0  0  0  0  0  0  0  0  0  0  0  # atno 17371 bound_to 10713
  140.9358  133.7548  156.0082 LP  0  0  0  0  0  0  0  0  0  0  0  0  # atno 17394 bound_to 11000
  140.8278  134.3214  157.5359 LP  0  0  0  0  0  0  0  0  0  0  0  0  # atno 17395 bound_to 11000

$$$$
