AV-unprocessed.smi:1906|AV-procd|sdf|7729|dock3
  -GOLD-   22720 9473D 1   1.00000     0.00000
 Structure written by MMmdl.
 36 38  0  0  0  0  0  0  0  0  2 V2000
  151.8141  137.8034  154.6553 C   0  0  0  0  0  0  0  0  0  0  0  0
  150.6625  138.7224  154.4208 C   0  0  0  0  0  0  0  0  0  0  0  0
  149.5802  138.4664  153.6326 N   0  3  0  0  0  0  0  0  0  0  0  0
  148.7090  139.5567  153.6574 C   0  0  0  0  0  0  0  0  0  0  0  0
  147.4883  139.7643  153.0223 C   0  0  0  0  0  0  0  0  0  0  0  0
  146.8513  140.9994  153.2640 C   0  0  0  0  0  0  0  0  0  0  0  0
  147.4287  141.9710  154.1076 C   0  0  0  0  0  0  0  0  0  0  0  0
  148.6671  141.7495  154.7452 C   0  0  0  0  0  0  0  0  0  0  0  0
  149.2888  140.5254  154.5016 C   0  0  0  0  0  0  0  0  0  0  0  0
  150.4910  139.9679  154.9490 N   0  0  0  0  0  0  0  0  0  0  0  0
  151.3433  140.7425  155.8631 C   0  0  0  0  0  0  0  0  0  0  0  0
  151.1729  140.3312  157.3392 C   0  0  2  0  0  0  0  0  0  0  0  0
  149.7971  140.2361  157.6531 O   0  0  0  0  0  0  0  0  0  0  0  0
  151.9093  141.2868  158.2640 C   0  0  0  0  0  0  0  0  0  0  0  0
  152.7781  140.7945  159.2628 C   0  0  0  0  0  0  0  0  0  0  0  0
  153.4458  141.6862  160.1248 C   0  0  0  0  0  0  0  0  0  0  0  0
  153.2476  143.0742  159.9943 C   0  0  0  0  0  0  0  0  0  0  0  0
  152.3808  143.5701  159.0016 C   0  0  0  0  0  0  0  0  0  0  0  0
  152.1874  144.9043  158.8765 F   0  0  0  0  0  0  0  0  0  0  0  0
  151.7130  142.6789  158.1394 C   0  0  0  0  0  0  0  0  0  0  0  0
  151.6905  136.8813  154.0869 H   0  0  0  0  0  0  0  0  0  0  0  0
  151.8853  137.5515  155.7135 H   0  0  0  0  0  0  0  0  0  0  0  0
  152.7453  138.2785  154.3463 H   0  0  0  0  0  0  0  0  0  0  0  0
  147.0442  139.0214  152.3759 H   0  0  0  0  0  0  0  0  0  0  0  0
  145.9010  141.2055  152.7930 H   0  0  0  0  0  0  0  0  0  0  0  0
  146.9111  142.9056  154.2694 H   0  0  0  0  0  0  0  0  0  0  0  0
  149.1019  142.4999  155.3890 H   0  0  0  0  0  0  0  0  0  0  0  0
  152.3799  140.6245  155.5448 H   0  0  0  0  0  0  0  0  0  0  0  0
  151.1016  141.7980  155.7303 H   0  0  0  0  0  0  0  0  0  0  0  0
  151.5908  139.3337  157.4799 H   0  0  0  0  0  0  0  0  0  0  0  0
  149.7107  139.8229  158.4989 H   0  0  0  0  0  0  0  0  0  0  0  0
  152.9321  139.7310  159.3733 H   0  0  0  0  0  0  0  0  0  0  0  0
  154.1086  141.3049  160.8877 H   0  0  0  0  0  0  0  0  0  0  0  0
  153.7583  143.7578  160.6562 H   0  0  0  0  0  0  0  0  0  0  0  0
  151.0477  143.0701  157.3835 H   0  0  0  0  0  0  0  0  0  0  0  0
  149.4494  137.6064  153.1158 H   0  0  0  0  0  0  0  0  0  0  0  0
  1  2  1  0  0  0  0
  1 21  1  0  0  0  0
  1 22  1  0  0  0  0
  1 23  1  0  0  0  0
  2 10  1  0  0  0  0
  2  3  2  0  0  0  0
  3  4  1  0  0  0  0
  3 36  1  0  0  0  0
  4  9  2  0  0  0  0
  4  5  1  0  0  0  0
  5  6  2  0  0  0  0
  5 24  1  0  0  0  0
  6  7  1  0  0  0  0
  6 25  1  0  0  0  0
  7  8  2  0  0  0  0
  7 26  1  0  0  0  0
  8  9  1  0  0  0  0
  8 27  1  0  0  0  0
  9 10  1  0  0  0  0
 10 11  1  0  0  0  0
 11 12  1  0  0  0  0
 11 28  1  0  0  0  0
 11 29  1  0  0  0  0
 12 13  1  0  0  0  0
 12 14  1  0  0  0  0
 12 30  1  0  0  0  0
 13 31  1  0  0  0  0
 14 20  1  0  0  0  0
 14 15  2  0  0  0  0
 15 16  1  0  0  0  0
 15 32  1  0  0  0  0
 16 17  2  0  0  0  0
 16 33  1  0  0  0  0
 17 18  1  0  0  0  0
 17 34  1  0  0  0  0
 18 19  1  0  0  0  0
 18 20  2  0  0  0  0
 20 35  1  0  0  0  0
M  CHG  1   3   1
M  END
> <s_m_source_file>
AV-unprocessed.smi

> <i_m_source_file_index>
1906

> <i_lp_mmshare_version>
43012

> <i_f3d_flags>
0

> <s_epik_input>
W2NIXTFbY0hdW2NIXVtjSF1jKGMxMiluKGMobjIpW0NIM10pW0NIMl1bQ0BIXShbT0hdKWMzW2NIXVtjSF1bY0hdYyhGKVtjSF0z

> <s_epik_cmdline>
J2VwaWtfcHl0aG9uJywgJy1waCcsICc3LjAnLCAnLXRuJywgJzgnLCAnLW1hJywgJzIwMCcsICctbWV0YWxfYmluZGluZycsICctaW1hZScsICc8aW5maWxlLm1hZT4nLCAnLW9tYWUnLCAnPG91dGZpbGUubWFlPic=

> <r_epik_Ionization_Penalty>
0.963871

> <r_epik_Ionization_Penalty_Charging>
0.963868

> <r_epik_Ionization_Penalty_Neutral>
3.53208e-06

> <r_epik_State_Penalty>
1.00924

> <r_epik_Charging_Adjusted_Penalty>
1.9731

> <i_epik_Tot_Q>
1

> <i_epik_Tot_abs_Q>
1

> <r_epik_Metal_State_Penalty>
4.98304

> <b_epik_Metal_Only>
0

> <s_lp_Force_Field>
OPLS_2005

> <r_lp_Energy>
13.6568

> <b_lp_Chiralities_Consistent>
1

> <s_lp_Variant>
AV-unprocessed.smi:1906-3

> <Gold.Version>
5.8.1

> <Gold.Id.Protein>
6NUR|6NUR_protein|mol2

> <Gold.PLP.Fitness>
54.8902

> <Gold.PLP.PLP>
-50.0668

> <Gold.PLP.part.hbond>
-2.0000

> <Gold.PLP.part.metal>
0.0000

> <Gold.PLP.part.buried>
2.5722

> <Gold.PLP.part.nonpolar>
-50.3916

> <Gold.PLP.part.repulsive>
0.0690

> <Gold.PLP.ligand.clash>
0.0000

> <Gold.PLP.ligand.torsion>
0.5979

> <Gold.PLP.Chemscore.Hbond>
2.0000

> <Gold.PLP.Chemscore.CHOScore>
0.0000

> <Gold.PLP.Chemscore.Metal>
0.0000

> <Gold.Chemscore.Hbonds>
donor molecule, donor type, donor heavy atom, donor atom, acceptor molecule, acceptor atom, score
      L1  H     3    36       P1  7948  2.00

> <Gold.PLP.Chemscore.Internal.Correction>
0.0192

> <Gold.Rescore>
     Score         DG    S(hbond)    S(metal)    S(lipo)     H(rot)  DE(clash)    DE(int)     intcor
     17.44     -18.06       0.80        0.00     124.98       1.85       0.30       0.32       ----

> <Gold.Chemscore.Fitness>
17.4360

> <Gold.Chemscore.DG>
-18.0561

> <Gold.Chemscore.ZeroCoef>
-5.4800

> <Gold.Chemscore.Hbond>
0.8026

> <Gold.Chemscore.Metal>
0.0000

> <Gold.Chemscore.Lipo>
124.9797

> <Gold.Chemscore.Internal_Hbond>
0.0000

> <Gold.Chemscore.DEClash>
0.3023

> <Gold.Chemscore.DEInternal>
0.3178

> <Gold.Chemscore.Rot>
1.8465

> <Gold.Chemscore.Internal.Correction>
   9.000000E+99

> <Gold.Chemscore.Hbonds>
donor molecule, donor type, donor heavy atom, donor atom, acceptor molecule, acceptor atom, score
      L1  H     3    36       P1  7948  0.90

> <Gold.Chemscore.Hbond.Weighted>
-2.6805

> <Gold.Chemscore.Metal.Weighted>
-0.0000

> <Gold.Chemscore.Lipo.Weighted>
-14.6226

> <Gold.Chemscore.Internal_Hbond.Weighted>
0.0000

> <Gold.Chemscore.DEClash.Weighted>
0.3023

> <Gold.Chemscore.DEInternal.Weighted>
0.3178

> <Gold.Chemscore.Rot.Weighted>
4.7270

> <Gold.Chemscore.Internal.Correction.Weighted>
   9.000000E+99

> <Gold.Protein.RotatedTorsions>
[ 6907 6896 6895 6894 ] final  -52.02 input  -60.11 | X-H torsion
[ 7974 7965 7964 7962 ] final  102.66 input  175.53 | X-H torsion
[ 8008 7997 7996 7995 ] final  168.18 input   59.86 | X-H torsion
[ 10167 10162 10161 10158 ] final  138.68 input  -65.29 | X-H torsion
[ 10718 10713 10712 10709 ] final  -70.82 input   66.30 | X-H torsion
[ 10763 10752 10751 10750 ] final   71.58 input  -60.55 | X-H torsion
[ 11005 11000 10999 10996 ] final  -31.19 input  -57.11 | X-H torsion

> <Gold.Protein.ActiveResidues>
 VAL166  LYS551  ARG553  GLY616  TRP617  ASP618  TYR619  PRO620  LYS621  CYS622 
 ASP623  PHE694  ASN695  SER759  ASP760  ASP761  ALA762  ILE779  LEU786  VAL792 
 PHE793  MET794  SER795  GLU796  ALA797  LYS798  CYS799  TRP800  GLU811  SER814 

> <Gold.Protein.RotatedAtoms>
  150.8557  134.7895  159.7043 H   0  0  0  0  0  0  0  0  0  0  0  0  # atno 6907 bound_to 6896
  152.4609  134.5183  159.9784 H   0  0  0  0  0  0  0  0  0  0  0  0  # atno 6908 bound_to 6896
  151.5296  133.3413  159.2951 H   0  0  0  0  0  0  0  0  0  0  0  0  # atno 6909 bound_to 6896
  145.3561  139.2428  143.3531 H   0  0  0  0  0  0  0  0  0  0  0  0  # atno 7974 bound_to 7965
  156.1570  140.1597  156.8676 H   0  0  0  0  0  0  0  0  0  0  0  0  # atno 8008 bound_to 7997
  154.5124  140.0798  156.8051 H   0  0  0  0  0  0  0  0  0  0  0  0  # atno 8009 bound_to 7997
  155.3784  140.3404  155.4248 H   0  0  0  0  0  0  0  0  0  0  0  0  # atno 8010 bound_to 7997
  139.5103  144.6339  151.5746 H   0  0  0  0  0  0  0  0  0  0  0  0  # atno 10167 bound_to 10162
  156.0390  130.4339  150.2352 H   0  0  0  0  0  0  0  0  0  0  0  0  # atno 10718 bound_to 10713
  153.0407  135.5131  154.7615 H   0  0  0  0  0  0  0  0  0  0  0  0  # atno 10763 bound_to 10752
  154.6554  135.2931  154.9936 H   0  0  0  0  0  0  0  0  0  0  0  0  # atno 10764 bound_to 10752
  154.0805  135.6664  153.4890 H   0  0  0  0  0  0  0  0  0  0  0  0  # atno 10765 bound_to 10752
  140.9447  133.7257  156.1129 H   0  0  0  0  0  0  0  0  0  0  0  0  # atno 11005 bound_to 11000
  146.2947  140.4187  142.8726 LP  0  0  0  0  0  0  0  0  0  0  0  0  # atno 17320 bound_to 7965
  144.8681  140.7234  143.6064 LP  0  0  0  0  0  0  0  0  0  0  0  0  # atno 17321 bound_to 7965
  140.6082  143.9486  150.6434 LP  0  0  0  0  0  0  0  0  0  0  0  0  # atno 17342 bound_to 10162
  140.2719  143.3450  152.1230 LP  0  0  0  0  0  0  0  0  0  0  0  0  # atno 17343 bound_to 10162
  157.0449  131.0046  151.3272 LP  0  0  0  0  0  0  0  0  0  0  0  0  # atno 17370 bound_to 10713
  157.5182  130.7981  149.7780 LP  0  0  0  0  0  0  0  0  0  0  0  0  # atno 17371 bound_to 10713
  140.7686  134.3859  157.5512 LP  0  0  0  0  0  0  0  0  0  0  0  0  # atno 17394 bound_to 11000
  139.8830  134.9007  156.2795 LP  0  0  0  0  0  0  0  0  0  0  0  0  # atno 17395 bound_to 11000

$$$$
