AV-unprocessed.smi:696|AV-procd|sdf|3386|dock2
  -GOLD-   22720 0363D 1   1.00000     0.00000
 Structure written by MMmdl.
 38 39  0  0  0  0  0  0  0  0  1 V2000
  151.2578  140.3386  156.3479 O   0  0  0  0  0  0  0  0  0  0  0  0
  150.6414  141.3884  156.5343 C   0  0  0  0  0  0  0  0  0  0  0  0
  149.7378  141.8722  155.6676 N   0  0  0  0  0  0  0  0  0  0  0  0
  149.3675  141.2427  154.4052 C   0  0  0  0  0  0  0  0  0  0  0  0
  147.8849  141.4962  154.0593 C   0  0  0  0  0  0  0  0  0  0  0  0
  147.1265  140.2910  153.5177 C   0  0  0  0  0  0  0  0  0  0  0  0
  146.2006  139.6208  154.1094 N   0  0  0  0  0  0  0  0  0  0  0  0
  145.9055  138.6865  153.1716 N   0  0  0  0  0  0  0  0  0  0  0  0
  146.6262  138.7846  152.0488 C   0  0  0  0  0  0  0  0  0  0  0  0
  146.5642  138.0741  151.0482 O   0  0  0  0  0  0  0  0  0  0  0  0
  147.4241  139.8236  152.2598 N   0  0  0  0  0  0  0  0  0  0  0  0
  150.8913  142.2161  157.8043 C   0  0  0  0  0  0  0  0  0  0  0  0
  151.3266  143.6512  157.4255 C   0  0  0  0  0  0  0  0  0  0  0  0
  151.1805  144.6498  158.5866 C   0  0  0  0  0  0  0  0  0  0  0  0
  152.3912  144.7474  159.5323 C   0  0  0  0  0  0  0  0  0  0  0  0
  153.1198  143.4317  159.8592 C   0  0  0  0  0  0  0  0  0  0  0  0
  152.2146  142.2028  160.0418 C   0  0  0  0  0  0  0  0  0  0  0  0
  151.9015  141.4869  158.7156 C   0  0  0  0  0  0  0  0  0  0  0  0
  145.1910  138.0000  153.3675 H   0  0  0  0  0  0  0  0  0  0  0  0
  148.1178  140.2014  151.6311 H   0  0  0  0  0  0  0  0  0  0  0  0
  149.2779  142.7413  155.8976 H   0  0  0  0  0  0  0  0  0  0  0  0
  150.0118  141.6563  153.6285 H   0  0  0  0  0  0  0  0  0  0  0  0
  149.5797  140.1727  154.4533 H   0  0  0  0  0  0  0  0  0  0  0  0
  147.3570  141.8549  154.9435 H   0  0  0  0  0  0  0  0  0  0  0  0
  147.8198  142.2961  153.3208 H   0  0  0  0  0  0  0  0  0  0  0  0
  149.9427  142.2801  158.3404 H   0  0  0  0  0  0  0  0  0  0  0  0
  152.3443  143.6649  157.0327 H   0  0  0  0  0  0  0  0  0  0  0  0
  150.6922  144.0046  156.6108 H   0  0  0  0  0  0  0  0  0  0  0  0
  150.9982  145.6438  158.1764 H   0  0  0  0  0  0  0  0  0  0  0  0
  150.2850  144.4124  159.1620 H   0  0  0  0  0  0  0  0  0  0  0  0
  153.1195  145.4400  159.1088 H   0  0  0  0  0  0  0  0  0  0  0  0
  152.0569  145.2101  160.4616 H   0  0  0  0  0  0  0  0  0  0  0  0
  153.8614  143.2231  159.0870 H   0  0  0  0  0  0  0  0  0  0  0  0
  153.6955  143.5868  160.7724 H   0  0  0  0  0  0  0  0  0  0  0  0
  152.7404  141.4928  160.6811 H   0  0  0  0  0  0  0  0  0  0  0  0
  151.3004  142.4631  160.5764 H   0  0  0  0  0  0  0  0  0  0  0  0
  151.5010  140.5000  158.9535 H   0  0  0  0  0  0  0  0  0  0  0  0
  152.8329  141.3013  158.1778 H   0  0  0  0  0  0  0  0  0  0  0  0
  1  2  2  0  0  0  0
  2  3  1  0  0  0  0
  2 12  1  0  0  0  0
  3  4  1  0  0  0  0
  3 21  1  0  0  0  0
  4  5  1  0  0  0  0
  4 22  1  0  0  0  0
  4 23  1  0  0  0  0
  5  6  1  0  0  0  0
  5 24  1  0  0  0  0
  5 25  1  0  0  0  0
  6 11  1  0  0  0  0
  6  7  2  0  0  0  0
  7  8  1  0  0  0  0
  8 19  1  0  0  0  0
  8  9  1  0  0  0  0
  9 10  2  0  0  0  0
  9 11  1  0  0  0  0
 11 20  1  0  0  0  0
 12 18  1  0  0  0  0
 12 13  1  0  0  0  0
 12 26  1  0  0  0  0
 13 14  1  0  0  0  0
 13 27  1  0  0  0  0
 13 28  1  0  0  0  0
 14 15  1  0  0  0  0
 14 29  1  0  0  0  0
 14 30  1  0  0  0  0
 15 16  1  0  0  0  0
 15 31  1  0  0  0  0
 15 32  1  0  0  0  0
 16 17  1  0  0  0  0
 16 33  1  0  0  0  0
 16 34  1  0  0  0  0
 17 18  1  0  0  0  0
 17 35  1  0  0  0  0
 17 36  1  0  0  0  0
 18 37  1  0  0  0  0
 18 38  1  0  0  0  0
M  END
> <s_m_source_file>
AV-unprocessed.smi

> <i_m_source_file_index>
696

> <i_lp_mmshare_version>
43012

> <i_f3d_flags>
0

> <s_epik_input>
W0NIMl0xW0NIMl1bQ0gyXVtDSDJdW0NIMl1bQ0gyXVtDSF0xQyg9TylbTkhdW0NIMl1bQ0gyXWMybltuSF1jKD1PKVtuSF0y

> <s_epik_cmdline>
J2VwaWtfcHl0aG9uJywgJy1waCcsICc3LjAnLCAnLXRuJywgJzgnLCAnLW1hJywgJzIwMCcsICctbWV0YWxfYmluZGluZycsICctaW1hZScsICc8aW5maWxlLm1hZT4nLCAnLW9tYWUnLCAnPG91dGZpbGUubWFlPic=

> <r_lp_tautomer_probability>
1

> <r_epik_Ionization_Penalty>
0.000812647

> <r_epik_Ionization_Penalty_Charging>
0.000812608

> <r_epik_Ionization_Penalty_Neutral>
3.92257e-08

> <r_epik_State_Penalty>
-0

> <r_epik_Charging_Adjusted_Penalty>
0.000812608

> <i_epik_Tot_Q>
0

> <i_epik_Tot_abs_Q>
0

> <r_epik_Metal_State_Penalty>
0.511782

> <b_epik_Metal_Only>
0

> <s_lp_Force_Field>
OPLS_2005

> <r_lp_Energy>
36.4871

> <b_lp_Chiralities_Consistent>
1

> <s_lp_Variant>
AV-unprocessed.smi:696-1

> <Gold.Version>
5.8.1

> <Gold.Id.Protein>
6NUR|6NUR_protein|mol2

> <Gold.PLP.Fitness>
47.6209

> <Gold.PLP.PLP>
-40.0867

> <Gold.PLP.part.hbond>
-3.6438

> <Gold.PLP.part.metal>
0.0000

> <Gold.PLP.part.buried>
-5.4417

> <Gold.PLP.part.nonpolar>
-34.3318

> <Gold.PLP.part.repulsive>
1.9147

> <Gold.PLP.ligand.clash>
0.0000

> <Gold.PLP.ligand.torsion>
0.6005

> <Gold.PLP.Chemscore.Hbond>
2.8960

> <Gold.PLP.Chemscore.CHOScore>
0.0000

> <Gold.PLP.Chemscore.Metal>
0.0000

> <Gold.Chemscore.Hbonds>
donor molecule, donor type, donor heavy atom, donor atom, acceptor molecule, acceptor atom, score
      L1  H     3    21       P1  8028  1.00
      L1  H    11    20       P1  7957  0.90
      P1  H  7954  7966       L1    10  1.00

> <Gold.PLP.Chemscore.Internal.Correction>
0.0473

> <Gold.Rescore>
     Score         DG    S(hbond)    S(metal)    S(lipo)     H(rot)  DE(clash)    DE(int)     intcor
     18.16     -19.51       2.74        0.00      91.71       2.28       0.76       0.59       ----

> <Gold.Chemscore.Fitness>
18.1620

> <Gold.Chemscore.DG>
-19.5122

> <Gold.Chemscore.ZeroCoef>
-5.4800

> <Gold.Chemscore.Hbond>
2.7362

> <Gold.Chemscore.Metal>
0.0000

> <Gold.Chemscore.Lipo>
91.7115

> <Gold.Chemscore.Internal_Hbond>
0.0000

> <Gold.Chemscore.DEClash>
0.7582

> <Gold.Chemscore.DEInternal>
0.5920

> <Gold.Chemscore.Rot>
2.2801

> <Gold.Chemscore.Internal.Correction>
   9.000000E+99

> <Gold.Chemscore.Hbonds>
donor molecule, donor type, donor heavy atom, donor atom, acceptor molecule, acceptor atom, score
      L1  H     3    21       P1  8028  0.91
      L1  H    11    20       P1  7957  0.82
      P1  H  7954  7966       L1    10  0.95

> <Gold.Chemscore.Hbond.Weighted>
-9.1389

> <Gold.Chemscore.Metal.Weighted>
-0.0000

> <Gold.Chemscore.Lipo.Weighted>
-10.7302

> <Gold.Chemscore.Internal_Hbond.Weighted>
0.0000

> <Gold.Chemscore.DEClash.Weighted>
0.7582

> <Gold.Chemscore.DEInternal.Weighted>
0.5920

> <Gold.Chemscore.Rot.Weighted>
5.8370

> <Gold.Chemscore.Internal.Correction.Weighted>
   9.000000E+99

> <Gold.Protein.RotatedTorsions>
[ 6907 6896 6895 6894 ] final  -54.26 input  -60.11 | X-H torsion
[ 7974 7965 7964 7962 ] final -134.12 input  175.53 | X-H torsion
[ 8008 7997 7996 7995 ] final -157.82 input   59.86 | X-H torsion
[ 10167 10162 10161 10158 ] final -148.99 input  -65.29 | X-H torsion
[ 10718 10713 10712 10709 ] final  -11.66 input   66.30 | X-H torsion
[ 10763 10752 10751 10750 ] final  173.96 input  -60.55 | X-H torsion
[ 11005 11000 10999 10996 ] final  162.80 input  -57.11 | X-H torsion

> <Gold.Protein.ActiveResidues>
 VAL166  LYS551  ARG553  GLY616  TRP617  ASP618  TYR619  PRO620  LYS621  CYS622 
 ASP623  PHE694  ASN695  SER759  ASP760  ASP761  ALA762  ILE779  LEU786  VAL792 
 PHE793  MET794  SER795  GLU796  ALA797  LYS798  CYS799  TRP800  GLU811  SER814 

> <Gold.Protein.RotatedAtoms>
  150.8354  134.7624  159.6887 H   0  0  0  0  0  0  0  0  0  0  0  0  # atno 6907 bound_to 6896
  152.4451  134.5507  159.9876 H   0  0  0  0  0  0  0  0  0  0  0  0  # atno 6908 bound_to 6896
  151.5659  133.3359  159.3016 H   0  0  0  0  0  0  0  0  0  0  0  0  # atno 6909 bound_to 6896
  144.9131  140.6920  143.5012 H   0  0  0  0  0  0  0  0  0  0  0  0  # atno 7974 bound_to 7965
  155.7382  140.0811  157.2258 H   0  0  0  0  0  0  0  0  0  0  0  0  # atno 8008 bound_to 7997
  154.4025  140.1583  156.2641 H   0  0  0  0  0  0  0  0  0  0  0  0  # atno 8009 bound_to 7997
  155.9045  140.3407  155.6054 H   0  0  0  0  0  0  0  0  0  0  0  0  # atno 8010 bound_to 7997
  139.7482  143.8559  152.2580 H   0  0  0  0  0  0  0  0  0  0  0  0  # atno 10167 bound_to 10162
  156.6558  130.4968  149.6047 H   0  0  0  0  0  0  0  0  0  0  0  0  # atno 10718 bound_to 10713
  154.4473  135.2763  155.1806 H   0  0  0  0  0  0  0  0  0  0  0  0  # atno 10763 bound_to 10752
  154.3648  135.6121  153.5713 H   0  0  0  0  0  0  0  0  0  0  0  0  # atno 10764 bound_to 10752
  152.9844  135.5843  154.4811 H   0  0  0  0  0  0  0  0  0  0  0  0  # atno 10765 bound_to 10752
  140.2294  134.8135  157.3301 H   0  0  0  0  0  0  0  0  0  0  0  0  # atno 11005 bound_to 11000
  145.3421  139.1729  143.4480 LP  0  0  0  0  0  0  0  0  0  0  0  0  # atno 17320 bound_to 7965
  146.3168  140.3463  142.8652 LP  0  0  0  0  0  0  0  0  0  0  0  0  # atno 17321 bound_to 7965
  139.8529  144.7155  150.9192 LP  0  0  0  0  0  0  0  0  0  0  0  0  # atno 17342 bound_to 10162
  140.7794  143.3883  151.1354 LP  0  0  0  0  0  0  0  0  0  0  0  0  # atno 17343 bound_to 10162
  156.2049  130.6643  151.1207 LP  0  0  0  0  0  0  0  0  0  0  0  0  # atno 17370 bound_to 10713
  157.7126  131.0726  150.6446 LP  0  0  0  0  0  0  0  0  0  0  0  0  # atno 17371 bound_to 10713
  140.1766  134.4541  155.7798 LP  0  0  0  0  0  0  0  0  0  0  0  0  # atno 17394 bound_to 11000
  141.2218  133.6965  156.7798 LP  0  0  0  0  0  0  0  0  0  0  0  0  # atno 17395 bound_to 11000

$$$$
