#       Name:                AV-unprocessed.smi:754
#       Creating user name   scv26
#       Creation time:       Fri Mar 27 01:00:31 2020


#       File generated by GOLD software.
#

@<TRIPOS>MOLECULE
AV-unprocessed.smi:754
    44    45     1
SMALL
NO_CHARGES


@<TRIPOS>ATOM
      1 ****        -4.1310   2.3945   1.2033 C.3            1 S1                 0.0000
      2 ****        -2.6164   2.5990   1.2743 C.3            1 S1                 0.0000
      3 ****        -1.9803   1.3339   1.2088 O.3            1 S1                 0.0000
      4 ****        -0.5656   1.4232   1.2707 C.3            1 S1                 0.0000
      5 ****         0.1038   1.8486  -0.0398 C.3            1 S1                 0.0000
      6 ****         1.1920   0.8338   0.3137 C.3            1 S1                 0.0000
      7 ****         1.6914   0.1177  -0.8533 N.am           1 S1                 0.0000
      8 ****         2.6865  -0.7811  -0.8220 C.2            1 S1                 0.0000
      9 ****         3.3533  -1.0205   0.1841 O.2            1 S1                 0.0000
     10 ****         2.9505  -1.5485  -2.1172 C.3            1 S1                 0.0000
     11 ****         1.8815  -2.4950  -2.3779 N.pl3          1 S1                 0.0000
     12 ****         0.7558  -2.3740  -3.0848 C.2            1 S1                 0.0000
     13 ****         0.0306  -3.4810  -3.0432 N.2            1 S1                 0.0000
     14 ****         0.7897  -4.3244  -2.2491 N.2            1 S1                 0.0000
     15 ****         1.8890  -3.7450  -1.8513 N.2            1 S1                 0.0000
     16 ****         0.1379   0.0498   1.1422 C.3            1 S1                 0.0000
     17 ****         0.6395  -0.5606   2.4506 C.3            1 S1                 0.0000
     18 ****        -0.6545  -1.0501   0.4116 C.3            1 S1                 0.0000
     19 ****        -4.6559   3.3485   1.2537 H              1 S1                 0.0000
     20 ****        -4.4810   1.7753   2.0296 H              1 S1                 0.0000
     21 ****        -4.4161   1.9041   0.2722 H              1 S1                 0.0000
     22 ****        -2.2887   3.2332   0.4497 H              1 S1                 0.0000
     23 ****        -2.3526   3.1038   2.2046 H              1 S1                 0.0000
     24 ****        -0.2071   1.9922   2.1320 H              1 S1                 0.0000
     25 ****        -0.4786   1.5877  -0.9254 H              1 S1                 0.0000
     26 ****         0.4367   2.8865  -0.0645 H              1 S1                 0.0000
     27 ****         1.9735   1.2809   0.9330 H              1 S1                 0.0000
     28 ****         1.2012   0.2622  -1.7240 H              1 S1                 0.0000
     29 ****         3.0241  -0.8544  -2.9554 H              1 S1                 0.0000
     30 ****         3.8984  -2.0851  -2.0545 H              1 S1                 0.0000
     31 ****         0.4656  -1.4799  -3.6166 H              1 S1                 0.0000
     32 ****         1.2821  -1.4227   2.2691 H              1 S1                 0.0000
     33 ****        -0.1873  -0.8909   3.0801 H              1 S1                 0.0000
     34 ****         1.2205   0.1569   3.0306 H              1 S1                 0.0000
     35 ****        -0.0378  -1.9280   0.2148 H              1 S1                 0.0000
     36 ****        -1.0422  -0.7096  -0.5486 H              1 S1                 0.0000
     37 ****        -1.5101  -1.3815   1.0005 H              1 S1                 0.0000
     38 ****        -2.2348   0.8930   0.3480 LP             1 S1                 0.0000
     39 ****        -2.2986   0.7766   1.9756 LP             1 S1                 0.0000
     40 ****         3.1643  -0.5335   1.0367 LP             1 S1                 0.0000
     41 ****         4.0843  -1.7021   0.1490 LP             1 S1                 0.0000
     42 ****        -0.8506  -3.6636  -3.4791 LP             1 S1                 0.0000
     43 ****         0.5282  -5.2597  -2.0107 LP             1 S1                 0.0000
     44 ****         2.5988  -4.1446  -1.2712 LP             1 S1                 0.0000
@<TRIPOS>BOND
    1    1    2 1     
    2    1   19 1     
    3    1   20 1     
    4    1   21 1     
    5    2    3 1     
    6    2   22 1     
    7    2   23 1     
    8    3    4 1     
    9    4   16 1     
   10    4    5 1     
   11    4   24 1     
   12    5    6 1     
   13    5   25 1     
   14    5   26 1     
   15    6    7 1     
   16    6   16 1     
   17    6   27 1     
   18    7    8 am    
   19    7   28 1     
   20    8    9 2     
   21    8   10 1     
   22   10   11 1     
   23   10   29 1     
   24   10   30 1     
   25   11   15 1     
   26   11   12 1     
   27   12   13 2     
   28   12   31 1     
   29   13   14 1     
   30   14   15 2     
   31   16   17 1     
   32   16   18 1     
   33   17   32 1     
   34   17   33 1     
   35   17   34 1     
   36   18   35 1     
   37   18   36 1     
   38   18   37 1     
   39    3   38 1     
   40    3   39 1     
   41    9   40 1     
   42    9   41 1     
   43   13   42 1     
   44   14   43 1     
   45   15   44 1     
@<TRIPOS>SUBSTRUCTURE
      1 S1             1
@<TRIPOS>SET
LONE_PAIRS      STATIC     ATOMS    <user>   **** ""
7 38 39 40 41 42 43 44
DONOR_HYDROGENS      STATIC     ATOMS    <user>   **** ""
1 28
ATOM$BLUE        STATIC     ATOMS    COLORGROUP SYSTEM
7 38 39 40 41 42 43 44
ATOM$RED        STATIC     ATOMS    COLORGROUP SYSTEM
1 28
