AV-unprocessed.smi:2295|AV-procd|sdf|9219|dock7
  -GOLD-   2272012443D 1   1.00000     0.00000
 Structure written by MMmdl.
 37 38  0  0  0  0  0  0  0  0  1 V2000
  150.7378  140.2109  155.5012 C   0  0  0  0  0  0  0  0  0  0  0  0
  149.4073  140.2375  154.7786 C   0  0  0  0  0  0  0  0  0  0  0  0
  148.6090  141.3973  154.7745 C   0  0  0  0  0  0  0  0  0  0  0  0
  147.3825  141.3575  154.0824 C   0  0  0  0  0  0  0  0  0  0  0  0
  146.4737  142.5679  154.0372 C   0  0  0  0  0  0  0  0  0  0  0  0
  146.9410  140.2622  153.4277 N   0  0  0  0  0  0  0  0  0  0  0  0
  147.7017  139.1394  153.4246 C   0  0  0  0  0  0  0  0  0  0  0  0
  147.3311  137.9373  152.7653 N   0  0  0  0  0  0  0  0  0  0  0  0
  146.1006  137.5295  152.4080 C   0  0  0  0  0  0  0  0  0  0  0  0
  145.0560  138.1469  152.6179 O   0  0  0  0  0  0  0  0  0  0  0  0
  146.1475  136.3435  151.7839 N   0  0  0  0  0  0  0  0  0  0  0  0
  144.9979  135.6178  151.2517 C   0  0  0  0  0  0  0  0  0  0  0  0
  145.0990  134.1039  151.5123 C   0  0  1  0  0  0  0  0  0  0  0  0
  143.8923  133.2924  151.0169 C   0  0  0  0  0  0  0  0  0  0  0  0
  144.3657  131.8473  150.8579 C   0  0  0  0  0  0  0  0  0  0  0  0
  145.7103  131.9126  150.1329 C   0  0  0  0  0  0  0  0  0  0  0  0
  146.5721  133.3900  150.7283 S   0  0  0  0  0  0  0  0  0  0  0  0
  148.9449  139.0950  154.0950 C   0  0  0  0  0  0  0  0  0  0  0  0
  150.9772  141.1852  155.9280 H   0  0  0  0  0  0  0  0  0  0  0  0
  151.5366  139.9355  154.8123 H   0  0  0  0  0  0  0  0  0  0  0  0
  150.7136  139.4802  156.3100 H   0  0  0  0  0  0  0  0  0  0  0  0
  148.9278  142.2929  155.2879 H   0  0  0  0  0  0  0  0  0  0  0  0
  146.9415  143.4321  154.5095 H   0  0  0  0  0  0  0  0  0  0  0  0
  145.5392  142.3585  154.5583 H   0  0  0  0  0  0  0  0  0  0  0  0
  146.2410  142.8304  153.0048 H   0  0  0  0  0  0  0  0  0  0  0  0
  148.0939  137.3214  152.5266 H   0  0  0  0  0  0  0  0  0  0  0  0
  147.0506  135.9108  151.6580 H   0  0  0  0  0  0  0  0  0  0  0  0
  144.0626  136.0144  151.6506 H   0  0  0  0  0  0  0  0  0  0  0  0
  144.9690  135.7997  150.1770 H   0  0  0  0  0  0  0  0  0  0  0  0
  145.2124  133.9309  152.5834 H   0  0  0  0  0  0  0  0  0  0  0  0
  143.0454  133.3664  151.6998 H   0  0  0  0  0  0  0  0  0  0  0  0
  143.5609  133.6694  150.0483 H   0  0  0  0  0  0  0  0  0  0  0  0
  144.5003  131.3975  151.8424 H   0  0  0  0  0  0  0  0  0  0  0  0
  143.6424  131.2369  150.3167 H   0  0  0  0  0  0  0  0  0  0  0  0
  146.3094  131.0157  150.2924 H   0  0  0  0  0  0  0  0  0  0  0  0
  145.5518  132.0212  149.0596 H   0  0  0  0  0  0  0  0  0  0  0  0
  149.5419  138.1944  154.0854 H   0  0  0  0  0  0  0  0  0  0  0  0
  1  2  1  0  0  0  0
  1 19  1  0  0  0  0
  1 20  1  0  0  0  0
  1 21  1  0  0  0  0
  2 18  1  0  0  0  0
  2  3  2  0  0  0  0
  3  4  1  0  0  0  0
  3 22  1  0  0  0  0
  4  5  1  0  0  0  0
  4  6  2  0  0  0  0
  5 23  1  0  0  0  0
  5 24  1  0  0  0  0
  5 25  1  0  0  0  0
  6  7  1  0  0  0  0
  7  8  1  0  0  0  0
  7 18  2  0  0  0  0
  8  9  1  0  0  0  0
  8 26  1  0  0  0  0
  9 10  2  0  0  0  0
  9 11  1  0  0  0  0
 11 12  1  0  0  0  0
 11 27  1  0  0  0  0
 12 13  1  0  0  0  0
 12 28  1  0  0  0  0
 12 29  1  0  0  0  0
 13 17  1  0  0  0  0
 13 14  1  0  0  0  0
 13 30  1  0  0  0  0
 14 15  1  0  0  0  0
 14 31  1  0  0  0  0
 14 32  1  0  0  0  0
 15 16  1  0  0  0  0
 15 33  1  0  0  0  0
 15 34  1  0  0  0  0
 16 17  1  0  0  0  0
 16 35  1  0  0  0  0
 16 36  1  0  0  0  0
 18 37  1  0  0  0  0
M  END
> <s_m_source_file>
AV-unprocessed.smi

> <i_m_source_file_index>
2295

> <i_lp_mmshare_version>
43012

> <i_f3d_flags>
0

> <s_epik_input>
W0NIM11jMVtjSF1jKFtDSDNdKW5jKFtjSF0xKVtOSF1DKD1PKVtOSF1bQ0gyXVtDQEBIXTJbQ0gyXVtDSDJdW0NIMl1TMg==

> <s_epik_cmdline>
J2VwaWtfcHl0aG9uJywgJy1waCcsICc3LjAnLCAnLXRuJywgJzgnLCAnLW1hJywgJzIwMCcsICctbWV0YWxfYmluZGluZycsICctaW1hZScsICc8aW5maWxlLm1hZT4nLCAnLW9tYWUnLCAnPG91dGZpbGUubWFlPic=

> <r_lp_tautomer_probability>
1

> <r_epik_Ionization_Penalty>
0.000247769

> <r_epik_Ionization_Penalty_Charging>
0

> <r_epik_Ionization_Penalty_Neutral>
0.000247769

> <r_epik_State_Penalty>
-0

> <r_epik_Charging_Adjusted_Penalty>
0

> <i_epik_Tot_Q>
0

> <i_epik_Tot_abs_Q>
0

> <r_epik_Metal_State_Penalty>
-0

> <b_epik_Metal_Only>
0

> <s_lp_Force_Field>
OPLS_2005

> <r_lp_Energy>
14.3156

> <b_lp_Chiralities_Consistent>
1

> <s_lp_Variant>
AV-unprocessed.smi:2295-2

> <Gold.Version>
5.8.1

> <Gold.Id.Protein>
6NUR|6NUR_protein|mol2

> <Gold.PLP.Fitness>
41.5151

> <Gold.PLP.PLP>
-36.3635

> <Gold.PLP.part.hbond>
-1.9414

> <Gold.PLP.part.metal>
0.0000

> <Gold.PLP.part.buried>
-4.7922

> <Gold.PLP.part.nonpolar>
-33.5074

> <Gold.PLP.part.repulsive>
3.5938

> <Gold.PLP.ligand.clash>
0.0000

> <Gold.PLP.ligand.torsion>
0.2448

> <Gold.PLP.Chemscore.Hbond>
1.8800

> <Gold.PLP.Chemscore.CHOScore>
0.0000

> <Gold.PLP.Chemscore.Metal>
0.0000

> <Gold.Chemscore.Hbonds>
donor molecule, donor type, donor heavy atom, donor atom, acceptor molecule, acceptor atom, score
      L1  H     8    26       P1  7948  0.99
      L1  H    11    27       P1  7948  0.88

> <Gold.PLP.Chemscore.Internal.Correction>
0.0012

> <Gold.Rescore>
     Score         DG    S(hbond)    S(metal)    S(lipo)     H(rot)  DE(clash)    DE(int)     intcor
     15.86     -18.82       1.95        0.00      83.94       1.17       1.52       1.43       ----

> <Gold.Chemscore.Fitness>
15.8609

> <Gold.Chemscore.DG>
-18.8154

> <Gold.Chemscore.ZeroCoef>
-5.4800

> <Gold.Chemscore.Hbond>
1.9497

> <Gold.Chemscore.Metal>
0.0000

> <Gold.Chemscore.Lipo>
83.9380

> <Gold.Chemscore.Internal_Hbond>
0.0000

> <Gold.Chemscore.DEClash>
1.5244

> <Gold.Chemscore.DEInternal>
1.4300

> <Gold.Chemscore.Rot>
1.1709

> <Gold.Chemscore.Internal.Correction>
   9.000000E+99

> <Gold.Chemscore.Hbonds>
donor molecule, donor type, donor heavy atom, donor atom, acceptor molecule, acceptor atom, score
      L1  H     8    26       P1  7948  0.92
      L1  H    11    27       P1  7948  0.86

> <Gold.Chemscore.Hbond.Weighted>
-6.5122

> <Gold.Chemscore.Metal.Weighted>
-0.0000

> <Gold.Chemscore.Lipo.Weighted>
-9.8207

> <Gold.Chemscore.Internal_Hbond.Weighted>
0.0000

> <Gold.Chemscore.DEClash.Weighted>
1.5244

> <Gold.Chemscore.DEInternal.Weighted>
1.4300

> <Gold.Chemscore.Rot.Weighted>
2.9975

> <Gold.Chemscore.Internal.Correction.Weighted>
   9.000000E+99

> <Gold.Protein.RotatedTorsions>
[ 6907 6896 6895 6894 ] final  -93.52 input  -60.11 | X-H torsion
[ 7974 7965 7964 7962 ] final -110.97 input  175.53 | X-H torsion
[ 8008 7997 7996 7995 ] final -101.07 input   59.86 | X-H torsion
[ 10167 10162 10161 10158 ] final  175.80 input  -65.29 | X-H torsion
[ 10718 10713 10712 10709 ] final  -43.93 input   66.30 | X-H torsion
[ 10763 10752 10751 10750 ] final -161.81 input  -60.55 | X-H torsion
[ 11005 11000 10999 10996 ] final -129.36 input  -57.11 | X-H torsion

> <Gold.Protein.ActiveResidues>
 VAL166  LYS551  ARG553  GLY616  TRP617  ASP618  TYR619  PRO620  LYS621  CYS622 
 ASP623  PHE694  ASN695  SER759  ASP760  ASP761  ALA762  ILE779  LEU786  VAL792 
 PHE793  MET794  SER795  GLU796  ALA797  LYS798  CYS799  TRP800  GLU811  SER814 

> <Gold.Protein.RotatedAtoms>
  150.6924  134.1954  159.4301 H   0  0  0  0  0  0  0  0  0  0  0  0  # atno 6907 bound_to 6896
  151.9923  134.9970  160.0571 H   0  0  0  0  0  0  0  0  0  0  0  0  # atno 6908 bound_to 6896
  152.1656  133.4575  159.4920 H   0  0  0  0  0  0  0  0  0  0  0  0  # atno 6909 bound_to 6896
  145.1618  140.8882  143.3586 H   0  0  0  0  0  0  0  0  0  0  0  0  # atno 7974 bound_to 7965
  154.8374  140.0437  157.1518 H   0  0  0  0  0  0  0  0  0  0  0  0  # atno 8008 bound_to 7997
  154.9084  140.3010  155.5259 H   0  0  0  0  0  0  0  0  0  0  0  0  # atno 8009 bound_to 7997
  156.2990  140.2363  156.4121 H   0  0  0  0  0  0  0  0  0  0  0  0  # atno 8010 bound_to 7997
  139.5190  144.2989  152.0396 H   0  0  0  0  0  0  0  0  0  0  0  0  # atno 10167 bound_to 10162
  156.2438  130.4182  149.8729 H   0  0  0  0  0  0  0  0  0  0  0  0  # atno 10718 bound_to 10713
  154.7270  135.3038  154.8954 H   0  0  0  0  0  0  0  0  0  0  0  0  # atno 10763 bound_to 10752
  153.9808  135.6730  153.4754 H   0  0  0  0  0  0  0  0  0  0  0  0  # atno 10764 bound_to 10752
  153.0884  135.4972  154.8562 H   0  0  0  0  0  0  0  0  0  0  0  0  # atno 10765 bound_to 10752
  140.9438  134.1158  157.4126 H   0  0  0  0  0  0  0  0  0  0  0  0  # atno 11005 bound_to 11000
  145.0323  139.3330  143.6018 LP  0  0  0  0  0  0  0  0  0  0  0  0  # atno 17320 bound_to 7965
  146.3481  139.9665  142.8711 LP  0  0  0  0  0  0  0  0  0  0  0  0  # atno 17321 bound_to 7965
  140.2437  144.4242  150.6249 LP  0  0  0  0  0  0  0  0  0  0  0  0  # atno 17342 bound_to 10162
  140.6273  143.2183  151.6570 LP  0  0  0  0  0  0  0  0  0  0  0  0  # atno 17343 bound_to 10162
  156.6301  130.8662  151.3493 LP  0  0  0  0  0  0  0  0  0  0  0  0  # atno 17370 bound_to 10713
  157.7186  130.9529  150.1352 LP  0  0  0  0  0  0  0  0  0  0  0  0  # atno 17371 bound_to 10713
  139.8827  135.0045  156.6252 LP  0  0  0  0  0  0  0  0  0  0  0  0  # atno 17394 bound_to 11000
  140.7698  133.8748  155.8483 LP  0  0  0  0  0  0  0  0  0  0  0  0  # atno 17395 bound_to 11000

$$$$
