AV-unprocessed.smi:3062|AV-procd|sdf|11684|dock1
  -GOLD-   2272017 93D 1   1.00000     0.00000
 Structure written by MMmdl.
 39 40  0  0  0  0  0  0  0  0  1 V2000
  151.6793  144.6786  159.0874 C   0  0  0  0  0  0  0  0  0  0  0  0
  151.8747  143.2143  158.7998 C   0  0  0  0  0  0  0  0  0  0  0  0
  151.4040  142.7748  157.6791 N   0  0  0  0  0  0  0  0  0  0  0  0
  151.5318  141.4490  157.3158 N   0  0  0  0  0  0  0  0  0  0  0  0
  150.9364  141.1294  156.0129 C   0  0  0  0  0  0  0  0  0  0  0  0
  149.4055  141.3358  156.0033 C   0  0  1  0  0  0  0  0  0  0  0  0
  149.0626  142.5182  156.6976 O   0  0  0  0  0  0  0  0  0  0  0  0
  148.8237  141.4433  154.5842 C   0  0  0  0  0  0  0  0  0  0  0  0
  147.4879  141.9157  154.6488 O   0  0  0  0  0  0  0  0  0  0  0  0
  147.0264  142.4474  153.4181 C   0  0  0  0  0  0  0  0  0  0  0  0
  145.9989  143.4933  153.7213 C   0  0  0  0  0  0  0  0  0  0  0  0
  145.3479  143.6786  154.9145 C   0  0  0  0  0  0  0  0  0  0  0  0
  144.4166  144.7582  154.8888 C   0  0  0  0  0  0  0  0  0  0  0  0
  144.3637  145.3852  153.6726 C   0  0  0  0  0  0  0  0  0  0  0  0
  145.4586  144.6567  152.5304 S   0  0  0  0  0  0  0  0  0  0  0  0
  152.1474  140.4930  158.0686 C   0  0  0  0  0  0  0  0  0  0  0  0
  152.2378  139.3194  157.7046 O   0  0  0  0  0  0  0  0  0  0  0  0
  152.6783  140.9972  159.3372 C   0  0  0  0  0  0  0  0  0  0  0  0
  153.3340  140.0293  160.1562 C   0  0  0  0  0  0  0  0  0  0  0  0
  153.8642  139.2571  160.8368 N   0  0  0  0  0  0  0  0  0  0  0  0
  152.5556  142.2964  159.7076 C   0  0  0  0  0  0  0  0  0  0  0  0
  153.0905  142.8694  161.0129 C   0  0  0  0  0  0  0  0  0  0  0  0
  152.6327  145.1630  159.2980 H   0  0  0  0  0  0  0  0  0  0  0  0
  151.0293  144.8187  159.9513 H   0  0  0  0  0  0  0  0  0  0  0  0
  151.2256  145.2023  158.2442 H   0  0  0  0  0  0  0  0  0  0  0  0
  151.4041  141.7142  155.2181 H   0  0  0  0  0  0  0  0  0  0  0  0
  151.1670  140.0910  155.7684 H   0  0  0  0  0  0  0  0  0  0  0  0
  148.9074  140.5066  156.5067 H   0  0  0  0  0  0  0  0  0  0  0  0
  148.9295  143.2066  156.0639 H   0  0  0  0  0  0  0  0  0  0  0  0
  149.4203  142.1498  154.0052 H   0  0  0  0  0  0  0  0  0  0  0  0
  148.8737  140.4827  154.0682 H   0  0  0  0  0  0  0  0  0  0  0  0
  147.8536  142.8888  152.8607 H   0  0  0  0  0  0  0  0  0  0  0  0
  146.5899  141.6582  152.8040 H   0  0  0  0  0  0  0  0  0  0  0  0
  145.5078  143.0807  155.7997 H   0  0  0  0  0  0  0  0  0  0  0  0
  143.8264  145.0332  155.7506 H   0  0  0  0  0  0  0  0  0  0  0  0
  143.7513  146.2249  153.3785 H   0  0  0  0  0  0  0  0  0  0  0  0
  153.4909  142.0971  161.6691 H   0  0  0  0  0  0  0  0  0  0  0  0
  152.3009  143.3833  161.5622 H   0  0  0  0  0  0  0  0  0  0  0  0
  153.8917  143.5820  160.8141 H   0  0  0  0  0  0  0  0  0  0  0  0
  1  2  1  0  0  0  0
  1 23  1  0  0  0  0
  1 24  1  0  0  0  0
  1 25  1  0  0  0  0
  2 21  1  0  0  0  0
  2  3  2  0  0  0  0
  3  4  1  0  0  0  0
  4  5  1  0  0  0  0
  4 16  1  0  0  0  0
  5  6  1  0  0  0  0
  5 26  1  0  0  0  0
  5 27  1  0  0  0  0
  6  7  1  0  0  0  0
  6  8  1  0  0  0  0
  6 28  1  0  0  0  0
  7 29  1  0  0  0  0
  8  9  1  0  0  0  0
  8 30  1  0  0  0  0
  8 31  1  0  0  0  0
  9 10  1  0  0  0  0
 10 11  1  0  0  0  0
 10 32  1  0  0  0  0
 10 33  1  0  0  0  0
 11 15  1  0  0  0  0
 11 12  2  0  0  0  0
 12 13  1  0  0  0  0
 12 34  1  0  0  0  0
 13 14  2  0  0  0  0
 13 35  1  0  0  0  0
 14 15  1  0  0  0  0
 14 36  1  0  0  0  0
 16 17  2  0  0  0  0
 16 18  1  0  0  0  0
 18 19  1  0  0  0  0
 18 21  2  0  0  0  0
 19 20  3  0  0  0  0
 21 22  1  0  0  0  0
 22 37  1  0  0  0  0
 22 38  1  0  0  0  0
 22 39  1  0  0  0  0
M  END
> <s_m_source_file>
AV-unprocessed.smi

> <i_m_source_file_index>
3062

> <i_lp_mmshare_version>
43012

> <i_f3d_flags>
0

> <s_epik_input>
TiNDYyhjMVtDSDNdKWMoPU8pbihuYzFbQ0gzXSlbQ0gyXVtDQEhdKFtPSF0pW0NIMl1PW0NIMl1jMltjSF1bY0hdW2NIXXMy

> <s_epik_cmdline>
J2VwaWtfcHl0aG9uJywgJy1waCcsICc3LjAnLCAnLXRuJywgJzgnLCAnLW1hJywgJzIwMCcsICctbWV0YWxfYmluZGluZycsICctaW1hZScsICc8aW5maWxlLm1hZT4nLCAnLW9tYWUnLCAnPG91dGZpbGUubWFlPic=

> <r_lp_tautomer_probability>
1

> <r_epik_Ionization_Penalty>
6.86395e-08

> <r_epik_Ionization_Penalty_Charging>
2.24757e-10

> <r_epik_Ionization_Penalty_Neutral>
6.84147e-08

> <r_epik_State_Penalty>
-0

> <r_epik_Charging_Adjusted_Penalty>
2.24757e-10

> <i_epik_Tot_Q>
0

> <i_epik_Tot_abs_Q>
0

> <r_epik_Metal_State_Penalty>
-0

> <b_epik_Metal_Only>
0

> <s_lp_Force_Field>
OPLS_2005

> <r_lp_Energy>
25.5383

> <b_lp_Chiralities_Consistent>
1

> <s_lp_Variant>
AV-unprocessed.smi:3062-2

> <Gold.Version>
5.8.1

> <Gold.Id.Protein>
6NUR|6NUR_protein|mol2

> <Gold.PLP.Fitness>
50.7838

> <Gold.PLP.PLP>
-49.1623

> <Gold.PLP.part.hbond>
-0.8665

> <Gold.PLP.part.metal>
0.0000

> <Gold.PLP.part.buried>
-8.7262

> <Gold.PLP.part.nonpolar>
-39.4392

> <Gold.PLP.part.repulsive>
0.2220

> <Gold.PLP.ligand.clash>
0.0000

> <Gold.PLP.ligand.torsion>
0.7274

> <Gold.PLP.Chemscore.Hbond>
1.0000

> <Gold.PLP.Chemscore.CHOScore>
0.0000

> <Gold.PLP.Chemscore.Metal>
0.0000

> <Gold.Chemscore.Hbonds>
donor molecule, donor type, donor heavy atom, donor atom, acceptor molecule, acceptor atom, score
      L1  H     7    29       P1  8028  1.00

> <Gold.PLP.Chemscore.Internal.Correction>
0.0763

> <Gold.Rescore>
     Score         DG    S(hbond)    S(metal)    S(lipo)     H(rot)  DE(clash)    DE(int)     intcor
     14.94     -15.75       0.96        0.00     115.18       2.51       0.05       0.76       ----

> <Gold.Chemscore.Fitness>
14.9372

> <Gold.Chemscore.DG>
-15.7470

> <Gold.Chemscore.ZeroCoef>
-5.4800

> <Gold.Chemscore.Hbond>
0.9646

> <Gold.Chemscore.Metal>
0.0000

> <Gold.Chemscore.Lipo>
115.1778

> <Gold.Chemscore.Internal_Hbond>
0.0000

> <Gold.Chemscore.DEClash>
0.0467

> <Gold.Chemscore.DEInternal>
0.7631

> <Gold.Chemscore.Rot>
2.5119

> <Gold.Chemscore.Internal.Correction>
   9.000000E+99

> <Gold.Chemscore.Hbonds>
donor molecule, donor type, donor heavy atom, donor atom, acceptor molecule, acceptor atom, score
      L1  H     7    29       P1  8028  0.93

> <Gold.Chemscore.Hbond.Weighted>
-3.2216

> <Gold.Chemscore.Metal.Weighted>
-0.0000

> <Gold.Chemscore.Lipo.Weighted>
-13.4758

> <Gold.Chemscore.Internal_Hbond.Weighted>
0.0000

> <Gold.Chemscore.DEClash.Weighted>
0.0467

> <Gold.Chemscore.DEInternal.Weighted>
0.7631

> <Gold.Chemscore.Rot.Weighted>
6.4305

> <Gold.Chemscore.Internal.Correction.Weighted>
   9.000000E+99

> <Gold.Protein.RotatedTorsions>
[ 6907 6896 6895 6894 ] final   92.80 input  -60.11 | X-H torsion
[ 7974 7965 7964 7962 ] final  -85.02 input  175.53 | X-H torsion
[ 8008 7997 7996 7995 ] final -155.59 input   59.86 | X-H torsion
[ 10167 10162 10161 10158 ] final   52.46 input  -65.29 | X-H torsion
[ 10718 10713 10712 10709 ] final   28.16 input   66.30 | X-H torsion
[ 10763 10752 10751 10750 ] final -148.61 input  -60.55 | X-H torsion
[ 11005 11000 10999 10996 ] final   40.06 input  -57.11 | X-H torsion

> <Gold.Protein.ActiveResidues>
 VAL166  LYS551  ARG553  GLY616  TRP617  ASP618  TYR619  PRO620  LYS621  CYS622 
 ASP623  PHE694  ASN695  SER759  ASP760  ASP761  ALA762  ILE779  LEU786  VAL792 
 PHE793  MET794  SER795  GLU796  ALA797  LYS798  CYS799  TRP800  GLU811  SER814 

> <Gold.Protein.RotatedAtoms>
  152.5453  134.1446  159.8492 H   0  0  0  0  0  0  0  0  0  0  0  0  # atno 6907 bound_to 6896
  151.1478  133.4920  159.2603 H   0  0  0  0  0  0  0  0  0  0  0  0  # atno 6908 bound_to 6896
  151.1504  135.0235  159.8720 H   0  0  0  0  0  0  0  0  0  0  0  0  # atno 6909 bound_to 6896
  145.4988  140.9548  143.1771 H   0  0  0  0  0  0  0  0  0  0  0  0  # atno 7974 bound_to 7965
  155.7042  140.0770  157.2398 H   0  0  0  0  0  0  0  0  0  0  0  0  # atno 8008 bound_to 7997
  154.4068  140.1642  156.2278 H   0  0  0  0  0  0  0  0  0  0  0  0  # atno 8009 bound_to 7997
  155.9341  140.3389  155.6276 H   0  0  0  0  0  0  0  0  0  0  0  0  # atno 8010 bound_to 7997
  140.2512  144.3477  150.6348 H   0  0  0  0  0  0  0  0  0  0  0  0  # atno 10167 bound_to 10162
  157.2298  130.7018  149.6308 H   0  0  0  0  0  0  0  0  0  0  0  0  # atno 10718 bound_to 10713
  154.8223  135.3330  154.7000 H   0  0  0  0  0  0  0  0  0  0  0  0  # atno 10763 bound_to 10752
  153.7631  135.6931  153.4926 H   0  0  0  0  0  0  0  0  0  0  0  0  # atno 10764 bound_to 10752
  153.2096  135.4487  155.0313 H   0  0  0  0  0  0  0  0  0  0  0  0  # atno 10765 bound_to 10752
  140.1967  134.3920  155.8117 H   0  0  0  0  0  0  0  0  0  0  0  0  # atno 11005 bound_to 11000
  144.7792  139.6563  143.7162 LP  0  0  0  0  0  0  0  0  0  0  0  0  # atno 17320 bound_to 7965
  146.2239  139.5686  142.9600 LP  0  0  0  0  0  0  0  0  0  0  0  0  # atno 17321 bound_to 7965
  140.6039  143.2167  151.7018 LP  0  0  0  0  0  0  0  0  0  0  0  0  # atno 17342 bound_to 10162
  139.5046  144.3749  152.0434 LP  0  0  0  0  0  0  0  0  0  0  0  0  # atno 17343 bound_to 10162
  155.9676  130.4492  150.5651 LP  0  0  0  0  0  0  0  0  0  0  0  0  # atno 17370 bound_to 10713
  157.3490  131.0730  151.1728 LP  0  0  0  0  0  0  0  0  0  0  0  0  # atno 17371 bound_to 10713
  141.2227  133.7073  156.8189 LP  0  0  0  0  0  0  0  0  0  0  0  0  # atno 17394 bound_to 11000
  140.2099  134.8835  157.3263 LP  0  0  0  0  0  0  0  0  0  0  0  0  # atno 17395 bound_to 11000

$$$$
