AV-unprocessed.smi:657|AV-procd|sdf|3226|dock7
  -GOLD-   22720 0163D 1   1.00000     0.00000
 Structure written by MMmdl.
 46 47  0  0  0  0  0  0  0  0  3 V2000
  146.7342  140.1775  153.7561 C   0  0  0  0  0  0  0  0  0  0  0  0
  147.4582  139.1313  152.8864 C   0  0  0  0  0  0  0  0  0  0  0  0
  146.8105  138.9985  151.4973 C   0  0  0  0  0  0  0  0  0  0  0  0
  147.6072  137.7923  153.5516 N   0  3  2  0  0  0  0  0  0  0  0  0
  146.3363  137.0094  153.5807 C   0  0  0  0  0  0  0  0  0  0  0  0
  146.5480  135.5785  154.0896 C   0  0  0  0  0  0  0  0  0  0  0  0
  147.1447  135.6038  155.4964 C   0  0  0  0  0  0  0  0  0  0  0  0
  148.4650  136.3754  155.4637 C   0  0  0  0  0  0  0  0  0  0  0  0
  148.2985  137.8062  154.8884 C   0  0  1  0  0  0  0  0  0  0  0  0
  149.6825  138.4917  154.8762 C   0  0  0  0  0  0  0  0  0  0  0  0
  150.6362  137.8614  154.4091 O   0  0  0  0  0  0  0  0  0  0  0  0
  149.6324  139.7424  155.4179 N   0  5  0  0  0  0  0  0  0  0  0  0
  150.7616  140.3833  156.0853 C   0  0  0  0  0  0  0  0  0  0  0  0
  150.4544  141.8771  156.3053 C   0  0  0  0  0  0  0  0  0  0  0  0
  151.0980  142.4295  157.5535 C   0  0  0  0  0  0  0  0  0  0  0  0
  151.0971  143.7776  158.0179 C   0  0  0  0  0  0  0  0  0  0  0  0
  151.7483  143.9315  159.1593 N   0  0  0  0  0  0  0  0  0  0  0  0
  152.1824  142.6925  159.4674 N   0  0  0  0  0  0  0  0  0  0  0  0
  152.9480  142.4857  160.6779 C   0  0  0  0  0  0  0  0  0  0  0  0
  151.8013  141.7659  158.5213 C   0  0  0  0  0  0  0  0  0  0  0  0
  146.7673  141.1582  153.2808 H   0  0  0  0  0  0  0  0  0  0  0  0
  147.2016  140.2802  154.7353 H   0  0  0  0  0  0  0  0  0  0  0  0
  145.6829  139.9316  153.9059 H   0  0  0  0  0  0  0  0  0  0  0  0
  148.4448  139.5405  152.6786 H   0  0  0  0  0  0  0  0  0  0  0  0
  146.8591  139.9451  150.9581 H   0  0  0  0  0  0  0  0  0  0  0  0
  145.7597  138.7164  151.5528 H   0  0  0  0  0  0  0  0  0  0  0  0
  147.3293  138.2532  150.8934 H   0  0  0  0  0  0  0  0  0  0  0  0
  145.6088  137.5054  154.2239 H   0  0  0  0  0  0  0  0  0  0  0  0
  145.8955  136.9590  152.5864 H   0  0  0  0  0  0  0  0  0  0  0  0
  145.5980  135.0430  154.0986 H   0  0  0  0  0  0  0  0  0  0  0  0
  147.2072  135.0352  153.4114 H   0  0  0  0  0  0  0  0  0  0  0  0
  146.4508  136.0770  156.1923 H   0  0  0  0  0  0  0  0  0  0  0  0
  147.3099  134.5878  155.8561 H   0  0  0  0  0  0  0  0  0  0  0  0
  148.8804  136.4232  156.4715 H   0  0  0  0  0  0  0  0  0  0  0  0
  149.1816  135.8073  154.8679 H   0  0  0  0  0  0  0  0  0  0  0  0
  147.6611  138.3655  155.5748 H   0  0  0  0  0  0  0  0  0  0  0  0
  150.9753  139.9250  157.0521 H   0  0  0  0  0  0  0  0  0  0  0  0
  151.6759  140.2881  155.4985 H   0  0  0  0  0  0  0  0  0  0  0  0
  150.7845  142.4432  155.4333 H   0  0  0  0  0  0  0  0  0  0  0  0
  149.3731  142.0157  156.3497 H   0  0  0  0  0  0  0  0  0  0  0  0
  150.6454  144.6442  157.5578 H   0  0  0  0  0  0  0  0  0  0  0  0
  153.2478  141.4404  160.7576 H   0  0  0  0  0  0  0  0  0  0  0  0
  152.3432  142.7486  161.5462 H   0  0  0  0  0  0  0  0  0  0  0  0
  153.8417  143.1100  160.6607 H   0  0  0  0  0  0  0  0  0  0  0  0
  152.0610  140.7212  158.6095 H   0  0  0  0  0  0  0  0  0  0  0  0
  148.2434  137.2786  152.9580 H   0  0  0  0  0  0  0  0  0  0  0  0
  1  2  1  0  0  0  0
  1 21  1  0  0  0  0
  1 22  1  0  0  0  0
  1 23  1  0  0  0  0
  2  3  1  0  0  0  0
  2  4  1  0  0  0  0
  2 24  1  0  0  0  0
  3 25  1  0  0  0  0
  3 26  1  0  0  0  0
  3 27  1  0  0  0  0
  4  9  1  0  0  0  0
  4  5  1  0  0  0  0
  4 46  1  0  0  0  0
  5  6  1  0  0  0  0
  5 28  1  0  0  0  0
  5 29  1  0  0  0  0
  6  7  1  0  0  0  0
  6 30  1  0  0  0  0
  6 31  1  0  0  0  0
  7  8  1  0  0  0  0
  7 32  1  0  0  0  0
  7 33  1  0  0  0  0
  8  9  1  0  0  0  0
  8 34  1  0  0  0  0
  8 35  1  0  0  0  0
  9 10  1  0  0  0  0
  9 36  1  0  0  0  0
 10 11  2  0  0  0  0
 10 12  1  0  0  0  0
 12 13  1  0  0  0  0
 13 14  1  0  0  0  0
 13 37  1  0  0  0  0
 13 38  1  0  0  0  0
 14 15  1  0  0  0  0
 14 39  1  0  0  0  0
 14 40  1  0  0  0  0
 15 20  2  0  0  0  0
 15 16  1  0  0  0  0
 16 17  2  0  0  0  0
 16 41  1  0  0  0  0
 17 18  1  0  0  0  0
 18 19  1  0  0  0  0
 18 20  1  0  0  0  0
 19 42  1  0  0  0  0
 19 43  1  0  0  0  0
 19 44  1  0  0  0  0
 20 45  1  0  0  0  0
M  CHG  1   4   1
M  CHG  1  12  -1
M  END
> <s_m_source_file>
AV-unprocessed.smi

> <i_m_source_file_index>
657

> <i_lp_mmshare_version>
43012

> <i_f3d_flags>
0

> <s_epik_input>
W0NIM11bQ0hdKFtDSDNdKU4xW0NIMl1bQ0gyXVtDSDJdW0NIMl1bQ0BIXTFDKD1PKVtOSF1bQ0gyXVtDSDJdYzJbY0hdbm4oW0NIM10pW2NIXTI=

> <s_epik_cmdline>
J2VwaWtfcHl0aG9uJywgJy1waCcsICc3LjAnLCAnLXRuJywgJzgnLCAnLW1hJywgJzIwMCcsICctbWV0YWxfYmluZGluZycsICctaW1hZScsICc8aW5maWxlLm1hZT4nLCAnLW9tYWUnLCAnPG91dGZpbGUubWFlPic=

> <r_lp_tautomer_probability>
1

> <r_epik_Ionization_Penalty>
6.1622

> <r_epik_Ionization_Penalty_Charging>
6.16146

> <r_epik_Ionization_Penalty_Neutral>
0.00073675

> <r_epik_State_Penalty>
6.18018

> <r_epik_Charging_Adjusted_Penalty>
12.3416

> <i_epik_Tot_Q>
0

> <i_epik_Tot_abs_Q>
2

> <r_epik_Metal_State_Penalty>
2.12232

> <b_epik_Metal_Only>
1

> <s_lp_Force_Field>
OPLS_2005

> <r_lp_Energy>
11.2403

> <b_lp_Chiralities_Consistent>
1

> <s_lp_Variant>
AV-unprocessed.smi:657-7

> <Gold.Version>
5.8.1

> <Gold.Id.Protein>
6NUR|6NUR_protein|mol2

> <Gold.PLP.Fitness>
40.4828

> <Gold.PLP.PLP>
-33.1848

> <Gold.PLP.part.hbond>
-1.0000

> <Gold.PLP.part.metal>
0.0000

> <Gold.PLP.part.buried>
-0.9344

> <Gold.PLP.part.nonpolar>
-31.4993

> <Gold.PLP.part.repulsive>
0.3028

> <Gold.PLP.ligand.clash>
0.0000

> <Gold.PLP.ligand.torsion>
0.8998

> <Gold.PLP.Chemscore.Hbond>
2.0000

> <Gold.PLP.Chemscore.CHOScore>
0.9580

> <Gold.PLP.Chemscore.Metal>
0.0000

> <Gold.Chemscore.Hbonds>
donor molecule, donor type, donor heavy atom, donor atom, acceptor molecule, acceptor atom, score
      L1  H     4    46       P1  7948  2.00
      L1  C    16    41       P1  8028  0.94

> <Gold.PLP.Chemscore.Internal.Correction>
0.2235

> <Gold.Rescore>
     Score         DG    S(hbond)    S(metal)    S(lipo)     H(rot)  DE(clash)    DE(int)     intcor
     13.98     -15.06       1.00        0.00      87.84       1.57       0.07       1.02       ----

> <Gold.Chemscore.Fitness>
13.9752

> <Gold.Chemscore.DG>
-15.0645

> <Gold.Chemscore.ZeroCoef>
-5.4800

> <Gold.Chemscore.Hbond>
0.9989

> <Gold.Chemscore.Metal>
0.0000

> <Gold.Chemscore.Lipo>
87.8442

> <Gold.Chemscore.Internal_Hbond>
0.0000

> <Gold.Chemscore.DEClash>
0.0712

> <Gold.Chemscore.DEInternal>
1.0181

> <Gold.Chemscore.Rot>
1.5741

> <Gold.Chemscore.Internal.Correction>
   9.000000E+99

> <Gold.Chemscore.Hbonds>
donor molecule, donor type, donor heavy atom, donor atom, acceptor molecule, acceptor atom, score
      L1  H     4    46       P1  7948  1.00

> <Gold.Chemscore.Hbond.Weighted>
-3.3364

> <Gold.Chemscore.Metal.Weighted>
-0.0000

> <Gold.Chemscore.Lipo.Weighted>
-10.2778

> <Gold.Chemscore.Internal_Hbond.Weighted>
0.0000

> <Gold.Chemscore.DEClash.Weighted>
0.0712

> <Gold.Chemscore.DEInternal.Weighted>
1.0181

> <Gold.Chemscore.Rot.Weighted>
4.0297

> <Gold.Chemscore.Internal.Correction.Weighted>
   9.000000E+99

> <Gold.Protein.RotatedTorsions>
[ 6907 6896 6895 6894 ] final  -32.34 input  -60.11 | X-H torsion
[ 7974 7965 7964 7962 ] final -167.56 input  175.53 | X-H torsion
[ 8008 7997 7996 7995 ] final    9.62 input   59.86 | X-H torsion
[ 10167 10162 10161 10158 ] final  -83.15 input  -65.29 | X-H torsion
[ 10718 10713 10712 10709 ] final  -53.08 input   66.30 | X-H torsion
[ 10763 10752 10751 10750 ] final   74.25 input  -60.55 | X-H torsion
[ 11005 11000 10999 10996 ] final -114.63 input  -57.11 | X-H torsion

> <Gold.Protein.ActiveResidues>
 VAL166  LYS551  ARG553  GLY616  TRP617  ASP618  TYR619  PRO620  LYS621  CYS622 
 ASP623  PHE694  ASN695  SER759  ASP760  ASP761  ALA762  ILE779  LEU786  VAL792 
 PHE793  MET794  SER795  GLU796  ALA797  LYS798  CYS799  TRP800  GLU811  SER814 

> <Gold.Protein.RotatedAtoms>
  151.0800  134.9852  159.8351 H   0  0  0  0  0  0  0  0  0  0  0  0  # atno 6907 bound_to 6896
  152.5418  134.2193  159.8791 H   0  0  0  0  0  0  0  0  0  0  0  0  # atno 6908 bound_to 6896
  151.2223  133.4452  159.2634 H   0  0  0  0  0  0  0  0  0  0  0  0  # atno 6909 bound_to 6896
  144.7221  140.2501  143.6279 H   0  0  0  0  0  0  0  0  0  0  0  0  # atno 7974 bound_to 7965
  154.7825  140.2821  155.6053 H   0  0  0  0  0  0  0  0  0  0  0  0  # atno 8008 bound_to 7997
  156.2952  140.2620  156.2582 H   0  0  0  0  0  0  0  0  0  0  0  0  # atno 8009 bound_to 7997
  154.9767  140.0375  157.2249 H   0  0  0  0  0  0  0  0  0  0  0  0  # atno 8010 bound_to 7997
  140.4253  143.2569  151.8834 H   0  0  0  0  0  0  0  0  0  0  0  0  # atno 10167 bound_to 10162
  156.1566  130.4150  149.9860 H   0  0  0  0  0  0  0  0  0  0  0  0  # atno 10718 bound_to 10713
  153.0574  135.5032  154.8014 H   0  0  0  0  0  0  0  0  0  0  0  0  # atno 10763 bound_to 10752
  154.6829  135.2971  154.9590 H   0  0  0  0  0  0  0  0  0  0  0  0  # atno 10764 bound_to 10752
  154.0370  135.6722  153.4839 H   0  0  0  0  0  0  0  0  0  0  0  0  # atno 10765 bound_to 10752
  141.0539  133.9643  157.2788 H   0  0  0  0  0  0  0  0  0  0  0  0  # atno 11005 bound_to 11000
  145.8236  139.2055  143.1923 LP  0  0  0  0  0  0  0  0  0  0  0  0  # atno 17320 bound_to 7965
  146.0492  140.8086  142.9790 LP  0  0  0  0  0  0  0  0  0  0  0  0  # atno 17321 bound_to 7965
  139.4783  144.5393  151.8552 LP  0  0  0  0  0  0  0  0  0  0  0  0  # atno 17342 bound_to 10162
  140.4488  144.1884  150.5896 LP  0  0  0  0  0  0  0  0  0  0  0  0  # atno 17343 bound_to 10162
  156.7702  130.9183  151.3644 LP  0  0  0  0  0  0  0  0  0  0  0  0  # atno 17370 bound_to 10713
  157.6699  130.9042  150.0017 LP  0  0  0  0  0  0  0  0  0  0  0  0  # atno 17371 bound_to 10713
  139.9374  135.0195  156.8599 LP  0  0  0  0  0  0  0  0  0  0  0  0  # atno 17394 bound_to 11000
  140.6001  134.0180  155.7534 LP  0  0  0  0  0  0  0  0  0  0  0  0  # atno 17395 bound_to 11000

$$$$
