#       Name:                AV-unprocessed.smi:2849
#       Creating user name   scv26
#       Creation time:       Fri Mar 27 15:41:23 2020


#       File generated by GOLD software.
#

@<TRIPOS>MOLECULE
AV-unprocessed.smi:2849
    58    61     1
SMALL
NO_CHARGES


@<TRIPOS>ATOM
      1 ****        -5.6211  -4.0144   0.3913 C.3            1 S1                 0.0000
      2 ****        -4.4671  -3.1235   0.1236 N.4            1 S1                 1.0000
      3 ****        -4.2326  -2.0796   1.1511 C.3            1 S1                 0.0000
      4 ****        -5.3439  -1.0000   1.1201 C.3            1 S1                 0.0000
      5 ****        -5.5898  -0.3955  -0.2751 C.3            1 S1                 0.0000
      6 ****        -5.5666  -1.4580  -1.3909 C.3            1 S1                 0.0000
      7 ****        -4.4475  -2.5191  -1.2308 C.3            1 S1                 0.0000
      8 ****        -3.0189  -2.0065  -1.5272 C.3            1 S1                 0.0000
      9 ****        -2.4388  -1.0663  -0.4438 C.3            1 S1                 0.0000
     10 ****        -0.9876  -0.9903  -0.6018 N.am           1 S1                 0.0000
     11 ****        -0.2170   0.0300  -0.1965 C.2            1 S1                 0.0000
     12 ****        -0.6616   1.0255   0.3733 O.2            1 S1                 0.0000
     13 ****         1.0739  -0.1896  -0.5013 N.am           1 S1                 0.0000
     14 ****         2.2077   0.6441  -0.2914 C.ar           1 S1                 0.0000
     15 ****         2.2120   1.8346   0.4738 C.ar           1 S1                 0.0000
     16 ****         3.4107   2.5635   0.5966 C.ar           1 S1                 0.0000
     17 ****         4.5796   2.0843  -0.0404 C.ar           1 S1                 0.0000
     18 ****         5.7959   2.7895   0.0465 N.pl3          1 S1                 0.0000
     19 ****         7.0446   2.2465  -0.4644 C.3            1 S1                 0.0000
     20 ****         8.0965   3.2924  -0.0989 C.3            1 S1                 0.0000
     21 ****         7.5645   3.8785   1.2096 C.3            1 S1                 0.0000
     22 ****         6.0400   3.8020   1.0638 C.3            1 S1                 0.0000
     23 ****         4.5752   0.9426  -0.7676 N.ar           1 S1                 0.0000
     24 ****         3.4244   0.2482  -0.8826 C.ar           1 S1                 0.0000
     25 ****        -2.7946  -1.5333   0.9912 C.3            1 S1                 0.0000
     26 ****        -6.5706  -3.4804   0.3736 H              1 S1                 0.0000
     27 ****        -5.5180  -4.4866   1.3687 H              1 S1                 0.0000
     28 ****        -5.6676  -4.8088  -0.3539 H              1 S1                 0.0000
     29 ****        -4.2748  -2.5598   2.1300 H              1 S1                 0.0000
     30 ****        -6.2753  -1.4437   1.4723 H              1 S1                 0.0000
     31 ****        -5.1161  -0.2057   1.8316 H              1 S1                 0.0000
     32 ****        -6.5516   0.1181  -0.2832 H              1 S1                 0.0000
     33 ****        -4.8647   0.3872  -0.4811 H              1 S1                 0.0000
     34 ****        -6.5318  -1.9652  -1.4016 H              1 S1                 0.0000
     35 ****        -5.4864  -0.9702  -2.3629 H              1 S1                 0.0000
     36 ****        -4.6475  -3.3125  -1.9527 H              1 S1                 0.0000
     37 ****        -2.3703  -2.8802  -1.6135 H              1 S1                 0.0000
     38 ****        -2.9869  -1.5182  -2.5022 H              1 S1                 0.0000
     39 ****        -2.8342  -0.0669  -0.6092 H              1 S1                 0.0000
     40 ****        -0.5381  -1.7672  -1.0639 H              1 S1                 0.0000
     41 ****         1.2674  -1.0522  -0.9890 H              1 S1                 0.0000
     42 ****         1.3329   2.2086   0.9731 H              1 S1                 0.0000
     43 ****         3.4136   3.4784   1.1701 H              1 S1                 0.0000
     44 ****         7.2563   1.2969   0.0289 H              1 S1                 0.0000
     45 ****         7.0021   2.0766  -1.5408 H              1 S1                 0.0000
     46 ****         9.0979   2.8715  -0.0045 H              1 S1                 0.0000
     47 ****         8.1267   4.0692  -0.8643 H              1 S1                 0.0000
     48 ****         7.8832   3.2517   2.0435 H              1 S1                 0.0000
     49 ****         7.9207   4.8916   1.3981 H              1 S1                 0.0000
     50 ****         5.6358   4.7537   0.7175 H              1 S1                 0.0000
     51 ****         5.5690   3.5531   2.0153 H              1 S1                 0.0000
     52 ****         3.4784  -0.6548  -1.4731 H              1 S1                 0.0000
     53 ****        -2.6173  -0.7265   1.7033 H              1 S1                 0.0000
     54 ****        -2.1076  -2.3323   1.2757 H              1 S1                 0.0000
     55 ****        -3.6616  -3.7314   0.1637 H              1 S1                 0.0000
     56 ****        -1.6421   1.1016   0.5548 LP             1 S1                 0.0000
     57 ****        -0.0426   1.7586   0.6550 LP             1 S1                 0.0000
     58 ****         5.4107   0.6195  -1.2119 LP             1 S1                 0.0000
@<TRIPOS>BOND
    1    1    2 1     
    2    1   26 1     
    3    1   27 1     
    4    1   28 1     
    5    2    7 1     
    6    2    3 1     
    7    2   55 1     
    8    3   25 1     
    9    3    4 1     
   10    3   29 1     
   11    4    5 1     
   12    4   30 1     
   13    4   31 1     
   14    5    6 1     
   15    5   32 1     
   16    5   33 1     
   17    6    7 1     
   18    6   34 1     
   19    6   35 1     
   20    7    8 1     
   21    7   36 1     
   22    8    9 1     
   23    8   37 1     
   24    8   38 1     
   25    9   10 1     
   26    9   25 1     
   27    9   39 1     
   28   10   11 am    
   29   10   40 1     
   30   11   12 2     
   31   11   13 am    
   32   13   14 1     
   33   13   41 1     
   34   14   24 ar    
   35   14   15 ar    
   36   15   16 ar    
   37   15   42 1     
   38   16   17 ar    
   39   16   43 1     
   40   17   18 1     
   41   17   23 ar    
   42   18   22 1     
   43   18   19 1     
   44   19   20 1     
   45   19   44 1     
   46   19   45 1     
   47   20   21 1     
   48   20   46 1     
   49   20   47 1     
   50   21   22 1     
   51   21   48 1     
   52   21   49 1     
   53   22   50 1     
   54   22   51 1     
   55   23   24 ar    
   56   24   52 1     
   57   25   53 1     
   58   25   54 1     
   59   12   56 1     
   60   12   57 1     
   61   23   58 1     
@<TRIPOS>SUBSTRUCTURE
      1 S1             1
@<TRIPOS>SET
LONE_PAIRS      STATIC     ATOMS    <user>   **** ""
3 56 57 58
DONOR_HYDROGENS      STATIC     ATOMS    <user>   **** ""
3 55 40 41
ATOM$BLUE        STATIC     ATOMS    COLORGROUP SYSTEM
3 56 57 58
ATOM$RED        STATIC     ATOMS    COLORGROUP SYSTEM
3 55 40 41
