#       Name:                AV-unprocessed.smi:2976
#       Creating user name   scv26
#       Creation time:       Fri Mar 27 16:28:18 2020


#       File generated by GOLD software.
#

@<TRIPOS>MOLECULE
AV-unprocessed.smi:2976
    45    46     1
SMALL
NO_CHARGES


@<TRIPOS>ATOM
      1 ****        -3.7784  -1.5481   1.5923 C.3            1 S1                 0.0000
      2 ****        -3.1320  -0.9210   0.3457 C.3            1 S1                 0.0000
      3 ****        -3.6815  -1.5375  -0.9565 C.3            1 S1                 0.0000
      4 ****        -3.1092  -0.8334  -2.1968 C.3            1 S1                 0.0000
      5 ****        -1.5730  -0.8216  -2.1819 C.3            1 S1                 0.0000
      6 ****        -1.0301  -0.2033  -0.8789 C.3            1 S1                 0.0000
      7 ****         0.4307  -0.1761  -0.9158 N.am           1 S1                 0.0000
      8 ****         1.2126   0.6287  -0.1800 C.2            1 S1                 0.0000
      9 ****         0.7672   1.4462   0.6271 O.2            1 S1                 0.0000
     10 ****         2.7254   0.4614  -0.3887 C.3            1 S1                 0.0000
     11 ****         3.5341   1.4550   0.3332 N.am           1 S1                 0.0000
     12 ****         4.0355   1.0014   1.5406 N.2            1 S1                 0.0000
     13 ****         4.7389   1.7940   2.2734 C.2            1 S1                 0.0000
     14 ****         5.0318   3.1534   1.8767 C.2            1 S1                 0.0000
     15 ****         5.9802   4.1706   2.9029 Cl             1 S1                 0.0000
     16 ****         4.5414   3.5861   0.6879 C.2            1 S1                 0.0000
     17 ****         4.8494   5.2001   0.1455 Cl             1 S1                 0.0000
     18 ****         3.7362   2.7100  -0.1746 C.2            1 S1                 0.0000
     19 ****         3.2752   3.0643  -1.2604 O.2            1 S1                 0.0000
     20 ****        -1.5804  -0.9377   0.3756 C.3            1 S1                 0.0000
     21 ****        -0.9811  -2.3505   0.5674 C.3            1 S1                 0.0000
     22 ****        -3.6291  -2.6271   1.6277 H              1 S1                 0.0000
     23 ****        -4.8539  -1.3694   1.6017 H              1 S1                 0.0000
     24 ****        -3.3676  -1.1199   2.5069 H              1 S1                 0.0000
     25 ****        -3.4322   0.1282   0.3492 H              1 S1                 0.0000
     26 ****        -3.4493  -2.6021  -0.9973 H              1 S1                 0.0000
     27 ****        -4.7694  -1.4639  -0.9715 H              1 S1                 0.0000
     28 ****        -3.4689  -1.3236  -3.1019 H              1 S1                 0.0000
     29 ****        -3.4790   0.1921  -2.2345 H              1 S1                 0.0000
     30 ****        -1.1979  -1.8382  -2.3031 H              1 S1                 0.0000
     31 ****        -1.2081  -0.2579  -3.0415 H              1 S1                 0.0000
     32 ****        -1.3775   0.8316  -0.8461 H              1 S1                 0.0000
     33 ****         0.8801  -0.8199  -1.5506 H              1 S1                 0.0000
     34 ****         3.0020  -0.5460  -0.0724 H              1 S1                 0.0000
     35 ****         2.9454   0.5011  -1.4572 H              1 S1                 0.0000
     36 ****         5.1510   1.4815   3.2330 H              1 S1                 0.0000
     37 ****        -1.2765  -0.3582   1.2486 H              1 S1                 0.0000
     38 ****        -1.2501  -3.0245  -0.2450 H              1 S1                 0.0000
     39 ****        -1.3201  -2.8049   1.4977 H              1 S1                 0.0000
     40 ****         0.1070  -2.3204   0.6212 H              1 S1                 0.0000
     41 ****        -0.2204   1.5327   0.7578 LP             1 S1                 0.0000
     42 ****         1.3934   2.0232   1.1515 LP             1 S1                 0.0000
     43 ****         3.8533   0.0655   1.8421 LP             1 S1                 0.0000
     44 ****         2.7311   2.4259  -1.8049 LP             1 S1                 0.0000
     45 ****         3.4450   3.9903  -1.5975 LP             1 S1                 0.0000
@<TRIPOS>BOND
    1    1    2 1     
    2    1   22 1     
    3    1   23 1     
    4    1   24 1     
    5    2   20 1     
    6    2    3 1     
    7    2   25 1     
    8    3    4 1     
    9    3   26 1     
   10    3   27 1     
   11    4    5 1     
   12    4   28 1     
   13    4   29 1     
   14    5    6 1     
   15    5   30 1     
   16    5   31 1     
   17    6    7 1     
   18    6   20 1     
   19    6   32 1     
   20    7    8 am    
   21    7   33 1     
   22    8    9 2     
   23    8   10 1     
   24   10   11 1     
   25   10   34 1     
   26   10   35 1     
   27   11   18 am    
   28   11   12 1     
   29   12   13 2     
   30   13   14 1     
   31   13   36 1     
   32   14   15 1     
   33   14   16 2     
   34   16   17 1     
   35   16   18 1     
   36   18   19 2     
   37   20   21 1     
   38   20   37 1     
   39   21   38 1     
   40   21   39 1     
   41   21   40 1     
   42    9   41 1     
   43    9   42 1     
   44   12   43 1     
   45   19   44 1     
   46   19   45 1     
@<TRIPOS>SUBSTRUCTURE
      1 S1             1
@<TRIPOS>SET
LONE_PAIRS      STATIC     ATOMS    <user>   **** ""
5 41 42 43 44 45
DONOR_HYDROGENS      STATIC     ATOMS    <user>   **** ""
1 33
ATOM$BLUE        STATIC     ATOMS    COLORGROUP SYSTEM
5 41 42 43 44 45
ATOM$RED        STATIC     ATOMS    COLORGROUP SYSTEM
1 33
