#       Name:                AV-unprocessed.smi:837
#       Creating user name   scv26
#       Creation time:       Fri Mar 27 01:36:09 2020


#       File generated by GOLD software.
#

@<TRIPOS>MOLECULE
AV-unprocessed.smi:837
    56    58     1
SMALL
NO_CHARGES


@<TRIPOS>ATOM
      1 ****        -5.0936   1.0649  -0.4664 C.3            1 S1                 0.0000
      2 ****        -4.1407   2.2803  -0.4407 C.3            1 S1                 0.0000
      3 ****        -4.3938   3.1204   0.8316 C.3            1 S1                 0.0000
      4 ****        -3.5234   4.3849   0.8677 C.3            1 S1                 0.0000
      5 ****        -2.0338   4.0384   0.7513 C.3            1 S1                 0.0000
      6 ****        -1.7576   3.2119  -0.5165 C.3            1 S1                 0.0000
      7 ****        -2.6255   1.9285  -0.6202 C.3            1 S1                 0.0000
      8 ****        -2.3964   1.3237  -1.9213 N.pl3          1 S1                -1.0000
      9 ****        -1.8373   0.1030  -1.7518 C.2            1 S1                 0.0000
     10 ****        -1.4944  -0.6784  -2.6384 O.2            1 S1                 0.0000
     11 ****        -1.6873  -0.1823  -0.4448 N.am           1 S1                 0.0000
     12 ****        -1.0938  -1.4174   0.0862 C.3            1 S1                 0.0000
     13 ****         0.4307  -1.3423   0.2570 C.2            1 S1                 0.0000
     14 ****         1.0410  -0.2837   0.0978 O.2            1 S1                 0.0000
     15 ****         1.0361  -2.4914   0.5937 N.am           1 S1                 0.0000
     16 ****         2.4689  -2.6476   0.8130 C.3            1 S1                 0.0000
     17 ****         3.2318  -2.7966  -0.5134 C.3            1 S1                 0.0000
     18 ****         4.7236  -2.9581  -0.2961 C.ar           1 S1                 0.0000
     19 ****         5.5739  -1.8338  -0.2644 C.ar           1 S1                 0.0000
     20 ****         6.9522  -2.0318  -0.0540 C.ar           1 S1                 0.0000
     21 ****         7.4219  -3.3495   0.1170 C.ar           1 S1                 0.0000
     22 ****         6.6166  -4.4335   0.0896 N.ar           1 S1                 0.0000
     23 ****         5.2963  -4.2350  -0.1137 C.ar           1 S1                 0.0000
     24 ****        -2.1200   0.8307   0.3140 C.2            1 S1                 0.0000
     25 ****        -2.1194   0.8894   1.5445 O.2            1 S1                 0.0000
     26 ****        -4.9220   0.3962   0.3774 H              1 S1                 0.0000
     27 ****        -4.9805   0.4836  -1.3817 H              1 S1                 0.0000
     28 ****        -6.1340   1.3873  -0.4190 H              1 S1                 0.0000
     29 ****        -4.4238   2.9076  -1.2880 H              1 S1                 0.0000
     30 ****        -5.4440   3.4103   0.8781 H              1 S1                 0.0000
     31 ****        -4.2078   2.5225   1.7240 H              1 S1                 0.0000
     32 ****        -3.8089   5.0479   0.0498 H              1 S1                 0.0000
     33 ****        -3.7058   4.9355   1.7909 H              1 S1                 0.0000
     34 ****        -1.4432   4.9545   0.7277 H              1 S1                 0.0000
     35 ****        -1.7104   3.4937   1.6382 H              1 S1                 0.0000
     36 ****        -1.9406   3.8442  -1.3871 H              1 S1                 0.0000
     37 ****        -0.6964   2.9588  -0.5537 H              1 S1                 0.0000
     38 ****        -1.5392  -1.6586   1.0527 H              1 S1                 0.0000
     39 ****        -1.3366  -2.2572  -0.5669 H              1 S1                 0.0000
     40 ****         0.4623  -3.3145   0.7067 H              1 S1                 0.0000
     41 ****         2.8531  -1.7997   1.3829 H              1 S1                 0.0000
     42 ****         2.6226  -3.5322   1.4319 H              1 S1                 0.0000
     43 ****         2.8574  -3.6595  -1.0662 H              1 S1                 0.0000
     44 ****         3.0612  -1.9269  -1.1499 H              1 S1                 0.0000
     45 ****         5.1781  -0.8374  -0.3972 H              1 S1                 0.0000
     46 ****         7.6329  -1.1939  -0.0240 H              1 S1                 0.0000
     47 ****         8.4727  -3.5376   0.2807 H              1 S1                 0.0000
     48 ****         4.6791  -5.1212  -0.1283 H              1 S1                 0.0000
     49 ****        -2.6169   1.7429  -2.8020 LP             1 S1                 0.0000
     50 ****        -1.6215  -0.4315  -3.5991 LP             1 S1                 0.0000
     51 ****        -1.0888  -1.5602  -2.3983 LP             1 S1                 0.0000
     52 ****         0.5434   0.5484  -0.1473 LP             1 S1                 0.0000
     53 ****         2.0338  -0.2566   0.2139 LP             1 S1                 0.0000
     54 ****         6.9863  -5.3540   0.2157 LP             1 S1                 0.0000
     55 ****        -2.4697   1.7043   2.0064 LP             1 S1                 0.0000
     56 ****        -1.7687   0.1222   2.0815 LP             1 S1                 0.0000
@<TRIPOS>BOND
    1    1    2 1     
    2    1   26 1     
    3    1   27 1     
    4    1   28 1     
    5    2    7 1     
    6    2    3 1     
    7    2   29 1     
    8    3    4 1     
    9    3   30 1     
   10    3   31 1     
   11    4    5 1     
   12    4   32 1     
   13    4   33 1     
   14    5    6 1     
   15    5   34 1     
   16    5   35 1     
   17    6    7 1     
   18    6   36 1     
   19    6   37 1     
   20    7   24 1     
   21    7    8 1     
   22    8    9 1     
   23    9   10 2     
   24    9   11 am    
   25   11   12 1     
   26   11   24 am    
   27   12   13 1     
   28   12   38 1     
   29   12   39 1     
   30   13   14 2     
   31   13   15 am    
   32   15   16 1     
   33   15   40 1     
   34   16   17 1     
   35   16   41 1     
   36   16   42 1     
   37   17   18 1     
   38   17   43 1     
   39   17   44 1     
   40   18   23 ar    
   41   18   19 ar    
   42   19   20 ar    
   43   19   45 1     
   44   20   21 ar    
   45   20   46 1     
   46   21   22 ar    
   47   21   47 1     
   48   22   23 ar    
   49   23   48 1     
   50   24   25 2     
   51    8   49 1     
   52   10   50 1     
   53   10   51 1     
   54   14   52 1     
   55   14   53 1     
   56   22   54 1     
   57   25   55 1     
   58   25   56 1     
@<TRIPOS>SUBSTRUCTURE
      1 S1             1
@<TRIPOS>SET
LONE_PAIRS      STATIC     ATOMS    <user>   **** ""
8 49 50 51 52 53 54 55 56
DONOR_HYDROGENS      STATIC     ATOMS    <user>   **** ""
1 40
ATOM$BLUE        STATIC     ATOMS    COLORGROUP SYSTEM
8 49 50 51 52 53 54 55 56
ATOM$RED        STATIC     ATOMS    COLORGROUP SYSTEM
1 40
