AV-unprocessed.smi:1244|AV-procd|sdf|5225|dock1
  -GOLD-   22720 4323D 1   1.00000     0.00000
 Structure written by MMmdl.
 55 57  0  0  0  0  0  0  0  0  2 V2000
  153.3416  144.0054  163.4083 C   0  0  0  0  0  0  0  0  0  0  0  0
  152.8688  143.0694  162.2906 C   0  0  1  0  0  0  0  0  0  0  0  0
  152.1613  143.8316  161.1546 C   0  0  0  0  0  0  0  0  0  0  0  0
  151.7830  142.9038  160.0628 N   0  3  1  0  0  0  0  0  0  0  0  0
  151.0460  143.5834  158.9691 C   0  0  0  0  0  0  0  0  0  0  0  0
  149.8026  142.7913  158.5249 C   0  0  0  0  0  0  0  0  0  0  0  0
  148.6092  143.6287  158.5405 N   0  0  0  0  0  0  0  0  0  0  0  0
  147.5226  143.3962  159.2901 C   0  0  0  0  0  0  0  0  0  0  0  0
  147.4257  142.4429  160.0628 O   0  0  0  0  0  0  0  0  0  0  0  0
  146.5837  144.3359  159.0891 N   0  0  0  0  0  0  0  0  0  0  0  0
  145.3230  144.4844  159.7350 C   0  0  0  0  0  0  0  0  0  0  0  0
  145.1240  144.1005  161.0844 C   0  0  0  0  0  0  0  0  0  0  0  0
  143.8430  144.2087  161.6522 C   0  0  0  0  0  0  0  0  0  0  0  0
  142.7962  144.6821  160.8447 C   0  0  0  0  0  0  0  0  0  0  0  0
  142.9644  145.0369  159.5556 N   0  0  0  0  0  0  0  0  0  0  0  0
  144.1972  144.9532  158.9974 C   0  0  0  0  0  0  0  0  0  0  0  0
  144.3123  145.3517  157.6453 N   0  0  0  0  0  0  0  0  0  0  0  0
  143.5685  144.6535  156.6021 C   0  0  0  0  0  0  0  0  0  0  0  0
  143.6353  145.5728  155.3861 C   0  0  0  0  0  0  0  0  0  0  0  0
  143.5821  146.9586  156.0219 C   0  0  0  0  0  0  0  0  0  0  0  0
  144.3330  146.7806  157.3460 C   0  0  0  0  0  0  0  0  0  0  0  0
  152.9718  142.1514  159.5913 C   0  0  0  0  0  0  0  0  0  0  0  0
  153.6632  141.4377  160.7685 C   0  0  1  0  0  0  0  0  0  0  0  0
  154.9462  140.7202  160.3352 C   0  0  0  0  0  0  0  0  0  0  0  0
  154.0069  142.3997  161.7600 O   0  0  0  0  0  0  0  0  0  0  0  0
  152.5018  144.5368  163.8564 H   0  0  0  0  0  0  0  0  0  0  0  0
  154.0453  144.7481  163.0310 H   0  0  0  0  0  0  0  0  0  0  0  0
  153.8406  143.4460  164.2000 H   0  0  0  0  0  0  0  0  0  0  0  0
  152.1875  142.3334  162.7211 H   0  0  0  0  0  0  0  0  0  0  0  0
  151.2692  144.3233  161.5445 H   0  0  0  0  0  0  0  0  0  0  0  0
  152.8126  144.6130  160.7589 H   0  0  0  0  0  0  0  0  0  0  0  0
  150.7146  144.5645  159.3132 H   0  0  0  0  0  0  0  0  0  0  0  0
  151.7195  143.7647  158.1297 H   0  0  0  0  0  0  0  0  0  0  0  0
  149.9337  142.3658  157.5293 H   0  0  0  0  0  0  0  0  0  0  0  0
  149.6363  141.9518  159.2004 H   0  0  0  0  0  0  0  0  0  0  0  0
  148.6089  144.4386  157.9375 H   0  0  0  0  0  0  0  0  0  0  0  0
  146.8428  145.0978  158.4795 H   0  0  0  0  0  0  0  0  0  0  0  0
  145.9240  143.7025  161.6891 H   0  0  0  0  0  0  0  0  0  0  0  0
  143.6655  143.9230  162.6784 H   0  0  0  0  0  0  0  0  0  0  0  0
  141.7957  144.7730  161.2409 H   0  0  0  0  0  0  0  0  0  0  0  0
  143.9995  143.6740  156.3945 H   0  0  0  0  0  0  0  0  0  0  0  0
  142.5270  144.5160  156.8950 H   0  0  0  0  0  0  0  0  0  0  0  0
  144.5846  145.4369  154.8661 H   0  0  0  0  0  0  0  0  0  0  0  0
  142.8283  145.3963  154.6746 H   0  0  0  0  0  0  0  0  0  0  0  0
  144.0149  147.7345  155.3898 H   0  0  0  0  0  0  0  0  0  0  0  0
  142.5444  147.2289  156.2221 H   0  0  0  0  0  0  0  0  0  0  0  0
  143.8824  147.3744  158.1424 H   0  0  0  0  0  0  0  0  0  0  0  0
  145.3685  147.1001  157.2291 H   0  0  0  0  0  0  0  0  0  0  0  0
  152.6808  141.4155  158.8421 H   0  0  0  0  0  0  0  0  0  0  0  0
  153.6689  142.8384  159.1085 H   0  0  0  0  0  0  0  0  0  0  0  0
  152.9842  140.7016  161.2027 H   0  0  0  0  0  0  0  0  0  0  0  0
  154.7370  139.9638  159.5786 H   0  0  0  0  0  0  0  0  0  0  0  0
  155.4189  140.2215  161.1813 H   0  0  0  0  0  0  0  0  0  0  0  0
  155.6687  141.4217  159.9169 H   0  0  0  0  0  0  0  0  0  0  0  0
  151.1465  142.2335  160.4703 H   0  0  0  0  0  0  0  0  0  0  0  0
  1  2  1  0  0  0  0
  1 26  1  0  0  0  0
  1 27  1  0  0  0  0
  1 28  1  0  0  0  0
  2 25  1  0  0  0  0
  2  3  1  0  0  0  0
  2 29  1  0  0  0  0
  3  4  1  0  0  0  0
  3 30  1  0  0  0  0
  3 31  1  0  0  0  0
  4  5  1  0  0  0  0
  4 22  1  0  0  0  0
  4 55  1  0  0  0  0
  5  6  1  0  0  0  0
  5 32  1  0  0  0  0
  5 33  1  0  0  0  0
  6  7  1  0  0  0  0
  6 34  1  0  0  0  0
  6 35  1  0  0  0  0
  7  8  1  0  0  0  0
  7 36  1  0  0  0  0
  8  9  2  0  0  0  0
  8 10  1  0  0  0  0
 10 11  1  0  0  0  0
 10 37  1  0  0  0  0
 11 16  1  0  0  0  0
 11 12  2  0  0  0  0
 12 13  1  0  0  0  0
 12 38  1  0  0  0  0
 13 14  2  0  0  0  0
 13 39  1  0  0  0  0
 14 15  1  0  0  0  0
 14 40  1  0  0  0  0
 15 16  2  0  0  0  0
 16 17  1  0  0  0  0
 17 21  1  0  0  0  0
 17 18  1  0  0  0  0
 18 19  1  0  0  0  0
 18 41  1  0  0  0  0
 18 42  1  0  0  0  0
 19 20  1  0  0  0  0
 19 43  1  0  0  0  0
 19 44  1  0  0  0  0
 20 21  1  0  0  0  0
 20 45  1  0  0  0  0
 20 46  1  0  0  0  0
 21 47  1  0  0  0  0
 21 48  1  0  0  0  0
 22 23  1  0  0  0  0
 22 49  1  0  0  0  0
 22 50  1  0  0  0  0
 23 24  1  0  0  0  0
 23 25  1  0  0  0  0
 23 51  1  0  0  0  0
 24 52  1  0  0  0  0
 24 53  1  0  0  0  0
 24 54  1  0  0  0  0
M  CHG  1   4   1
M  END
> <s_m_source_file>
AV-unprocessed.smi

> <i_m_source_file_index>
1244

> <i_lp_mmshare_version>
43012

> <i_f3d_flags>
0

> <s_epik_input>
W0NIM11bQ0BASF0xW0NIMl1OKFtDSDJdW0NASF0oTzEpW0NIM10pW0NIMl1bQ0gyXVtOSF1DKD1PKVtOSF1jMltjSF1bY0hdW2NIXW5jMk4zW0NIMl1bQ0gyXVtDSDJdW0NIMl0z

> <s_epik_cmdline>
J2VwaWtfcHl0aG9uJywgJy1waCcsICc3LjAnLCAnLXRuJywgJzgnLCAnLW1hJywgJzIwMCcsICctbWV0YWxfYmluZGluZycsICctaW1hZScsICc8aW5maWxlLm1hZT4nLCAnLW9tYWUnLCAnPG91dGZpbGUubWFlPic=

> <r_lp_tautomer_probability>
1

> <r_epik_Ionization_Penalty>
0.684913

> <r_epik_Ionization_Penalty_Charging>
0.602531

> <r_epik_Ionization_Penalty_Neutral>
0.0823829

> <r_epik_State_Penalty>
0.678827

> <r_epik_Charging_Adjusted_Penalty>
1.28136

> <i_epik_Tot_Q>
1

> <i_epik_Tot_abs_Q>
1

> <r_epik_Metal_State_Penalty>
0.67806

> <b_epik_Metal_Only>
0

> <s_lp_Force_Field>
OPLS_2005

> <r_lp_Energy>
42.8464

> <b_lp_Chiralities_Consistent>
1

> <s_lp_Variant>
AV-unprocessed.smi:1244-5

> <Gold.Version>
5.8.1

> <Gold.Id.Protein>
6NUR|6NUR_protein|mol2

> <Gold.PLP.Fitness>
51.0628

> <Gold.PLP.PLP>
-44.6529

> <Gold.PLP.part.hbond>
-5.9775

> <Gold.PLP.part.metal>
0.0000

> <Gold.PLP.part.buried>
-2.5489

> <Gold.PLP.part.nonpolar>
-36.6361

> <Gold.PLP.part.repulsive>
0.3790

> <Gold.PLP.ligand.clash>
0.0000

> <Gold.PLP.ligand.torsion>
1.4291

> <Gold.PLP.Chemscore.Hbond>
2.9360

> <Gold.PLP.Chemscore.CHOScore>
0.0000

> <Gold.PLP.Chemscore.Metal>
0.0000

> <Gold.Chemscore.Hbonds>
donor molecule, donor type, donor heavy atom, donor atom, acceptor molecule, acceptor atom, score
      L1  H     7    36       P1  8029  0.75
      L1  H    10    37       P1  8029  1.00
      P1  H  6933  6944       L1     9  0.61
      P1  H  6934  6946       L1     9  0.61

> <Gold.PLP.Chemscore.Internal.Correction>
0.4602

> <Gold.Rescore>
     Score         DG    S(hbond)    S(metal)    S(lipo)     H(rot)  DE(clash)    DE(int)     intcor
     19.90     -23.12       2.21        0.00     122.53       1.60       0.56       2.66       ----

> <Gold.Chemscore.Fitness>
19.8965

> <Gold.Chemscore.DG>
-23.1173

> <Gold.Chemscore.ZeroCoef>
-5.4800

> <Gold.Chemscore.Hbond>
2.2132

> <Gold.Chemscore.Metal>
0.0000

> <Gold.Chemscore.Lipo>
122.5264

> <Gold.Chemscore.Internal_Hbond>
0.0000

> <Gold.Chemscore.DEClash>
0.5606

> <Gold.Chemscore.DEInternal>
2.6601

> <Gold.Chemscore.Rot>
1.5978

> <Gold.Chemscore.Internal.Correction>
   9.000000E+99

> <Gold.Chemscore.Hbonds>
donor molecule, donor type, donor heavy atom, donor atom, acceptor molecule, acceptor atom, score
      L1  H     7    36       P1  8029  0.09
      L1  H    10    37       P1  8029  0.98
      P1  H  6933  6944       L1     9  0.59
      P1  H  6934  6946       L1     9  0.60

> <Gold.Chemscore.Hbond.Weighted>
-7.3922

> <Gold.Chemscore.Metal.Weighted>
-0.0000

> <Gold.Chemscore.Lipo.Weighted>
-14.3356

> <Gold.Chemscore.Internal_Hbond.Weighted>
0.0000

> <Gold.Chemscore.DEClash.Weighted>
0.5606

> <Gold.Chemscore.DEInternal.Weighted>
2.6601

> <Gold.Chemscore.Rot.Weighted>
4.0905

> <Gold.Chemscore.Internal.Correction.Weighted>
   9.000000E+99

> <Gold.Protein.RotatedTorsions>
[ 6907 6896 6895 6894 ] final  -12.88 input  -60.11 | X-H torsion
[ 7974 7965 7964 7962 ] final   54.47 input  175.53 | X-H torsion
[ 8008 7997 7996 7995 ] final  -48.56 input   59.86 | X-H torsion
[ 10167 10162 10161 10158 ] final -173.85 input  -65.29 | X-H torsion
[ 10718 10713 10712 10709 ] final -138.23 input   66.30 | X-H torsion
[ 10763 10752 10751 10750 ] final   11.09 input  -60.55 | X-H torsion
[ 11005 11000 10999 10996 ] final  -20.49 input  -57.11 | X-H torsion

> <Gold.Protein.ActiveResidues>
 VAL166  LYS551  ARG553  GLY616  TRP617  ASP618  TYR619  PRO620  LYS621  CYS622 
 ASP623  PHE694  ASN695  SER759  ASP760  ASP761  ALA762  ILE779  LEU786  VAL792 
 PHE793  MET794  SER795  GLU796  ALA797  LYS798  CYS799  TRP800  GLU811  SER814 

> <Gold.Protein.RotatedAtoms>
  151.3636  135.0909  159.9442 H   0  0  0  0  0  0  0  0  0  0  0  0  # atno 6907 bound_to 6896
  152.5155  133.9233  159.7555 H   0  0  0  0  0  0  0  0  0  0  0  0  # atno 6908 bound_to 6896
  150.9633  133.6367  159.2780 H   0  0  0  0  0  0  0  0  0  0  0  0  # atno 6909 bound_to 6896
  145.9605  139.4055  143.0251 H   0  0  0  0  0  0  0  0  0  0  0  0  # atno 7974 bound_to 7965
  154.4030  140.1318  156.4358 H   0  0  0  0  0  0  0  0  0  0  0  0  # atno 8008 bound_to 7997
  155.7506  140.3488  155.5129 H   0  0  0  0  0  0  0  0  0  0  0  0  # atno 8009 bound_to 7997
  155.8953  140.1010  157.1380 H   0  0  0  0  0  0  0  0  0  0  0  0  # atno 8010 bound_to 7997
  139.5666  144.1742  152.1321 H   0  0  0  0  0  0  0  0  0  0  0  0  # atno 10167 bound_to 10162
  156.2970  130.7407  151.1448 H   0  0  0  0  0  0  0  0  0  0  0  0  # atno 10718 bound_to 10713
  153.1962  135.6849  153.8289 H   0  0  0  0  0  0  0  0  0  0  0  0  # atno 10763 bound_to 10752
  153.7570  135.3215  155.3332 H   0  0  0  0  0  0  0  0  0  0  0  0  # atno 10764 bound_to 10752
  154.8146  135.4694  154.0708 H   0  0  0  0  0  0  0  0  0  0  0  0  # atno 10765 bound_to 10752
  140.8469  133.7885  155.9923 H   0  0  0  0  0  0  0  0  0  0  0  0  # atno 11005 bound_to 11000
  145.8046  140.9755  143.0981 LP  0  0  0  0  0  0  0  0  0  0  0  0  # atno 17320 bound_to 7965
  144.6814  139.9844  143.7484 LP  0  0  0  0  0  0  0  0  0  0  0  0  # atno 17321 bound_to 7965
  140.1266  144.5326  150.6829 LP  0  0  0  0  0  0  0  0  0  0  0  0  # atno 17342 bound_to 10162
  140.6949  143.2398  151.5028 LP  0  0  0  0  0  0  0  0  0  0  0  0  # atno 17343 bound_to 10162
  157.7358  131.0569  150.5451 LP  0  0  0  0  0  0  0  0  0  0  0  0  # atno 17370 bound_to 10713
  156.5574  130.4247  149.6079 LP  0  0  0  0  0  0  0  0  0  0  0  0  # atno 17371 bound_to 10713
  140.8833  134.2584  157.5133 LP  0  0  0  0  0  0  0  0  0  0  0  0  # atno 17394 bound_to 11000
  139.8703  134.9626  156.4433 LP  0  0  0  0  0  0  0  0  0  0  0  0  # atno 17395 bound_to 11000

$$$$
