AV-unprocessed.smi:3238|AV-procd|sdf|12375|dock6
  -GOLD-   2272018233D 1   1.00000     0.00000
 Structure written by MMmdl.
 37 39  0  0  0  0  0  0  0  0  1 V2000
  149.8773  135.0223  154.8196 C   0  0  0  0  0  0  0  0  0  0  0  0
  150.3134  136.3454  154.4016 N   0  0  0  0  0  0  0  0  0  0  0  0
  151.2981  137.0388  154.9927 C   0  0  0  0  0  0  0  0  0  0  0  0
  151.9463  136.6114  155.9479 O   0  0  0  0  0  0  0  0  0  0  0  0
  151.6049  138.4229  154.4169 C   0  0  0  0  0  0  0  0  0  0  0  0
  151.4427  139.4794  155.4630 C   0  0  0  0  0  0  0  0  0  0  0  0
  150.8775  140.6484  155.1840 N   0  0  0  0  0  0  0  0  0  0  0  0
  150.9356  141.3362  156.4044 O   0  0  0  0  0  0  0  0  0  0  0  0
  151.5143  140.4827  157.2825 C   0  0  0  0  0  0  0  0  0  0  0  0
  151.7820  140.9498  158.6745 C   0  0  0  0  0  0  0  0  0  0  0  0
  152.5667  142.2756  158.7121 C   0  0  2  0  0  0  0  0  0  0  0  0
  152.7599  142.8868  160.1173 C   0  0  0  0  0  0  0  0  0  0  0  0
  152.3033  144.3450  159.9215 C   0  0  2  0  0  0  0  0  0  0  0  0
  150.7684  144.3797  159.8075 C   0  0  0  0  0  0  0  0  0  0  0  0
  150.5206  143.7812  158.4106 C   0  0  0  0  0  0  0  0  0  0  0  0
  151.9454  143.4496  157.9204 C   0  0  1  0  0  0  0  0  0  0  0  0
  152.7313  144.6290  158.4853 C   0  0  0  0  0  0  0  0  0  0  0  0
  151.8587  139.3133  156.7496 N   0  0  0  0  0  0  0  0  0  0  0  0
  149.0878  134.6652  154.1583 H   0  0  0  0  0  0  0  0  0  0  0  0
  149.4847  135.0478  155.8369 H   0  0  0  0  0  0  0  0  0  0  0  0
  150.7021  134.3094  154.7819 H   0  0  0  0  0  0  0  0  0  0  0  0
  149.8287  136.7680  153.6228 H   0  0  0  0  0  0  0  0  0  0  0  0
  152.6234  138.4436  154.0259 H   0  0  0  0  0  0  0  0  0  0  0  0
  150.9396  138.6309  153.5779 H   0  0  0  0  0  0  0  0  0  0  0  0
  150.8253  141.0719  159.1833 H   0  0  0  0  0  0  0  0  0  0  0  0
  152.3189  140.1613  159.2016 H   0  0  0  0  0  0  0  0  0  0  0  0
  153.5521  142.0870  158.2816 H   0  0  0  0  0  0  0  0  0  0  0  0
  152.1779  142.3799  160.8880 H   0  0  0  0  0  0  0  0  0  0  0  0
  153.8089  142.8397  160.4121 H   0  0  0  0  0  0  0  0  0  0  0  0
  152.7016  145.0326  160.6680 H   0  0  0  0  0  0  0  0  0  0  0  0
  150.2812  143.8076  160.5978 H   0  0  0  0  0  0  0  0  0  0  0  0
  150.3962  145.4038  159.8571 H   0  0  0  0  0  0  0  0  0  0  0  0
  149.8560  142.9185  158.4313 H   0  0  0  0  0  0  0  0  0  0  0  0
  150.0602  144.5257  157.7597 H   0  0  0  0  0  0  0  0  0  0  0  0
  152.0181  143.3314  156.8389 H   0  0  0  0  0  0  0  0  0  0  0  0
  152.3879  145.5964  158.1142 H   0  0  0  0  0  0  0  0  0  0  0  0
  153.8089  144.5494  158.3304 H   0  0  0  0  0  0  0  0  0  0  0  0
  1  2  1  0  0  0  0
  1 19  1  0  0  0  0
  1 20  1  0  0  0  0
  1 21  1  0  0  0  0
  2  3  1  0  0  0  0
  2 22  1  0  0  0  0
  3  4  2  0  0  0  0
  3  5  1  0  0  0  0
  5  6  1  0  0  0  0
  5 23  1  0  0  0  0
  5 24  1  0  0  0  0
  6 18  1  0  0  0  0
  6  7  2  0  0  0  0
  7  8  1  0  0  0  0
  8  9  1  0  0  0  0
  9 10  1  0  0  0  0
  9 18  2  0  0  0  0
 10 11  1  0  0  0  0
 10 25  1  0  0  0  0
 10 26  1  0  0  0  0
 11 16  1  0  0  0  0
 11 12  1  0  0  0  0
 11 27  1  0  0  0  0
 12 13  1  0  0  0  0
 12 28  1  0  0  0  0
 12 29  1  0  0  0  0
 13 17  1  0  0  0  0
 13 14  1  0  0  0  0
 13 30  1  0  0  0  0
 14 15  1  0  0  0  0
 14 31  1  0  0  0  0
 14 32  1  0  0  0  0
 15 16  1  0  0  0  0
 15 33  1  0  0  0  0
 15 34  1  0  0  0  0
 16 17  1  0  0  0  0
 16 35  1  0  0  0  0
 17 36  1  0  0  0  0
 17 37  1  0  0  0  0
M  END
> <s_m_source_file>
AV-unprocessed.smi

> <i_m_source_file_index>
3238

> <i_lp_mmshare_version>
43012

> <i_f3d_flags>
0

> <s_epik_input>
W0NIM11bTkhdQyg9TylbQ0gyXWMxbm9jKG4xKVtDSDJdW0NASF0oW0NIMl1bQ0BIXTIzKVtDQEhdKFtDSDJdMylbQ0gyXVtDSDJdMg==

> <s_epik_cmdline>
J2VwaWtfcHl0aG9uJywgJy1waCcsICc3LjAnLCAnLXRuJywgJzgnLCAnLW1hJywgJzIwMCcsICctbWV0YWxfYmluZGluZycsICctaW1hZScsICc8aW5maWxlLm1hZT4nLCAnLW9tYWUnLCAnPG91dGZpbGUubWFlPic=

> <r_lp_tautomer_probability>
1

> <r_epik_Ionization_Penalty>
1.02915e-07

> <r_epik_Ionization_Penalty_Charging>
0

> <r_epik_Ionization_Penalty_Neutral>
1.02915e-07

> <r_epik_State_Penalty>
-0

> <r_epik_Charging_Adjusted_Penalty>
0

> <i_epik_Tot_Q>
0

> <i_epik_Tot_abs_Q>
0

> <r_epik_Metal_State_Penalty>
-0

> <b_epik_Metal_Only>
0

> <s_lp_Force_Field>
OPLS_2005

> <r_lp_Energy>
47.7222

> <b_lp_Chiralities_Consistent>
1

> <s_lp_Variant>
AV-unprocessed.smi:3238-1

> <Gold.Version>
5.8.1

> <Gold.Id.Protein>
6NUR|6NUR_protein|mol2

> <Gold.PLP.Fitness>
48.4284

> <Gold.PLP.PLP>
-40.8632

> <Gold.PLP.part.hbond>
-3.9895

> <Gold.PLP.part.metal>
0.0000

> <Gold.PLP.part.buried>
-3.9382

> <Gold.PLP.part.nonpolar>
-33.2182

> <Gold.PLP.part.repulsive>
0.2010

> <Gold.PLP.ligand.clash>
0.0000

> <Gold.PLP.ligand.torsion>
0.3191

> <Gold.PLP.Chemscore.Hbond>
2.7296

> <Gold.PLP.Chemscore.CHOScore>
0.0000

> <Gold.PLP.Chemscore.Metal>
0.0000

> <Gold.Chemscore.Hbonds>
donor molecule, donor type, donor heavy atom, donor atom, acceptor molecule, acceptor atom, score
      L1  H     2    22       P1  7948  0.78
      P1  H  7989  7998       L1     7  0.82
      P1  H 10752 10764       L1     4  1.00

> <Gold.PLP.Chemscore.Internal.Correction>
0.0145

> <Gold.Rescore>
     Score         DG    S(hbond)    S(metal)    S(lipo)     H(rot)  DE(clash)    DE(int)     intcor
     15.59     -18.72       1.99        0.00      96.81       1.85       0.20       2.93       ----

> <Gold.Chemscore.Fitness>
15.5929

> <Gold.Chemscore.DG>
-18.7205

> <Gold.Chemscore.ZeroCoef>
-5.4800

> <Gold.Chemscore.Hbond>
1.9905

> <Gold.Chemscore.Metal>
0.0000

> <Gold.Chemscore.Lipo>
96.8064

> <Gold.Chemscore.Internal_Hbond>
0.0000

> <Gold.Chemscore.DEClash>
0.1953

> <Gold.Chemscore.DEInternal>
2.9324

> <Gold.Chemscore.Rot>
1.8492

> <Gold.Chemscore.Internal.Correction>
   9.000000E+99

> <Gold.Chemscore.Hbonds>
donor molecule, donor type, donor heavy atom, donor atom, acceptor molecule, acceptor atom, score
      L1  H     2    22       P1  7948  0.33
      P1  H  7989  7998       L1     7  0.16
      P1  H 10752 10764       L1     4  0.43

> <Gold.Chemscore.Hbond.Weighted>
-6.6481

> <Gold.Chemscore.Metal.Weighted>
-0.0000

> <Gold.Chemscore.Lipo.Weighted>
-11.3264

> <Gold.Chemscore.Internal_Hbond.Weighted>
0.0000

> <Gold.Chemscore.DEClash.Weighted>
0.1953

> <Gold.Chemscore.DEInternal.Weighted>
2.9324

> <Gold.Chemscore.Rot.Weighted>
4.7340

> <Gold.Chemscore.Internal.Correction.Weighted>
   9.000000E+99

> <Gold.Protein.RotatedTorsions>
[ 6907 6896 6895 6894 ] final -139.69 input  -60.11 | X-H torsion
[ 7974 7965 7964 7962 ] final  -27.71 input  175.53 | X-H torsion
[ 8008 7997 7996 7995 ] final  -35.15 input   59.86 | X-H torsion
[ 10167 10162 10161 10158 ] final  105.78 input  -65.29 | X-H torsion
[ 10718 10713 10712 10709 ] final    4.66 input   66.30 | X-H torsion
[ 10763 10752 10751 10750 ] final  -20.38 input  -60.55 | X-H torsion
[ 11005 11000 10999 10996 ] final   86.77 input  -57.11 | X-H torsion

> <Gold.Protein.ActiveResidues>
 VAL166  LYS551  ARG553  GLY616  TRP617  ASP618  TYR619  PRO620  LYS621  CYS622 
 ASP623  PHE694  ASN695  SER759  ASP760  ASP761  ALA762  ILE779  LEU786  VAL792 
 PHE793  MET794  SER795  GLU796  ALA797  LYS798  CYS799  TRP800  GLU811  SER814 

> <Gold.Protein.RotatedAtoms>
  151.0511  133.5623  159.2642 H   0  0  0  0  0  0  0  0  0  0  0  0  # atno 6907 bound_to 6896
  151.2634  135.0660  159.9117 H   0  0  0  0  0  0  0  0  0  0  0  0  # atno 6908 bound_to 6896
  152.5382  134.0253  159.8054 H   0  0  0  0  0  0  0  0  0  0  0  0  # atno 6909 bound_to 6896
  146.1339  140.5187  142.8681 H   0  0  0  0  0  0  0  0  0  0  0  0  # atno 7974 bound_to 7965
  154.4102  140.1665  156.2165 H   0  0  0  0  0  0  0  0  0  0  0  0  # atno 8008 bound_to 7997
  155.9400  140.3408  155.6296 H   0  0  0  0  0  0  0  0  0  0  0  0  # atno 8009 bound_to 7997
  155.7001  140.0744  157.2404 H   0  0  0  0  0  0  0  0  0  0  0  0  # atno 8010 bound_to 7997
  139.7063  144.7085  151.1100 H   0  0  0  0  0  0  0  0  0  0  0  0  # atno 10167 bound_to 10162
  156.8959  130.5704  149.5649 H   0  0  0  0  0  0  0  0  0  0  0  0  # atno 10718 bound_to 10713
  153.6195  135.6993  153.5316 H   0  0  0  0  0  0  0  0  0  0  0  0  # atno 10763 bound_to 10752
  153.2949  135.4146  155.1200 H   0  0  0  0  0  0  0  0  0  0  0  0  # atno 10764 bound_to 10752
  154.8546  135.3634  154.5735 H   0  0  0  0  0  0  0  0  0  0  0  0  # atno 10765 bound_to 10752
  139.8936  134.8378  156.2767 H   0  0  0  0  0  0  0  0  0  0  0  0  # atno 11005 bound_to 11000
  144.7719  140.5656  143.6664 LP  0  0  0  0  0  0  0  0  0  0  0  0  # atno 17320 bound_to 7965
  145.5199  139.1477  143.3558 LP  0  0  0  0  0  0  0  0  0  0  0  0  # atno 17321 bound_to 7965
  140.7722  143.5353  150.9375 LP  0  0  0  0  0  0  0  0  0  0  0  0  # atno 17342 bound_to 10162
  139.9037  143.6805  152.3127 LP  0  0  0  0  0  0  0  0  0  0  0  0  # atno 17343 bound_to 10162
  156.0605  130.5659  150.9183 LP  0  0  0  0  0  0  0  0  0  0  0  0  # atno 17370 bound_to 10713
  157.6055  131.0939  150.8886 LP  0  0  0  0  0  0  0  0  0  0  0  0  # atno 17371 bound_to 10713
  141.0065  133.7120  156.1044 LP  0  0  0  0  0  0  0  0  0  0  0  0  # atno 17394 bound_to 11000
  140.7426  134.4133  157.5552 LP  0  0  0  0  0  0  0  0  0  0  0  0  # atno 17395 bound_to 11000

$$$$
