#       Name:                AV-unprocessed.smi:828
#       Creating user name   scv26
#       Creation time:       Fri Mar 27 01:31:14 2020


#       File generated by GOLD software.
#

@<TRIPOS>MOLECULE
AV-unprocessed.smi:828
    39    40     1
SMALL
NO_CHARGES


@<TRIPOS>ATOM
      1 ****        -6.6813   2.9399   0.6727 C.3            1 S1                 0.0000
      2 ****        -5.2792   2.4375   0.7257 C.2            1 S1                 0.0000
      3 ****        -4.2172   3.2433   0.6032 N.2            1 S1                 0.0000
      4 ****        -3.0179   2.5485   0.6795 N.2            1 S1                 0.0000
      5 ****        -3.2126   1.2345   0.8572 C.2            1 S1                 0.0000
      6 ****        -2.1595   0.2880   0.9621 N.am           1 S1                 0.0000
      7 ****        -0.8339   0.5098   0.9304 C.2            1 S1                 0.0000
      8 ****        -0.2961   1.6131   0.8314 O.2            1 S1                 0.0000
      9 ****        -0.1469  -0.6380   1.0191 N.am           1 S1                 0.0000
     10 ****         1.3088  -0.7448   1.0131 C.3            1 S1                 0.0000
     11 ****         1.9077  -0.5217  -0.3989 C.3            1 S1                 0.0000
     12 ****         1.3381  -1.4800  -1.4586 C.3            1 S1                 0.0000
     13 ****         2.4669  -1.6274  -2.4692 C.3            1 S1                 0.0000
     14 ****         3.7067  -1.5884  -1.5824 C.3            1 S1                 0.0000
     15 ****         3.3938  -0.6251  -0.5048 N.4            1 S1                 1.0000
     16 ****         4.1682  -0.8558   0.7370 C.3            1 S1                 0.0000
     17 ****        -4.8930   0.7350   0.9451 S.3            1 S1                 0.0000
     18 ****        -6.7477   3.9301   1.1244 H              1 S1                 0.0000
     19 ****        -7.3450   2.2659   1.2144 H              1 S1                 0.0000
     20 ****        -7.0148   3.0030  -0.3631 H              1 S1                 0.0000
     21 ****        -2.4520  -0.6727   1.0641 H              1 S1                 0.0000
     22 ****        -0.6672  -1.4996   1.1000 H              1 S1                 0.0000
     23 ****         1.7141  -0.0280   1.7287 H              1 S1                 0.0000
     24 ****         1.5622  -1.7387   1.3821 H              1 S1                 0.0000
     25 ****         1.6775   0.4970  -0.7136 H              1 S1                 0.0000
     26 ****         1.1244  -2.4530  -1.0140 H              1 S1                 0.0000
     27 ****         0.4161  -1.1104  -1.9085 H              1 S1                 0.0000
     28 ****         2.3948  -2.5424  -3.0579 H              1 S1                 0.0000
     29 ****         2.4681  -0.7795  -3.1557 H              1 S1                 0.0000
     30 ****         3.8753  -2.5782  -1.1547 H              1 S1                 0.0000
     31 ****         4.6052  -1.3013  -2.1294 H              1 S1                 0.0000
     32 ****         3.9101  -1.8082   1.2010 H              1 S1                 0.0000
     33 ****         4.0023  -0.0549   1.4577 H              1 S1                 0.0000
     34 ****         5.2350  -0.8733   0.5122 H              1 S1                 0.0000
     35 ****         3.6907   0.2762  -0.8518 H              1 S1                 0.0000
     36 ****        -4.2807   4.2326   0.4718 LP             1 S1                 0.0000
     37 ****        -2.1170   2.9769   0.6102 LP             1 S1                 0.0000
     38 ****        -0.8568   2.4386   0.7667 LP             1 S1                 0.0000
     39 ****         0.7012   1.6836   0.8158 LP             1 S1                 0.0000
@<TRIPOS>BOND
    1    1    2 1     
    2    1   18 1     
    3    1   19 1     
    4    1   20 1     
    5    2   17 1     
    6    2    3 2     
    7    3    4 1     
    8    4    5 2     
    9    5    6 1     
   10    5   17 1     
   11    6    7 am    
   12    6   21 1     
   13    7    8 2     
   14    7    9 am    
   15    9   10 1     
   16    9   22 1     
   17   10   11 1     
   18   10   23 1     
   19   10   24 1     
   20   11   15 1     
   21   11   12 1     
   22   11   25 1     
   23   12   13 1     
   24   12   26 1     
   25   12   27 1     
   26   13   14 1     
   27   13   28 1     
   28   13   29 1     
   29   14   15 1     
   30   14   30 1     
   31   14   31 1     
   32   15   16 1     
   33   15   35 1     
   34   16   32 1     
   35   16   33 1     
   36   16   34 1     
   37    3   36 1     
   38    4   37 1     
   39    8   38 1     
   40    8   39 1     
@<TRIPOS>SUBSTRUCTURE
      1 S1             1
@<TRIPOS>SET
LONE_PAIRS      STATIC     ATOMS    <user>   **** ""
4 36 37 38 39
DONOR_HYDROGENS      STATIC     ATOMS    <user>   **** ""
3 21 22 35
ATOM$BLUE        STATIC     ATOMS    COLORGROUP SYSTEM
4 36 37 38 39
ATOM$RED        STATIC     ATOMS    COLORGROUP SYSTEM
3 21 22 35
