AV-unprocessed.smi:136|AV-procd|sdf|1174|dock7
  -GOLD-   2262018323D 1   1.00000     0.00000
 Structure written by MMmdl.
 54 58  0  0  0  0  0  0  0  0  1 V2000
  152.0069  137.0798  159.7622 O   0  0  0  0  0  0  0  0  0  0  0  0
  151.2864  137.2858  158.7837 C   0  0  0  0  0  0  0  0  0  0  0  0
  151.8750  137.9534  157.5227 C   0  0  0  0  0  0  0  0  0  0  0  0
  151.5650  139.3960  157.4167 N   0  0  0  0  0  0  0  0  0  0  0  0
  150.7988  139.8502  156.3145 C   0  0  0  0  0  0  0  0  0  0  0  0
  150.3854  139.0676  155.4577 O   0  0  0  0  0  0  0  0  0  0  0  0
  150.5518  141.2871  156.2689 C   0  0  0  0  0  0  0  0  0  0  0  0
  149.8383  141.8080  155.2563 F   0  0  0  0  0  0  0  0  0  0  0  0
  151.0322  142.1053  157.2276 C   0  0  0  0  0  0  0  0  0  0  0  0
  151.7773  141.6472  158.2988 N   0  0  0  0  0  0  0  0  0  0  0  0
  152.3154  142.5965  159.3458 C   0  0  1  0  0  0  0  0  0  0  0  0
  153.1714  143.6830  158.6853 C   0  0  0  0  0  0  0  0  0  0  0  0
  152.1682  144.8014  158.5032 C   0  0  0  0  0  0  0  0  0  0  0  0
  151.2981  144.6362  159.7439 C   0  0  0  0  0  0  0  0  0  0  0  0
  151.2430  143.2319  159.9811 O   0  0  0  0  0  0  0  0  0  0  0  0
  152.0745  140.2713  158.4054 C   0  0  0  0  0  0  0  0  0  0  0  0
  152.7700  139.8466  159.3310 O   0  0  0  0  0  0  0  0  0  0  0  0
  149.9812  136.9337  158.7700 N   0  0  0  0  0  0  0  0  0  0  0  0
  149.3298  136.4706  159.8663 N   0  0  0  0  0  0  0  0  0  0  0  0
  148.0760  136.3765  159.6196 C   0  0  0  0  0  0  0  0  0  0  0  0
  147.0638  135.9124  160.5943 C   0  0  0  0  0  0  0  0  0  0  0  0
  147.4845  135.4237  161.8522 C   0  0  0  0  0  0  0  0  0  0  0  0
  146.5224  134.9819  162.7811 C   0  0  0  0  0  0  0  0  0  0  0  0
  145.1516  135.0280  162.4568 C   0  0  0  0  0  0  0  0  0  0  0  0
  143.9781  134.4841  163.5987 Cl  0  0  0  0  0  0  0  0  0  0  0  0
  144.7375  135.5174  161.2017 C   0  0  0  0  0  0  0  0  0  0  0  0
  145.6905  135.9616  160.2642 C   0  0  0  0  0  0  0  0  0  0  0  0
  147.7030  136.7850  158.2345 C   0  0  0  0  0  0  0  0  0  0  0  0
  149.0680  137.1364  157.6371 C   0  0  2  0  0  0  0  0  0  0  0  0
  149.4008  136.3126  156.4253 C   0  0  0  0  0  0  0  0  0  0  0  0
  150.4641  135.5314  156.0580 C   0  0  0  0  0  0  0  0  0  0  0  0
  150.1561  135.0074  154.7725 C   0  0  0  0  0  0  0  0  0  0  0  0
  148.9253  135.5027  154.4502 C   0  0  0  0  0  0  0  0  0  0  0  0
  148.4508  136.2974  155.4474 O   0  0  0  0  0  0  0  0  0  0  0  0
  152.9523  137.7813  157.5109 H   0  0  0  0  0  0  0  0  0  0  0  0
  151.5116  137.4268  156.6387 H   0  0  0  0  0  0  0  0  0  0  0  0
  150.8236  143.1611  157.1386 H   0  0  0  0  0  0  0  0  0  0  0  0
  152.8564  141.9828  160.0679 H   0  0  0  0  0  0  0  0  0  0  0  0
  153.9540  143.9816  159.3836 H   0  0  0  0  0  0  0  0  0  0  0  0
  153.6352  143.3435  157.7582 H   0  0  0  0  0  0  0  0  0  0  0  0
  152.6308  145.7862  158.4346 H   0  0  0  0  0  0  0  0  0  0  0  0
  151.5781  144.6369  157.6007 H   0  0  0  0  0  0  0  0  0  0  0  0
  151.7680  145.1173  160.6028 H   0  0  0  0  0  0  0  0  0  0  0  0
  150.3018  145.0607  159.6196 H   0  0  0  0  0  0  0  0  0  0  0  0
  148.5305  135.3805  162.1198 H   0  0  0  0  0  0  0  0  0  0  0  0
  146.8382  134.6073  163.7437 H   0  0  0  0  0  0  0  0  0  0  0  0
  143.6862  135.5528  160.9560 H   0  0  0  0  0  0  0  0  0  0  0  0
  145.3475  136.3320  159.3096 H   0  0  0  0  0  0  0  0  0  0  0  0
  147.2165  135.9666  157.7017 H   0  0  0  0  0  0  0  0  0  0  0  0
  147.0340  137.6463  158.2419 H   0  0  0  0  0  0  0  0  0  0  0  0
  149.0813  138.1938  157.3665 H   0  0  0  0  0  0  0  0  0  0  0  0
  151.3559  135.3597  156.6427 H   0  0  0  0  0  0  0  0  0  0  0  0
  150.7578  134.3506  154.1619 H   0  0  0  0  0  0  0  0  0  0  0  0
  148.2737  135.3957  153.5955 H   0  0  0  0  0  0  0  0  0  0  0  0
  1  2  2  0  0  0  0
  2  3  1  0  0  0  0
  2 18  1  0  0  0  0
  3  4  1  0  0  0  0
  3 35  1  0  0  0  0
  3 36  1  0  0  0  0
  4 16  1  0  0  0  0
  4  5  1  0  0  0  0
  5  6  2  0  0  0  0
  5  7  1  0  0  0  0
  7  8  1  0  0  0  0
  7  9  2  0  0  0  0
  9 10  1  0  0  0  0
  9 37  1  0  0  0  0
 10 11  1  0  0  0  0
 10 16  1  0  0  0  0
 11 15  1  0  0  0  0
 11 12  1  0  0  0  0
 11 38  1  0  0  0  0
 12 13  1  0  0  0  0
 12 39  1  0  0  0  0
 12 40  1  0  0  0  0
 13 14  1  0  0  0  0
 13 41  1  0  0  0  0
 13 42  1  0  0  0  0
 14 15  1  0  0  0  0
 14 43  1  0  0  0  0
 14 44  1  0  0  0  0
 16 17  2  0  0  0  0
 18 29  1  0  0  0  0
 18 19  1  0  0  0  0
 19 20  2  0  0  0  0
 20 21  1  0  0  0  0
 20 28  1  0  0  0  0
 21 27  1  0  0  0  0
 21 22  2  0  0  0  0
 22 23  1  0  0  0  0
 22 45  1  0  0  0  0
 23 24  2  0  0  0  0
 23 46  1  0  0  0  0
 24 25  1  0  0  0  0
 24 26  1  0  0  0  0
 26 27  2  0  0  0  0
 26 47  1  0  0  0  0
 27 48  1  0  0  0  0
 28 29  1  0  0  0  0
 28 49  1  0  0  0  0
 28 50  1  0  0  0  0
 29 30  1  0  0  0  0
 29 51  1  0  0  0  0
 30 34  1  0  0  0  0
 30 31  2  0  0  0  0
 31 32  1  0  0  0  0
 31 52  1  0  0  0  0
 32 33  2  0  0  0  0
 32 53  1  0  0  0  0
 33 34  1  0  0  0  0
 33 54  1  0  0  0  0
M  END
> <s_m_source_file>
AV-unprocessed.smi

> <i_m_source_file_index>
136

> <i_lp_mmshare_version>
43012

> <i_f3d_flags>
0

> <s_epik_input>
bzFbY0hdW2NIXVtjSF1jMVtDQEBIXTJbQ0gyXUMoYzNbY0hdW2NIXWMoQ2wpW2NIXVtjSF0zKT1OTjJDKD1PKVtDSDJdbjRjKD1PKWMoRilbY0hdbihjND1PKVtDQEBIXTVbQ0gyXVtDSDJdW0NIMl1PNQ==

> <s_epik_cmdline>
J2VwaWtfcHl0aG9uJywgJy1waCcsICc3LjAnLCAnLXRuJywgJzgnLCAnLW1hJywgJzIwMCcsICctbWV0YWxfYmluZGluZycsICctaW1hZScsICc8aW5maWxlLm1hZT4nLCAnLW9tYWUnLCAnPG91dGZpbGUubWFlPic=

> <r_lp_tautomer_probability>
1

> <r_epik_Ionization_Penalty>
2.55467e-08

> <r_epik_Ionization_Penalty_Charging>
4.85705e-09

> <r_epik_Ionization_Penalty_Neutral>
2.06897e-08

> <r_epik_State_Penalty>
-0

> <r_epik_Charging_Adjusted_Penalty>
4.85705e-09

> <i_epik_Tot_Q>
0

> <i_epik_Tot_abs_Q>
0

> <r_epik_Metal_State_Penalty>
-0

> <b_epik_Metal_Only>
0

> <s_epik_Chemistry_Notes>
This compound has an imine and may undergo hydrolysis. This compound contains an acetal/aminal-like group ( X-CH(R)-Y where X, Y are N, S, or O) that may be acid/base labile, releasing an aldehyde.

> <s_lp_Force_Field>
OPLS_2005

> <r_lp_Energy>
39.5424

> <b_lp_Chiralities_Consistent>
1

> <s_lp_Variant>
AV-unprocessed.smi:136-4

> <Gold.Version>
5.8.1

> <Gold.Id.Protein>
6NUR|6NUR_protein|mol2

> <Gold.PLP.Fitness>
57.4081

> <Gold.PLP.PLP>
-52.4395

> <Gold.PLP.part.hbond>
-1.1450

> <Gold.PLP.part.metal>
0.0000

> <Gold.PLP.part.buried>
-4.2867

> <Gold.PLP.part.nonpolar>
-45.2822

> <Gold.PLP.part.repulsive>
0.1970

> <Gold.PLP.ligand.clash>
0.0000

> <Gold.PLP.ligand.torsion>
0.4837

> <Gold.PLP.Chemscore.Hbond>
0.0829

> <Gold.PLP.Chemscore.CHOScore>
1.8747

> <Gold.PLP.Chemscore.Metal>
0.0000

> <Gold.Chemscore.Hbonds>
donor molecule, donor type, donor heavy atom, donor atom, acceptor molecule, acceptor atom, score
      P1  H  6896  6908       L1     1  0.07
      L1  C     9    37       P1  8028  0.12
      L1  C    33    54       P1  7948  0.70

> <Gold.PLP.Chemscore.Internal.Correction>
0.0633

> <Gold.Rescore>
     Score         DG    S(hbond)    S(metal)    S(lipo)     H(rot)  DE(clash)    DE(int)     intcor
     11.57     -15.88       0.00        0.00     128.28       1.81       1.71       2.60       ----

> <Gold.Chemscore.Fitness>
11.5663

> <Gold.Chemscore.DG>
-15.8783

> <Gold.Chemscore.ZeroCoef>
-5.4800

> <Gold.Chemscore.Hbond>
0.0037

> <Gold.Chemscore.Metal>
0.0000

> <Gold.Chemscore.Lipo>
128.2753

> <Gold.Chemscore.Internal_Hbond>
0.0000

> <Gold.Chemscore.DEClash>
1.7131

> <Gold.Chemscore.DEInternal>
2.5988

> <Gold.Chemscore.Rot>
1.8056

> <Gold.Chemscore.Internal.Correction>
   9.000000E+99

> <Gold.Chemscore.Hbond.Weighted>
-0.0124

> <Gold.Chemscore.Metal.Weighted>
-0.0000

> <Gold.Chemscore.Lipo.Weighted>
-15.0082

> <Gold.Chemscore.Internal_Hbond.Weighted>
0.0000

> <Gold.Chemscore.DEClash.Weighted>
1.7131

> <Gold.Chemscore.DEInternal.Weighted>
2.5988

> <Gold.Chemscore.Rot.Weighted>
4.6223

> <Gold.Chemscore.Internal.Correction.Weighted>
   9.000000E+99

> <Gold.Protein.RotatedTorsions>
[ 6907 6896 6895 6894 ] final -154.61 input  -60.11 | X-H torsion
[ 7974 7965 7964 7962 ] final   64.79 input  175.53 | X-H torsion
[ 8008 7997 7996 7995 ] final -100.34 input   59.86 | X-H torsion
[ 10167 10162 10161 10158 ] final  -26.95 input  -65.29 | X-H torsion
[ 10718 10713 10712 10709 ] final -177.48 input   66.30 | X-H torsion
[ 10763 10752 10751 10750 ] final  -69.95 input  -60.55 | X-H torsion
[ 11005 11000 10999 10996 ] final -151.05 input  -57.11 | X-H torsion

> <Gold.Protein.ActiveResidues>
 VAL166  LYS551  ARG553  GLY616  TRP617  ASP618  TYR619  PRO620  LYS621  CYS622 
 ASP623  PHE694  ASN695  SER759  ASP760  ASP761  ALA762  ILE779  LEU786  VAL792 
 PHE793  MET794  SER795  GLU796  ALA797  LYS798  CYS799  TRP800  GLU811  SER814 

> <Gold.Protein.RotatedAtoms>
  151.2600  133.4306  159.2615 H   0  0  0  0  0  0  0  0  0  0  0  0  # atno 6907 bound_to 6896
  151.0539  134.9692  159.8236 H   0  0  0  0  0  0  0  0  0  0  0  0  # atno 6908 bound_to 6896
  152.5387  134.2554  159.8967 H   0  0  0  0  0  0  0  0  0  0  0  0  # atno 6909 bound_to 6896
  145.8461  139.3225  143.0903 H   0  0  0  0  0  0  0  0  0  0  0  0  # atno 7974 bound_to 7965
  154.8273  140.0441  157.1452 H   0  0  0  0  0  0  0  0  0  0  0  0  # atno 8008 bound_to 7997
  154.9192  140.3024  155.5205 H   0  0  0  0  0  0  0  0  0  0  0  0  # atno 8009 bound_to 7997
  156.2984  140.2344  156.4240 H   0  0  0  0  0  0  0  0  0  0  0  0  # atno 8010 bound_to 7997
  140.7280  143.4134  151.1068 H   0  0  0  0  0  0  0  0  0  0  0  0  # atno 10167 bound_to 10162
  156.8302  130.9650  151.3107 H   0  0  0  0  0  0  0  0  0  0  0  0  # atno 10718 bound_to 10713
  154.4107  135.6009  153.5951 H   0  0  0  0  0  0  0  0  0  0  0  0  # atno 10763 bound_to 10752
  152.9790  135.5928  154.4073 H   0  0  0  0  0  0  0  0  0  0  0  0  # atno 10764 bound_to 10752
  154.3885  135.2842  155.2147 H   0  0  0  0  0  0  0  0  0  0  0  0  # atno 10765 bound_to 10752
  140.7336  134.3593  157.5162 H   0  0  0  0  0  0  0  0  0  0  0  0  # atno 11005 bound_to 11000
  145.9411  140.8979  143.0307 LP  0  0  0  0  0  0  0  0  0  0  0  0  # atno 17320 bound_to 7965
  144.6731  140.1549  143.7427 LP  0  0  0  0  0  0  0  0  0  0  0  0  # atno 17321 bound_to 7965
  139.7770  143.8410  152.3131 LP  0  0  0  0  0  0  0  0  0  0  0  0  # atno 17342 bound_to 10162
  139.8348  144.7237  150.9405 LP  0  0  0  0  0  0  0  0  0  0  0  0  # atno 17343 bound_to 10162
  157.6411  130.8806  149.9450 LP  0  0  0  0  0  0  0  0  0  0  0  0  # atno 17370 bound_to 10713
  156.0939  130.3661  150.0344 LP  0  0  0  0  0  0  0  0  0  0  0  0  # atno 17371 bound_to 10713
  139.8821  134.9035  156.2856 LP  0  0  0  0  0  0  0  0  0  0  0  0  # atno 17394 bound_to 11000
  140.9899  133.7215  156.0798 LP  0  0  0  0  0  0  0  0  0  0  0  0  # atno 17395 bound_to 11000

$$$$
