AV-unprocessed.smi:1085|AV-procd|sdf|4721|dock4
  -GOLD-   22720 3253D 1   1.00000     0.00000
 Structure written by MMmdl.
 33 34  0  0  0  0  0  0  0  0  1 V2000
  148.7616  140.9048  156.8564 O   0  0  0  0  0  0  0  0  0  0  0  0
  149.7710  140.4859  156.2909 C   0  0  0  0  0  0  0  0  0  0  0  0
  149.6669  139.8856  154.8880 C   0  0  0  0  0  0  0  0  0  0  0  0
  150.7070  138.8990  154.6621 N   0  0  0  0  0  0  0  0  0  0  0  0
  150.6344  137.6073  154.3349 C   0  0  0  0  0  0  0  0  0  0  0  0
  151.8362  137.0585  154.2427 N   0  0  0  0  0  0  0  0  0  0  0  0
  152.6867  138.1107  154.5384 N   0  0  0  0  0  0  0  0  0  0  0  0
  152.0224  139.2057  154.7873 N   0  0  0  0  0  0  0  0  0  0  0  0
  150.9960  140.5200  156.8396 N   0  0  0  0  0  0  0  0  0  0  0  0
  151.3149  141.0236  158.1716 C   0  0  1  0  0  0  0  0  0  0  0  0
  152.6900  140.5024  158.6360 C   0  0  0  0  0  0  0  0  0  0  0  0
  153.0782  141.0913  160.0000 C   0  0  0  0  0  0  0  0  0  0  0  0
  153.0541  142.6272  159.9712 C   0  0  0  0  0  0  0  0  0  0  0  0
  151.6796  143.1662  159.5221 C   0  0  1  0  0  0  0  0  0  0  0  0
  151.6417  144.7083  159.5033 C   0  0  0  0  0  0  0  0  0  0  0  0
  150.4053  145.1493  159.2697 F   0  0  0  0  0  0  0  0  0  0  0  0
  152.0564  145.1891  160.6752 F   0  0  0  0  0  0  0  0  0  0  0  0
  152.4522  145.1740  158.5529 F   0  0  0  0  0  0  0  0  0  0  0  0
  151.2941  142.5638  158.1537 C   0  0  0  0  0  0  0  0  0  0  0  0
  148.6961  139.4058  154.7558 H   0  0  0  0  0  0  0  0  0  0  0  0
  149.7426  140.6751  154.1386 H   0  0  0  0  0  0  0  0  0  0  0  0
  149.7101  137.0728  154.1724 H   0  0  0  0  0  0  0  0  0  0  0  0
  151.7653  140.1528  156.2976 H   0  0  0  0  0  0  0  0  0  0  0  0
  150.5501  140.6800  158.8709 H   0  0  0  0  0  0  0  0  0  0  0  0
  152.6821  139.4138  158.6997 H   0  0  0  0  0  0  0  0  0  0  0  0
  153.4521  140.7625  157.8999 H   0  0  0  0  0  0  0  0  0  0  0  0
  152.3900  140.7281  160.7643 H   0  0  0  0  0  0  0  0  0  0  0  0
  154.0704  140.7406  160.2860 H   0  0  0  0  0  0  0  0  0  0  0  0
  153.3026  143.0105  160.9613 H   0  0  0  0  0  0  0  0  0  0  0  0
  153.8317  142.9887  159.2973 H   0  0  0  0  0  0  0  0  0  0  0  0
  150.9395  142.8316  160.2509 H   0  0  0  0  0  0  0  0  0  0  0  0
  151.9807  142.9299  157.3889 H   0  0  0  0  0  0  0  0  0  0  0  0
  150.3011  142.9097  157.8645 H   0  0  0  0  0  0  0  0  0  0  0  0
  1  2  2  0  0  0  0
  2  3  1  0  0  0  0
  2  9  1  0  0  0  0
  3  4  1  0  0  0  0
  3 20  1  0  0  0  0
  3 21  1  0  0  0  0
  4  8  1  0  0  0  0
  4  5  1  0  0  0  0
  5  6  2  0  0  0  0
  5 22  1  0  0  0  0
  6  7  1  0  0  0  0
  7  8  2  0  0  0  0
  9 10  1  0  0  0  0
  9 23  1  0  0  0  0
 10 19  1  0  0  0  0
 10 11  1  0  0  0  0
 10 24  1  0  0  0  0
 11 12  1  0  0  0  0
 11 25  1  0  0  0  0
 11 26  1  0  0  0  0
 12 13  1  0  0  0  0
 12 27  1  0  0  0  0
 12 28  1  0  0  0  0
 13 14  1  0  0  0  0
 13 29  1  0  0  0  0
 13 30  1  0  0  0  0
 14 15  1  0  0  0  0
 14 19  1  0  0  0  0
 14 31  1  0  0  0  0
 15 16  1  0  0  0  0
 15 17  1  0  0  0  0
 15 18  1  0  0  0  0
 19 32  1  0  0  0  0
 19 33  1  0  0  0  0
M  END
> <s_m_source_file>
AV-unprocessed.smi

> <i_m_source_file_index>
1085

> <i_lp_mmshare_version>
43012

> <i_f3d_flags>
0

> <s_epik_input>
bjFubltjSF1uMVtDSDJdQyg9TylbTkhdW0NAQEhdMltDSDJdW0NIMl1bQ0gyXVtDQEBIXShDKEYpKEYpRilbQ0gyXTI=

> <s_epik_cmdline>
J2VwaWtfcHl0aG9uJywgJy1waCcsICc3LjAnLCAnLXRuJywgJzgnLCAnLW1hJywgJzIwMCcsICctbWV0YWxfYmluZGluZycsICctaW1hZScsICc8aW5maWxlLm1hZT4nLCAnLW9tYWUnLCAnPG91dGZpbGUubWFlPic=

> <r_lp_tautomer_probability>
1

> <r_epik_Ionization_Penalty>
8.41315e-07

> <r_epik_Ionization_Penalty_Charging>
0

> <r_epik_Ionization_Penalty_Neutral>
8.41315e-07

> <r_epik_State_Penalty>
-0

> <r_epik_Charging_Adjusted_Penalty>
0

> <i_epik_Tot_Q>
0

> <i_epik_Tot_abs_Q>
0

> <r_epik_Metal_State_Penalty>
-0

> <b_epik_Metal_Only>
0

> <s_lp_Force_Field>
OPLS_2005

> <r_lp_Energy>
12.0143

> <b_lp_Chiralities_Consistent>
1

> <s_lp_Variant>
AV-unprocessed.smi:1085-2

> <Gold.Version>
5.8.1

> <Gold.Id.Protein>
6NUR|6NUR_protein|mol2

> <Gold.PLP.Fitness>
46.7627

> <Gold.PLP.PLP>
-41.6210

> <Gold.PLP.part.hbond>
-2.5440

> <Gold.PLP.part.metal>
0.0000

> <Gold.PLP.part.buried>
-5.6721

> <Gold.PLP.part.nonpolar>
-34.3473

> <Gold.PLP.part.repulsive>
1.3986

> <Gold.PLP.ligand.clash>
0.0000

> <Gold.PLP.ligand.torsion>
0.6576

> <Gold.PLP.Chemscore.Hbond>
1.1696

> <Gold.PLP.Chemscore.CHOScore>
0.9714

> <Gold.PLP.Chemscore.Metal>
0.0000

> <Gold.Chemscore.Hbonds>
donor molecule, donor type, donor heavy atom, donor atom, acceptor molecule, acceptor atom, score
      P1  H  7989  7998       L1     8  0.28
      P1  H 10752 10764       L1     6  1.00
      L1  C     5    22       P1  7948  0.81

> <Gold.PLP.Chemscore.Internal.Correction>
0.0337

> <Gold.Rescore>
     Score         DG    S(hbond)    S(metal)    S(lipo)     H(rot)  DE(clash)    DE(int)     intcor
     10.59     -11.64       0.81        0.00      74.19       2.05       0.34       0.72       ----

> <Gold.Chemscore.Fitness>
10.5898

> <Gold.Chemscore.DG>
-11.6441

> <Gold.Chemscore.ZeroCoef>
-5.4800

> <Gold.Chemscore.Hbond>
0.8146

> <Gold.Chemscore.Metal>
0.0000

> <Gold.Chemscore.Lipo>
74.1896

> <Gold.Chemscore.Internal_Hbond>
0.0000

> <Gold.Chemscore.DEClash>
0.3362

> <Gold.Chemscore.DEInternal>
0.7181

> <Gold.Chemscore.Rot>
2.0456

> <Gold.Chemscore.Internal.Correction>
   9.000000E+99

> <Gold.Chemscore.Hbonds>
donor molecule, donor type, donor heavy atom, donor atom, acceptor molecule, acceptor atom, score
      P1  H  7989  7998       L1     8  0.01
      P1  H 10752 10764       L1     6  0.34

> <Gold.Chemscore.Hbond.Weighted>
-2.7206

> <Gold.Chemscore.Metal.Weighted>
-0.0000

> <Gold.Chemscore.Lipo.Weighted>
-8.6802

> <Gold.Chemscore.Internal_Hbond.Weighted>
0.0000

> <Gold.Chemscore.DEClash.Weighted>
0.3362

> <Gold.Chemscore.DEInternal.Weighted>
0.7181

> <Gold.Chemscore.Rot.Weighted>
5.2368

> <Gold.Chemscore.Internal.Correction.Weighted>
   9.000000E+99

> <Gold.Protein.RotatedTorsions>
[ 6907 6896 6895 6894 ] final -169.94 input  -60.11 | X-H torsion
[ 7974 7965 7964 7962 ] final  118.13 input  175.53 | X-H torsion
[ 8008 7997 7996 7995 ] final  -28.06 input   59.86 | X-H torsion
[ 10167 10162 10161 10158 ] final -157.81 input  -65.29 | X-H torsion
[ 10718 10713 10712 10709 ] final  -83.21 input   66.30 | X-H torsion
[ 10763 10752 10751 10750 ] final  -76.85 input  -60.55 | X-H torsion
[ 11005 11000 10999 10996 ] final -165.98 input  -57.11 | X-H torsion

> <Gold.Protein.ActiveResidues>
 VAL166  LYS551  ARG553  GLY616  TRP617  ASP618  TYR619  PRO620  LYS621  CYS622 
 ASP623  PHE694  ASN695  SER759  ASP760  ASP761  ALA762  ILE779  LEU786  VAL792 
 PHE793  MET794  SER795  GLU796  ALA797  LYS798  CYS799  TRP800  GLU811  SER814 

> <Gold.Protein.RotatedAtoms>
  151.4996  133.3507  159.2866 H   0  0  0  0  0  0  0  0  0  0  0  0  # atno 6907 bound_to 6896
  150.8781  134.8170  159.7216 H   0  0  0  0  0  0  0  0  0  0  0  0  # atno 6908 bound_to 6896
  152.4744  134.4890  159.9741 H   0  0  0  0  0  0  0  0  0  0  0  0  # atno 6909 bound_to 6896
  145.1590  139.3166  143.4527 H   0  0  0  0  0  0  0  0  0  0  0  0  # atno 7974 bound_to 7965
  154.4349  140.1855  156.1029 H   0  0  0  0  0  0  0  0  0  0  0  0  # atno 8008 bound_to 7997
  156.0278  140.3334  155.7081 H   0  0  0  0  0  0  0  0  0  0  0  0  # atno 8009 bound_to 7997
  155.5884  140.0628  157.2756 H   0  0  0  0  0  0  0  0  0  0  0  0  # atno 8010 bound_to 7997
  139.6741  143.9693  152.2301 H   0  0  0  0  0  0  0  0  0  0  0  0  # atno 10167 bound_to 10162
  156.0021  130.4658  150.4222 H   0  0  0  0  0  0  0  0  0  0  0  0  # atno 10718 bound_to 10713
  154.5053  135.5784  153.6562 H   0  0  0  0  0  0  0  0  0  0  0  0  # atno 10763 bound_to 10752
  152.9886  135.6145  154.2950 H   0  0  0  0  0  0  0  0  0  0  0  0  # atno 10764 bound_to 10752
  154.2860  135.2850  155.2655 H   0  0  0  0  0  0  0  0  0  0  0  0  # atno 10765 bound_to 10752
  140.5696  134.5251  157.5159 H   0  0  0  0  0  0  0  0  0  0  0  0  # atno 11005 bound_to 11000
  146.3485  140.1693  142.8590 LP  0  0  0  0  0  0  0  0  0  0  0  0  # atno 17320 bound_to 7965
  145.0351  140.8902  143.5086 LP  0  0  0  0  0  0  0  0  0  0  0  0  # atno 17321 bound_to 7965
  139.9466  144.6648  150.8213 LP  0  0  0  0  0  0  0  0  0  0  0  0  # atno 17342 bound_to 10162
  140.7629  143.3210  151.2623 LP  0  0  0  0  0  0  0  0  0  0  0  0  # atno 17343 bound_to 10162
  157.2277  131.0497  151.2510 LP  0  0  0  0  0  0  0  0  0  0  0  0  # atno 17370 bound_to 10713
  157.3741  130.7196  149.6584 LP  0  0  0  0  0  0  0  0  0  0  0  0  # atno 17371 bound_to 10713
  139.9368  134.7860  156.0782 LP  0  0  0  0  0  0  0  0  0  0  0  0  # atno 17394 bound_to 11000
  141.1064  133.6658  156.2874 LP  0  0  0  0  0  0  0  0  0  0  0  0  # atno 17395 bound_to 11000

$$$$
