AV-unprocessed.smi:1791|AV-procd|sdf|7218|dock7
  -GOLD-   22720 8463D 1   1.00000     0.00000
 Structure written by MMmdl.
 38 39  0  0  0  0  0  0  0  0  1 V2000
  153.1677  139.2853  158.8102 C   0  0  0  0  0  0  0  0  0  0  0  0
  153.0304  139.5944  157.4274 O   0  0  0  0  0  0  0  0  0  0  0  0
  152.2626  138.7583  156.6427 C   0  0  0  0  0  0  0  0  0  0  0  0
  152.0818  139.0854  155.2841 C   0  0  0  0  0  0  0  0  0  0  0  0
  151.2926  138.2419  154.4784 C   0  0  0  0  0  0  0  0  0  0  0  0
  150.7007  137.0961  155.0625 C   0  0  0  0  0  0  0  0  0  0  0  0
  149.8883  136.1606  154.3656 N   0  0  0  0  0  0  0  0  0  0  0  0
  149.3977  134.9838  154.7910 C   0  0  0  0  0  0  0  0  0  0  0  0
  149.5430  134.5150  155.9193 O   0  0  0  0  0  0  0  0  0  0  0  0
  148.7226  134.3662  153.8108 N   0  0  0  0  0  0  0  0  0  0  0  0
  148.0654  133.0637  153.9058 C   0  0  2  0  0  0  0  0  0  0  0  0
  149.1151  132.0044  154.2717 C   0  0  0  0  0  0  0  0  0  0  0  0
  147.3520  132.7307  152.5807 C   0  0  2  0  0  0  0  0  0  0  0  0
  146.2084  133.6765  152.2068 C   0  0  0  0  0  0  0  0  0  0  0  0
  145.3094  132.8246  151.3238 C   0  0  0  0  0  0  0  0  0  0  0  0
  145.8063  131.3945  151.5522 C   0  0  0  0  0  0  0  0  0  0  0  0
  146.6836  131.4819  152.6655 O   0  0  0  0  0  0  0  0  0  0  0  0
  150.9574  136.8499  156.4269 C   0  0  0  0  0  0  0  0  0  0  0  0
  151.7123  137.6541  157.2044 N   0  0  0  0  0  0  0  0  0  0  0  0
  153.7883  140.0419  159.2898 H   0  0  0  0  0  0  0  0  0  0  0  0
  153.6521  138.3187  158.9562 H   0  0  0  0  0  0  0  0  0  0  0  0
  152.2013  139.2815  159.3164 H   0  0  0  0  0  0  0  0  0  0  0  0
  152.5417  139.9687  154.8659 H   0  0  0  0  0  0  0  0  0  0  0  0
  151.1693  138.4884  153.4359 H   0  0  0  0  0  0  0  0  0  0  0  0
  149.7179  136.3808  153.3952 H   0  0  0  0  0  0  0  0  0  0  0  0
  148.6605  134.8336  152.9183 H   0  0  0  0  0  0  0  0  0  0  0  0
  147.3208  133.0769  154.7036 H   0  0  0  0  0  0  0  0  0  0  0  0
  148.6611  131.0184  154.3748 H   0  0  0  0  0  0  0  0  0  0  0  0
  149.5979  132.2422  155.2201 H   0  0  0  0  0  0  0  0  0  0  0  0
  149.8924  131.9337  153.5099 H   0  0  0  0  0  0  0  0  0  0  0  0
  148.0740  132.6865  151.7625 H   0  0  0  0  0  0  0  0  0  0  0  0
  145.6602  133.9768  153.1010 H   0  0  0  0  0  0  0  0  0  0  0  0
  146.5574  134.5815  151.7085 H   0  0  0  0  0  0  0  0  0  0  0  0
  144.2640  132.9384  151.6122 H   0  0  0  0  0  0  0  0  0  0  0  0
  145.3999  133.1003  150.2727 H   0  0  0  0  0  0  0  0  0  0  0  0
  144.9940  130.6934  151.7450 H   0  0  0  0  0  0  0  0  0  0  0  0
  146.3639  131.0393  150.6844 H   0  0  0  0  0  0  0  0  0  0  0  0
  150.5385  135.9821  156.9153 H   0  0  0  0  0  0  0  0  0  0  0  0
  1  2  1  0  0  0  0
  1 20  1  0  0  0  0
  1 21  1  0  0  0  0
  1 22  1  0  0  0  0
  2  3  1  0  0  0  0
  3 19  1  0  0  0  0
  3  4  2  0  0  0  0
  4  5  1  0  0  0  0
  4 23  1  0  0  0  0
  5  6  2  0  0  0  0
  5 24  1  0  0  0  0
  6  7  1  0  0  0  0
  6 18  1  0  0  0  0
  7  8  1  0  0  0  0
  7 25  1  0  0  0  0
  8  9  2  0  0  0  0
  8 10  1  0  0  0  0
 10 11  1  0  0  0  0
 10 26  1  0  0  0  0
 11 12  1  0  0  0  0
 11 13  1  0  0  0  0
 11 27  1  0  0  0  0
 12 28  1  0  0  0  0
 12 29  1  0  0  0  0
 12 30  1  0  0  0  0
 13 17  1  0  0  0  0
 13 14  1  0  0  0  0
 13 31  1  0  0  0  0
 14 15  1  0  0  0  0
 14 32  1  0  0  0  0
 14 33  1  0  0  0  0
 15 16  1  0  0  0  0
 15 34  1  0  0  0  0
 15 35  1  0  0  0  0
 16 17  1  0  0  0  0
 16 36  1  0  0  0  0
 16 37  1  0  0  0  0
 18 19  2  0  0  0  0
 18 38  1  0  0  0  0
M  END
> <s_m_source_file>
AV-unprocessed.smi

> <i_m_source_file_index>
1791

> <i_lp_mmshare_version>
43012

> <i_f3d_flags>
0

> <s_epik_input>
W0NIM11PYzFbY0hdW2NIXWMoW2NIXW4xKVtOSF1DKD1PKVtOSF1bQ0BIXShbQ0gzXSlbQ0BASF0yW0NIMl1bQ0gyXVtDSDJdTzI=

> <s_epik_cmdline>
J2VwaWtfcHl0aG9uJywgJy1waCcsICc3LjAnLCAnLXRuJywgJzgnLCAnLW1hJywgJzIwMCcsICctbWV0YWxfYmluZGluZycsICctaW1hZScsICc8aW5maWxlLm1hZT4nLCAnLW9tYWUnLCAnPG91dGZpbGUubWFlPic=

> <r_lp_tautomer_probability>
1

> <r_epik_Ionization_Penalty>
9.18737e-05

> <r_epik_Ionization_Penalty_Charging>
0

> <r_epik_Ionization_Penalty_Neutral>
9.18737e-05

> <r_epik_State_Penalty>
-0

> <r_epik_Charging_Adjusted_Penalty>
0

> <i_epik_Tot_Q>
0

> <i_epik_Tot_abs_Q>
0

> <r_epik_Metal_State_Penalty>
-0

> <b_epik_Metal_Only>
0

> <s_lp_Force_Field>
OPLS_2005

> <r_lp_Energy>
20.7661

> <b_lp_Chiralities_Consistent>
1

> <s_lp_Variant>
AV-unprocessed.smi:1791-1

> <Gold.Version>
5.8.1

> <Gold.Id.Protein>
6NUR|6NUR_protein|mol2

> <Gold.PLP.Fitness>
38.8951

> <Gold.PLP.PLP>
-29.9333

> <Gold.PLP.part.hbond>
-3.6682

> <Gold.PLP.part.metal>
0.0000

> <Gold.PLP.part.buried>
-2.7282

> <Gold.PLP.part.nonpolar>
-24.0566

> <Gold.PLP.part.repulsive>
0.2152

> <Gold.PLP.ligand.clash>
0.0000

> <Gold.PLP.ligand.torsion>
0.0294

> <Gold.PLP.Chemscore.Hbond>
3.0000

> <Gold.PLP.Chemscore.CHOScore>
0.0000

> <Gold.PLP.Chemscore.Metal>
0.0000

> <Gold.Chemscore.Hbonds>
donor molecule, donor type, donor heavy atom, donor atom, acceptor molecule, acceptor atom, score
      L1  H     7    25       P1  7948  1.00
      L1  H    10    26       P1  7948  1.00
      P1  H  7997  8009       L1     2  0.98

> <Gold.PLP.Chemscore.Internal.Correction>
0.0205

> <Gold.Rescore>
     Score         DG    S(hbond)    S(metal)    S(lipo)     H(rot)  DE(clash)    DE(int)     intcor
     15.03     -17.31       2.68        0.00      56.66       1.47       0.00       2.28       ----

> <Gold.Chemscore.Fitness>
15.0304

> <Gold.Chemscore.DG>
-17.3142

> <Gold.Chemscore.ZeroCoef>
-5.4800

> <Gold.Chemscore.Hbond>
2.6844

> <Gold.Chemscore.Metal>
0.0000

> <Gold.Chemscore.Lipo>
56.6626

> <Gold.Chemscore.Internal_Hbond>
0.0000

> <Gold.Chemscore.DEClash>
0.0000

> <Gold.Chemscore.DEInternal>
2.2838

> <Gold.Chemscore.Rot>
1.4693

> <Gold.Chemscore.Internal.Correction>
   9.000000E+99

> <Gold.Chemscore.Hbonds>
donor molecule, donor type, donor heavy atom, donor atom, acceptor molecule, acceptor atom, score
      L1  H     7    25       P1  7948  0.30
      L1  H    10    26       P1  7948  0.29
      P1  H  7997  8009       L1     2  0.24

> <Gold.Chemscore.Hbond.Weighted>
-8.9660

> <Gold.Chemscore.Metal.Weighted>
-0.0000

> <Gold.Chemscore.Lipo.Weighted>
-6.6295

> <Gold.Chemscore.Internal_Hbond.Weighted>
0.0000

> <Gold.Chemscore.DEClash.Weighted>
0.0000

> <Gold.Chemscore.DEInternal.Weighted>
2.2838

> <Gold.Chemscore.Rot.Weighted>
3.7613

> <Gold.Chemscore.Internal.Correction.Weighted>
   9.000000E+99

> <Gold.Protein.RotatedTorsions>
[ 6907 6896 6895 6894 ] final -101.82 input  -60.11 | X-H torsion
[ 7974 7965 7964 7962 ] final -163.46 input  175.53 | X-H torsion
[ 8008 7997 7996 7995 ] final  150.62 input   59.86 | X-H torsion
[ 10167 10162 10161 10158 ] final   53.12 input  -65.29 | X-H torsion
[ 10718 10713 10712 10709 ] final  -91.99 input   66.30 | X-H torsion
[ 10763 10752 10751 10750 ] final  -25.08 input  -60.55 | X-H torsion
[ 11005 11000 10999 10996 ] final  -65.37 input  -57.11 | X-H torsion

> <Gold.Protein.ActiveResidues>
 VAL166  LYS551  ARG553  GLY616  TRP617  ASP618  TYR619  PRO620  LYS621  CYS622 
 ASP623  PHE694  ASN695  SER759  ASP760  ASP761  ALA762  ILE779  LEU786  VAL792 
 PHE793  MET794  SER795  GLU796  ALA797  LYS798  CYS799  TRP800  GLU811  SER814 

> <Gold.Protein.RotatedAtoms>
  150.7170  134.0676  159.3852 H   0  0  0  0  0  0  0  0  0  0  0  0  # atno 6907 bound_to 6896
  151.8657  135.0505  160.0483 H   0  0  0  0  0  0  0  0  0  0  0  0  # atno 6908 bound_to 6896
  152.2682  133.5323  159.5459 H   0  0  0  0  0  0  0  0  0  0  0  0  # atno 6909 bound_to 6896
  144.7325  140.3103  143.6189 H   0  0  0  0  0  0  0  0  0  0  0  0  # atno 7974 bound_to 7965
  156.2708  140.2070  156.6047 H   0  0  0  0  0  0  0  0  0  0  0  0  # atno 8008 bound_to 7997
  154.6879  140.0533  157.0357 H   0  0  0  0  0  0  0  0  0  0  0  0  # atno 8009 bound_to 7997
  155.0908  140.3196  155.4577 H   0  0  0  0  0  0  0  0  0  0  0  0  # atno 8010 bound_to 7997
  140.2441  144.3551  150.6370 H   0  0  0  0  0  0  0  0  0  0  0  0  # atno 10167 bound_to 10162
  155.9998  130.4970  150.5558 H   0  0  0  0  0  0  0  0  0  0  0  0  # atno 10718 bound_to 10713
  153.6941  135.6960  153.5081 H   0  0  0  0  0  0  0  0  0  0  0  0  # atno 10763 bound_to 10752
  153.2391  135.4312  155.0678 H   0  0  0  0  0  0  0  0  0  0  0  0  # atno 10764 bound_to 10752
  154.8364  135.3503  154.6482 H   0  0  0  0  0  0  0  0  0  0  0  0  # atno 10765 bound_to 10752
  141.1452  133.6680  156.5976 H   0  0  0  0  0  0  0  0  0  0  0  0  # atno 11005 bound_to 11000
  145.7671  139.1844  143.2234 LP  0  0  0  0  0  0  0  0  0  0  0  0  # atno 17320 bound_to 7965
  146.0940  140.7622  142.9581 LP  0  0  0  0  0  0  0  0  0  0  0  0  # atno 17321 bound_to 7965
  140.6091  143.2169  151.6922 LP  0  0  0  0  0  0  0  0  0  0  0  0  # atno 17342 bound_to 10162
  139.5067  144.3670  152.0507 LP  0  0  0  0  0  0  0  0  0  0  0  0  # atno 17343 bound_to 10162
  157.3475  131.0727  151.1740 LP  0  0  0  0  0  0  0  0  0  0  0  0  # atno 17370 bound_to 10713
  157.2567  130.6640  149.5956 LP  0  0  0  0  0  0  0  0  0  0  0  0  # atno 17371 bound_to 10713
  140.3714  134.7603  157.4601 LP  0  0  0  0  0  0  0  0  0  0  0  0  # atno 17394 bound_to 11000
  140.0708  134.5865  155.8644 LP  0  0  0  0  0  0  0  0  0  0  0  0  # atno 17395 bound_to 11000

$$$$
