AV-unprocessed.smi:2061|AV-procd|sdf|8380|dock4
  -GOLD-   2272011 53D 1   1.00000     0.00000
 Structure written by MMmdl.
 45 46  0  0  0  0  0  0  0  0  3 V2000
  146.5001  133.5303  162.4955 C   0  0  0  0  0  0  0  0  0  0  0  0
  147.3415  134.4256  161.6513 C   0  0  0  0  0  0  0  0  0  0  0  0
  148.0183  135.5825  161.9150 C   0  0  0  0  0  0  0  0  0  0  0  0
  148.6168  135.9006  160.6653 C   0  0  0  0  0  0  0  0  0  0  0  0
  149.3878  136.9695  160.4115 N   0  5  0  0  0  0  0  0  0  0  0  0
  150.0355  137.0753  159.2290 C   0  0  0  0  0  0  0  0  0  0  0  0
  150.4657  136.1448  158.5433 O   0  0  0  0  0  0  0  0  0  0  0  0
  150.2043  138.3402  158.8181 N   0  0  0  0  0  0  0  0  0  0  0  0
  150.8917  138.7541  157.5981 C   0  0  0  0  0  0  0  0  0  0  0  0
  150.7242  140.2670  157.2885 C   0  0  2  0  0  0  0  0  0  0  0  0
  151.3040  140.5882  155.8888 C   0  0  0  0  0  0  0  0  0  0  0  0
  151.3222  141.1007  158.3829 N   0  3  1  0  0  0  0  0  0  0  0  0
  152.6852  140.6893  158.8205 C   0  0  0  0  0  0  0  0  0  0  0  0
  153.2023  141.5832  159.9641 C   0  0  1  0  0  0  0  0  0  0  0  0
  154.6403  141.2334  160.3636 C   0  0  0  0  0  0  0  0  0  0  0  0
  153.1802  142.9422  159.5501 O   0  0  0  0  0  0  0  0  0  0  0  0
  151.8667  143.3853  159.2389 C   0  0  1  0  0  0  0  0  0  0  0  0
  151.9353  144.8809  158.9099 C   0  0  0  0  0  0  0  0  0  0  0  0
  151.3275  142.5542  158.0603 C   0  0  0  0  0  0  0  0  0  0  0  0
  148.3132  135.0253  159.7214 N   0  0  0  0  0  0  0  0  0  0  0  0
  147.5012  134.0719  160.3474 O   0  0  0  0  0  0  0  0  0  0  0  0
  145.5122  133.9639  162.6502 H   0  0  0  0  0  0  0  0  0  0  0  0
  146.9597  133.3763  163.4718 H   0  0  0  0  0  0  0  0  0  0  0  0
  146.3719  132.5545  162.0263 H   0  0  0  0  0  0  0  0  0  0  0  0
  148.0807  136.1140  162.8528 H   0  0  0  0  0  0  0  0  0  0  0  0
  149.8320  139.0716  159.4062 H   0  0  0  0  0  0  0  0  0  0  0  0
  151.9363  138.4634  157.6966 H   0  0  0  0  0  0  0  0  0  0  0  0
  150.4914  138.1632  156.7739 H   0  0  0  0  0  0  0  0  0  0  0  0
  149.6599  140.5036  157.2483 H   0  0  0  0  0  0  0  0  0  0  0  0
  150.8848  139.9422  155.1179 H   0  0  0  0  0  0  0  0  0  0  0  0
  152.3869  140.4609  155.8668 H   0  0  0  0  0  0  0  0  0  0  0  0
  151.0708  141.6047  155.5723 H   0  0  0  0  0  0  0  0  0  0  0  0
  152.6797  139.6642  159.1891 H   0  0  0  0  0  0  0  0  0  0  0  0
  153.3666  140.7292  157.9688 H   0  0  0  0  0  0  0  0  0  0  0  0
  152.5622  141.4648  160.8404 H   0  0  0  0  0  0  0  0  0  0  0  0
  154.7135  140.2005  160.7050 H   0  0  0  0  0  0  0  0  0  0  0  0
  154.9870  141.8761  161.1733 H   0  0  0  0  0  0  0  0  0  0  0  0
  155.3253  141.3576  159.5241 H   0  0  0  0  0  0  0  0  0  0  0  0
  151.2228  143.2524  160.1102 H   0  0  0  0  0  0  0  0  0  0  0  0
  150.9474  145.2775  158.6739 H   0  0  0  0  0  0  0  0  0  0  0  0
  152.5844  145.0678  158.0539 H   0  0  0  0  0  0  0  0  0  0  0  0
  152.3267  145.4483  159.7545 H   0  0  0  0  0  0  0  0  0  0  0  0
  151.9391  142.7250  157.1726 H   0  0  0  0  0  0  0  0  0  0  0  0
  150.3267  142.9092  157.8240 H   0  0  0  0  0  0  0  0  0  0  0  0
  150.7242  140.9794  159.1877 H   0  0  0  0  0  0  0  0  0  0  0  0
  1  2  1  0  0  0  0
  1 22  1  0  0  0  0
  1 23  1  0  0  0  0
  1 24  1  0  0  0  0
  2 21  1  0  0  0  0
  2  3  2  0  0  0  0
  3  4  1  0  0  0  0
  3 25  1  0  0  0  0
  4  5  1  0  0  0  0
  4 20  2  0  0  0  0
  5  6  1  0  0  0  0
  6  7  2  0  0  0  0
  6  8  1  0  0  0  0
  8  9  1  0  0  0  0
  8 26  1  0  0  0  0
  9 10  1  0  0  0  0
  9 27  1  0  0  0  0
  9 28  1  0  0  0  0
 10 11  1  0  0  0  0
 10 12  1  0  0  0  0
 10 29  1  0  0  0  0
 11 30  1  0  0  0  0
 11 31  1  0  0  0  0
 11 32  1  0  0  0  0
 12 19  1  0  0  0  0
 12 13  1  0  0  0  0
 12 45  1  0  0  0  0
 13 14  1  0  0  0  0
 13 33  1  0  0  0  0
 13 34  1  0  0  0  0
 14 15  1  0  0  0  0
 14 16  1  0  0  0  0
 14 35  1  0  0  0  0
 15 36  1  0  0  0  0
 15 37  1  0  0  0  0
 15 38  1  0  0  0  0
 16 17  1  0  0  0  0
 17 18  1  0  0  0  0
 17 19  1  0  0  0  0
 17 39  1  0  0  0  0
 18 40  1  0  0  0  0
 18 41  1  0  0  0  0
 18 42  1  0  0  0  0
 19 43  1  0  0  0  0
 19 44  1  0  0  0  0
 20 21  1  0  0  0  0
M  CHG  1   5  -1
M  CHG  1  12   1
M  END
> <s_m_source_file>
AV-unprocessed.smi

> <i_m_source_file_index>
2061

> <i_lp_mmshare_version>
43012

> <i_f3d_flags>
0

> <s_epik_input>
W0NIM11jMVtjSF1jKG5vMSlbTkhdQyg9TylbTkhdW0NIMl1bQ0BIXShbQ0gzXSlOMltDSDJdW0NAQEhdKFtDSDNdKU9bQ0BASF0oW0NIM10pW0NIMl0y

> <s_epik_cmdline>
J2VwaWtfcHl0aG9uJywgJy1waCcsICc3LjAnLCAnLXRuJywgJzgnLCAnLW1hJywgJzIwMCcsICctbWV0YWxfYmluZGluZycsICctaW1hZScsICc8aW5maWxlLm1hZT4nLCAnLW9tYWUnLCAnPG91dGZpbGUubWFlPic=

> <r_epik_Ionization_Penalty>
6.73511

> <r_epik_Ionization_Penalty_Charging>
6.73502

> <r_epik_Ionization_Penalty_Neutral>
9.50841e-05

> <r_epik_State_Penalty>
6.93549

> <r_epik_Charging_Adjusted_Penalty>
13.6705

> <i_epik_Tot_Q>
0

> <i_epik_Tot_abs_Q>
2

> <r_epik_Metal_State_Penalty>
2.87211

> <b_epik_Metal_Only>
1

> <s_lp_Force_Field>
OPLS_2005

> <r_lp_Energy>
7.84015

> <b_lp_Chiralities_Consistent>
1

> <s_lp_Variant>
AV-unprocessed.smi:2061-21

> <Gold.Version>
5.8.1

> <Gold.Id.Protein>
6NUR|6NUR_protein|mol2

> <Gold.PLP.Fitness>
48.0326

> <Gold.PLP.PLP>
-42.0343

> <Gold.PLP.part.hbond>
-2.2011

> <Gold.PLP.part.metal>
0.0000

> <Gold.PLP.part.buried>
-6.3582

> <Gold.PLP.part.nonpolar>
-34.6067

> <Gold.PLP.part.repulsive>
0.3317

> <Gold.PLP.ligand.clash>
0.0000

> <Gold.PLP.ligand.torsion>
0.4265

> <Gold.PLP.Chemscore.Hbond>
2.2160

> <Gold.PLP.Chemscore.CHOScore>
0.0000

> <Gold.PLP.Chemscore.Metal>
0.0000

> <Gold.Chemscore.Hbonds>
donor molecule, donor type, donor heavy atom, donor atom, acceptor molecule, acceptor atom, score
      P1  H  6896  6909       L1     7  0.82
      P1  H  6931  6943       L1     5  1.12

> <Gold.PLP.Chemscore.Internal.Correction>
0.2033

> <Gold.Rescore>
     Score         DG    S(hbond)    S(metal)    S(lipo)     H(rot)  DE(clash)    DE(int)     intcor
     16.46     -18.37       1.84        0.00      91.74       1.56       0.04       1.87       ----

> <Gold.Chemscore.Fitness>
16.4622

> <Gold.Chemscore.DG>
-18.3696

> <Gold.Chemscore.ZeroCoef>
-5.4800

> <Gold.Chemscore.Hbond>
1.8375

> <Gold.Chemscore.Metal>
0.0000

> <Gold.Chemscore.Lipo>
91.7356

> <Gold.Chemscore.Internal_Hbond>
0.0000

> <Gold.Chemscore.DEClash>
0.0418

> <Gold.Chemscore.DEInternal>
1.8656

> <Gold.Chemscore.Rot>
1.5550

> <Gold.Chemscore.Internal.Correction>
   9.000000E+99

> <Gold.Chemscore.Hbonds>
donor molecule, donor type, donor heavy atom, donor atom, acceptor molecule, acceptor atom, score
      P1  H  6896  6909       L1     7  0.57
      P1  H  6931  6943       L1     5  0.33

> <Gold.Chemscore.Hbond.Weighted>
-6.1374

> <Gold.Chemscore.Metal.Weighted>
-0.0000

> <Gold.Chemscore.Lipo.Weighted>
-10.7331

> <Gold.Chemscore.Internal_Hbond.Weighted>
0.0000

> <Gold.Chemscore.DEClash.Weighted>
0.0418

> <Gold.Chemscore.DEInternal.Weighted>
1.8656

> <Gold.Chemscore.Rot.Weighted>
3.9809

> <Gold.Chemscore.Internal.Correction.Weighted>
   9.000000E+99

> <Gold.Protein.RotatedTorsions>
[ 6907 6896 6895 6894 ] final   59.94 input  -60.11 | X-H torsion
[ 7974 7965 7964 7962 ] final  -53.71 input  175.53 | X-H torsion
[ 8008 7997 7996 7995 ] final   73.12 input   59.86 | X-H torsion
[ 10167 10162 10161 10158 ] final -122.81 input  -65.29 | X-H torsion
[ 10718 10713 10712 10709 ] final  116.26 input   66.30 | X-H torsion
[ 10763 10752 10751 10750 ] final   76.89 input  -60.55 | X-H torsion
[ 11005 11000 10999 10996 ] final   98.76 input  -57.11 | X-H torsion

> <Gold.Protein.ActiveResidues>
 VAL166  LYS551  ARG553  GLY616  TRP617  ASP618  TYR619  PRO620  LYS621  CYS622 
 ASP623  PHE694  ASN695  SER759  ASP760  ASP761  ALA762  ILE779  LEU786  VAL792 
 PHE793  MET794  SER795  GLU796  ALA797  LYS798  CYS799  TRP800  GLU811  SER814 

> <Gold.Protein.RotatedAtoms>
  152.3959  134.6366  160.0089 H   0  0  0  0  0  0  0  0  0  0  0  0  # atno 6907 bound_to 6896
  151.6586  133.3312  159.3176 H   0  0  0  0  0  0  0  0  0  0  0  0  # atno 6908 bound_to 6896
  150.7867  134.6900  159.6536 H   0  0  0  0  0  0  0  0  0  0  0  0  # atno 6909 bound_to 6896
  145.8938  140.8049  142.9778 H   0  0  0  0  0  0  0  0  0  0  0  0  # atno 7974 bound_to 7965
  155.7789  140.3482  155.5287 H   0  0  0  0  0  0  0  0  0  0  0  0  # atno 8008 bound_to 7997
  155.8748  140.0992  157.1546 H   0  0  0  0  0  0  0  0  0  0  0  0  # atno 8009 bound_to 7997
  154.4020  140.1333  156.4110 H   0  0  0  0  0  0  0  0  0  0  0  0  # atno 8010 bound_to 7997
  140.0102  143.5449  152.2266 H   0  0  0  0  0  0  0  0  0  0  0  0  # atno 10167 bound_to 10162
  157.6171  131.1023  150.7447 H   0  0  0  0  0  0  0  0  0  0  0  0  # atno 10718 bound_to 10713
  153.0758  135.4934  154.8402 H   0  0  0  0  0  0  0  0  0  0  0  0  # atno 10763 bound_to 10752
  154.7086  135.3015  154.9235 H   0  0  0  0  0  0  0  0  0  0  0  0  # atno 10764 bound_to 10752
  153.9936  135.6775  153.4808 H   0  0  0  0  0  0  0  0  0  0  0  0  # atno 10765 bound_to 10752
  139.8771  134.9064  156.4505 H   0  0  0  0  0  0  0  0  0  0  0  0  # atno 11005 bound_to 11000
  144.6732  140.1570  143.7425 LP  0  0  0  0  0  0  0  0  0  0  0  0  # atno 17320 bound_to 7965
  145.8876  139.2357  143.1568 LP  0  0  0  0  0  0  0  0  0  0  0  0  # atno 17321 bound_to 7965
  139.6210  144.7629  151.2740 LP  0  0  0  0  0  0  0  0  0  0  0  0  # atno 17342 bound_to 10162
  140.7384  143.6648  150.8132 LP  0  0  0  0  0  0  0  0  0  0  0  0  # atno 17343 bound_to 10162
  156.7812  130.4860  149.5400 LP  0  0  0  0  0  0  0  0  0  0  0  0  # atno 17370 bound_to 10713
  156.1299  130.6170  151.0317 LP  0  0  0  0  0  0  0  0  0  0  0  0  # atno 17371 bound_to 10713
  140.8935  133.7831  155.9599 LP  0  0  0  0  0  0  0  0  0  0  0  0  # atno 17394 bound_to 11000
  140.8728  134.2706  157.5182 LP  0  0  0  0  0  0  0  0  0  0  0  0  # atno 17395 bound_to 11000

$$$$
