#       Name:                AV-unprocessed.smi:1516
#       Creating user name   scv26
#       Creation time:       Fri Mar 27 06:25:24 2020


#       File generated by GOLD software.
#

@<TRIPOS>MOLECULE
AV-unprocessed.smi:1516
    51    52     1
SMALL
NO_CHARGES


@<TRIPOS>ATOM
      1 ****        -4.4130  -4.9215   3.4321 C.3            1 S1                 0.0000
      2 ****        -2.9654  -4.9799   3.2137 N.am           1 S1                 0.0000
      3 ****        -2.3894  -6.3201   3.0760 C.3            1 S1                 0.0000
      4 ****        -2.2255  -3.8481   3.1616 C.2            1 S1                 0.0000
      5 ****        -2.7245  -2.7320   3.3223 O.2            1 S1                 0.0000
      6 ****        -0.7094  -3.9687   2.9048 C.3            1 S1                 0.0000
      7 ****        -0.0495  -2.6808   2.6950 N.am           1 S1                 0.0000
      8 ****        -0.0357  -1.9994   1.5398 C.2            1 S1                 0.0000
      9 ****        -0.5585  -2.4100   0.5037 O.2            1 S1                 0.0000
     10 ****         0.6284  -0.8377   1.6668 N.am           1 S1                 0.0000
     11 ****         0.8067   0.1880   0.6994 C.ar           1 S1                 0.0000
     12 ****         1.8366   1.1272   0.9151 C.ar           1 S1                 0.0000
     13 ****         2.0370   2.1731  -0.0089 C.ar           1 S1                 0.0000
     14 ****         1.1995   2.2811  -1.1449 C.ar           1 S1                 0.0000
     15 ****         1.3521   3.3074  -2.1031 N.3            1 S1                 0.0000
     16 ****         2.7152   3.5192  -2.5959 C.3            1 S1                 0.0000
     17 ****         2.8510   4.8839  -3.2932 C.3            1 S1                 0.0000
     18 ****         1.7920   5.0517  -4.3923 C.3            1 S1                 0.0000
     19 ****         0.3901   4.8332  -3.8057 C.3            1 S1                 0.0000
     20 ****         0.2914   3.4692  -3.1016 C.3            1 S1                 0.0000
     21 ****         0.2120   1.3647  -1.3000 N.pl3          1 S1                 1.0000
     22 ****        -0.0143   0.3465  -0.4422 C.ar           1 S1                 0.0000
     23 ****        -4.8763  -4.1459   2.8197 H              1 S1                 0.0000
     24 ****        -4.6271  -4.7015   4.4785 H              1 S1                 0.0000
     25 ****        -4.9096  -5.8582   3.1779 H              1 S1                 0.0000
     26 ****        -1.5304  -6.4527   3.7346 H              1 S1                 0.0000
     27 ****        -2.0667  -6.4925   2.0488 H              1 S1                 0.0000
     28 ****        -3.1010  -7.1051   3.3330 H              1 S1                 0.0000
     29 ****        -0.2432  -4.4436   3.7682 H              1 S1                 0.0000
     30 ****        -0.5223  -4.6156   2.0463 H              1 S1                 0.0000
     31 ****         0.4046  -2.2698   3.4973 H              1 S1                 0.0000
     32 ****         1.0790  -0.6794   2.5563 H              1 S1                 0.0000
     33 ****         2.4735   1.0501   1.7844 H              1 S1                 0.0000
     34 ****         2.8215   2.8915   0.1764 H              1 S1                 0.0000
     35 ****         3.4501   3.4623  -1.7947 H              1 S1                 0.0000
     36 ****         2.9574   2.7195  -3.2973 H              1 S1                 0.0000
     37 ****         2.7427   5.6818  -2.5574 H              1 S1                 0.0000
     38 ****         3.8501   4.9880  -3.7174 H              1 S1                 0.0000
     39 ****         1.8643   6.0443  -4.8380 H              1 S1                 0.0000
     40 ****         1.9741   4.3342  -5.1935 H              1 S1                 0.0000
     41 ****         0.1651   5.6283  -3.0935 H              1 S1                 0.0000
     42 ****        -0.3612   4.9016  -4.5932 H              1 S1                 0.0000
     43 ****         0.3658   2.6647  -3.8345 H              1 S1                 0.0000
     44 ****        -0.6889   3.3876  -2.6303 H              1 S1                 0.0000
     45 ****        -0.8497  -0.2861  -0.7016 H              1 S1                 0.0000
     46 ****        -0.3984   1.4478  -2.1131 H              1 S1                 0.0000
     47 ****        -3.7050  -2.6432   3.4975 LP             1 S1                 0.0000
     48 ****        -2.1487  -1.9156   3.2775 LP             1 S1                 0.0000
     49 ****        -1.0244  -3.2948   0.4954 LP             1 S1                 0.0000
     50 ****        -0.5173  -1.8587  -0.3296 LP             1 S1                 0.0000
     51 ****         1.1844   4.1078  -1.5275 LP             1 S1                 0.0000
@<TRIPOS>BOND
    1    1    2 1     
    2    1   23 1     
    3    1   24 1     
    4    1   25 1     
    5    2    3 1     
    6    2    4 am    
    7    3   26 1     
    8    3   27 1     
    9    3   28 1     
   10    4    5 2     
   11    4    6 1     
   12    6    7 1     
   13    6   29 1     
   14    6   30 1     
   15    7    8 am    
   16    7   31 1     
   17    8    9 2     
   18    8   10 am    
   19   10   11 1     
   20   10   32 1     
   21   11   22 ar    
   22   11   12 ar    
   23   12   13 ar    
   24   12   33 1     
   25   13   14 ar    
   26   13   34 1     
   27   14   15 1     
   28   14   21 ar    
   29   15   20 1     
   30   15   16 1     
   31   16   17 1     
   32   16   35 1     
   33   16   36 1     
   34   17   18 1     
   35   17   37 1     
   36   17   38 1     
   37   18   19 1     
   38   18   39 1     
   39   18   40 1     
   40   19   20 1     
   41   19   41 1     
   42   19   42 1     
   43   20   43 1     
   44   20   44 1     
   45   21   22 ar    
   46   21   46 1     
   47   22   45 1     
   48    5   47 1     
   49    5   48 1     
   50    9   49 1     
   51    9   50 1     
   52   15   51 1     
@<TRIPOS>SUBSTRUCTURE
      1 S1             1
@<TRIPOS>SET
LONE_PAIRS      STATIC     ATOMS    <user>   **** ""
5 47 48 49 50 51
DONOR_HYDROGENS      STATIC     ATOMS    <user>   **** ""
3 31 32 46
ATOM$BLUE        STATIC     ATOMS    COLORGROUP SYSTEM
5 47 48 49 50 51
ATOM$RED        STATIC     ATOMS    COLORGROUP SYSTEM
3 31 32 46
