AV-unprocessed.smi:1218|AV-procd|sdf|5106|dock5
  -GOLD-   22720 4153D 1   1.00000     0.00000
 Structure written by MMmdl.
 45 46  0  0  0  0  0  0  0  0  2 V2000
  149.5763  132.8888  153.7167 C   0  0  0  0  0  0  0  0  0  0  0  0
  150.0642  134.2252  154.2959 C   0  0  0  0  0  0  0  0  0  0  0  0
  151.0331  133.9821  155.4653 C   0  0  0  0  0  0  0  0  0  0  0  0
  148.8655  135.1029  154.7165 C   0  0  0  0  0  0  0  0  0  0  0  0
  148.9999  136.5192  154.2887 N   0  3  1  0  0  0  0  0  0  0  0  0
  147.7750  137.3257  154.5134 C   0  0  0  0  0  0  0  0  0  0  0  0
  147.9842  138.7675  154.0251 C   0  0  0  0  0  0  0  0  0  0  0  0
  149.1128  139.3294  154.6804 O   0  0  0  0  0  0  0  0  0  0  0  0
  150.3176  138.6305  154.3843 C   0  0  1  0  0  0  0  0  0  0  0  0
  151.4978  139.3598  155.0517 C   0  0  0  0  0  0  0  0  0  0  0  0
  151.3057  139.5020  156.4916 N   0  0  0  0  0  0  0  0  0  0  0  0
  152.2245  139.2122  157.4260 C   0  0  0  0  0  0  0  0  0  0  0  0
  153.3467  138.7824  157.1548 O   0  0  0  0  0  0  0  0  0  0  0  0
  151.7964  139.4383  158.8810 C   0  0  0  0  0  0  0  0  0  0  0  0
  152.3676  140.6489  159.4486 N   0  0  0  0  0  0  0  0  0  0  0  0
  153.2698  140.7673  160.4860 C   0  0  0  0  0  0  0  0  0  0  0  0
  153.5125  142.0991  160.6638 C   0  0  0  0  0  0  0  0  0  0  0  0
  152.7050  142.7250  159.6731 C   0  0  0  0  0  0  0  0  0  0  0  0
  152.0232  141.8547  158.9459 N   0  0  0  0  0  0  0  0  0  0  0  0
  150.1766  137.1840  154.8990 C   0  0  0  0  0  0  0  0  0  0  0  0
  149.0156  132.3159  154.4560 H   0  0  0  0  0  0  0  0  0  0  0  0
  150.4136  132.2737  153.3851 H   0  0  0  0  0  0  0  0  0  0  0  0
  148.9261  133.0472  152.8555 H   0  0  0  0  0  0  0  0  0  0  0  0
  150.6159  134.7268  153.5013 H   0  0  0  0  0  0  0  0  0  0  0  0
  150.5356  133.4766  156.2938 H   0  0  0  0  0  0  0  0  0  0  0  0
  151.4447  134.9174  155.8445 H   0  0  0  0  0  0  0  0  0  0  0  0
  151.8738  133.3606  155.1556 H   0  0  0  0  0  0  0  0  0  0  0  0
  147.9332  134.6972  154.3205 H   0  0  0  0  0  0  0  0  0  0  0  0
  148.7760  135.0593  155.8031 H   0  0  0  0  0  0  0  0  0  0  0  0
  146.9262  136.8896  153.9882 H   0  0  0  0  0  0  0  0  0  0  0  0
  147.5268  137.3279  155.5760 H   0  0  0  0  0  0  0  0  0  0  0  0
  148.1203  138.7995  152.9429 H   0  0  0  0  0  0  0  0  0  0  0  0
  147.1066  139.3724  154.2539 H   0  0  0  0  0  0  0  0  0  0  0  0
  150.4756  138.6188  153.3041 H   0  0  0  0  0  0  0  0  0  0  0  0
  152.4392  138.8525  154.8334 H   0  0  0  0  0  0  0  0  0  0  0  0
  151.5892  140.3636  154.6359 H   0  0  0  0  0  0  0  0  0  0  0  0
  150.4092  139.8489  156.8011 H   0  0  0  0  0  0  0  0  0  0  0  0
  150.7098  139.5115  158.9437 H   0  0  0  0  0  0  0  0  0  0  0  0
  152.0962  138.5779  159.4815 H   0  0  0  0  0  0  0  0  0  0  0  0
  153.6557  139.9034  161.0069 H   0  0  0  0  0  0  0  0  0  0  0  0
  154.1664  142.5567  161.3910 H   0  0  0  0  0  0  0  0  0  0  0  0
  152.5950  143.7785  159.4618 H   0  0  0  0  0  0  0  0  0  0  0  0
  150.0738  137.1784  155.9856 H   0  0  0  0  0  0  0  0  0  0  0  0
  151.0792  136.6207  154.6587 H   0  0  0  0  0  0  0  0  0  0  0  0
  149.1688  136.5051  153.2928 H   0  0  0  0  0  0  0  0  0  0  0  0
  1  2  1  0  0  0  0
  1 21  1  0  0  0  0
  1 22  1  0  0  0  0
  1 23  1  0  0  0  0
  2  3  1  0  0  0  0
  2  4  1  0  0  0  0
  2 24  1  0  0  0  0
  3 25  1  0  0  0  0
  3 26  1  0  0  0  0
  3 27  1  0  0  0  0
  4  5  1  0  0  0  0
  4 28  1  0  0  0  0
  4 29  1  0  0  0  0
  5 20  1  0  0  0  0
  5  6  1  0  0  0  0
  5 45  1  0  0  0  0
  6  7  1  0  0  0  0
  6 30  1  0  0  0  0
  6 31  1  0  0  0  0
  7  8  1  0  0  0  0
  7 32  1  0  0  0  0
  7 33  1  0  0  0  0
  8  9  1  0  0  0  0
  9 10  1  0  0  0  0
  9 20  1  0  0  0  0
  9 34  1  0  0  0  0
 10 11  1  0  0  0  0
 10 35  1  0  0  0  0
 10 36  1  0  0  0  0
 11 12  1  0  0  0  0
 11 37  1  0  0  0  0
 12 13  2  0  0  0  0
 12 14  1  0  0  0  0
 14 15  1  0  0  0  0
 14 38  1  0  0  0  0
 14 39  1  0  0  0  0
 15 19  1  0  0  0  0
 15 16  1  0  0  0  0
 16 17  2  0  0  0  0
 16 40  1  0  0  0  0
 17 18  1  0  0  0  0
 17 41  1  0  0  0  0
 18 19  2  0  0  0  0
 18 42  1  0  0  0  0
 20 43  1  0  0  0  0
 20 44  1  0  0  0  0
M  CHG  1   5   1
M  END
> <s_m_source_file>
AV-unprocessed.smi

> <i_m_source_file_index>
1218

> <i_lp_mmshare_version>
43012

> <i_f3d_flags>
0

> <s_epik_input>
W0NIM11bQ0hdKFtDSDNdKVtDSDJdTjFbQ0gyXVtDSDJdT1tDQEhdKFtDSDJdMSlbQ0gyXVtOSF1DKD1PKVtDSDJdbjJbY0hdW2NIXVtjSF1uMg==

> <s_epik_cmdline>
J2VwaWtfcHl0aG9uJywgJy1waCcsICc3LjAnLCAnLXRuJywgJzgnLCAnLW1hJywgJzIwMCcsICctbWV0YWxfYmluZGluZycsICctaW1hZScsICc8aW5maWxlLm1hZT4nLCAnLW9tYWUnLCAnPG91dGZpbGUubWFlPic=

> <r_lp_tautomer_probability>
1

> <r_epik_Ionization_Penalty>
0.0995066

> <r_epik_Ionization_Penalty_Charging>
0.0994921

> <r_epik_Ionization_Penalty_Neutral>
1.44634e-05

> <r_epik_State_Penalty>
0.0895432

> <r_epik_Charging_Adjusted_Penalty>
0.189035

> <i_epik_Tot_Q>
1

> <i_epik_Tot_abs_Q>
1

> <r_epik_Metal_State_Penalty>
0.0895432

> <b_epik_Metal_Only>
0

> <s_lp_Force_Field>
OPLS_2005

> <r_lp_Energy>
18.9521

> <b_lp_Chiralities_Consistent>
1

> <s_lp_Variant>
AV-unprocessed.smi:1218-1

> <Gold.Version>
5.8.1

> <Gold.Id.Protein>
6NUR|6NUR_protein|mol2

> <Gold.PLP.Fitness>
43.2088

> <Gold.PLP.PLP>
-35.9392

> <Gold.PLP.part.hbond>
-2.0000

> <Gold.PLP.part.metal>
0.0000

> <Gold.PLP.part.buried>
-3.6417

> <Gold.PLP.part.nonpolar>
-30.4606

> <Gold.PLP.part.repulsive>
0.2144

> <Gold.PLP.ligand.clash>
0.0000

> <Gold.PLP.ligand.torsion>
0.9458

> <Gold.PLP.Chemscore.Hbond>
3.0000

> <Gold.PLP.Chemscore.CHOScore>
0.0000

> <Gold.PLP.Chemscore.Metal>
0.0000

> <Gold.Chemscore.Hbonds>
donor molecule, donor type, donor heavy atom, donor atom, acceptor molecule, acceptor atom, score
      L1  H     5    45       P1  7948  1.59
      P1  H  7997  8010       L1    13  0.96

> <Gold.PLP.Chemscore.Internal.Correction>
0.1611

> <Gold.Rescore>
     Score         DG    S(hbond)    S(metal)    S(lipo)     H(rot)  DE(clash)    DE(int)     intcor
     16.00     -16.86       1.96        0.00      84.20       1.96       0.07       0.80       ----

> <Gold.Chemscore.Fitness>
16.0022

> <Gold.Chemscore.DG>
-16.8644

> <Gold.Chemscore.ZeroCoef>
-5.4800

> <Gold.Chemscore.Hbond>
1.9629

> <Gold.Chemscore.Metal>
0.0000

> <Gold.Chemscore.Lipo>
84.2050

> <Gold.Chemscore.Internal_Hbond>
0.0000

> <Gold.Chemscore.DEClash>
0.0650

> <Gold.Chemscore.DEInternal>
0.7972

> <Gold.Chemscore.Rot>
1.9624

> <Gold.Chemscore.Internal.Correction>
   9.000000E+99

> <Gold.Chemscore.Hbonds>
donor molecule, donor type, donor heavy atom, donor atom, acceptor molecule, acceptor atom, score
      L1  H     5    45       P1  7948  0.76
      P1  H  7997  8010       L1    13  0.72

> <Gold.Chemscore.Hbond.Weighted>
-6.5562

> <Gold.Chemscore.Metal.Weighted>
-0.0000

> <Gold.Chemscore.Lipo.Weighted>
-9.8520

> <Gold.Chemscore.Internal_Hbond.Weighted>
0.0000

> <Gold.Chemscore.DEClash.Weighted>
0.0650

> <Gold.Chemscore.DEInternal.Weighted>
0.7972

> <Gold.Chemscore.Rot.Weighted>
5.0237

> <Gold.Chemscore.Internal.Correction.Weighted>
   9.000000E+99

> <Gold.Protein.RotatedTorsions>
[ 6907 6896 6895 6894 ] final   53.19 input  -60.11 | X-H torsion
[ 7974 7965 7964 7962 ] final -123.25 input  175.53 | X-H torsion
[ 8008 7997 7996 7995 ] final   68.42 input   59.86 | X-H torsion
[ 10167 10162 10161 10158 ] final   12.77 input  -65.29 | X-H torsion
[ 10718 10713 10712 10709 ] final  -91.36 input   66.30 | X-H torsion
[ 10763 10752 10751 10750 ] final  104.57 input  -60.55 | X-H torsion
[ 11005 11000 10999 10996 ] final  -52.03 input  -57.11 | X-H torsion

> <Gold.Protein.ActiveResidues>
 VAL166  LYS551  ARG553  GLY616  TRP617  ASP618  TYR619  PRO620  LYS621  CYS622 
 ASP623  PHE694  ASN695  SER759  ASP760  ASP761  ALA762  ILE779  LEU786  VAL792 
 PHE793  MET794  SER795  GLU796  ALA797  LYS798  CYS799  TRP800  GLU811  SER814 

> <Gold.Protein.RotatedAtoms>
  152.3311  134.7258  160.0288 H   0  0  0  0  0  0  0  0  0  0  0  0  # atno 6907 bound_to 6896
  151.7674  133.3333  159.3443 H   0  0  0  0  0  0  0  0  0  0  0  0  # atno 6908 bound_to 6896
  150.7423  134.5982  159.6067 H   0  0  0  0  0  0  0  0  0  0  0  0  # atno 6909 bound_to 6896
  145.0207  140.7985  143.4383 H   0  0  0  0  0  0  0  0  0  0  0  0  # atno 7974 bound_to 7965
  155.7080  140.3494  155.4961 H   0  0  0  0  0  0  0  0  0  0  0  0  # atno 8008 bound_to 7997
  155.9381  140.1096  157.1100 H   0  0  0  0  0  0  0  0  0  0  0  0  # atno 8009 bound_to 7997
  154.4097  140.1218  156.4877 H   0  0  0  0  0  0  0  0  0  0  0  0  # atno 8010 bound_to 7997
  140.6046  143.8534  150.7000 H   0  0  0  0  0  0  0  0  0  0  0  0  # atno 10167 bound_to 10162
  155.9993  130.4945  150.5462 H   0  0  0  0  0  0  0  0  0  0  0  0  # atno 10718 bound_to 10713
  153.3677  135.3939  155.1765 H   0  0  0  0  0  0  0  0  0  0  0  0  # atno 10763 bound_to 10752
  154.8689  135.3695  154.5018 H   0  0  0  0  0  0  0  0  0  0  0  0  # atno 10764 bound_to 10752
  153.5483  135.7083  153.5664 H   0  0  0  0  0  0  0  0  0  0  0  0  # atno 10765 bound_to 10752
  141.0903  133.6634  156.3965 H   0  0  0  0  0  0  0  0  0  0  0  0  # atno 11005 bound_to 11000
  145.1900  139.2306  143.5248 LP  0  0  0  0  0  0  0  0  0  0  0  0  # atno 17320 bound_to 7965
  146.3485  140.1694  142.8590 LP  0  0  0  0  0  0  0  0  0  0  0  0  # atno 17321 bound_to 7965
  140.2088  143.3900  152.1734 LP  0  0  0  0  0  0  0  0  0  0  0  0  # atno 17342 bound_to 10162
  139.5315  144.7164  151.5038 LP  0  0  0  0  0  0  0  0  0  0  0  0  # atno 17343 bound_to 10162
  157.3392  131.0713  151.1801 LP  0  0  0  0  0  0  0  0  0  0  0  0  # atno 17370 bound_to 10713
  157.2656  130.6679  149.5995 LP  0  0  0  0  0  0  0  0  0  0  0  0  # atno 17371 bound_to 10713
  140.5268  134.6251  157.5336 LP  0  0  0  0  0  0  0  0  0  0  0  0  # atno 17394 bound_to 11000
  139.9728  134.7265  156.0009 LP  0  0  0  0  0  0  0  0  0  0  0  0  # atno 17395 bound_to 11000

$$$$
