AV-unprocessed.smi:1882|AV-procd|sdf|7641|dock3
  -GOLD-   22720 9373D 1   1.00000     0.00000
 Structure written by MMmdl.
 25 26  0  0  0  0  0  0  0  0  1 V2000
  153.5808  141.7647  161.7071 C   0  0  0  0  0  0  0  0  0  0  0  0
  152.8631  142.7673  160.8700 C   0  0  0  0  0  0  0  0  0  0  0  0
  152.6698  142.6296  159.5560 N   0  0  0  0  0  0  0  0  0  0  0  0
  151.9712  143.7048  158.9967 C   0  0  0  0  0  0  0  0  0  0  0  0
  151.6635  143.7138  157.5273 C   0  0  0  0  0  0  0  0  0  0  0  0
  151.0041  142.3963  157.1165 C   0  0  0  0  0  0  0  0  0  0  0  0
  151.4916  141.3253  157.4785 O   0  0  0  0  0  0  0  0  0  0  0  0
  149.8989  142.4921  156.3618 N   0  0  0  0  0  0  0  0  0  0  0  0
  149.1357  141.3934  155.8650 C   0  0  0  0  0  0  0  0  0  0  0  0
  149.1958  141.1124  154.3790 C   0  0  0  0  0  0  0  0  0  0  0  0
  147.9501  141.7052  154.9774 C   0  0  0  0  0  0  0  0  0  0  0  0
  151.6284  144.6628  159.9196 C   0  0  0  0  0  0  0  0  0  0  0  0
  152.1824  144.2533  161.5198 S   0  0  0  0  0  0  0  0  0  0  0  0
  153.9311  140.9329  161.0949 H   0  0  0  0  0  0  0  0  0  0  0  0
  152.9137  141.3759  162.4764 H   0  0  0  0  0  0  0  0  0  0  0  0
  154.4405  142.2295  162.1897 H   0  0  0  0  0  0  0  0  0  0  0  0
  150.9944  144.5376  157.2742 H   0  0  0  0  0  0  0  0  0  0  0  0
  152.5733  143.8702  156.9460 H   0  0  0  0  0  0  0  0  0  0  0  0
  149.5746  143.4162  156.1167 H   0  0  0  0  0  0  0  0  0  0  0  0
  149.0335  140.5223  156.5111 H   0  0  0  0  0  0  0  0  0  0  0  0
  149.8139  141.7615  153.7615 H   0  0  0  0  0  0  0  0  0  0  0  0
  149.1548  140.0720  154.0631 H   0  0  0  0  0  0  0  0  0  0  0  0
  147.0774  141.0607  155.0629 H   0  0  0  0  0  0  0  0  0  0  0  0
  147.7370  142.7499  154.7590 H   0  0  0  0  0  0  0  0  0  0  0  0
  151.0894  145.5838  159.7548 H   0  0  0  0  0  0  0  0  0  0  0  0
  1  2  1  0  0  0  0
  1 14  1  0  0  0  0
  1 15  1  0  0  0  0
  1 16  1  0  0  0  0
  2 13  1  0  0  0  0
  2  3  2  0  0  0  0
  3  4  1  0  0  0  0
  4  5  1  0  0  0  0
  4 12  2  0  0  0  0
  5  6  1  0  0  0  0
  5 17  1  0  0  0  0
  5 18  1  0  0  0  0
  6  7  2  0  0  0  0
  6  8  1  0  0  0  0
  8  9  1  0  0  0  0
  8 19  1  0  0  0  0
  9 11  1  0  0  0  0
  9 10  1  0  0  0  0
  9 20  1  0  0  0  0
 10 11  1  0  0  0  0
 10 21  1  0  0  0  0
 10 22  1  0  0  0  0
 11 23  1  0  0  0  0
 11 24  1  0  0  0  0
 12 13  1  0  0  0  0
 12 25  1  0  0  0  0
M  END
> <s_m_source_file>
AV-unprocessed.smi

> <i_m_source_file_index>
1882

> <i_lp_mmshare_version>
43012

> <i_f3d_flags>
0

> <s_epik_input>
W0NIM11jMW5jKFtjSF1zMSlbQ0gyXUMoPU8pW05IXVtDSF0yW0NIMl1bQ0gyXTI=

> <s_epik_cmdline>
J2VwaWtfcHl0aG9uJywgJy1waCcsICc3LjAnLCAnLXRuJywgJzgnLCAnLW1hJywgJzIwMCcsICctbWV0YWxfYmluZGluZycsICctaW1hZScsICc8aW5maWxlLm1hZT4nLCAnLW9tYWUnLCAnPG91dGZpbGUubWFlPic=

> <r_lp_tautomer_probability>
1

> <r_epik_Ionization_Penalty>
5.52242e-05

> <r_epik_Ionization_Penalty_Charging>
0

> <r_epik_Ionization_Penalty_Neutral>
5.52242e-05

> <r_epik_State_Penalty>
-0

> <r_epik_Charging_Adjusted_Penalty>
0

> <i_epik_Tot_Q>
0

> <i_epik_Tot_abs_Q>
0

> <r_epik_Metal_State_Penalty>
-0

> <b_epik_Metal_Only>
0

> <s_lp_Force_Field>
OPLS_2005

> <r_lp_Energy>
14.0294

> <b_lp_Chiralities_Consistent>
1

> <s_lp_Variant>
AV-unprocessed.smi:1882-1

> <Gold.Version>
5.8.1

> <Gold.Id.Protein>
6NUR|6NUR_protein|mol2

> <Gold.PLP.Fitness>
37.4413

> <Gold.PLP.PLP>
-34.9317

> <Gold.PLP.part.hbond>
-1.0000

> <Gold.PLP.part.metal>
0.0000

> <Gold.PLP.part.buried>
-4.1269

> <Gold.PLP.part.nonpolar>
-30.0188

> <Gold.PLP.part.repulsive>
0.0998

> <Gold.PLP.ligand.clash>
0.0000

> <Gold.PLP.ligand.torsion>
0.2629

> <Gold.PLP.Chemscore.Hbond>
1.0000

> <Gold.PLP.Chemscore.CHOScore>
0.0000

> <Gold.PLP.Chemscore.Metal>
0.0000

> <Gold.Chemscore.Hbonds>
donor molecule, donor type, donor heavy atom, donor atom, acceptor molecule, acceptor atom, score
      L1  H     8    19       P1  8028  1.00

> <Gold.PLP.Chemscore.Internal.Correction>
0.0355

> <Gold.Rescore>
     Score         DG    S(hbond)    S(metal)    S(lipo)     H(rot)  DE(clash)    DE(int)     intcor
     14.38     -16.12       0.99        0.00      92.30       1.36       0.02       1.71       ----

> <Gold.Chemscore.Fitness>
14.3806

> <Gold.Chemscore.DG>
-16.1179

> <Gold.Chemscore.ZeroCoef>
-5.4800

> <Gold.Chemscore.Hbond>
0.9918

> <Gold.Chemscore.Metal>
0.0000

> <Gold.Chemscore.Lipo>
92.3017

> <Gold.Chemscore.Internal_Hbond>
0.0000

> <Gold.Chemscore.DEClash>
0.0239

> <Gold.Chemscore.DEInternal>
1.7134

> <Gold.Chemscore.Rot>
1.3570

> <Gold.Chemscore.Internal.Correction>
   9.000000E+99

> <Gold.Chemscore.Hbonds>
donor molecule, donor type, donor heavy atom, donor atom, acceptor molecule, acceptor atom, score
      L1  H     8    19       P1  8028  0.94

> <Gold.Chemscore.Hbond.Weighted>
-3.3125

> <Gold.Chemscore.Metal.Weighted>
-0.0000

> <Gold.Chemscore.Lipo.Weighted>
-10.7993

> <Gold.Chemscore.Internal_Hbond.Weighted>
0.0000

> <Gold.Chemscore.DEClash.Weighted>
0.0239

> <Gold.Chemscore.DEInternal.Weighted>
1.7134

> <Gold.Chemscore.Rot.Weighted>
3.4740

> <Gold.Chemscore.Internal.Correction.Weighted>
   9.000000E+99

> <Gold.Protein.RotatedTorsions>
[ 6907 6896 6895 6894 ] final  -13.83 input  -60.11 | X-H torsion
[ 7974 7965 7964 7962 ] final  -45.74 input  175.53 | X-H torsion
[ 8008 7997 7996 7995 ] final  148.28 input   59.86 | X-H torsion
[ 10167 10162 10161 10158 ] final -101.72 input  -65.29 | X-H torsion
[ 10718 10713 10712 10709 ] final -146.60 input   66.30 | X-H torsion
[ 10763 10752 10751 10750 ] final  156.49 input  -60.55 | X-H torsion
[ 11005 11000 10999 10996 ] final -153.16 input  -57.11 | X-H torsion

> <Gold.Protein.ActiveResidues>
 VAL166  LYS551  ARG553  GLY616  TRP617  ASP618  TYR619  PRO620  LYS621  CYS622 
 ASP623  PHE694  ASN695  SER759  ASP760  ASP761  ALA762  ILE779  LEU786  VAL792 
 PHE793  MET794  SER795  GLU796  ALA797  LYS798  CYS799  TRP800  GLU811  SER814 

> <Gold.Protein.RotatedAtoms>
  151.3488  135.0880  159.9395 H   0  0  0  0  0  0  0  0  0  0  0  0  # atno 6907 bound_to 6896
  152.5192  133.9373  159.7620 H   0  0  0  0  0  0  0  0  0  0  0  0  # atno 6908 bound_to 6896
  150.9745  133.6256  159.2762 H   0  0  0  0  0  0  0  0  0  0  0  0  # atno 6909 bound_to 6896
  145.9790  140.7303  142.9373 H   0  0  0  0  0  0  0  0  0  0  0  0  # atno 7974 bound_to 7965
  156.2796  140.2133  156.5673 H   0  0  0  0  0  0  0  0  0  0  0  0  # atno 8008 bound_to 7997
  154.7164  140.0507  157.0621 H   0  0  0  0  0  0  0  0  0  0  0  0  # atno 8009 bound_to 7997
  155.0536  140.3159  155.4686 H   0  0  0  0  0  0  0  0  0  0  0  0  # atno 8010 bound_to 7997
  140.2383  143.3557  152.0825 H   0  0  0  0  0  0  0  0  0  0  0  0  # atno 10167 bound_to 10162
  156.3970  130.7914  151.2122 H   0  0  0  0  0  0  0  0  0  0  0  0  # atno 10718 bound_to 10713
  154.1851  135.2797  155.3040 H   0  0  0  0  0  0  0  0  0  0  0  0  # atno 10763 bound_to 10752
  154.5972  135.5541  153.7341 H   0  0  0  0  0  0  0  0  0  0  0  0  # atno 10764 bound_to 10752
  153.0127  135.6383  154.1990 H   0  0  0  0  0  0  0  0  0  0  0  0  # atno 10765 bound_to 10752
  140.7111  134.3831  157.5197 H   0  0  0  0  0  0  0  0  0  0  0  0  # atno 11005 bound_to 11000
  144.6856  140.2877  143.7283 LP  0  0  0  0  0  0  0  0  0  0  0  0  # atno 17320 bound_to 7965
  145.7797  139.1887  143.2165 LP  0  0  0  0  0  0  0  0  0  0  0  0  # atno 17321 bound_to 7965
  139.5086  144.6853  151.5904 LP  0  0  0  0  0  0  0  0  0  0  0  0  # atno 17342 bound_to 10162
  140.6133  143.9395  150.6469 LP  0  0  0  0  0  0  0  0  0  0  0  0  # atno 17343 bound_to 10162
  157.7502  131.0298  150.4110 LP  0  0  0  0  0  0  0  0  0  0  0  0  # atno 17370 bound_to 10713
  156.4382  130.3986  149.6715 LP  0  0  0  0  0  0  0  0  0  0  0  0  # atno 17371 bound_to 10713
  139.8871  134.8891  156.2545 LP  0  0  0  0  0  0  0  0  0  0  0  0  # atno 17394 bound_to 11000
  141.0083  133.7110  156.1071 LP  0  0  0  0  0  0  0  0  0  0  0  0  # atno 17395 bound_to 11000

$$$$
