AV-unprocessed.smi:17|AV-procd|sdf|104|dock7
  -GOLD-   2262015253D 1   1.00000     0.00000
 Structure written by MMmdl.
 57 59  0  0  0  0  0  0  0  0  1 V2000
  147.3844  134.4591  162.2857 C   0  0  0  0  0  0  0  0  0  0  0  0
  146.9505  135.6679  161.4396 C   0  0  0  0  0  0  0  0  0  0  0  0
  147.3245  135.5609  160.0275 N   0  0  0  0  0  0  0  0  0  0  0  0
  147.6186  136.7354  159.4124 C   0  0  0  0  0  0  0  0  0  0  0  0
  146.5816  137.4569  158.9182 N   0  0  0  0  0  0  0  0  0  0  0  0
  146.8032  138.6159  158.2927 C   0  0  0  0  0  0  0  0  0  0  0  0
  147.9654  139.2255  158.0532 N   0  0  0  0  0  0  0  0  0  0  0  0
  149.0135  138.5006  158.5386 C   0  0  0  0  0  0  0  0  0  0  0  0
  148.9330  137.2539  159.2218 C   0  0  0  0  0  0  0  0  0  0  0  0
  150.2100  136.8207  159.5605 N   0  0  0  0  0  0  0  0  0  0  0  0
  150.9981  137.7555  159.1057 C   0  0  0  0  0  0  0  0  0  0  0  0
  150.3614  138.8121  158.4960 N   0  0  0  0  0  0  0  0  0  0  0  0
  150.9932  139.9780  157.9036 C   0  0  0  0  0  0  0  0  0  0  0  0
  151.6475  140.9436  158.9296 C   0  0  1  0  0  0  0  0  0  0  0  0
  152.8964  140.2648  159.5419 C   0  0  0  0  0  0  0  0  0  0  0  0
  153.7550  139.7662  158.5365 O   0  0  0  0  0  0  0  0  0  0  0  0
  152.0010  142.3315  158.3154 C   0  0  2  0  0  0  0  0  0  0  0  0
  152.5041  143.3674  159.3108 C   0  0  0  0  0  0  0  0  0  0  0  0
  152.3010  144.6711  158.5541 C   0  0  0  0  0  0  0  0  0  0  0  0
  151.0676  144.4915  157.8783 O   0  0  0  0  0  0  0  0  0  0  0  0
  150.8313  143.1012  157.6758 C   0  0  0  0  0  0  0  0  0  0  0  0
  146.5749  134.5788  159.2274 C   0  0  1  0  0  0  0  0  0  0  0  0
  146.9460  133.1211  159.5611 C   0  0  0  0  0  0  0  0  0  0  0  0
  145.0445  134.7854  159.2547 C   0  0  0  0  0  0  0  0  0  0  0  0
  144.1778  133.6332  158.1006 S   0  0  0  0  0  0  0  0  0  0  0  0
  144.9205  134.0932  156.4832 C   0  0  0  0  0  0  0  0  0  0  0  0
  144.5718  132.2514  158.4135 O   0  0  0  0  0  0  0  0  0  0  0  0
  142.7510  133.9902  158.0777 O   0  0  0  0  0  0  0  0  0  0  0  0
  147.0103  134.5517  163.3053 H   0  0  0  0  0  0  0  0  0  0  0  0
  148.4693  134.3693  162.3450 H   0  0  0  0  0  0  0  0  0  0  0  0
  146.9915  133.5299  161.8718 H   0  0  0  0  0  0  0  0  0  0  0  0
  145.8652  135.7535  161.4990 H   0  0  0  0  0  0  0  0  0  0  0  0
  147.3466  136.5867  161.8698 H   0  0  0  0  0  0  0  0  0  0  0  0
  145.9226  139.1272  157.9328 H   0  0  0  0  0  0  0  0  0  0  0  0
  152.0721  137.7050  159.2117 H   0  0  0  0  0  0  0  0  0  0  0  0
  151.7371  139.6013  157.2016 H   0  0  0  0  0  0  0  0  0  0  0  0
  150.2585  140.5144  157.3023 H   0  0  0  0  0  0  0  0  0  0  0  0
  150.9441  141.1127  159.7464 H   0  0  0  0  0  0  0  0  0  0  0  0
  153.4466  140.9620  160.1747 H   0  0  0  0  0  0  0  0  0  0  0  0
  152.6257  139.4126  160.1637 H   0  0  0  0  0  0  0  0  0  0  0  0
  153.8488  138.8336  158.6570 H   0  0  0  0  0  0  0  0  0  0  0  0
  152.7761  142.1969  157.5592 H   0  0  0  0  0  0  0  0  0  0  0  0
  151.8937  143.3607  160.2150 H   0  0  0  0  0  0  0  0  0  0  0  0
  153.5461  143.2214  159.5968 H   0  0  0  0  0  0  0  0  0  0  0  0
  152.2784  145.5422  159.2093 H   0  0  0  0  0  0  0  0  0  0  0  0
  153.0938  144.8146  157.8184 H   0  0  0  0  0  0  0  0  0  0  0  0
  150.7432  142.8935  156.6100 H   0  0  0  0  0  0  0  0  0  0  0  0
  149.8818  142.8523  158.1502 H   0  0  0  0  0  0  0  0  0  0  0  0
  146.8825  134.7337  158.1927 H   0  0  0  0  0  0  0  0  0  0  0  0
  146.4716  132.4310  158.8633 H   0  0  0  0  0  0  0  0  0  0  0  0
  146.6218  132.8414  160.5638 H   0  0  0  0  0  0  0  0  0  0  0  0
  148.0215  132.9554  159.4956 H   0  0  0  0  0  0  0  0  0  0  0  0
  144.6609  134.5689  160.2517 H   0  0  0  0  0  0  0  0  0  0  0  0
  144.7534  135.8101  159.0276 H   0  0  0  0  0  0  0  0  0  0  0  0
  144.4801  133.4812  155.6966 H   0  0  0  0  0  0  0  0  0  0  0  0
  145.9963  133.9217  156.5149 H   0  0  0  0  0  0  0  0  0  0  0  0
  144.7244  135.1450  156.2765 H   0  0  0  0  0  0  0  0  0  0  0  0
  1  2  1  0  0  0  0
  1 29  1  0  0  0  0
  1 30  1  0  0  0  0
  1 31  1  0  0  0  0
  2  3  1  0  0  0  0
  2 32  1  0  0  0  0
  2 33  1  0  0  0  0
  3  4  1  0  0  0  0
  3 22  1  0  0  0  0
  4  9  1  0  0  0  0
  4  5  2  0  0  0  0
  5  6  1  0  0  0  0
  6  7  2  0  0  0  0
  6 34  1  0  0  0  0
  7  8  1  0  0  0  0
  8 12  1  0  0  0  0
  8  9  2  0  0  0  0
  9 10  1  0  0  0  0
 10 11  2  0  0  0  0
 11 12  1  0  0  0  0
 11 35  1  0  0  0  0
 12 13  1  0  0  0  0
 13 14  1  0  0  0  0
 13 36  1  0  0  0  0
 13 37  1  0  0  0  0
 14 15  1  0  0  0  0
 14 17  1  0  0  0  0
 14 38  1  0  0  0  0
 15 16  1  0  0  0  0
 15 39  1  0  0  0  0
 15 40  1  0  0  0  0
 16 41  1  0  0  0  0
 17 21  1  0  0  0  0
 17 18  1  0  0  0  0
 17 42  1  0  0  0  0
 18 19  1  0  0  0  0
 18 43  1  0  0  0  0
 18 44  1  0  0  0  0
 19 20  1  0  0  0  0
 19 45  1  0  0  0  0
 19 46  1  0  0  0  0
 20 21  1  0  0  0  0
 21 47  1  0  0  0  0
 21 48  1  0  0  0  0
 22 23  1  0  0  0  0
 22 24  1  0  0  0  0
 22 49  1  0  0  0  0
 23 50  1  0  0  0  0
 23 51  1  0  0  0  0
 23 52  1  0  0  0  0
 24 25  1  0  0  0  0
 24 53  1  0  0  0  0
 24 54  1  0  0  0  0
 25 26  1  0  0  0  0
 25 27  2  0  0  0  0
 25 28  2  0  0  0  0
 26 55  1  0  0  0  0
 26 56  1  0  0  0  0
 26 57  1  0  0  0  0
M  END
> <s_m_source_file>
AV-unprocessed.smi

> <i_m_source_file_index>
17

> <i_lp_mmshare_version>
43012

> <i_f3d_flags>
0

> <s_epik_input>
W0NIM11TKD1PKSg9TylbQ0gyXVtDQEBIXShbQ0gzXSlOKFtDSDJdW0NIM10pYyhuW2NIXW4xKWMoYzEyKW5bY0hdbjJbQ0gyXVtDQEhdKFtDSDJdW09IXSlbQ0BASF0zW0NIMl1bQ0gyXU9bQ0gyXTM=

> <s_epik_cmdline>
J2VwaWtfcHl0aG9uJywgJy1waCcsICc3LjAnLCAnLXRuJywgJzgnLCAnLW1hJywgJzIwMCcsICctbWV0YWxfYmluZGluZycsICctaW1hZScsICc8aW5maWxlLm1hZT4nLCAnLW9tYWUnLCAnPG91dGZpbGUubWFlPic=

> <r_lp_tautomer_probability>
1

> <r_epik_Ionization_Penalty>
0.00119955

> <r_epik_Ionization_Penalty_Charging>
0

> <r_epik_Ionization_Penalty_Neutral>
0.00119955

> <r_epik_State_Penalty>
0.000665399

> <r_epik_Charging_Adjusted_Penalty>
0.000665399

> <i_epik_Tot_Q>
0

> <i_epik_Tot_abs_Q>
0

> <r_epik_Metal_State_Penalty>
-0

> <b_epik_Metal_Only>
0

> <s_lp_Force_Field>
OPLS_2005

> <r_lp_Energy>
33.8653

> <b_lp_Chiralities_Consistent>
1

> <s_lp_Variant>
AV-unprocessed.smi:17-6

> <Gold.Version>
5.8.1

> <Gold.Id.Protein>
6NUR|6NUR_protein|mol2

> <Gold.PLP.Fitness>
47.2379

> <Gold.PLP.PLP>
-39.4657

> <Gold.PLP.part.hbond>
-3.0000

> <Gold.PLP.part.metal>
0.0000

> <Gold.PLP.part.buried>
-6.9783

> <Gold.PLP.part.nonpolar>
-29.7566

> <Gold.PLP.part.repulsive>
0.3151

> <Gold.PLP.ligand.clash>
0.0000

> <Gold.PLP.ligand.torsion>
1.2601

> <Gold.PLP.Chemscore.Hbond>
3.0000

> <Gold.PLP.Chemscore.CHOScore>
0.0000

> <Gold.PLP.Chemscore.Metal>
0.0000

> <Gold.Chemscore.Hbonds>
donor molecule, donor type, donor heavy atom, donor atom, acceptor molecule, acceptor atom, score
      P1  H  6896  6907       L1    10  1.00
      P1  H  7997  8010       L1    16  0.81
      P1  H 11000 11005       L1    28  1.00

> <Gold.PLP.Chemscore.Internal.Correction>
1.2924

> <Gold.Rescore>
     Score         DG    S(hbond)    S(metal)    S(lipo)     H(rot)  DE(clash)    DE(int)     intcor
     12.69     -15.66       2.75        0.00      91.43       3.79       0.01       2.96       ----

> <Gold.Chemscore.Fitness>
12.6902

> <Gold.Chemscore.DG>
-15.6602

> <Gold.Chemscore.ZeroCoef>
-5.4800

> <Gold.Chemscore.Hbond>
2.7497

> <Gold.Chemscore.Metal>
0.0000

> <Gold.Chemscore.Lipo>
91.4290

> <Gold.Chemscore.Internal_Hbond>
0.0000

> <Gold.Chemscore.DEClash>
0.0073

> <Gold.Chemscore.DEInternal>
2.9627

> <Gold.Chemscore.Rot>
3.7894

> <Gold.Chemscore.Internal.Correction>
   9.000000E+99

> <Gold.Chemscore.Hbonds>
donor molecule, donor type, donor heavy atom, donor atom, acceptor molecule, acceptor atom, score
      P1  H  6896  6907       L1    10  0.91
      P1  H  7997  8010       L1    16  0.18
      P1  H 11000 11005       L1    28  1.00

> <Gold.Chemscore.Hbond.Weighted>
-9.1840

> <Gold.Chemscore.Metal.Weighted>
-0.0000

> <Gold.Chemscore.Lipo.Weighted>
-10.6972

> <Gold.Chemscore.Internal_Hbond.Weighted>
0.0000

> <Gold.Chemscore.DEClash.Weighted>
0.0073

> <Gold.Chemscore.DEInternal.Weighted>
2.9627

> <Gold.Chemscore.Rot.Weighted>
9.7010

> <Gold.Chemscore.Internal.Correction.Weighted>
   9.000000E+99

> <Gold.Protein.RotatedTorsions>
[ 6907 6896 6895 6894 ] final  -44.35 input  -60.11 | X-H torsion
[ 7974 7965 7964 7962 ] final -137.64 input  175.53 | X-H torsion
[ 8008 7997 7996 7995 ] final    0.52 input   59.86 | X-H torsion
[ 10167 10162 10161 10158 ] final -148.42 input  -65.29 | X-H torsion
[ 10718 10713 10712 10709 ] final  105.11 input   66.30 | X-H torsion
[ 10763 10752 10751 10750 ] final  139.59 input  -60.55 | X-H torsion
[ 11005 11000 10999 10996 ] final -112.28 input  -57.11 | X-H torsion

> <Gold.Protein.ActiveResidues>
 VAL166  LYS551  ARG553  GLY616  TRP617  ASP618  TYR619  PRO620  LYS621  CYS622 
 ASP623  PHE694  ASN695  SER759  ASP760  ASP761  ALA762  ILE779  LEU786  VAL792 
 PHE793  MET794  SER795  GLU796  ALA797  LYS798  CYS799  TRP800  GLU811  SER814 

> <Gold.Protein.RotatedAtoms>
  150.9338  134.8752  159.7568 H   0  0  0  0  0  0  0  0  0  0  0  0  # atno 6907 bound_to 6896
  152.5050  134.4040  159.9436 H   0  0  0  0  0  0  0  0  0  0  0  0  # atno 6908 bound_to 6896
  151.4065  133.3701  159.2773 H   0  0  0  0  0  0  0  0  0  0  0  0  # atno 6909 bound_to 6896
  144.8824  140.6527  143.5197 H   0  0  0  0  0  0  0  0  0  0  0  0  # atno 7974 bound_to 7965
  154.6690  140.2607  155.7027 H   0  0  0  0  0  0  0  0  0  0  0  0  # atno 8008 bound_to 7997
  156.2651  140.2833  156.1114 H   0  0  0  0  0  0  0  0  0  0  0  0  # atno 8009 bound_to 7997
  155.1196  140.0377  157.2736 H   0  0  0  0  0  0  0  0  0  0  0  0  # atno 8010 bound_to 7997
  139.7533  143.8486  152.2591 H   0  0  0  0  0  0  0  0  0  0  0  0  # atno 10167 bound_to 10162
  157.6717  131.0820  150.5807 H   0  0  0  0  0  0  0  0  0  0  0  0  # atno 10718 bound_to 10713
  153.9086  135.3014  155.3448 H   0  0  0  0  0  0  0  0  0  0  0  0  # atno 10763 bound_to 10752
  154.7635  135.4922  153.9512 H   0  0  0  0  0  0  0  0  0  0  0  0  # atno 10764 bound_to 10752
  153.1205  135.6781  153.9445 H   0  0  0  0  0  0  0  0  0  0  0  0  # atno 10765 bound_to 10752
  141.0684  133.9420  157.2533 H   0  0  0  0  0  0  0  0  0  0  0  0  # atno 11005 bound_to 11000
  145.3929  139.1613  143.4219 LP  0  0  0  0  0  0  0  0  0  0  0  0  # atno 17320 bound_to 7965
  146.3003  140.4020  142.8706 LP  0  0  0  0  0  0  0  0  0  0  0  0  # atno 17321 bound_to 7965
  139.8470  144.7182  150.9260 LP  0  0  0  0  0  0  0  0  0  0  0  0  # atno 17342 bound_to 10162
  140.7800  143.3932  151.1274 LP  0  0  0  0  0  0  0  0  0  0  0  0  # atno 17343 bound_to 10162
  156.6108  130.4379  149.5860 LP  0  0  0  0  0  0  0  0  0  0  0  0  # atno 17370 bound_to 10713
  156.2432  130.6863  151.1575 LP  0  0  0  0  0  0  0  0  0  0  0  0  # atno 17371 bound_to 10713
  139.9499  135.0177  156.8963 LP  0  0  0  0  0  0  0  0  0  0  0  0  # atno 17394 bound_to 11000
  140.5724  134.0430  155.7435 LP  0  0  0  0  0  0  0  0  0  0  0  0  # atno 17395 bound_to 11000

$$$$
