#       Name:                AV-unprocessed.smi:69
#       Creating user name   scv26
#       Creation time:       Thu Mar 26 16:55:54 2020


#       File generated by GOLD software.
#

@<TRIPOS>MOLECULE
AV-unprocessed.smi:69
    43    45     1
SMALL
NO_CHARGES


@<TRIPOS>ATOM
      1 ****        -5.1761   0.1008   0.2315 N.pl3          1 S1                 0.0000
      2 ****        -3.8702   0.4017   0.2430 C.ar           1 S1                 0.0000
      3 ****        -3.5110   1.7062   0.2720 N.ar           1 S1                 0.0000
      4 ****        -2.2142   2.0311   0.2808 C.ar           1 S1                 0.0000
      5 ****        -1.1509   1.2235   0.2645 N.ar           1 S1                 0.0000
      6 ****        -1.5138  -0.0923   0.2361 C.ar           1 S1                 0.0000
      7 ****        -2.8495  -0.5821   0.2230 C.ar           1 S1                 0.0000
      8 ****        -2.8452  -1.9697   0.1898 N.2            1 S1                 0.0000
      9 ****        -1.5765  -2.2786   0.1813 C.2            1 S1                 0.0000
     10 ****        -0.7042  -1.2119   0.2022 N.pl3          1 S1                 0.0000
     11 ****         0.7951  -1.2683   0.1888 C.3            1 S1                 0.0000
     12 ****         1.3091  -0.2681   1.0193 O.3            1 S1                 0.0000
     13 ****         2.1419   0.6243   0.2783 C.3            1 S1                 0.0000
     14 ****         3.2733   1.1462   1.1775 C.3            1 S1                 0.0000
     15 ****         2.8158   2.2309   1.9564 O.3            1 S1                 0.0000
     16 ****         2.6347  -0.2474  -0.8785 C.3            1 S1                 0.0000
     17 ****         3.1203   0.5027  -1.9760 O.3            1 S1                 0.0000
     18 ****         1.4013  -1.0732  -1.2147 C.3            1 S1                 0.0000
     19 ****         0.5335  -0.4186  -2.1275 O.3            1 S1                 0.0000
     20 ****         1.0402  -2.2387   0.6227 H              1 S1                 0.0000
     21 ****         1.5426   1.4461  -0.1168 H              1 S1                 0.0000
     22 ****         3.4237  -0.9137  -0.5259 H              1 S1                 0.0000
     23 ****         1.6672  -2.0435  -1.6352 H              1 S1                 0.0000
     24 ****        -5.4683  -0.8655   0.2075 H              1 S1                 0.0000
     25 ****        -5.8637   0.8400   0.2472 H              1 S1                 0.0000
     26 ****        -1.9963   3.0888   0.3036 H              1 S1                 0.0000
     27 ****        -1.2386  -3.3043   0.1542 H              1 S1                 0.0000
     28 ****         3.6680   0.3572   1.8182 H              1 S1                 0.0000
     29 ****         4.0996   1.5104   0.5663 H              1 S1                 0.0000
     30 ****         3.5344   2.5482   2.4816 H              1 S1                 0.0000
     31 ****         3.2562  -0.0840  -2.7040 H              1 S1                 0.0000
     32 ****        -0.2794  -0.8991  -2.1658 H              1 S1                 0.0000
     33 ****        -4.2099   2.4213   0.2867 LP             1 S1                 0.0000
     34 ****        -0.2036   1.5437   0.2721 LP             1 S1                 0.0000
     35 ****        -3.6305  -2.5885   0.1756 LP             1 S1                 0.0000
     36 ****         1.8478  -0.6910   1.7479 LP             1 S1                 0.0000
     37 ****         0.5516   0.2468   1.4206 LP             1 S1                 0.0000
     38 ****         2.0713   1.9283   2.5514 LP             1 S1                 0.0000
     39 ****         2.4878   2.9614   1.3573 LP             1 S1                 0.0000
     40 ****         3.9852   0.9400  -1.7294 LP             1 S1                 0.0000
     41 ****         2.4525   1.2032  -2.2276 LP             1 S1                 0.0000
     42 ****         0.9541  -0.3944  -3.0345 LP             1 S1                 0.0000
     43 ****         0.3589   0.5155  -1.8161 LP             1 S1                 0.0000
@<TRIPOS>BOND
    1    1    2 1     
    2    1   24 1     
    3    1   25 1     
    4    2    7 ar    
    5    2    3 ar    
    6    3    4 ar    
    7    4    5 ar    
    8    4   26 1     
    9    5    6 ar    
   10    6   10 1     
   11    6    7 ar    
   12    7    8 1     
   13    8    9 2     
   14    9   10 1     
   15    9   27 1     
   16   10   11 1     
   17   11   20 1     
   18   11   18 1     
   19   11   12 1     
   20   12   13 1     
   21   13   21 1     
   22   13   14 1     
   23   13   16 1     
   24   14   15 1     
   25   14   28 1     
   26   14   29 1     
   27   15   30 1     
   28   16   22 1     
   29   16   17 1     
   30   16   18 1     
   31   17   31 1     
   32   18   23 1     
   33   18   19 1     
   34   19   32 1     
   35    3   33 1     
   36    5   34 1     
   37    8   35 1     
   38   12   36 1     
   39   12   37 1     
   40   15   38 1     
   41   15   39 1     
   42   17   40 1     
   43   17   41 1     
   44   19   42 1     
   45   19   43 1     
@<TRIPOS>SUBSTRUCTURE
      1 S1             1
@<TRIPOS>SET
LONE_PAIRS      STATIC     ATOMS    <user>   **** ""
11 33 34 35 36 37 38 39 40 41 42 43
DONOR_HYDROGENS      STATIC     ATOMS    <user>   **** ""
5 24 25 30 31 32
ATOM$BLUE        STATIC     ATOMS    COLORGROUP SYSTEM
11 33 34 35 36 37 38 39 40 41 42 43
ATOM$RED        STATIC     ATOMS    COLORGROUP SYSTEM
5 24 25 30 31 32
