AV-unprocessed.smi:2194|AV-procd|sdf|8903|dock9
  -GOLD-   2272012113D 1   1.00000     0.00000
 Structure written by MMmdl.
 45 47  0  0  0  0  0  0  0  0  1 V2000
  152.2892  143.2381  161.5867 C   0  0  0  0  0  0  0  0  0  0  0  0
  152.3689  142.3326  160.3751 C   0  0  0  0  0  0  0  0  0  0  0  0
  153.0487  141.1010  160.4518 C   0  0  0  0  0  0  0  0  0  0  0  0
  153.1190  140.2616  159.3233 C   0  0  0  0  0  0  0  0  0  0  0  0
  152.5136  140.6350  158.1058 C   0  0  0  0  0  0  0  0  0  0  0  0
  152.6314  139.7537  157.0524 O   0  0  0  0  0  0  0  0  0  0  0  0
  152.0914  140.1338  155.7936 C   0  0  0  0  0  0  0  0  0  0  0  0
  151.5958  138.8778  155.0618 C   0  0  1  0  0  0  0  0  0  0  0  0
  152.7178  138.2028  154.5279 O   0  0  0  0  0  0  0  0  0  0  0  0
  150.7918  137.9391  155.9844 C   0  0  0  0  0  0  0  0  0  0  0  0
  149.8924  137.0648  155.2465 N   0  0  0  0  0  0  0  0  0  0  0  0
  148.8623  137.4609  154.4719 C   0  0  0  0  0  0  0  0  0  0  0  0
  148.1759  136.4820  153.8820 N   0  0  0  0  0  0  0  0  0  0  0  0
  148.8418  135.3468  154.3319 C   0  0  0  0  0  0  0  0  0  0  0  0
  149.8716  135.6732  155.1511 C   0  0  0  0  0  0  0  0  0  0  0  0
  150.7515  134.6718  155.7637 C   0  0  0  0  0  0  0  0  0  0  0  0
  151.6854  134.9980  156.4978 O   0  0  0  0  0  0  0  0  0  0  0  0
  150.4374  133.3795  155.4366 N   0  0  0  0  0  0  0  0  0  0  0  0
  151.2928  132.3280  156.0194 C   0  0  0  0  0  0  0  0  0  0  0  0
  149.4137  132.9992  154.5849 C   0  0  0  0  0  0  0  0  0  0  0  0
  149.2227  131.8146  154.2964 O   0  0  0  0  0  0  0  0  0  0  0  0
  148.6069  133.9753  154.0547 N   0  0  0  0  0  0  0  0  0  0  0  0
  147.5008  133.6084  153.1658 C   0  0  0  0  0  0  0  0  0  0  0  0
  151.8281  141.8744  158.0365 C   0  0  0  0  0  0  0  0  0  0  0  0
  151.7578  142.7149  159.1646 C   0  0  0  0  0  0  0  0  0  0  0  0
  153.1324  143.0688  162.2571 H   0  0  0  0  0  0  0  0  0  0  0  0
  151.3678  143.0488  162.1379 H   0  0  0  0  0  0  0  0  0  0  0  0
  152.3016  144.2869  161.2878 H   0  0  0  0  0  0  0  0  0  0  0  0
  153.5184  140.7953  161.3754 H   0  0  0  0  0  0  0  0  0  0  0  0
  153.6436  139.3199  159.3933 H   0  0  0  0  0  0  0  0  0  0  0  0
  151.2563  140.8183  155.9528 H   0  0  0  0  0  0  0  0  0  0  0  0
  152.8404  140.6482  155.1889 H   0  0  0  0  0  0  0  0  0  0  0  0
  150.9712  139.1804  154.2203 H   0  0  0  0  0  0  0  0  0  0  0  0
  153.4169  138.2334  155.1631 H   0  0  0  0  0  0  0  0  0  0  0  0
  151.4538  137.3403  156.6084 H   0  0  0  0  0  0  0  0  0  0  0  0
  150.1899  138.5307  156.6753 H   0  0  0  0  0  0  0  0  0  0  0  0
  148.6105  138.5020  154.3326 H   0  0  0  0  0  0  0  0  0  0  0  0
  150.8244  131.3437  156.0524 H   0  0  0  0  0  0  0  0  0  0  0  0
  151.5677  132.5478  157.0526 H   0  0  0  0  0  0  0  0  0  0  0  0
  152.2131  132.2359  155.4412 H   0  0  0  0  0  0  0  0  0  0  0  0
  146.8497  132.8726  153.6403 H   0  0  0  0  0  0  0  0  0  0  0  0
  147.8846  133.1781  152.2398 H   0  0  0  0  0  0  0  0  0  0  0  0
  146.8758  134.4599  152.8971 H   0  0  0  0  0  0  0  0  0  0  0  0
  151.3459  142.2041  157.1289 H   0  0  0  0  0  0  0  0  0  0  0  0
  151.2314  143.6558  159.0971 H   0  0  0  0  0  0  0  0  0  0  0  0
  1  2  1  0  0  0  0
  1 26  1  0  0  0  0
  1 27  1  0  0  0  0
  1 28  1  0  0  0  0
  2 25  1  0  0  0  0
  2  3  2  0  0  0  0
  3  4  1  0  0  0  0
  3 29  1  0  0  0  0
  4  5  2  0  0  0  0
  4 30  1  0  0  0  0
  5  6  1  0  0  0  0
  5 24  1  0  0  0  0
  6  7  1  0  0  0  0
  7  8  1  0  0  0  0
  7 31  1  0  0  0  0
  7 32  1  0  0  0  0
  8  9  1  0  0  0  0
  8 10  1  0  0  0  0
  8 33  1  0  0  0  0
  9 34  1  0  0  0  0
 10 11  1  0  0  0  0
 10 35  1  0  0  0  0
 10 36  1  0  0  0  0
 11 15  1  0  0  0  0
 11 12  1  0  0  0  0
 12 13  2  0  0  0  0
 12 37  1  0  0  0  0
 13 14  1  0  0  0  0
 14 22  1  0  0  0  0
 14 15  2  0  0  0  0
 15 16  1  0  0  0  0
 16 17  2  0  0  0  0
 16 18  1  0  0  0  0
 18 19  1  0  0  0  0
 18 20  1  0  0  0  0
 19 38  1  0  0  0  0
 19 39  1  0  0  0  0
 19 40  1  0  0  0  0
 20 21  2  0  0  0  0
 20 22  1  0  0  0  0
 22 23  1  0  0  0  0
 23 41  1  0  0  0  0
 23 42  1  0  0  0  0
 23 43  1  0  0  0  0
 24 25  2  0  0  0  0
 24 44  1  0  0  0  0
 25 45  1  0  0  0  0
M  END
> <s_m_source_file>
AV-unprocessed.smi

> <i_m_source_file_index>
2194

> <i_lp_mmshare_version>
43012

> <i_f3d_flags>
0

> <s_epik_input>
W0NIM11jMVtjSF1bY0hdYyhbY0hdW2NIXTEpT1tDSDJdW0NASF0oW09IXSlbQ0gyXW4oW2NIXW4yKWMoYzIzKWMoPU8pbihbQ0gzXSljKD1PKW4zW0NIM10=

> <s_epik_cmdline>
J2VwaWtfcHl0aG9uJywgJy1waCcsICc3LjAnLCAnLXRuJywgJzgnLCAnLW1hJywgJzIwMCcsICctbWV0YWxfYmluZGluZycsICctaW1hZScsICc8aW5maWxlLm1hZT4nLCAnLW9tYWUnLCAnPG91dGZpbGUubWFlPic=

> <r_lp_tautomer_probability>
1

> <r_epik_Ionization_Penalty>
1.06124e-06

> <r_epik_Ionization_Penalty_Charging>
3.25921e-09

> <r_epik_Ionization_Penalty_Neutral>
1.05798e-06

> <r_epik_State_Penalty>
-0

> <r_epik_Charging_Adjusted_Penalty>
3.25921e-09

> <i_epik_Tot_Q>
0

> <i_epik_Tot_abs_Q>
0

> <r_epik_Metal_State_Penalty>
-0

> <b_epik_Metal_Only>
0

> <s_lp_Force_Field>
OPLS_2005

> <r_lp_Energy>
38.6758

> <b_lp_Chiralities_Consistent>
1

> <s_lp_Variant>
AV-unprocessed.smi:2194-2

> <Gold.Version>
5.8.1

> <Gold.Id.Protein>
6NUR|6NUR_protein|mol2

> <Gold.PLP.Fitness>
47.0681

> <Gold.PLP.PLP>
-42.2132

> <Gold.PLP.part.hbond>
-3.0054

> <Gold.PLP.part.metal>
0.0000

> <Gold.PLP.part.buried>
-6.2170

> <Gold.PLP.part.nonpolar>
-33.3237

> <Gold.PLP.part.repulsive>
1.3610

> <Gold.PLP.ligand.clash>
0.0000

> <Gold.PLP.ligand.torsion>
0.5815

> <Gold.PLP.Chemscore.Hbond>
2.0000

> <Gold.PLP.Chemscore.CHOScore>
0.0000

> <Gold.PLP.Chemscore.Metal>
0.0000

> <Gold.Chemscore.Hbonds>
donor molecule, donor type, donor heavy atom, donor atom, acceptor molecule, acceptor atom, score
      P1  H  7997  8009       L1     6  0.55
      P1  H 10752 10764       L1    17  0.51

> <Gold.PLP.Chemscore.Internal.Correction>
0.0179

> <Gold.Rescore>
     Score         DG    S(hbond)    S(metal)    S(lipo)     H(rot)  DE(clash)    DE(int)     intcor
     12.20     -13.05       1.04        0.00      93.74       2.69       0.03       0.82       ----

> <Gold.Chemscore.Fitness>
12.2042

> <Gold.Chemscore.DG>
-13.0474

> <Gold.Chemscore.ZeroCoef>
-5.4800

> <Gold.Chemscore.Hbond>
1.0427

> <Gold.Chemscore.Metal>
0.0000

> <Gold.Chemscore.Lipo>
93.7375

> <Gold.Chemscore.Internal_Hbond>
0.0000

> <Gold.Chemscore.DEClash>
0.0274

> <Gold.Chemscore.DEInternal>
0.8157

> <Gold.Chemscore.Rot>
2.6885

> <Gold.Chemscore.Internal.Correction>
   9.000000E+99

> <Gold.Chemscore.Hbonds>
donor molecule, donor type, donor heavy atom, donor atom, acceptor molecule, acceptor atom, score
      P1  H  7997  8009       L1     6  0.01
      P1  H 10752 10764       L1    17  0.37

> <Gold.Chemscore.Hbond.Weighted>
-3.4826

> <Gold.Chemscore.Metal.Weighted>
-0.0000

> <Gold.Chemscore.Lipo.Weighted>
-10.9673

> <Gold.Chemscore.Internal_Hbond.Weighted>
0.0000

> <Gold.Chemscore.DEClash.Weighted>
0.0274

> <Gold.Chemscore.DEInternal.Weighted>
0.8157

> <Gold.Chemscore.Rot.Weighted>
6.8825

> <Gold.Chemscore.Internal.Correction.Weighted>
   9.000000E+99

> <Gold.Protein.RotatedTorsions>
[ 6907 6896 6895 6894 ] final   35.32 input  -60.11 | X-H torsion
[ 7974 7965 7964 7962 ] final -134.26 input  175.53 | X-H torsion
[ 8008 7997 7996 7995 ] final -169.51 input   59.86 | X-H torsion
[ 10167 10162 10161 10158 ] final -178.82 input  -65.29 | X-H torsion
[ 10718 10713 10712 10709 ] final -179.98 input   66.30 | X-H torsion
[ 10763 10752 10751 10750 ] final   -3.30 input  -60.55 | X-H torsion
[ 11005 11000 10999 10996 ] final   89.08 input  -57.11 | X-H torsion

> <Gold.Protein.ActiveResidues>
 VAL166  LYS551  ARG553  GLY616  TRP617  ASP618  TYR619  PRO620  LYS621  CYS622 
 ASP623  PHE694  ASN695  SER759  ASP760  ASP761  ALA762  ILE779  LEU786  VAL792 
 PHE793  MET794  SER795  GLU796  ALA797  LYS798  CYS799  TRP800  GLU811  SER814 

> <Gold.Protein.RotatedAtoms>
  152.1146  134.9250  160.0565 H   0  0  0  0  0  0  0  0  0  0  0  0  # atno 6907 bound_to 6896
  152.0414  133.3974  159.4347 H   0  0  0  0  0  0  0  0  0  0  0  0  # atno 6908 bound_to 6896
  150.6845  134.3331  159.4879 H   0  0  0  0  0  0  0  0  0  0  0  0  # atno 6909 bound_to 6896
  144.9119  140.6905  143.5020 H   0  0  0  0  0  0  0  0  0  0  0  0  # atno 7974 bound_to 7965
  155.9060  140.1049  157.1315 H   0  0  0  0  0  0  0  0  0  0  0  0  # atno 8008 bound_to 7997
  154.4032  140.1283  156.4561 H   0  0  0  0  0  0  0  0  0  0  0  0  # atno 8009 bound_to 7997
  155.7367  140.3467  155.5087 H   0  0  0  0  0  0  0  0  0  0  0  0  # atno 8010 bound_to 7997
  139.5415  144.2351  152.0904 H   0  0  0  0  0  0  0  0  0  0  0  0  # atno 10167 bound_to 10162
  156.8672  130.9771  151.3077 H   0  0  0  0  0  0  0  0  0  0  0  0  # atno 10718 bound_to 10713
  153.3695  135.6994  153.6649 H   0  0  0  0  0  0  0  0  0  0  0  0  # atno 10763 bound_to 10752
  153.5304  135.3593  155.2674 H   0  0  0  0  0  0  0  0  0  0  0  0  # atno 10764 bound_to 10752
  154.8679  135.4179  154.2970 H   0  0  0  0  0  0  0  0  0  0  0  0  # atno 10765 bound_to 10752
  139.8882  134.8529  156.3092 H   0  0  0  0  0  0  0  0  0  0  0  0  # atno 11005 bound_to 11000
  145.3440  139.1724  143.4470 LP  0  0  0  0  0  0  0  0  0  0  0  0  # atno 17320 bound_to 7965
  146.3162  140.3485  142.8654 LP  0  0  0  0  0  0  0  0  0  0  0  0  # atno 17321 bound_to 7965
  140.1830  144.4825  150.6518 LP  0  0  0  0  0  0  0  0  0  0  0  0  # atno 17342 bound_to 10162
  140.6646  143.2263  151.5773 LP  0  0  0  0  0  0  0  0  0  0  0  0  # atno 17343 bound_to 10162
  157.6216  130.8660  149.9119 LP  0  0  0  0  0  0  0  0  0  0  0  0  # atno 17370 bound_to 10713
  156.0745  130.3680  150.0705 LP  0  0  0  0  0  0  0  0  0  0  0  0  # atno 17371 bound_to 10713
  140.9862  133.7237  156.0745 LP  0  0  0  0  0  0  0  0  0  0  0  0  # atno 17394 bound_to 11000
  140.7685  134.3859  157.5512 LP  0  0  0  0  0  0  0  0  0  0  0  0  # atno 17395 bound_to 11000

$$$$
