AV-unprocessed.smi:2489|AV-procd|sdf|9801|dock8
  -GOLD-   2272013433D 1   1.00000     0.00000
 Structure written by MMmdl.
 33 34  0  0  0  0  0  0  0  0  1 V2000
  151.8698  145.6072  160.1118 C   0  0  0  0  0  0  0  0  0  0  0  0
  151.6985  144.3684  160.7857 O   0  0  0  0  0  0  0  0  0  0  0  0
  152.0916  143.2270  160.1256 C   0  0  0  0  0  0  0  0  0  0  0  0
  153.1114  142.3140  160.6363 C   0  0  0  0  0  0  0  0  0  0  0  0
  153.4142  141.2287  159.9088 C   0  0  0  0  0  0  0  0  0  0  0  0
  152.7931  140.9511  158.6998 N   0  0  0  0  0  0  0  0  0  0  0  0
  151.8046  141.7859  158.1488 C   0  0  0  0  0  0  0  0  0  0  0  0
  151.1859  141.5815  157.0222 N   0  0  0  0  0  0  0  0  0  0  0  0
  151.4373  140.4742  156.2162 C   0  0  0  0  0  0  0  0  0  0  0  0
  152.4838  139.8367  156.0671 O   0  0  0  0  0  0  0  0  0  0  0  0
  150.1854  140.0426  155.4404 C   0  0  2  0  0  0  0  0  0  0  0  0
  149.5298  141.1963  154.6608 C   0  0  0  0  0  0  0  0  0  0  0  0
  148.2345  141.4426  155.4083 C   0  0  0  0  0  0  0  0  0  0  0  0
  147.9199  140.0558  155.9567 C   0  0  2  0  0  0  0  0  0  0  0  0
  146.9454  140.0561  157.1392 C   0  0  0  0  0  0  0  0  0  0  0  0
  149.1950  139.5810  156.3605 O   0  0  0  0  0  0  0  0  0  0  0  0
  151.4838  142.9623  158.9453 C   0  0  0  0  0  0  0  0  0  0  0  0
  151.5198  146.4153  160.7539 H   0  0  0  0  0  0  0  0  0  0  0  0
  151.2878  145.6458  159.1898 H   0  0  0  0  0  0  0  0  0  0  0  0
  152.9199  145.7991  159.8869 H   0  0  0  0  0  0  0  0  0  0  0  0
  153.6266  142.4822  161.5698 H   0  0  0  0  0  0  0  0  0  0  0  0
  154.1551  140.5028  160.2092 H   0  0  0  0  0  0  0  0  0  0  0  0
  150.4365  139.2267  154.7604 H   0  0  0  0  0  0  0  0  0  0  0  0
  150.1418  142.0978  154.6017 H   0  0  0  0  0  0  0  0  0  0  0  0
  149.3184  140.8765  153.6396 H   0  0  0  0  0  0  0  0  0  0  0  0
  148.4057  142.1457  156.2246 H   0  0  0  0  0  0  0  0  0  0  0  0
  147.4434  141.8409  154.7726 H   0  0  0  0  0  0  0  0  0  0  0  0
  147.5446  139.4148  155.1569 H   0  0  0  0  0  0  0  0  0  0  0  0
  145.9729  140.4505  156.8439 H   0  0  0  0  0  0  0  0  0  0  0  0
  147.3205  140.6679  157.9603 H   0  0  0  0  0  0  0  0  0  0  0  0
  146.7948  139.0454  157.5188 H   0  0  0  0  0  0  0  0  0  0  0  0
  150.7360  143.6655  158.6070 H   0  0  0  0  0  0  0  0  0  0  0  0
  153.0897  140.1105  158.2243 H   0  0  0  0  0  0  0  0  0  0  0  0
  1  2  1  0  0  0  0
  1 18  1  0  0  0  0
  1 19  1  0  0  0  0
  1 20  1  0  0  0  0
  2  3  1  0  0  0  0
  3 17  2  0  0  0  0
  3  4  1  0  0  0  0
  4  5  2  0  0  0  0
  4 21  1  0  0  0  0
  5  6  1  0  0  0  0
  5 22  1  0  0  0  0
  6  7  1  0  0  0  0
  6 33  1  0  0  0  0
  7  8  2  0  0  0  0
  7 17  1  0  0  0  0
  8  9  1  0  0  0  0
  9 10  2  0  0  0  0
  9 11  1  0  0  0  0
 11 16  1  0  0  0  0
 11 12  1  0  0  0  0
 11 23  1  0  0  0  0
 12 13  1  0  0  0  0
 12 24  1  0  0  0  0
 12 25  1  0  0  0  0
 13 14  1  0  0  0  0
 13 26  1  0  0  0  0
 13 27  1  0  0  0  0
 14 15  1  0  0  0  0
 14 16  1  0  0  0  0
 14 28  1  0  0  0  0
 15 29  1  0  0  0  0
 15 30  1  0  0  0  0
 15 31  1  0  0  0  0
 17 32  1  0  0  0  0
M  END
> <s_m_source_file>
AV-unprocessed.smi

> <i_m_source_file_index>
2489

> <i_lp_mmshare_version>
43012

> <i_f3d_flags>
0

> <s_epik_input>
W0NIM11PYzFbY0hdW2NIXW5jKFtjSF0xKVtOSF1DKD1PKVtDQEBIXTJbQ0gyXVtDSDJdW0NASF0oTzIpW0NIM10=

> <s_epik_cmdline>
J2VwaWtfcHl0aG9uJywgJy1waCcsICc3LjAnLCAnLXRuJywgJzgnLCAnLW1hJywgJzIwMCcsICctbWV0YWxfYmluZGluZycsICctaW1hZScsICc8aW5maWxlLm1hZT4nLCAnLW9tYWUnLCAnPG91dGZpbGUubWFlPic=

> <r_epik_Ionization_Penalty>
0.410206

> <r_epik_Ionization_Penalty_Charging>
0.410206

> <r_epik_Ionization_Penalty_Neutral>
6.57528e-13

> <r_epik_State_Penalty>
1.30987

> <r_epik_Charging_Adjusted_Penalty>
1.72007

> <i_epik_Tot_Q>
0

> <i_epik_Tot_abs_Q>
0

> <r_epik_Metal_State_Penalty>
1.32171

> <b_epik_Metal_Only>
0

> <s_lp_Force_Field>
OPLS_2005

> <r_lp_Energy>
35.4329

> <b_lp_Chiralities_Consistent>
1

> <s_lp_Variant>
AV-unprocessed.smi:2489-7

> <Gold.Version>
5.8.1

> <Gold.Id.Protein>
6NUR|6NUR_protein|mol2

> <Gold.PLP.Fitness>
34.7159

> <Gold.PLP.PLP>
-32.2963

> <Gold.PLP.part.hbond>
-1.0000

> <Gold.PLP.part.metal>
0.0000

> <Gold.PLP.part.buried>
-3.4962

> <Gold.PLP.part.nonpolar>
-27.0290

> <Gold.PLP.part.repulsive>
0.2722

> <Gold.PLP.ligand.clash>
0.0000

> <Gold.PLP.ligand.torsion>
0.2931

> <Gold.PLP.Chemscore.Hbond>
1.0000

> <Gold.PLP.Chemscore.CHOScore>
0.0000

> <Gold.PLP.Chemscore.Metal>
0.0000

> <Gold.Chemscore.Hbonds>
donor molecule, donor type, donor heavy atom, donor atom, acceptor molecule, acceptor atom, score
      P1  H  7997  8010       L1    10  1.00

> <Gold.PLP.Chemscore.Internal.Correction>
0.0058

> <Gold.Rescore>
     Score         DG    S(hbond)    S(metal)    S(lipo)     H(rot)  DE(clash)    DE(int)     intcor
     12.95     -14.57       1.00        0.00      76.04       1.23       0.09       1.53       ----

> <Gold.Chemscore.Fitness>
12.9488

> <Gold.Chemscore.DG>
-14.5664

> <Gold.Chemscore.ZeroCoef>
-5.4800

> <Gold.Chemscore.Hbond>
0.9966

> <Gold.Chemscore.Metal>
0.0000

> <Gold.Chemscore.Lipo>
76.0448

> <Gold.Chemscore.Internal_Hbond>
0.0000

> <Gold.Chemscore.DEClash>
0.0889

> <Gold.Chemscore.DEInternal>
1.5287

> <Gold.Chemscore.Rot>
1.2264

> <Gold.Chemscore.Internal.Correction>
   9.000000E+99

> <Gold.Chemscore.Hbonds>
donor molecule, donor type, donor heavy atom, donor atom, acceptor molecule, acceptor atom, score
      P1  H  7997  8010       L1    10  0.97

> <Gold.Chemscore.Hbond.Weighted>
-3.3287

> <Gold.Chemscore.Metal.Weighted>
-0.0000

> <Gold.Chemscore.Lipo.Weighted>
-8.8972

> <Gold.Chemscore.Internal_Hbond.Weighted>
0.0000

> <Gold.Chemscore.DEClash.Weighted>
0.0889

> <Gold.Chemscore.DEInternal.Weighted>
1.5287

> <Gold.Chemscore.Rot.Weighted>
3.1396

> <Gold.Chemscore.Internal.Correction.Weighted>
   9.000000E+99

> <Gold.Protein.RotatedTorsions>
[ 6907 6896 6895 6894 ] final -157.57 input  -60.11 | X-H torsion
[ 7974 7965 7964 7962 ] final  -39.35 input  175.53 | X-H torsion
[ 8008 7997 7996 7995 ] final   97.24 input   59.86 | X-H torsion
[ 10167 10162 10161 10158 ] final   54.37 input  -65.29 | X-H torsion
[ 10718 10713 10712 10709 ] final  122.84 input   66.30 | X-H torsion
[ 10763 10752 10751 10750 ] final   96.97 input  -60.55 | X-H torsion
[ 11005 11000 10999 10996 ] final  -94.21 input  -57.11 | X-H torsion

> <Gold.Protein.ActiveResidues>
 VAL166  LYS551  ARG553  GLY616  TRP617  ASP618  TYR619  PRO620  LYS621  CYS622 
 ASP623  PHE694  ASN695  SER759  ASP760  ASP761  ALA762  ILE779  LEU786  VAL792 
 PHE793  MET794  SER795  GLU796  ALA797  LYS798  CYS799  TRP800  GLU811  SER814 

> <Gold.Protein.RotatedAtoms>
  151.3048  133.4106  159.2642 H   0  0  0  0  0  0  0  0  0  0  0  0  # atno 6907 bound_to 6896
  151.0164  134.9437  159.8046 H   0  0  0  0  0  0  0  0  0  0  0  0  # atno 6908 bound_to 6896
  152.5313  134.3012  159.9131 H   0  0  0  0  0  0  0  0  0  0  0  0  # atno 6909 bound_to 6896
  146.0404  140.6616  142.9090 H   0  0  0  0  0  0  0  0  0  0  0  0  # atno 7974 bound_to 7965
  156.0881  140.3261  155.7779 H   0  0  0  0  0  0  0  0  0  0  0  0  # atno 8008 bound_to 7997
  155.5043  140.0572  157.2951 H   0  0  0  0  0  0  0  0  0  0  0  0  # atno 8009 bound_to 7997
  154.4621  140.1971  156.0233 H   0  0  0  0  0  0  0  0  0  0  0  0  # atno 8010 bound_to 7997
  140.2308  144.3689  150.6415 H   0  0  0  0  0  0  0  0  0  0  0  0  # atno 10167 bound_to 10162
  157.5711  131.1083  150.8365 H   0  0  0  0  0  0  0  0  0  0  0  0  # atno 10718 bound_to 10713
  153.2713  135.4199  155.0991 H   0  0  0  0  0  0  0  0  0  0  0  0  # atno 10763 bound_to 10752
  154.8457  135.3473  154.6240 H   0  0  0  0  0  0  0  0  0  0  0  0  # atno 10764 bound_to 10752
  153.6660  135.7046  153.5219 H   0  0  0  0  0  0  0  0  0  0  0  0  # atno 10765 bound_to 10752
  141.1477  133.7940  157.0266 H   0  0  0  0  0  0  0  0  0  0  0  0  # atno 11005 bound_to 11000
  144.7072  140.3897  143.7109 LP  0  0  0  0  0  0  0  0  0  0  0  0  # atno 17320 bound_to 7965
  145.6894  139.1636  143.2655 LP  0  0  0  0  0  0  0  0  0  0  0  0  # atno 17321 bound_to 7965
  140.6186  143.2174  151.6740 LP  0  0  0  0  0  0  0  0  0  0  0  0  # atno 17342 bound_to 10162
  139.5110  144.3522  152.0641 LP  0  0  0  0  0  0  0  0  0  0  0  0  # atno 17343 bound_to 10162
  156.8837  130.5188  149.5289 LP  0  0  0  0  0  0  0  0  0  0  0  0  # atno 17370 bound_to 10713
  156.0756  130.5779  150.9468 LP  0  0  0  0  0  0  0  0  0  0  0  0  # atno 17371 bound_to 10713
  140.0781  134.9664  157.1579 LP  0  0  0  0  0  0  0  0  0  0  0  0  # atno 17394 bound_to 11000
  140.3615  134.2489  155.7186 LP  0  0  0  0  0  0  0  0  0  0  0  0  # atno 17395 bound_to 11000

$$$$
