AV-unprocessed.smi:824|AV-procd|sdf|3848|dock3
  -GOLD-   22720 1293D 1   1.00000     0.00000
 Structure written by MMmdl.
 52 53  0  0  0  0  0  0  0  0  1 V2000
  148.8595  140.7179  154.5610 C   0  0  0  0  0  0  0  0  0  0  0  0
  149.9759  140.8041  155.5868 C   0  0  0  0  0  0  0  0  0  0  0  0
  150.0476  142.0041  156.3050 N   0  0  0  0  0  0  0  0  0  0  0  0
  150.9692  142.1769  157.2000 C   0  0  0  0  0  0  0  0  0  0  0  0
  151.1441  143.3195  157.9845 N   0  0  0  0  0  0  0  0  0  0  0  0
  152.0463  144.4010  157.5799 C   0  0  0  0  0  0  0  0  0  0  0  0
  152.4900  145.2422  158.7885 C   0  0  0  0  0  0  0  0  0  0  0  0
  151.3479  145.7341  159.4759 O   0  0  0  0  0  0  0  0  0  0  0  0
  150.5490  144.6715  159.9770 C   0  0  0  0  0  0  0  0  0  0  0  0
  150.0398  143.8106  158.8089 C   0  0  0  0  0  0  0  0  0  0  0  0
  151.8914  141.1580  157.4629 N   0  0  0  0  0  0  0  0  0  0  0  0
  151.9034  139.9642  156.8301 C   0  0  0  0  0  0  0  0  0  0  0  0
  152.7437  139.1138  157.1196 O   0  0  0  0  0  0  0  0  0  0  0  0
  150.8556  139.7885  155.8115 C   0  0  0  0  0  0  0  0  0  0  0  0
  150.8252  138.4705  155.0426 C   0  0  0  0  0  0  0  0  0  0  0  0
  150.0730  137.3685  155.8147 C   0  0  0  0  0  0  0  0  0  0  0  0
  150.5699  135.9430  155.5118 C   0  0  0  0  0  0  0  0  0  0  0  0
  151.7474  135.6554  155.7351 O   0  0  0  0  0  0  0  0  0  0  0  0
  149.6906  135.0428  155.0089 N   0  0  0  0  0  0  0  0  0  0  0  0
  148.2959  135.3823  154.7081 C   0  0  0  0  0  0  0  0  0  0  0  0
  150.0992  133.6667  154.6851 C   0  0  0  0  0  0  0  0  0  0  0  0
  148.9038  132.7369  154.3713 C   0  0  0  0  0  0  0  0  0  0  0  0
  149.2855  131.2678  154.6041 C   0  0  0  0  0  0  0  0  0  0  0  0
  148.3582  132.9334  152.9464 C   0  0  0  0  0  0  0  0  0  0  0  0
  152.5926  141.3151  158.1719 H   0  0  0  0  0  0  0  0  0  0  0  0
  148.2688  139.8137  154.7090 H   0  0  0  0  0  0  0  0  0  0  0  0
  149.2715  140.7034  153.5517 H   0  0  0  0  0  0  0  0  0  0  0  0
  148.1852  141.5721  154.6362 H   0  0  0  0  0  0  0  0  0  0  0  0
  152.9349  144.0207  157.0763 H   0  0  0  0  0  0  0  0  0  0  0  0
  151.5270  145.0348  156.8597 H   0  0  0  0  0  0  0  0  0  0  0  0
  153.1128  144.6537  159.4642 H   0  0  0  0  0  0  0  0  0  0  0  0
  153.0935  146.0870  158.4559 H   0  0  0  0  0  0  0  0  0  0  0  0
  151.1230  144.0687  160.6828 H   0  0  0  0  0  0  0  0  0  0  0  0
  149.7074  145.0905  160.5284 H   0  0  0  0  0  0  0  0  0  0  0  0
  149.3640  144.3934  158.1817 H   0  0  0  0  0  0  0  0  0  0  0  0
  149.4620  142.9771  159.2104 H   0  0  0  0  0  0  0  0  0  0  0  0
  150.3627  138.6200  154.0670 H   0  0  0  0  0  0  0  0  0  0  0  0
  151.8477  138.1549  154.8284 H   0  0  0  0  0  0  0  0  0  0  0  0
  150.1725  137.5485  156.8857 H   0  0  0  0  0  0  0  0  0  0  0  0
  149.0109  137.4328  155.5763 H   0  0  0  0  0  0  0  0  0  0  0  0
  148.2434  136.0841  153.8750 H   0  0  0  0  0  0  0  0  0  0  0  0
  147.8036  135.8313  155.5712 H   0  0  0  0  0  0  0  0  0  0  0  0
  147.7047  134.5074  154.4365 H   0  0  0  0  0  0  0  0  0  0  0  0
  150.7960  133.6623  153.8458 H   0  0  0  0  0  0  0  0  0  0  0  0
  150.6720  133.2579  155.5197 H   0  0  0  0  0  0  0  0  0  0  0  0
  148.0961  132.9706  155.0658 H   0  0  0  0  0  0  0  0  0  0  0  0
  150.0871  130.9557  153.9336 H   0  0  0  0  0  0  0  0  0  0  0  0
  148.4339  130.6087  154.4343 H   0  0  0  0  0  0  0  0  0  0  0  0
  149.6256  131.1065  155.6275 H   0  0  0  0  0  0  0  0  0  0  0  0
  149.1287  132.7454  152.1981 H   0  0  0  0  0  0  0  0  0  0  0  0
  147.9857  133.9469  152.7961 H   0  0  0  0  0  0  0  0  0  0  0  0
  147.5292  132.2540  152.7470 H   0  0  0  0  0  0  0  0  0  0  0  0
  1  2  1  0  0  0  0
  1 26  1  0  0  0  0
  1 27  1  0  0  0  0
  1 28  1  0  0  0  0
  2 14  2  0  0  0  0
  2  3  1  0  0  0  0
  3  4  2  0  0  0  0
  4  5  1  0  0  0  0
  4 11  1  0  0  0  0
  5 10  1  0  0  0  0
  5  6  1  0  0  0  0
  6  7  1  0  0  0  0
  6 29  1  0  0  0  0
  6 30  1  0  0  0  0
  7  8  1  0  0  0  0
  7 31  1  0  0  0  0
  7 32  1  0  0  0  0
  8  9  1  0  0  0  0
  9 10  1  0  0  0  0
  9 33  1  0  0  0  0
  9 34  1  0  0  0  0
 10 35  1  0  0  0  0
 10 36  1  0  0  0  0
 11 25  1  0  0  0  0
 11 12  1  0  0  0  0
 12 13  2  0  0  0  0
 12 14  1  0  0  0  0
 14 15  1  0  0  0  0
 15 16  1  0  0  0  0
 15 37  1  0  0  0  0
 15 38  1  0  0  0  0
 16 17  1  0  0  0  0
 16 39  1  0  0  0  0
 16 40  1  0  0  0  0
 17 18  2  0  0  0  0
 17 19  1  0  0  0  0
 19 20  1  0  0  0  0
 19 21  1  0  0  0  0
 20 41  1  0  0  0  0
 20 42  1  0  0  0  0
 20 43  1  0  0  0  0
 21 22  1  0  0  0  0
 21 44  1  0  0  0  0
 21 45  1  0  0  0  0
 22 23  1  0  0  0  0
 22 24  1  0  0  0  0
 22 46  1  0  0  0  0
 23 47  1  0  0  0  0
 23 48  1  0  0  0  0
 23 49  1  0  0  0  0
 24 50  1  0  0  0  0
 24 51  1  0  0  0  0
 24 52  1  0  0  0  0
M  END
> <s_m_source_file>
AV-unprocessed.smi

> <i_m_source_file_index>
824

> <i_lp_mmshare_version>
43012

> <i_f3d_flags>
0

> <s_epik_input>
W0NIMl0xW0NIMl1PW0NIMl1bQ0gyXU4xYyhuYzJbQ0gzXSlbbkhdYyg9TyljMltDSDJdW0NIMl1DKD1PKU4oW0NIM10pW0NIMl1bQ0hdKFtDSDNdKVtDSDNd

> <s_epik_cmdline>
J2VwaWtfcHl0aG9uJywgJy1waCcsICc3LjAnLCAnLXRuJywgJzgnLCAnLW1hJywgJzIwMCcsICctbWV0YWxfYmluZGluZycsICctaW1hZScsICc8aW5maWxlLm1hZT4nLCAnLW9tYWUnLCAnPG91dGZpbGUubWFlPic=

> <r_lp_tautomer_probability>
0.878553

> <r_epik_Ionization_Penalty>
0.00115806

> <r_epik_Ionization_Penalty_Charging>
0.00113132

> <r_epik_Ionization_Penalty_Neutral>
2.67354e-05

> <r_epik_State_Penalty>
0.0423856

> <r_epik_Charging_Adjusted_Penalty>
0.0435169

> <i_epik_Tot_Q>
0

> <i_epik_Tot_abs_Q>
0

> <r_epik_Metal_State_Penalty>
1.05917

> <b_epik_Metal_Only>
0

> <s_lp_Force_Field>
OPLS_2005

> <r_lp_Energy>
33.2944

> <b_lp_Chiralities_Consistent>
1

> <s_lp_Variant>
AV-unprocessed.smi:824-1

> <Gold.Version>
5.8.1

> <Gold.Id.Protein>
6NUR|6NUR_protein|mol2

> <Gold.PLP.Fitness>
46.0646

> <Gold.PLP.PLP>
-44.4096

> <Gold.PLP.part.hbond>
-3.2381

> <Gold.PLP.part.metal>
0.0000

> <Gold.PLP.part.buried>
-4.5835

> <Gold.PLP.part.nonpolar>
-36.8286

> <Gold.PLP.part.repulsive>
1.1036

> <Gold.PLP.ligand.clash>
0.5377

> <Gold.PLP.ligand.torsion>
2.1040

> <Gold.PLP.Chemscore.Hbond>
2.0000

> <Gold.PLP.Chemscore.CHOScore>
0.0000

> <Gold.PLP.Chemscore.Metal>
0.0000

> <Gold.Chemscore.Hbonds>
donor molecule, donor type, donor heavy atom, donor atom, acceptor molecule, acceptor atom, score
      P1  H  7997  8010       L1    13  1.00
      P1  H 10752 10764       L1    18  1.00

> <Gold.PLP.Chemscore.Internal.Correction>
0.4008

> <Gold.Rescore>
     Score         DG    S(hbond)    S(metal)    S(lipo)     H(rot)  DE(clash)    DE(int)     intcor
     15.83     -18.14       1.81        0.00      94.07       1.71       0.17       2.14       ----

> <Gold.Chemscore.Fitness>
15.8322

> <Gold.Chemscore.DG>
-18.1447

> <Gold.Chemscore.ZeroCoef>
-5.4800

> <Gold.Chemscore.Hbond>
1.8066

> <Gold.Chemscore.Metal>
0.0000

> <Gold.Chemscore.Lipo>
94.0721

> <Gold.Chemscore.Internal_Hbond>
0.0000

> <Gold.Chemscore.DEClash>
0.1698

> <Gold.Chemscore.DEInternal>
2.1428

> <Gold.Chemscore.Rot>
1.7093

> <Gold.Chemscore.Internal.Correction>
   9.000000E+99

> <Gold.Chemscore.Hbonds>
donor molecule, donor type, donor heavy atom, donor atom, acceptor molecule, acceptor atom, score
      P1  H  7997  8010       L1    13  0.25
      P1  H 10752 10764       L1    18  0.96

> <Gold.Chemscore.Hbond.Weighted>
-6.0341

> <Gold.Chemscore.Metal.Weighted>
-0.0000

> <Gold.Chemscore.Lipo.Weighted>
-11.0064

> <Gold.Chemscore.Internal_Hbond.Weighted>
0.0000

> <Gold.Chemscore.DEClash.Weighted>
0.1698

> <Gold.Chemscore.DEInternal.Weighted>
2.1428

> <Gold.Chemscore.Rot.Weighted>
4.3759

> <Gold.Chemscore.Internal.Correction.Weighted>
   9.000000E+99

> <Gold.Protein.RotatedTorsions>
[ 6907 6896 6895 6894 ] final  -29.98 input  -60.11 | X-H torsion
[ 7974 7965 7964 7962 ] final  146.09 input  175.53 | X-H torsion
[ 8008 7997 7996 7995 ] final   62.69 input   59.86 | X-H torsion
[ 10167 10162 10161 10158 ] final  111.70 input  -65.29 | X-H torsion
[ 10718 10713 10712 10709 ] final   79.95 input   66.30 | X-H torsion
[ 10763 10752 10751 10750 ] final  -48.68 input  -60.55 | X-H torsion
[ 11005 11000 10999 10996 ] final -172.84 input  -57.11 | X-H torsion

> <Gold.Protein.ActiveResidues>
 VAL166  LYS551  ARG553  GLY616  TRP617  ASP618  TYR619  PRO620  LYS621  CYS622 
 ASP623  PHE694  ASN695  SER759  ASP760  ASP761  ALA762  ILE779  LEU786  VAL792 
 PHE793  MET794  SER795  GLU796  ALA797  LYS798  CYS799  TRP800  GLU811  SER814 

> <Gold.Protein.RotatedAtoms>
  151.1118  135.0031  159.8497 H   0  0  0  0  0  0  0  0  0  0  0  0  # atno 6907 bound_to 6896
  152.5443  134.1827  159.8652 H   0  0  0  0  0  0  0  0  0  0  0  0  # atno 6908 bound_to 6896
  151.1878  133.4641  159.2628 H   0  0  0  0  0  0  0  0  0  0  0  0  # atno 6909 bound_to 6896
  144.8699  139.5862  143.5891 H   0  0  0  0  0  0  0  0  0  0  0  0  # atno 7974 bound_to 7965
  155.6183  140.3495  155.4644 H   0  0  0  0  0  0  0  0  0  0  0  0  # atno 8008 bound_to 7997
  156.0099  140.1231  157.0488 H   0  0  0  0  0  0  0  0  0  0  0  0  # atno 8009 bound_to 7997
  154.4277  140.1083  156.5801 H   0  0  0  0  0  0  0  0  0  0  0  0  # atno 8010 bound_to 7997
  139.6591  144.7129  151.1899 H   0  0  0  0  0  0  0  0  0  0  0  0  # atno 10167 bound_to 10162
  157.6792  130.9937  150.2007 H   0  0  0  0  0  0  0  0  0  0  0  0  # atno 10718 bound_to 10713
  154.0818  135.6590  153.4839 H   0  0  0  0  0  0  0  0  0  0  0  0  # atno 10763 bound_to 10752
  153.0353  135.5181  154.7466 H   0  0  0  0  0  0  0  0  0  0  0  0  # atno 10764 bound_to 10752
  154.6564  135.3008  154.9891 H   0  0  0  0  0  0  0  0  0  0  0  0  # atno 10765 bound_to 10752
  140.4925  134.5971  157.4959 H   0  0  0  0  0  0  0  0  0  0  0  0  # atno 11005 bound_to 11000
  146.2923  139.7175  142.9152 LP  0  0  0  0  0  0  0  0  0  0  0  0  # atno 17320 bound_to 7965
  145.4150  141.0400  143.2996 LP  0  0  0  0  0  0  0  0  0  0  0  0  # atno 17321 bound_to 7965
  140.7572  143.6023  150.8687 LP  0  0  0  0  0  0  0  0  0  0  0  0  # atno 17342 bound_to 10162
  139.9679  143.6090  152.2983 LP  0  0  0  0  0  0  0  0  0  0  0  0  # atno 17343 bound_to 10162
  156.2699  130.3720  149.8042 LP  0  0  0  0  0  0  0  0  0  0  0  0  # atno 17370 bound_to 10713
  156.5762  130.8446  151.3370 LP  0  0  0  0  0  0  0  0  0  0  0  0  # atno 17371 bound_to 10713
  139.9761  134.7214  155.9948 LP  0  0  0  0  0  0  0  0  0  0  0  0  # atno 17394 bound_to 11000
  141.1477  133.6553  156.3917 LP  0  0  0  0  0  0  0  0  0  0  0  0  # atno 17395 bound_to 11000

$$$$
