AV-unprocessed.smi:287|AV-procd|sdf|2199|dock2
  -GOLD-   2262022 13D 1   1.00000     0.00000
 Structure written by MMmdl.
 55 58  0  0  0  0  0  0  0  0  1 V2000
  152.2176  141.7883  158.4122 C   0  0  0  0  0  0  0  0  0  0  0  0
  151.6236  141.1800  157.1883 C   0  0  0  0  0  0  0  0  0  0  0  0
  150.4307  141.3298  156.5435 C   0  0  0  0  0  0  0  0  0  0  0  0
  150.4420  140.4548  155.4164 C   0  0  0  0  0  0  0  0  0  0  0  0
  149.3112  140.2812  154.4110 C   0  0  1  0  0  0  0  0  0  0  0  0
  148.0316  140.9452  154.9454 C   0  0  0  0  0  0  0  0  0  0  0  0
  149.5732  140.9144  153.1734 O   0  0  0  0  0  0  0  0  0  0  0  0
  149.0429  138.7946  154.0818 C   0  0  0  0  0  0  0  0  0  0  0  0
  147.7194  138.5750  153.5082 N   0  0  0  0  0  0  0  0  0  0  0  0
  147.0815  137.4012  153.6943 C   0  0  0  0  0  0  0  0  0  0  0  0
  147.0211  136.8220  154.9216 N   0  0  0  0  0  0  0  0  0  0  0  0
  146.3864  135.6561  155.0765 C   0  0  0  0  0  0  0  0  0  0  0  0
  145.7603  134.9184  154.1571 N   0  0  0  0  0  0  0  0  0  0  0  0
  145.8151  135.4984  152.9229 C   0  0  0  0  0  0  0  0  0  0  0  0
  146.4536  136.7314  152.6132 C   0  0  0  0  0  0  0  0  0  0  0  0
  146.3121  137.0099  151.2602 N   0  0  0  0  0  0  0  0  0  0  0  0
  145.6271  135.9978  150.8005 C   0  0  0  0  0  0  0  0  0  0  0  0
  145.2855  135.0426  151.7322 N   0  0  0  0  0  0  0  0  0  0  0  0
  144.5066  133.7892  151.5021 C   0  0  1  0  0  0  0  0  0  0  0  0
  144.0008  133.8199  150.2061 O   0  0  0  0  0  0  0  0  0  0  0  0
  143.9989  132.5014  149.6788 C   0  0  1  0  0  0  0  0  0  0  0  0
  143.9013  132.5231  148.1435 C   0  0  0  0  0  0  0  0  0  0  0  0
  143.2038  133.6747  147.7197 O   0  0  0  0  0  0  0  0  0  0  0  0
  145.2824  131.8866  150.2590 C   0  0  1  0  0  0  0  0  0  0  0  0
  146.4128  132.1834  149.4606 O   0  0  0  0  0  0  0  0  0  0  0  0
  145.4064  132.5474  151.6302 C   0  0  2  0  0  0  0  0  0  0  0  0
  144.9165  131.6677  152.6232 O   0  0  0  0  0  0  0  0  0  0  0  0
  151.6717  139.8424  155.4607 C   0  0  0  0  0  0  0  0  0  0  0  0
  152.3604  138.8324  154.6030 C   0  0  0  0  0  0  0  0  0  0  0  0
  152.3923  140.2746  156.5332 O   0  0  0  0  0  0  0  0  0  0  0  0
  143.6949  133.8231  152.2308 H   0  0  0  0  0  0  0  0  0  0  0  0
  143.1473  131.9645  150.1018 H   0  0  0  0  0  0  0  0  0  0  0  0
  145.2077  130.8000  150.3223 H   0  0  0  0  0  0  0  0  0  0  0  0
  146.4347  132.8234  151.8715 H   0  0  0  0  0  0  0  0  0  0  0  0
  151.4791  142.3856  158.9471 H   0  0  0  0  0  0  0  0  0  0  0  0
  153.0543  142.4370  158.1536 H   0  0  0  0  0  0  0  0  0  0  0  0
  152.5824  141.0165  159.0902 H   0  0  0  0  0  0  0  0  0  0  0  0
  149.6319  141.9887  156.8503 H   0  0  0  0  0  0  0  0  0  0  0  0
  147.7179  140.4975  155.8891 H   0  0  0  0  0  0  0  0  0  0  0  0
  147.2031  140.8406  154.2436 H   0  0  0  0  0  0  0  0  0  0  0  0
  148.1824  142.0110  155.1227 H   0  0  0  0  0  0  0  0  0  0  0  0
  149.8243  140.2538  152.5463 H   0  0  0  0  0  0  0  0  0  0  0  0
  149.7738  138.4664  153.3411 H   0  0  0  0  0  0  0  0  0  0  0  0
  149.1862  138.1653  154.9616 H   0  0  0  0  0  0  0  0  0  0  0  0
  147.3680  139.3115  152.9126 H   0  0  0  0  0  0  0  0  0  0  0  0
  146.3791  135.2566  156.0797 H   0  0  0  0  0  0  0  0  0  0  0  0
  145.3468  135.9215  149.7600 H   0  0  0  0  0  0  0  0  0  0  0  0
  144.8889  132.4875  147.6823 H   0  0  0  0  0  0  0  0  0  0  0  0
  143.3429  131.6566  147.7889 H   0  0  0  0  0  0  0  0  0  0  0  0
  142.4407  133.7828  148.2667 H   0  0  0  0  0  0  0  0  0  0  0  0
  147.1569  131.7129  149.8029 H   0  0  0  0  0  0  0  0  0  0  0  0
  144.2858  132.1324  153.1514 H   0  0  0  0  0  0  0  0  0  0  0  0
  152.4191  139.1778  153.5709 H   0  0  0  0  0  0  0  0  0  0  0  0
  151.8219  137.8849  154.6147 H   0  0  0  0  0  0  0  0  0  0  0  0
  153.3762  138.6444  154.9514 H   0  0  0  0  0  0  0  0  0  0  0  0
  1  2  1  0  0  0  0
  1 35  1  0  0  0  0
  1 36  1  0  0  0  0
  1 37  1  0  0  0  0
  2 30  1  0  0  0  0
  2  3  2  0  0  0  0
  3  4  1  0  0  0  0
  3 38  1  0  0  0  0
  4  5  1  0  0  0  0
  4 28  2  0  0  0  0
  5  6  1  0  0  0  0
  5  7  1  0  0  0  0
  5  8  1  0  0  0  0
  6 39  1  0  0  0  0
  6 40  1  0  0  0  0
  6 41  1  0  0  0  0
  7 42  1  0  0  0  0
  8  9  1  0  0  0  0
  8 43  1  0  0  0  0
  8 44  1  0  0  0  0
  9 10  1  0  0  0  0
  9 45  1  0  0  0  0
 10 15  1  0  0  0  0
 10 11  2  0  0  0  0
 11 12  1  0  0  0  0
 12 13  2  0  0  0  0
 12 46  1  0  0  0  0
 13 14  1  0  0  0  0
 14 18  1  0  0  0  0
 14 15  2  0  0  0  0
 15 16  1  0  0  0  0
 16 17  2  0  0  0  0
 17 18  1  0  0  0  0
 17 47  1  0  0  0  0
 18 19  1  0  0  0  0
 19 31  1  0  0  0  0
 19 26  1  0  0  0  0
 19 20  1  0  0  0  0
 20 21  1  0  0  0  0
 21 32  1  0  0  0  0
 21 22  1  0  0  0  0
 21 24  1  0  0  0  0
 22 23  1  0  0  0  0
 22 48  1  0  0  0  0
 22 49  1  0  0  0  0
 23 50  1  0  0  0  0
 24 33  1  0  0  0  0
 24 25  1  0  0  0  0
 24 26  1  0  0  0  0
 25 51  1  0  0  0  0
 26 34  1  0  0  0  0
 26 27  1  0  0  0  0
 27 52  1  0  0  0  0
 28 29  1  0  0  0  0
 28 30  1  0  0  0  0
 29 53  1  0  0  0  0
 29 54  1  0  0  0  0
 29 55  1  0  0  0  0
M  END
> <s_m_source_file>
AV-unprocessed.smi

> <i_m_source_file_index>
287

> <i_lp_mmshare_version>
43012

> <i_f3d_flags>
0

> <s_epik_input>
W0NIM11jMVtjSF1jKGMobzEpW0NIM10pW0NAQF0oW0NIM10pKFtPSF0pW0NIMl1bTkhdYyhuW2NIXW4yKWMoYzIzKW5bY0hdbjNbQ0BASF00T1tDQEhdKFtDSDJdW09IXSlbQ0BASF0oW09IXSlbQ0BIXTRbT0hd

> <s_epik_cmdline>
J2VwaWtfcHl0aG9uJywgJy1waCcsICc3LjAnLCAnLXRuJywgJzgnLCAnLW1hJywgJzIwMCcsICctbWV0YWxfYmluZGluZycsICctaW1hZScsICc8aW5maWxlLm1hZT4nLCAnLW9tYWUnLCAnPG91dGZpbGUubWFlPic=

> <r_lp_tautomer_probability>
1

> <r_epik_Ionization_Penalty>
0.000992612

> <r_epik_Ionization_Penalty_Charging>
0

> <r_epik_Ionization_Penalty_Neutral>
0.000992612

> <r_epik_State_Penalty>
-0

> <r_epik_Charging_Adjusted_Penalty>
0

> <i_epik_Tot_Q>
0

> <i_epik_Tot_abs_Q>
0

> <r_epik_Metal_State_Penalty>
-0

> <b_epik_Metal_Only>
0

> <s_epik_Chemistry_Notes>
This compound contains an acetal/aminal-like group ( X-CH(R)-Y where X, Y are N, S, or O) that may be acid/base labile, releasing an aldehyde.

> <s_lp_Force_Field>
OPLS_2005

> <r_lp_Energy>
38.8116

> <b_lp_Chiralities_Consistent>
1

> <s_lp_Variant>
AV-unprocessed.smi:287-23

> <Gold.Version>
5.8.1

> <Gold.Id.Protein>
6NUR|6NUR_protein|mol2

> <Gold.PLP.Fitness>
58.8687

> <Gold.PLP.PLP>
-45.4481

> <Gold.PLP.part.hbond>
-9.9514

> <Gold.PLP.part.metal>
0.0000

> <Gold.PLP.part.buried>
1.8974

> <Gold.PLP.part.nonpolar>
-39.7718

> <Gold.PLP.part.repulsive>
2.8747

> <Gold.PLP.ligand.clash>
0.0000

> <Gold.PLP.ligand.torsion>
1.9509

> <Gold.PLP.Chemscore.Hbond>
4.7495

> <Gold.PLP.Chemscore.CHOScore>
0.9686

> <Gold.PLP.Chemscore.Metal>
0.0000

> <Gold.Chemscore.Hbonds>
donor molecule, donor type, donor heavy atom, donor atom, acceptor molecule, acceptor atom, score
      L1  H     7    42       P1  7957  0.51
      L1  H    23    50       P1 10186  1.00
      L1  H    25    51       P1 10747  0.96
      L1  H    27    52       P1 10957  0.10
      P1  H  7997  8010       L1    30  0.96
      P1  H  8011  8017       L1     7  1.00
      L1  C    17    47       P1  7921  1.00

> <Gold.PLP.Chemscore.Internal.Correction>
0.1682

> <Gold.Rescore>
     Score         DG    S(hbond)    S(metal)    S(lipo)     H(rot)  DE(clash)    DE(int)     intcor
     11.57     -17.87       3.92        0.00     109.30       5.27       4.29       2.02       ----

> <Gold.Chemscore.Fitness>
11.5657

> <Gold.Chemscore.DG>
-17.8748

> <Gold.Chemscore.ZeroCoef>
-5.4800

> <Gold.Chemscore.Hbond>
3.9194

> <Gold.Chemscore.Metal>
0.0000

> <Gold.Chemscore.Lipo>
109.2995

> <Gold.Chemscore.Internal_Hbond>
0.0000

> <Gold.Chemscore.DEClash>
4.2893

> <Gold.Chemscore.DEInternal>
2.0198

> <Gold.Chemscore.Rot>
5.2672

> <Gold.Chemscore.Internal.Correction>
   9.000000E+99

> <Gold.Chemscore.Hbonds>
donor molecule, donor type, donor heavy atom, donor atom, acceptor molecule, acceptor atom, score
      L1  H     7    42       P1  7957  0.51
      L1  H    23    50       P1 10186  0.96
      L1  H    25    51       P1 10747  0.90
      P1  H  7954  7966       L1    16  0.04
      P1  H  7997  8010       L1    30  0.89
      P1  H  8011  8017       L1     7  0.45

> <Gold.Chemscore.Hbond.Weighted>
-13.0907

> <Gold.Chemscore.Metal.Weighted>
-0.0000

> <Gold.Chemscore.Lipo.Weighted>
-12.7880

> <Gold.Chemscore.Internal_Hbond.Weighted>
0.0000

> <Gold.Chemscore.DEClash.Weighted>
4.2893

> <Gold.Chemscore.DEInternal.Weighted>
2.0198

> <Gold.Chemscore.Rot.Weighted>
13.4839

> <Gold.Chemscore.Internal.Correction.Weighted>
   9.000000E+99

> <Gold.Protein.RotatedTorsions>
[ 6907 6896 6895 6894 ] final  129.33 input  -60.11 | X-H torsion
[ 7974 7965 7964 7962 ] final   66.99 input  175.53 | X-H torsion
[ 8008 7997 7996 7995 ] final   61.17 input   59.86 | X-H torsion
[ 10167 10162 10161 10158 ] final -100.21 input  -65.29 | X-H torsion
[ 10718 10713 10712 10709 ] final  164.30 input   66.30 | X-H torsion
[ 10763 10752 10751 10750 ] final   35.66 input  -60.55 | X-H torsion
[ 11005 11000 10999 10996 ] final -171.21 input  -57.11 | X-H torsion

> <Gold.Protein.ActiveResidues>
 VAL166  LYS551  ARG553  GLY616  TRP617  ASP618  TYR619  PRO620  LYS621  CYS622 
 ASP623  PHE694  ASN695  SER759  ASP760  ASP761  ALA762  ILE779  LEU786  VAL792 
 PHE793  MET794  SER795  GLU796  ALA797  LYS798  CYS799  TRP800  GLU811  SER814 

> <Gold.Protein.RotatedAtoms>
  152.3634  133.6326  159.6032 H   0  0  0  0  0  0  0  0  0  0  0  0  # atno 6907 bound_to 6896
  150.7617  133.9386  159.3458 H   0  0  0  0  0  0  0  0  0  0  0  0  # atno 6908 bound_to 6896
  151.7221  135.0893  160.0337 H   0  0  0  0  0  0  0  0  0  0  0  0  # atno 6909 bound_to 6896
  145.8200  139.3079  143.1049 H   0  0  0  0  0  0  0  0  0  0  0  0  # atno 7974 bound_to 7965
  155.5941  140.3493  155.4575 H   0  0  0  0  0  0  0  0  0  0  0  0  # atno 8008 bound_to 7997
  156.0279  140.1268  157.0314 H   0  0  0  0  0  0  0  0  0  0  0  0  # atno 8009 bound_to 7997
  154.4340  140.1049  156.6043 H   0  0  0  0  0  0  0  0  0  0  0  0  # atno 8010 bound_to 7997
  140.2544  143.3450  152.0685 H   0  0  0  0  0  0  0  0  0  0  0  0  # atno 10167 bound_to 10162
  157.0964  131.0431  151.2516 H   0  0  0  0  0  0  0  0  0  0  0  0  # atno 10718 bound_to 10713
  153.0109  135.6327  154.1862 H   0  0  0  0  0  0  0  0  0  0  0  0  # atno 10763 bound_to 10752
  154.1604  135.2824  155.3112 H   0  0  0  0  0  0  0  0  0  0  0  0  # atno 10764 bound_to 10752
  154.5986  135.5595  153.7411 H   0  0  0  0  0  0  0  0  0  0  0  0  # atno 10765 bound_to 10752
  140.5108  134.5803  157.5018 H   0  0  0  0  0  0  0  0  0  0  0  0  # atno 11005 bound_to 11000
  145.9685  140.8779  143.0175 LP  0  0  0  0  0  0  0  0  0  0  0  0  # atno 17320 bound_to 7965
  144.6748  140.1912  143.7396 LP  0  0  0  0  0  0  0  0  0  0  0  0  # atno 17321 bound_to 7965
  139.5036  144.6759  151.6130 LP  0  0  0  0  0  0  0  0  0  0  0  0  # atno 17342 bound_to 10162
  140.6016  143.9600  150.6390 LP  0  0  0  0  0  0  0  0  0  0  0  0  # atno 17343 bound_to 10162
  157.4678  130.7691  149.7295 LP  0  0  0  0  0  0  0  0  0  0  0  0  # atno 17370 bound_to 10713
  155.9885  130.3959  150.3117 LP  0  0  0  0  0  0  0  0  0  0  0  0  # atno 17371 bound_to 10713
  139.9660  134.7372  156.0138 LP  0  0  0  0  0  0  0  0  0  0  0  0  # atno 17394 bound_to 11000
  141.1386  133.6569  156.3666 LP  0  0  0  0  0  0  0  0  0  0  0  0  # atno 17395 bound_to 11000

$$$$
