AV-unprocessed.smi:1695|AV-procd|sdf|6790|dock4
  -GOLD-   22720 7553D 1   1.00000     0.00000
 Structure written by MMmdl.
 51 53  0  0  0  0  0  0  0  0  2 V2000
  152.4357  143.5370  160.8637 C   0  0  0  0  0  0  0  0  0  0  0  0
  152.1107  142.7511  159.6057 C   0  0  0  0  0  0  0  0  0  0  0  0
  152.7218  141.4928  159.4047 C   0  0  0  0  0  0  0  0  0  0  0  0
  152.4464  140.7307  158.2484 C   0  0  0  0  0  0  0  0  0  0  0  0
  152.9238  139.4932  157.8521 N   0  0  0  0  0  0  0  0  0  0  0  0
  152.2986  139.3232  156.6911 C   0  0  0  0  0  0  0  0  0  0  0  0
  151.4765  140.3098  156.2837 N   0  0  0  0  0  0  0  0  0  0  0  0
  150.6966  140.3541  155.0601 C   0  0  0  0  0  0  0  0  0  0  0  0
  149.7818  139.1246  154.9029 C   0  0  1  0  0  0  0  0  0  0  0  0
  148.8289  139.3780  153.8880 O   0  0  0  0  0  0  0  0  0  0  0  0
  150.5820  137.8627  154.5256 C   0  0  0  0  0  0  0  0  0  0  0  0
  149.7512  136.6311  154.5469 N   0  3  1  0  0  0  0  0  0  0  0  0
  150.5709  135.4033  154.7091 C   0  0  0  0  0  0  0  0  0  0  0  0
  149.7095  134.1329  154.5739 C   0  0  0  0  0  0  0  0  0  0  0  0
  148.4982  134.1117  155.5302 C   0  0  1  0  0  0  0  0  0  0  0  0
  148.8885  133.7672  156.9799 C   0  0  0  0  0  0  0  0  0  0  0  0
  148.3937  132.6352  157.4866 N   0  0  0  0  0  0  0  0  0  0  0  0
  149.6216  134.5030  157.6369 O   0  0  0  0  0  0  0  0  0  0  0  0
  147.7311  135.4468  155.4183 C   0  0  0  0  0  0  0  0  0  0  0  0
  148.6410  136.6849  155.5345 C   0  0  0  0  0  0  0  0  0  0  0  0
  151.5374  141.2672  157.2902 C   0  0  0  0  0  0  0  0  0  0  0  0
  150.9224  142.5173  157.4790 C   0  0  0  0  0  0  0  0  0  0  0  0
  151.2075  143.2649  158.6408 C   0  0  0  0  0  0  0  0  0  0  0  0
  150.5382  144.6138  158.8372 C   0  0  0  0  0  0  0  0  0  0  0  0
  153.1385  142.9982  161.4996 H   0  0  0  0  0  0  0  0  0  0  0  0
  151.5319  143.7193  161.4452 H   0  0  0  0  0  0  0  0  0  0  0  0
  152.8838  144.4976  160.6086 H   0  0  0  0  0  0  0  0  0  0  0  0
  153.4094  141.1007  160.1396 H   0  0  0  0  0  0  0  0  0  0  0  0
  152.4517  138.4326  156.0992 H   0  0  0  0  0  0  0  0  0  0  0  0
  150.1089  141.2735  155.0528 H   0  0  0  0  0  0  0  0  0  0  0  0
  151.3886  140.4196  154.2196 H   0  0  0  0  0  0  0  0  0  0  0  0
  149.2466  138.9704  155.8393 H   0  0  0  0  0  0  0  0  0  0  0  0
  149.2674  139.7983  153.1632 H   0  0  0  0  0  0  0  0  0  0  0  0
  150.9996  138.0085  153.5279 H   0  0  0  0  0  0  0  0  0  0  0  0
  151.4348  137.7332  155.1940 H   0  0  0  0  0  0  0  0  0  0  0  0
  151.3469  135.3807  153.9428 H   0  0  0  0  0  0  0  0  0  0  0  0
  151.0869  135.4285  155.6694 H   0  0  0  0  0  0  0  0  0  0  0  0
  149.3478  134.0600  153.5472 H   0  0  0  0  0  0  0  0  0  0  0  0
  150.3313  133.2503  154.7314 H   0  0  0  0  0  0  0  0  0  0  0  0
  147.8281  133.3207  155.1882 H   0  0  0  0  0  0  0  0  0  0  0  0
  148.6179  132.3627  158.4330 H   0  0  0  0  0  0  0  0  0  0  0  0
  147.7937  132.0527  156.9202 H   0  0  0  0  0  0  0  0  0  0  0  0
  147.2165  135.4768  154.4569 H   0  0  0  0  0  0  0  0  0  0  0  0
  146.9466  135.4962  156.1750 H   0  0  0  0  0  0  0  0  0  0  0  0
  149.0486  136.7750  156.5418 H   0  0  0  0  0  0  0  0  0  0  0  0
  148.0336  137.5741  155.3714 H   0  0  0  0  0  0  0  0  0  0  0  0
  150.2361  142.8968  156.7365 H   0  0  0  0  0  0  0  0  0  0  0  0
  149.8587  144.8448  158.0163 H   0  0  0  0  0  0  0  0  0  0  0  0
  151.2853  145.4062  158.8877 H   0  0  0  0  0  0  0  0  0  0  0  0
  149.9600  144.6229  159.7613 H   0  0  0  0  0  0  0  0  0  0  0  0
  149.3289  136.5656  153.6312 H   0  0  0  0  0  0  0  0  0  0  0  0
  1  2  1  0  0  0  0
  1 25  1  0  0  0  0
  1 26  1  0  0  0  0
  1 27  1  0  0  0  0
  2 23  1  0  0  0  0
  2  3  2  0  0  0  0
  3  4  1  0  0  0  0
  3 28  1  0  0  0  0
  4 21  2  0  0  0  0
  4  5  1  0  0  0  0
  5  6  2  0  0  0  0
  6  7  1  0  0  0  0
  6 29  1  0  0  0  0
  7  8  1  0  0  0  0
  7 21  1  0  0  0  0
  8  9  1  0  0  0  0
  8 30  1  0  0  0  0
  8 31  1  0  0  0  0
  9 10  1  0  0  0  0
  9 11  1  0  0  0  0
  9 32  1  0  0  0  0
 10 33  1  0  0  0  0
 11 12  1  0  0  0  0
 11 34  1  0  0  0  0
 11 35  1  0  0  0  0
 12 20  1  0  0  0  0
 12 13  1  0  0  0  0
 12 51  1  0  0  0  0
 13 14  1  0  0  0  0
 13 36  1  0  0  0  0
 13 37  1  0  0  0  0
 14 15  1  0  0  0  0
 14 38  1  0  0  0  0
 14 39  1  0  0  0  0
 15 16  1  0  0  0  0
 15 19  1  0  0  0  0
 15 40  1  0  0  0  0
 16 17  1  0  0  0  0
 16 18  2  0  0  0  0
 17 41  1  0  0  0  0
 17 42  1  0  0  0  0
 19 20  1  0  0  0  0
 19 43  1  0  0  0  0
 19 44  1  0  0  0  0
 20 45  1  0  0  0  0
 20 46  1  0  0  0  0
 21 22  1  0  0  0  0
 22 23  2  0  0  0  0
 22 47  1  0  0  0  0
 23 24  1  0  0  0  0
 24 48  1  0  0  0  0
 24 49  1  0  0  0  0
 24 50  1  0  0  0  0
M  CHG  1  12   1
M  END
> <s_m_source_file>
AV-unprocessed.smi

> <i_m_source_file_index>
1695

> <i_lp_mmshare_version>
43012

> <i_f3d_flags>
0

> <s_epik_input>
W0NIM11jKFtjSF0xKWMoW0NIM10pW2NIXWMoYzEyKW4oW2NIXW4yKVtDSDJdW0NASF0oW09IXSlbQ0gyXU4zW0NIMl1bQ0gyXVtDSF0oQyg9TylbTkgyXSlbQ0gyXVtDSDJdMw==

> <s_epik_cmdline>
J2VwaWtfcHl0aG9uJywgJy1waCcsICc3LjAnLCAnLXRuJywgJzgnLCAnLW1hJywgJzIwMCcsICctbWV0YWxfYmluZGluZycsICctaW1hZScsICc8aW5maWxlLm1hZT4nLCAnLW9tYWUnLCAnPG91dGZpbGUubWFlPic=

> <r_epik_Ionization_Penalty>
0.113899

> <r_epik_Ionization_Penalty_Charging>
0.0258844

> <r_epik_Ionization_Penalty_Neutral>
0.0880147

> <r_epik_State_Penalty>
0.0974403

> <r_epik_Charging_Adjusted_Penalty>
0.123325

> <i_epik_Tot_Q>
1

> <i_epik_Tot_abs_Q>
1

> <r_epik_Metal_State_Penalty>
0.0851148

> <b_epik_Metal_Only>
0

> <s_lp_Force_Field>
OPLS_2005

> <r_lp_Energy>
15.764

> <b_lp_Chiralities_Consistent>
1

> <s_lp_Variant>
AV-unprocessed.smi:1695-2

> <Gold.Version>
5.8.1

> <Gold.Id.Protein>
6NUR|6NUR_protein|mol2

> <Gold.PLP.Fitness>
53.4603

> <Gold.PLP.PLP>
-39.8230

> <Gold.PLP.part.hbond>
-4.0000

> <Gold.PLP.part.metal>
0.0000

> <Gold.PLP.part.buried>
-2.3387

> <Gold.PLP.part.nonpolar>
-33.8713

> <Gold.PLP.part.repulsive>
0.0772

> <Gold.PLP.ligand.clash>
0.0000

> <Gold.PLP.ligand.torsion>
0.4607

> <Gold.PLP.Chemscore.Hbond>
4.8231

> <Gold.PLP.Chemscore.CHOScore>
0.0000

> <Gold.PLP.Chemscore.Metal>
0.0000

> <Gold.Chemscore.Hbonds>
donor molecule, donor type, donor heavy atom, donor atom, acceptor molecule, acceptor atom, score
      L1  H    10    33       P1  7957  0.96
      L1  H    12    51       P1  7948  2.00
      P1  H  6896  6908       L1    18  0.98
      P1  H  7997  8009       L1     5  0.86

> <Gold.PLP.Chemscore.Internal.Correction>
0.0895

> <Gold.Rescore>
     Score         DG    S(hbond)    S(metal)    S(lipo)     H(rot)  DE(clash)    DE(int)     intcor
     18.27     -19.01       2.29        0.00     112.69       2.85       0.34       0.40       ----

> <Gold.Chemscore.Fitness>
18.2745

> <Gold.Chemscore.DG>
-19.0102

> <Gold.Chemscore.ZeroCoef>
-5.4800

> <Gold.Chemscore.Hbond>
2.2852

> <Gold.Chemscore.Metal>
0.0000

> <Gold.Chemscore.Lipo>
112.6855

> <Gold.Chemscore.Internal_Hbond>
0.0000

> <Gold.Chemscore.DEClash>
0.3392

> <Gold.Chemscore.DEInternal>
0.3965

> <Gold.Chemscore.Rot>
2.8464

> <Gold.Chemscore.Internal.Correction>
   9.000000E+99

> <Gold.Chemscore.Hbonds>
donor molecule, donor type, donor heavy atom, donor atom, acceptor molecule, acceptor atom, score
      L1  H    10    33       P1  7957  0.88
      L1  H    12    51       P1  7948  0.93
      P1  H  6896  6908       L1    18  0.88
      P1  H  7997  8009       L1     5  0.05

> <Gold.Chemscore.Hbond.Weighted>
-7.6327

> <Gold.Chemscore.Metal.Weighted>
-0.0000

> <Gold.Chemscore.Lipo.Weighted>
-13.1842

> <Gold.Chemscore.Internal_Hbond.Weighted>
0.0000

> <Gold.Chemscore.DEClash.Weighted>
0.3392

> <Gold.Chemscore.DEInternal.Weighted>
0.3965

> <Gold.Chemscore.Rot.Weighted>
7.2867

> <Gold.Chemscore.Internal.Correction.Weighted>
   9.000000E+99

> <Gold.Protein.RotatedTorsions>
[ 6907 6896 6895 6894 ] final  137.71 input  -60.11 | X-H torsion
[ 7974 7965 7964 7962 ] final -129.44 input  175.53 | X-H torsion
[ 8008 7997 7996 7995 ] final  139.37 input   59.86 | X-H torsion
[ 10167 10162 10161 10158 ] final -145.48 input  -65.29 | X-H torsion
[ 10718 10713 10712 10709 ] final  -74.50 input   66.30 | X-H torsion
[ 10763 10752 10751 10750 ] final   -8.48 input  -60.55 | X-H torsion
[ 11005 11000 10999 10996 ] final  -21.02 input  -57.11 | X-H torsion

> <Gold.Protein.ActiveResidues>
 VAL166  LYS551  ARG553  GLY616  TRP617  ASP618  TYR619  PRO620  LYS621  CYS622 
 ASP623  PHE694  ASN695  SER759  ASP760  ASP761  ALA762  ILE779  LEU786  VAL792 
 PHE793  MET794  SER795  GLU796  ALA797  LYS798  CYS799  TRP800  GLU811  SER814 

> <Gold.Protein.RotatedAtoms>
  152.2750  133.5417  159.5462 H   0  0  0  0  0  0  0  0  0  0  0  0  # atno 6907 bound_to 6896
  150.7173  134.0645  159.3851 H   0  0  0  0  0  0  0  0  0  0  0  0  # atno 6908 bound_to 6896
  151.8558  135.0542  160.0515 H   0  0  0  0  0  0  0  0  0  0  0  0  # atno 6909 bound_to 6896
  144.9572  140.7408  143.4751 H   0  0  0  0  0  0  0  0  0  0  0  0  # atno 7974 bound_to 7965
  156.2990  140.2369  156.4226 H   0  0  0  0  0  0  0  0  0  0  0  0  # atno 8008 bound_to 7997
  154.8342  140.0431  157.1518 H   0  0  0  0  0  0  0  0  0  0  0  0  # atno 8009 bound_to 7997
  154.9174  140.2999  155.5238 H   0  0  0  0  0  0  0  0  0  0  0  0  # atno 8010 bound_to 7997
  139.7802  143.8112  152.2637 H   0  0  0  0  0  0  0  0  0  0  0  0  # atno 10167 bound_to 10162
  156.0240  130.4418  150.2902 H   0  0  0  0  0  0  0  0  0  0  0  0  # atno 10718 bound_to 10713
  153.4411  135.7013  153.6168 H   0  0  0  0  0  0  0  0  0  0  0  0  # atno 10763 bound_to 10752
  153.4543  135.3751  155.2302 H   0  0  0  0  0  0  0  0  0  0  0  0  # atno 10764 bound_to 10752
  154.8727  135.4004  154.3810 H   0  0  0  0  0  0  0  0  0  0  0  0  # atno 10765 bound_to 10752
  140.8521  133.7849  155.9978 H   0  0  0  0  0  0  0  0  0  0  0  0  # atno 11005 bound_to 11000
  145.2754  139.1938  143.4819 LP  0  0  0  0  0  0  0  0  0  0  0  0  # atno 17320 bound_to 7965
  146.3341  140.2708  142.8606 LP  0  0  0  0  0  0  0  0  0  0  0  0  # atno 17321 bound_to 7965
  139.8173  144.7311  150.9619 LP  0  0  0  0  0  0  0  0  0  0  0  0  # atno 17342 bound_to 10162
  140.7818  143.4193  151.0867 LP  0  0  0  0  0  0  0  0  0  0  0  0  # atno 17343 bound_to 10162
  157.1005  131.0194  151.3087 LP  0  0  0  0  0  0  0  0  0  0  0  0  # atno 17370 bound_to 10713
  157.4783  130.7750  149.7389 LP  0  0  0  0  0  0  0  0  0  0  0  0  # atno 17371 bound_to 10713
  140.8779  134.2648  157.5159 LP  0  0  0  0  0  0  0  0  0  0  0  0  # atno 17394 bound_to 11000
  139.8704  134.9600  156.4350 LP  0  0  0  0  0  0  0  0  0  0  0  0  # atno 17395 bound_to 11000

$$$$
