#       Name:                AV-unprocessed.smi:546
#       Creating user name   scv26
#       Creation time:       Thu Mar 26 23:38:17 2020


#       File generated by GOLD software.
#

@<TRIPOS>MOLECULE
AV-unprocessed.smi:546
    59    61     1
SMALL
NO_CHARGES


@<TRIPOS>ATOM
      1 ****        -1.8126   3.4350   3.4896 C.3            1 S1                 0.0000
      2 ****        -2.2228   2.8308   2.1452 C.3            1 S1                 0.0000
      3 ****        -1.7695   1.4903   2.0985 O.3            1 S1                 0.0000
      4 ****        -2.0791   0.8392   0.8787 C.3            1 S1                 0.0000
      5 ****        -1.5028  -0.5848   0.8761 C.3            1 S1                 0.0000
      6 ****        -0.0560  -0.5837   1.0661 N.pl3          1 S1                 0.0000
      7 ****         0.8992  -0.5309   0.1037 C.2            1 S1                 0.0000
      8 ****         0.5663  -0.5163  -1.2482 N.pl3          1 S1                 0.0000
      9 ****         0.7463  -1.7016  -2.0831 C.3            1 S1                 0.0000
     10 ****        -0.3204  -1.8191  -3.1859 C.3            1 S1                 0.0000
     11 ****        -0.1247  -3.0933  -4.0185 C.3            1 S1                 0.0000
     12 ****        -0.2888  -0.5612  -4.0683 C.3            1 S1                 0.0000
     13 ****        -0.4158   0.7134  -3.2175 C.3            1 S1                 0.0000
     14 ****        -1.8571   0.9634  -2.7450 C.3            1 S1                 0.0000
     15 ****         0.6094   0.7005  -2.0603 C.3            1 S1                 0.0000
     16 ****         2.1545  -0.5249   0.5548 N.2            1 S1                 0.0000
     17 ****         1.9816  -0.5836   1.9299 C.2            1 S1                 0.0000
     18 ****         0.6641  -0.6259   2.2645 C.2            1 S1                 0.0000
     19 ****         0.1734  -0.7001   3.6584 C.2            1 S1                 0.0000
     20 ****        -1.0290  -0.7540   3.9089 O.2            1 S1                 0.0000
     21 ****         1.1998  -0.7028   4.5668 N.pl3          1 S1                -1.0000
     22 ****         2.5459  -0.6583   4.2722 C.2            1 S1                 0.0000
     23 ****         3.3994  -0.6637   5.1595 O.2            1 S1                 0.0000
     24 ****         2.9547  -0.6066   2.9636 N.am           1 S1                 0.0000
     25 ****         4.3656  -0.5636   2.5672 C.3            1 S1                 0.0000
     26 ****        -2.1394   4.4718   3.5681 H              1 S1                 0.0000
     27 ****        -0.7294   3.4141   3.6122 H              1 S1                 0.0000
     28 ****        -2.2533   2.8798   4.3178 H              1 S1                 0.0000
     29 ****        -3.3072   2.8660   2.0322 H              1 S1                 0.0000
     30 ****        -1.7838   3.4072   1.3296 H              1 S1                 0.0000
     31 ****        -3.1598   0.8051   0.7351 H              1 S1                 0.0000
     32 ****        -1.6548   1.4084   0.0525 H              1 S1                 0.0000
     33 ****        -1.9714  -1.1921   1.6485 H              1 S1                 0.0000
     34 ****        -1.7393  -1.0829  -0.0640 H              1 S1                 0.0000
     35 ****         1.7448  -1.6758  -2.5216 H              1 S1                 0.0000
     36 ****         0.7117  -2.5864  -1.4461 H              1 S1                 0.0000
     37 ****        -1.2986  -1.8892  -2.7088 H              1 S1                 0.0000
     38 ****         0.8425  -3.0938  -4.5224 H              1 S1                 0.0000
     39 ****        -0.8981  -3.1864  -4.7814 H              1 S1                 0.0000
     40 ****        -0.1734  -3.9829  -3.3899 H              1 S1                 0.0000
     41 ****         0.6545  -0.5302  -4.6156 H              1 S1                 0.0000
     42 ****        -1.0770  -0.5984  -4.8212 H              1 S1                 0.0000
     43 ****        -0.1622   1.5566  -3.8612 H              1 S1                 0.0000
     44 ****        -2.2045   0.1859  -2.0661 H              1 S1                 0.0000
     45 ****        -2.5452   0.9932  -3.5901 H              1 S1                 0.0000
     46 ****        -1.9379   1.9200  -2.2288 H              1 S1                 0.0000
     47 ****         0.4548   1.5678  -1.4173 H              1 S1                 0.0000
     48 ****         1.6175   0.7990  -2.4651 H              1 S1                 0.0000
     49 ****         5.0696  -0.6416   3.3961 H              1 S1                 0.0000
     50 ****         4.5748   0.3713   2.0467 H              1 S1                 0.0000
     51 ****         4.5835  -1.3835   1.8823 H              1 S1                 0.0000
     52 ****        -2.1976   0.9836   2.8469 LP             1 S1                 0.0000
     53 ****        -0.7767   1.4860   2.2181 LP             1 S1                 0.0000
     54 ****         3.0065  -0.4875   0.0327 LP             1 S1                 0.0000
     55 ****        -1.6958  -0.7482   3.1637 LP             1 S1                 0.0000
     56 ****        -1.3403  -0.8037   4.8579 LP             1 S1                 0.0000
     57 ****         0.9487  -0.7406   5.5341 LP             1 S1                 0.0000
     58 ****         3.1223  -0.7010   6.1196 LP             1 S1                 0.0000
     59 ****         4.3698  -0.6308   4.9201 LP             1 S1                 0.0000
@<TRIPOS>BOND
    1    1    2 1     
    2    1   26 1     
    3    1   27 1     
    4    1   28 1     
    5    2    3 1     
    6    2   29 1     
    7    2   30 1     
    8    3    4 1     
    9    4    5 1     
   10    4   31 1     
   11    4   32 1     
   12    5    6 1     
   13    5   33 1     
   14    5   34 1     
   15    6   18 1     
   16    6    7 1     
   17    7    8 1     
   18    7   16 2     
   19    8   15 1     
   20    8    9 1     
   21    9   10 1     
   22    9   35 1     
   23    9   36 1     
   24   10   11 1     
   25   10   12 1     
   26   10   37 1     
   27   11   38 1     
   28   11   39 1     
   29   11   40 1     
   30   12   13 1     
   31   12   41 1     
   32   12   42 1     
   33   13   14 1     
   34   13   15 1     
   35   13   43 1     
   36   14   44 1     
   37   14   45 1     
   38   14   46 1     
   39   15   47 1     
   40   15   48 1     
   41   16   17 1     
   42   17   24 1     
   43   17   18 2     
   44   18   19 1     
   45   19   20 2     
   46   19   21 1     
   47   21   22 1     
   48   22   23 2     
   49   22   24 am    
   50   24   25 1     
   51   25   49 1     
   52   25   50 1     
   53   25   51 1     
   54    3   52 1     
   55    3   53 1     
   56   16   54 1     
   57   20   55 1     
   58   20   56 1     
   59   21   57 1     
   60   23   58 1     
   61   23   59 1     
@<TRIPOS>SUBSTRUCTURE
      1 S1             1
@<TRIPOS>SET
LONE_PAIRS      STATIC     ATOMS    <user>   **** ""
8 52 53 54 55 56 57 58 59
ATOM$BLUE        STATIC     ATOMS    COLORGROUP SYSTEM
8 52 53 54 55 56 57 58 59
