AV-unprocessed.smi:118|AV-procd|sdf|1131|dock6
  -GOLD-   2262018263D 1   1.00000     0.00000
 Structure written by MMmdl.
 41 44  0  0  0  0  0  0  0  0  1 V2000
  148.0631  138.3592  159.1519 O   0  0  0  0  0  0  0  0  0  0  0  0
  148.9877  137.5636  158.9815 C   0  0  0  0  0  0  0  0  0  0  0  0
  150.1621  137.9160  158.0544 C   0  0  0  0  0  0  0  0  0  0  0  0
  151.1696  138.8000  158.6815 N   0  0  0  0  0  0  0  0  0  0  0  0
  152.2414  138.2093  159.3961 C   0  0  0  0  0  0  0  0  0  0  0  0
  152.3315  136.9868  159.5181 O   0  0  0  0  0  0  0  0  0  0  0  0
  153.2156  139.1408  159.9528 C   0  0  0  0  0  0  0  0  0  0  0  0
  154.2747  138.6696  160.6327 F   0  0  0  0  0  0  0  0  0  0  0  0
  153.0739  140.4724  159.7914 C   0  0  0  0  0  0  0  0  0  0  0  0
  152.0129  141.0371  159.1115 N   0  0  0  0  0  0  0  0  0  0  0  0
  151.9641  142.5373  158.9346 C   0  0  2  0  0  0  0  0  0  0  0  0
  153.1078  143.2814  159.6498 C   0  0  0  0  0  0  0  0  0  0  0  0
  152.3680  144.2235  160.5855 C   0  0  0  0  0  0  0  0  0  0  0  0
  150.9862  144.3192  159.9482 C   0  0  0  0  0  0  0  0  0  0  0  0
  150.7600  143.0072  159.4575 O   0  0  0  0  0  0  0  0  0  0  0  0
  151.0453  140.1997  158.5092 C   0  0  0  0  0  0  0  0  0  0  0  0
  150.1218  140.6720  157.8444 O   0  0  0  0  0  0  0  0  0  0  0  0
  149.0523  136.3426  159.5416 N   0  0  0  0  0  0  0  0  0  0  0  0
  148.1332  135.7292  160.4374 C   0  0  0  0  0  0  0  0  0  0  0  0
  147.4672  136.4317  161.4746 C   0  0  0  0  0  0  0  0  0  0  0  0
  146.5788  135.7639  162.3469 C   0  0  0  0  0  0  0  0  0  0  0  0
  146.3422  134.3808  162.2124 C   0  0  0  0  0  0  0  0  0  0  0  0
  147.0135  133.6764  161.1971 C   0  0  0  0  0  0  0  0  0  0  0  0
  147.9040  134.3403  160.3216 C   0  0  0  0  0  0  0  0  0  0  0  0
  148.4853  133.4948  159.3780 N   0  0  0  0  0  0  0  0  0  0  0  0
  147.8385  132.1643  159.7634 S   0  0  0  0  0  0  0  0  0  0  0  0
  146.8862  132.3134  160.9499 N   0  0  0  0  0  0  0  0  0  0  0  0
  150.6232  136.9891  157.7095 H   0  0  0  0  0  0  0  0  0  0  0  0
  149.7593  138.3631  157.1443 H   0  0  0  0  0  0  0  0  0  0  0  0
  153.8275  141.1181  160.2180 H   0  0  0  0  0  0  0  0  0  0  0  0
  151.9806  142.7144  157.8583 H   0  0  0  0  0  0  0  0  0  0  0  0
  153.7858  142.6062  160.1727 H   0  0  0  0  0  0  0  0  0  0  0  0
  153.6794  143.8363  158.9054 H   0  0  0  0  0  0  0  0  0  0  0  0
  152.2890  143.7817  161.5790 H   0  0  0  0  0  0  0  0  0  0  0  0
  152.8562  145.1930  160.6864 H   0  0  0  0  0  0  0  0  0  0  0  0
  150.2148  144.6225  160.6563 H   0  0  0  0  0  0  0  0  0  0  0  0
  150.9888  145.0249  159.1159 H   0  0  0  0  0  0  0  0  0  0  0  0
  149.8138  135.7551  159.2344 H   0  0  0  0  0  0  0  0  0  0  0  0
  147.6339  137.4864  161.6300 H   0  0  0  0  0  0  0  0  0  0  0  0
  146.0799  136.3185  163.1278 H   0  0  0  0  0  0  0  0  0  0  0  0
  145.6632  133.8723  162.8810 H   0  0  0  0  0  0  0  0  0  0  0  0
  1  2  2  0  0  0  0
  2  3  1  0  0  0  0
  2 18  1  0  0  0  0
  3  4  1  0  0  0  0
  3 28  1  0  0  0  0
  3 29  1  0  0  0  0
  4 16  1  0  0  0  0
  4  5  1  0  0  0  0
  5  6  2  0  0  0  0
  5  7  1  0  0  0  0
  7  8  1  0  0  0  0
  7  9  2  0  0  0  0
  9 10  1  0  0  0  0
  9 30  1  0  0  0  0
 10 11  1  0  0  0  0
 10 16  1  0  0  0  0
 11 15  1  0  0  0  0
 11 12  1  0  0  0  0
 11 31  1  0  0  0  0
 12 13  1  0  0  0  0
 12 32  1  0  0  0  0
 12 33  1  0  0  0  0
 13 14  1  0  0  0  0
 13 34  1  0  0  0  0
 13 35  1  0  0  0  0
 14 15  1  0  0  0  0
 14 36  1  0  0  0  0
 14 37  1  0  0  0  0
 16 17  2  0  0  0  0
 18 19  1  0  0  0  0
 18 38  1  0  0  0  0
 19 24  1  0  0  0  0
 19 20  2  0  0  0  0
 20 21  1  0  0  0  0
 20 39  1  0  0  0  0
 21 22  2  0  0  0  0
 21 40  1  0  0  0  0
 22 23  1  0  0  0  0
 22 41  1  0  0  0  0
 23 27  1  0  0  0  0
 23 24  2  0  0  0  0
 24 25  1  0  0  0  0
 25 26  2  0  0  0  0
 26 27  2  0  0  0  0
M  END
> <s_m_source_file>
AV-unprocessed.smi

> <i_m_source_file_index>
118

> <i_lp_mmshare_version>
43012

> <i_f3d_flags>
0

> <s_epik_input>
TjE9Uz1OYyhjMTIpYyhbY0hdW2NIXVtjSF0yKVtOSF1DKD1PKVtDSDJdbjNjKD1PKWMoRilbY0hdbihjMz1PKVtDQEBIXTRbQ0gyXVtDSDJdW0NIMl1PNA==

> <s_epik_cmdline>
J2VwaWtfcHl0aG9uJywgJy1waCcsICc3LjAnLCAnLXRuJywgJzgnLCAnLW1hJywgJzIwMCcsICctbWV0YWxfYmluZGluZycsICctaW1hZScsICc8aW5maWxlLm1hZT4nLCAnLW9tYWUnLCAnPG91dGZpbGUubWFlPic=

> <r_lp_tautomer_probability>
1

> <r_epik_Ionization_Penalty>
1.81156e-06

> <r_epik_Ionization_Penalty_Charging>
3.88729e-08

> <r_epik_Ionization_Penalty_Neutral>
1.77269e-06

> <r_epik_State_Penalty>
-0

> <r_epik_Charging_Adjusted_Penalty>
3.88729e-08

> <i_epik_Tot_Q>
0

> <i_epik_Tot_abs_Q>
0

> <r_epik_Metal_State_Penalty>
-0

> <b_epik_Metal_Only>
0

> <s_epik_Chemistry_Notes>
This compound contains an acetal/aminal-like group ( X-CH(R)-Y where X, Y are N, S, or O) that may be acid/base labile, releasing an aldehyde.

> <s_lp_Force_Field>
OPLS_2005

> <r_lp_Energy>
47.7675

> <b_lp_Chiralities_Consistent>
1

> <s_lp_Variant>
AV-unprocessed.smi:118-1

> <Gold.Version>
5.8.1

> <Gold.Id.Protein>
6NUR|6NUR_protein|mol2

> <Gold.PLP.Fitness>
49.5725

> <Gold.PLP.PLP>
-46.0167

> <Gold.PLP.part.hbond>
-4.2424

> <Gold.PLP.part.metal>
0.0000

> <Gold.PLP.part.buried>
-5.9102

> <Gold.PLP.part.nonpolar>
-36.6599

> <Gold.PLP.part.repulsive>
0.2458

> <Gold.PLP.ligand.clash>
0.0000

> <Gold.PLP.ligand.torsion>
0.9348

> <Gold.PLP.Chemscore.Hbond>
1.7990

> <Gold.PLP.Chemscore.CHOScore>
0.0000

> <Gold.PLP.Chemscore.Metal>
0.0000

> <Gold.Chemscore.Hbonds>
donor molecule, donor type, donor heavy atom, donor atom, acceptor molecule, acceptor atom, score
      P1  H  6896  6907       L1     6  1.00
      P1  H  6896  6909       L1    25  0.36
      P1  H  6934  6947       L1     1  0.15

> <Gold.PLP.Chemscore.Internal.Correction>
0.0286

> <Gold.Rescore>
     Score         DG    S(hbond)    S(metal)    S(lipo)     H(rot)  DE(clash)    DE(int)     intcor
     15.10     -17.22       1.46        0.00      98.16       1.80       0.24       1.88       ----

> <Gold.Chemscore.Fitness>
15.1004

> <Gold.Chemscore.DG>
-17.2240

> <Gold.Chemscore.ZeroCoef>
-5.4800

> <Gold.Chemscore.Hbond>
1.4555

> <Gold.Chemscore.Metal>
0.0000

> <Gold.Chemscore.Lipo>
98.1618

> <Gold.Chemscore.Internal_Hbond>
0.0000

> <Gold.Chemscore.DEClash>
0.2422

> <Gold.Chemscore.DEInternal>
1.8815

> <Gold.Chemscore.Rot>
1.7977

> <Gold.Chemscore.Internal.Correction>
   9.000000E+99

> <Gold.Chemscore.Hbonds>
donor molecule, donor type, donor heavy atom, donor atom, acceptor molecule, acceptor atom, score
      P1  H  6896  6907       L1     6  0.96
      P1  H  6896  6909       L1    25  0.23
      P1  H  6934  6947       L1     1  0.15

> <Gold.Chemscore.Hbond.Weighted>
-4.8613

> <Gold.Chemscore.Metal.Weighted>
-0.0000

> <Gold.Chemscore.Lipo.Weighted>
-11.4849

> <Gold.Chemscore.Internal_Hbond.Weighted>
0.0000

> <Gold.Chemscore.DEClash.Weighted>
0.2422

> <Gold.Chemscore.DEInternal.Weighted>
1.8815

> <Gold.Chemscore.Rot.Weighted>
4.6022

> <Gold.Chemscore.Internal.Correction.Weighted>
   9.000000E+99

> <Gold.Protein.RotatedTorsions>
[ 6907 6896 6895 6894 ] final    7.33 input  -60.11 | X-H torsion
[ 7974 7965 7964 7962 ] final  -50.00 input  175.53 | X-H torsion
[ 8008 7997 7996 7995 ] final -121.12 input   59.86 | X-H torsion
[ 10167 10162 10161 10158 ] final   39.02 input  -65.29 | X-H torsion
[ 10718 10713 10712 10709 ] final -135.25 input   66.30 | X-H torsion
[ 10763 10752 10751 10750 ] final  -28.20 input  -60.55 | X-H torsion
[ 11005 11000 10999 10996 ] final   50.25 input  -57.11 | X-H torsion

> <Gold.Protein.ActiveResidues>
 VAL166  LYS551  ARG553  GLY616  TRP617  ASP618  TYR619  PRO620  LYS621  CYS622 
 ASP623  PHE694  ASN695  SER759  ASP760  ASP761  ALA762  ILE779  LEU786  VAL792 
 PHE793  MET794  SER795  GLU796  ALA797  LYS798  CYS799  TRP800  GLU811  SER814 

> <Gold.Protein.RotatedAtoms>
  151.6881  135.0951  160.0228 H   0  0  0  0  0  0  0  0  0  0  0  0  # atno 6907 bound_to 6896
  152.3795  133.6522  159.6158 H   0  0  0  0  0  0  0  0  0  0  0  0  # atno 6908 bound_to 6896
  150.7736  133.9054  159.3395 H   0  0  0  0  0  0  0  0  0  0  0  0  # atno 6909 bound_to 6896
  145.9345  140.7719  142.9583 H   0  0  0  0  0  0  0  0  0  0  0  0  # atno 7974 bound_to 7965
  155.1428  140.0402  157.2802 H   0  0  0  0  0  0  0  0  0  0  0  0  # atno 8008 bound_to 7997
  154.6460  140.2558  155.7241 H   0  0  0  0  0  0  0  0  0  0  0  0  # atno 8009 bound_to 7997
  156.2555  140.2846  156.0874 H   0  0  0  0  0  0  0  0  0  0  0  0  # atno 8010 bound_to 7997
  140.3880  144.1891  150.6130 H   0  0  0  0  0  0  0  0  0  0  0  0  # atno 10167 bound_to 10162
  156.2642  130.7227  151.1172 H   0  0  0  0  0  0  0  0  0  0  0  0  # atno 10718 bound_to 10713
  153.7444  135.6930  153.4959 H   0  0  0  0  0  0  0  0  0  0  0  0  # atno 10763 bound_to 10752
  153.2046  135.4424  155.0307 H   0  0  0  0  0  0  0  0  0  0  0  0  # atno 10764 bound_to 10752
  154.8209  135.3422  154.6968 H   0  0  0  0  0  0  0  0  0  0  0  0  # atno 10765 bound_to 10752
  140.1034  134.5051  155.8742 H   0  0  0  0  0  0  0  0  0  0  0  0  # atno 11005 bound_to 11000
  144.6769  140.2181  143.7369 LP  0  0  0  0  0  0  0  0  0  0  0  0  # atno 17320 bound_to 7965
  145.8382  139.2117  143.1843 LP  0  0  0  0  0  0  0  0  0  0  0  0  # atno 17321 bound_to 7965
  140.4869  143.2360  151.8874 LP  0  0  0  0  0  0  0  0  0  0  0  0  # atno 17342 bound_to 10162
  139.4791  144.5208  151.8804 LP  0  0  0  0  0  0  0  0  0  0  0  0  # atno 17343 bound_to 10162
  157.7261  131.0648  150.5923 LP  0  0  0  0  0  0  0  0  0  0  0  0  # atno 17370 bound_to 10713
  156.6013  130.4355  149.5896 LP  0  0  0  0  0  0  0  0  0  0  0  0  # atno 17371 bound_to 10713
  141.2112  133.6703  156.6563 LP  0  0  0  0  0  0  0  0  0  0  0  0  # atno 17394 bound_to 11000
  140.3189  134.8024  157.4236 LP  0  0  0  0  0  0  0  0  0  0  0  0  # atno 17395 bound_to 11000

$$$$
