#       Name:                AV-unprocessed.smi:2741
#       Creating user name   scv26
#       Creation time:       Fri Mar 27 15:01:13 2020


#       File generated by GOLD software.
#

@<TRIPOS>MOLECULE
AV-unprocessed.smi:2741
    45    46     1
SMALL
NO_CHARGES


@<TRIPOS>ATOM
      1 ****        -0.0204   1.5699  -0.7275 O.2            1 S1                 0.0000
      2 ****         0.3760   0.5224  -1.2398 C.2            1 S1                 0.0000
      3 ****         1.8713   0.1782  -1.2558 C.3            1 S1                 0.0000
      4 ****         2.5752   0.6407  -0.0479 N.am           1 S1                 0.0000
      5 ****         3.3245   1.8293  -0.1529 C.2            1 S1                 0.0000
      6 ****         3.9991   2.3642   0.8829 C.2            1 S1                 0.0000
      7 ****         4.8390   3.6218   0.7222 C.3            1 S1                 0.0000
      8 ****         5.8074   3.6759   1.6370 F              1 S1                 0.0000
      9 ****         5.4014   3.6701  -0.4861 F              1 S1                 0.0000
     10 ****         4.0713   4.7012   0.8645 F              1 S1                 0.0000
     11 ****         3.9478   1.6324   2.1336 C.2            1 S1                 0.0000
     12 ****         3.2418   0.4906   2.2491 C.2            1 S1                 0.0000
     13 ****         2.4949  -0.0667   1.1193 C.2            1 S1                 0.0000
     14 ****         1.8388  -1.1046   1.2152 O.2            1 S1                 0.0000
     15 ****        -0.4417  -0.3690  -1.8190 N.am           1 S1                 0.0000
     16 ****        -1.8950  -0.2589  -1.8805 C.3            1 S1                 0.0000
     17 ****        -2.5602  -0.6144  -0.5359 C.3            1 S1                 0.0000
     18 ****        -4.0986  -0.5505  -0.5699 C.3            1 S1                 0.0000
     19 ****        -4.6079  -1.7320   0.2712 C.3            1 S1                 0.0000
     20 ****        -3.3693  -2.3108   0.9597 C.3            1 S1                 0.0000
     21 ****        -3.5027  -3.6899   1.2326 O.3            1 S1                 0.0000
     22 ****        -2.2330  -2.0204  -0.0174 C.3            1 S1                 0.0000
     23 ****         2.0023  -0.8997  -1.3711 H              1 S1                 0.0000
     24 ****         2.3094   0.6166  -2.1532 H              1 S1                 0.0000
     25 ****         3.3134   2.2843  -1.1327 H              1 S1                 0.0000
     26 ****         4.4804   2.0073   2.9953 H              1 S1                 0.0000
     27 ****         3.2234  -0.0268   3.1972 H              1 S1                 0.0000
     28 ****        -0.0302  -1.1981  -2.2226 H              1 S1                 0.0000
     29 ****        -2.1788   0.7483  -2.1900 H              1 S1                 0.0000
     30 ****        -2.2488  -0.9331  -2.6613 H              1 S1                 0.0000
     31 ****        -2.2246   0.0969   0.2208 H              1 S1                 0.0000
     32 ****        -4.4490   0.4008  -0.1681 H              1 S1                 0.0000
     33 ****        -4.4807  -0.6289  -1.5883 H              1 S1                 0.0000
     34 ****        -5.3749  -1.4352   0.9872 H              1 S1                 0.0000
     35 ****        -5.0517  -2.4751  -0.3932 H              1 S1                 0.0000
     36 ****        -3.1886  -1.7779   1.8944 H              1 S1                 0.0000
     37 ****        -3.6578  -4.1443   0.4187 H              1 S1                 0.0000
     38 ****        -2.2511  -2.7362  -0.8411 H              1 S1                 0.0000
     39 ****        -1.2513  -2.0767   0.4547 H              1 S1                 0.0000
     40 ****         0.6342   2.2047  -0.3172 LP             1 S1                 0.0000
     41 ****        -0.9969   1.7855  -0.7219 LP             1 S1                 0.0000
     42 ****         1.3414  -1.4568   0.4223 LP             1 S1                 0.0000
     43 ****         1.8035  -1.5952   2.0859 LP             1 S1                 0.0000
     44 ****        -4.2729  -3.8377   1.8531 LP             1 S1                 0.0000
     45 ****        -2.6637  -4.0325   1.6552 LP             1 S1                 0.0000
@<TRIPOS>BOND
    1    1    2 2     
    2    2    3 1     
    3    2   15 am    
    4    3    4 1     
    5    3   23 1     
    6    3   24 1     
    7    4   13 am    
    8    4    5 1     
    9    5    6 2     
   10    5   25 1     
   11    6    7 1     
   12    6   11 1     
   13    7    8 1     
   14    7    9 1     
   15    7   10 1     
   16   11   12 2     
   17   11   26 1     
   18   12   13 1     
   19   12   27 1     
   20   13   14 2     
   21   15   16 1     
   22   15   28 1     
   23   16   17 1     
   24   16   29 1     
   25   16   30 1     
   26   17   22 1     
   27   17   18 1     
   28   17   31 1     
   29   18   19 1     
   30   18   32 1     
   31   18   33 1     
   32   19   20 1     
   33   19   34 1     
   34   19   35 1     
   35   20   21 1     
   36   20   22 1     
   37   20   36 1     
   38   21   37 1     
   39   22   38 1     
   40   22   39 1     
   41    1   40 1     
   42    1   41 1     
   43   14   42 1     
   44   14   43 1     
   45   21   44 1     
   46   21   45 1     
@<TRIPOS>SUBSTRUCTURE
      1 S1             1
@<TRIPOS>SET
LONE_PAIRS      STATIC     ATOMS    <user>   **** ""
6 40 41 42 43 44 45
DONOR_HYDROGENS      STATIC     ATOMS    <user>   **** ""
2 28 37
ATOM$BLUE        STATIC     ATOMS    COLORGROUP SYSTEM
6 40 41 42 43 44 45
ATOM$RED        STATIC     ATOMS    COLORGROUP SYSTEM
2 28 37
