AV-unprocessed.smi:1|AV-procd|sdf|24|dock10
  -GOLD-   2262015133D 1   1.00000     0.00000
 Structure written by MMmdl.
 56 61  0  0  0  0  0  0  0  0  2 V2000
  153.4123  138.8389  160.1198 O   0  0  0  0  0  0  0  0  0  0  0  0
  153.1000  139.7827  159.3906 C   0  0  0  0  0  0  0  0  0  0  0  0
  152.9389  139.7777  158.0431 N   0  5  0  0  0  0  0  0  0  0  0  0
  152.1441  138.8633  157.4671 C   0  0  0  0  0  0  0  0  0  0  0  0
  152.0894  138.7544  156.1151 N   0  0  0  0  0  0  0  0  0  0  0  0
  151.2881  137.8489  155.5421 C   0  0  0  0  0  0  0  0  0  0  0  0
  150.4636  136.9709  156.1208 N   0  0  0  0  0  0  0  0  0  0  0  0
  150.5052  137.0731  157.4818 C   0  0  0  0  0  0  0  0  0  0  0  0
  151.3112  137.9896  158.2183 C   0  0  0  0  0  0  0  0  0  0  0  0
  151.1122  137.8354  159.5824 N   0  0  0  0  0  0  0  0  0  0  0  0
  150.2185  136.8498  159.6136 C   0  0  0  0  0  0  0  0  0  0  0  0
  149.8100  136.3428  158.4339 N   0  0  0  0  0  0  0  0  0  0  0  0
  148.8331  135.2313  158.2211 C   0  0  1  0  0  0  0  0  0  0  0  0
  149.3456  134.0672  158.7894 O   0  0  0  0  0  0  0  0  0  0  0  0
  148.2808  133.2491  159.2581 C   0  0  2  0  0  0  0  0  0  0  0  0
  147.7675  132.3719  158.1052 C   0  0  0  0  0  0  0  0  0  0  0  0
  146.5966  131.6918  158.5257 O   0  0  0  0  0  0  0  0  0  0  0  0
  145.3911  132.0688  158.0575 C   0  0  0  0  0  0  0  0  0  0  0  0
  145.2363  132.9132  157.1726 O   0  0  0  0  0  0  0  0  0  0  0  0
  144.2622  131.3567  158.7231 C   0  0  0  0  0  0  0  0  0  0  0  0
  144.5356  130.4681  159.7890 C   0  0  0  0  0  0  0  0  0  0  0  0
  143.4903  129.7802  160.4357 C   0  0  0  0  0  0  0  0  0  0  0  0
  142.1587  129.9722  160.0239 C   0  0  0  0  0  0  0  0  0  0  0  0
  141.8734  130.8544  158.9656 C   0  0  0  0  0  0  0  0  0  0  0  0
  142.9173  131.5437  158.3180 C   0  0  0  0  0  0  0  0  0  0  0  0
  147.2381  134.2581  159.7419 C   0  0  1  0  0  0  0  0  0  0  0  0
  147.4730  134.5829  161.1004 O   0  0  0  0  0  0  0  0  0  0  0  0
  147.2762  136.2292  161.2864 S   0  0  0  0  0  0  0  0  0  0  0  0
  145.8758  136.4797  161.6609 O   0  0  0  0  0  0  0  0  0  0  0  0
  148.4066  136.7542  162.0663 O   0  0  0  0  0  0  0  0  0  0  0  0
  147.4704  136.6774  159.6896 O   0  0  0  0  0  0  0  0  0  0  0  0
  147.4696  135.5101  158.8786 C   0  0  1  0  0  0  0  0  0  0  0  0
  152.9249  141.1463  160.0039 C   0  0  0  0  0  0  0  0  0  0  0  0
  152.4547  142.2169  159.2092 C   0  0  0  0  0  0  0  0  0  0  0  0
  152.3080  143.5059  159.7579 C   0  0  0  0  0  0  0  0  0  0  0  0
  152.6389  143.7405  161.1057 C   0  0  0  0  0  0  0  0  0  0  0  0
  153.1215  142.6860  161.9030 C   0  0  0  0  0  0  0  0  0  0  0  0
  153.2683  141.3966  161.3552 C   0  0  0  0  0  0  0  0  0  0  0  0
  151.3098  137.8255  154.4629 H   0  0  0  0  0  0  0  0  0  0  0  0
  149.8415  136.4688  160.5513 H   0  0  0  0  0  0  0  0  0  0  0  0
  148.7657  135.1208  157.1377 H   0  0  0  0  0  0  0  0  0  0  0  0
  148.6189  132.6140  160.0782 H   0  0  0  0  0  0  0  0  0  0  0  0
  147.5174  132.9941  157.2449 H   0  0  0  0  0  0  0  0  0  0  0  0
  148.5345  131.6651  157.7850 H   0  0  0  0  0  0  0  0  0  0  0  0
  145.5503  130.3040  160.1224 H   0  0  0  0  0  0  0  0  0  0  0  0
  143.7113  129.1045  161.2487 H   0  0  0  0  0  0  0  0  0  0  0  0
  141.3575  129.4438  160.5192 H   0  0  0  0  0  0  0  0  0  0  0  0
  140.8515  131.0032  158.6488 H   0  0  0  0  0  0  0  0  0  0  0  0
  142.6631  132.2139  157.5097 H   0  0  0  0  0  0  0  0  0  0  0  0
  146.2191  133.8798  159.6531 H   0  0  0  0  0  0  0  0  0  0  0  0
  146.7166  135.5984  158.0951 H   0  0  0  0  0  0  0  0  0  0  0  0
  152.1976  142.0537  158.1725 H   0  0  0  0  0  0  0  0  0  0  0  0
  151.9420  144.3147  159.1430 H   0  0  0  0  0  0  0  0  0  0  0  0
  152.5266  144.7287  161.5264 H   0  0  0  0  0  0  0  0  0  0  0  0
  153.3823  142.8656  162.9356 H   0  0  0  0  0  0  0  0  0  0  0  0
  153.6500  140.6033  161.9818 H   0  0  0  0  0  0  0  0  0  0  0  0
  1  2  2  0  0  0  0
  2  3  1  0  0  0  0
  2 33  1  0  0  0  0
  3  4  1  0  0  0  0
  4  9  1  0  0  0  0
  4  5  2  0  0  0  0
  5  6  1  0  0  0  0
  6  7  2  0  0  0  0
  6 39  1  0  0  0  0
  7  8  1  0  0  0  0
  8 12  1  0  0  0  0
  8  9  2  0  0  0  0
  9 10  1  0  0  0  0
 10 11  2  0  0  0  0
 11 12  1  0  0  0  0
 11 40  1  0  0  0  0
 12 13  1  0  0  0  0
 13 32  1  0  0  0  0
 13 14  1  0  0  0  0
 13 41  1  0  0  0  0
 14 15  1  0  0  0  0
 15 16  1  0  0  0  0
 15 26  1  0  0  0  0
 15 42  1  0  0  0  0
 16 17  1  0  0  0  0
 16 43  1  0  0  0  0
 16 44  1  0  0  0  0
 17 18  1  0  0  0  0
 18 19  2  0  0  0  0
 18 20  1  0  0  0  0
 20 25  1  0  0  0  0
 20 21  2  0  0  0  0
 21 22  1  0  0  0  0
 21 45  1  0  0  0  0
 22 23  2  0  0  0  0
 22 46  1  0  0  0  0
 23 24  1  0  0  0  0
 23 47  1  0  0  0  0
 24 25  2  0  0  0  0
 24 48  1  0  0  0  0
 25 49  1  0  0  0  0
 26 32  1  0  0  0  0
 26 27  1  0  0  0  0
 26 50  1  0  0  0  0
 27 28  1  0  0  0  0
 28 29  2  0  0  0  0
 28 30  2  0  0  0  0
 28 31  1  0  0  0  0
 31 32  1  0  0  0  0
 32 51  1  0  0  0  0
 33 38  1  0  0  0  0
 33 34  2  0  0  0  0
 34 35  1  0  0  0  0
 34 52  1  0  0  0  0
 35 36  2  0  0  0  0
 35 53  1  0  0  0  0
 36 37  1  0  0  0  0
 36 54  1  0  0  0  0
 37 38  2  0  0  0  0
 37 55  1  0  0  0  0
 38 56  1  0  0  0  0
M  CHG  1   3  -1
M  END
> <s_m_source_file>
AV-unprocessed.smi

> <i_m_source_file_index>
1

> <i_lp_mmshare_version>
43012

> <i_f3d_flags>
0

> <s_epik_input>
W2NIXTFbY0hdW2NIXVtjSF1bY0hdYzFDKD1PKVtOSF1jKG5bY0hdbjIpYyhjMjMpbltjSF1uM1tDQEBIXShbQ0BIXShbQ0BIXTQ1KU9TKE81KSg9Tyk9TylPW0NASF00W0NIMl1PQyg9TyljNltjSF1bY0hdW2NIXVtjSF1bY0hdNg==

> <s_epik_cmdline>
J2VwaWtfcHl0aG9uJywgJy1waCcsICc3LjAnLCAnLXRuJywgJzgnLCAnLW1hJywgJzIwMCcsICctbWV0YWxfYmluZGluZycsICctaW1hZScsICc8aW5maWxlLm1hZT4nLCAnLW9tYWUnLCAnPG91dGZpbGUubWFlPic=

> <r_lp_tautomer_probability>
1

> <r_epik_Ionization_Penalty>
4.39121

> <r_epik_Ionization_Penalty_Charging>
3.39398

> <r_epik_Ionization_Penalty_Neutral>
0.997232

> <r_epik_State_Penalty>
3.39839

> <r_epik_Charging_Adjusted_Penalty>
6.79237

> <i_epik_Tot_Q>
-1

> <i_epik_Tot_abs_Q>
1

> <r_epik_Metal_State_Penalty>
0.497663

> <b_epik_Metal_Only>
1

> <s_epik_Chemistry_Notes>
This compound has an ester and may undergo hydrolysis at high or low pH. This compound contains an acetal/aminal-like group ( X-CH(R)-Y where X, Y are N, S, or O) that may be acid/base labile, releasing an aldehyde.

> <s_lp_Force_Field>
OPLS_2005

> <r_lp_Energy>
44.7553

> <b_lp_Chiralities_Consistent>
1

> <s_lp_Variant>
AV-unprocessed.smi:1-24

> <Gold.Version>
5.8.1

> <Gold.Id.Protein>
6NUR|6NUR_protein|mol2

> <Gold.PLP.Fitness>
58.8827

> <Gold.PLP.PLP>
-48.5833

> <Gold.PLP.part.hbond>
-3.3198

> <Gold.PLP.part.metal>
0.0000

> <Gold.PLP.part.buried>
-9.8353

> <Gold.PLP.part.nonpolar>
-35.7292

> <Gold.PLP.part.repulsive>
0.1472

> <Gold.PLP.ligand.clash>
0.1244

> <Gold.PLP.ligand.torsion>
0.9072

> <Gold.PLP.Chemscore.Hbond>
3.9100

> <Gold.PLP.Chemscore.CHOScore>
0.0000

> <Gold.PLP.Chemscore.Metal>
0.0000

> <Gold.Chemscore.Hbonds>
donor molecule, donor type, donor heavy atom, donor atom, acceptor molecule, acceptor atom, score
      P1  H  6896  6909       L1    14  0.73
      P1  H  6931  6943       L1    30  1.00
      P1  H  7997  8008       L1     3  1.98

> <Gold.PLP.Chemscore.Internal.Correction>
0.5082

> <Gold.Rescore>
     Score         DG    S(hbond)    S(metal)    S(lipo)     H(rot)  DE(clash)    DE(int)     intcor
     14.73     -21.02       2.75        0.00     100.65       2.11       0.00       6.30       ----

> <Gold.Chemscore.Fitness>
14.7252

> <Gold.Chemscore.DG>
-21.0232

> <Gold.Chemscore.ZeroCoef>
-5.4800

> <Gold.Chemscore.Hbond>
2.7478

> <Gold.Chemscore.Metal>
0.0000

> <Gold.Chemscore.Lipo>
100.6524

> <Gold.Chemscore.Internal_Hbond>
0.0000

> <Gold.Chemscore.DEClash>
0.0000

> <Gold.Chemscore.DEInternal>
6.2980

> <Gold.Chemscore.Rot>
2.1136

> <Gold.Chemscore.Internal.Correction>
   9.000000E+99

> <Gold.Chemscore.Hbonds>
donor molecule, donor type, donor heavy atom, donor atom, acceptor molecule, acceptor atom, score
      P1  H  6896  6909       L1    14  0.69
      P1  H  6931  6943       L1    30  0.99
      P1  H  7997  8008       L1     3  0.45

> <Gold.Chemscore.Hbond.Weighted>
-9.1776

> <Gold.Chemscore.Metal.Weighted>
-0.0000

> <Gold.Chemscore.Lipo.Weighted>
-11.7763

> <Gold.Chemscore.Internal_Hbond.Weighted>
0.0000

> <Gold.Chemscore.DEClash.Weighted>
0.0000

> <Gold.Chemscore.DEInternal.Weighted>
6.2980

> <Gold.Chemscore.Rot.Weighted>
5.4107

> <Gold.Chemscore.Internal.Correction.Weighted>
   9.000000E+99

> <Gold.Protein.RotatedTorsions>
[ 6907 6896 6895 6894 ] final   23.33 input  -60.11 | X-H torsion
[ 7974 7965 7964 7962 ] final -142.70 input  175.53 | X-H torsion
[ 8008 7997 7996 7995 ] final  -62.48 input   59.86 | X-H torsion
[ 10167 10162 10161 10158 ] final -156.51 input  -65.29 | X-H torsion
[ 10718 10713 10712 10709 ] final  -44.89 input   66.30 | X-H torsion
[ 10763 10752 10751 10750 ] final -127.01 input  -60.55 | X-H torsion
[ 11005 11000 10999 10996 ] final   73.43 input  -57.11 | X-H torsion

> <Gold.Protein.ActiveResidues>
 VAL166  LYS551  ARG553  GLY616  TRP617  ASP618  TYR619  PRO620  LYS621  CYS622 
 ASP623  PHE694  ASN695  SER759  ASP760  ASP761  ALA762  ILE779  LEU786  VAL792 
 PHE793  MET794  SER795  GLU796  ALA797  LYS798  CYS799  TRP800  GLU811  SER814 

> <Gold.Protein.RotatedAtoms>
  151.9406  135.0215  160.0535 H   0  0  0  0  0  0  0  0  0  0  0  0  # atno 6907 bound_to 6896
  152.2039  133.4856  159.5082 H   0  0  0  0  0  0  0  0  0  0  0  0  # atno 6908 bound_to 6896
  150.6961  134.1471  159.4169 H   0  0  0  0  0  0  0  0  0  0  0  0  # atno 6909 bound_to 6896
  144.8424  140.5925  143.5444 H   0  0  0  0  0  0  0  0  0  0  0  0  # atno 7974 bound_to 7965
  154.4502  140.0995  156.6593 H   0  0  0  0  0  0  0  0  0  0  0  0  # atno 8008 bound_to 7997
  155.5311  140.3481  155.4408 H   0  0  0  0  0  0  0  0  0  0  0  0  # atno 8009 bound_to 7997
  156.0663  140.1338  156.9870 H   0  0  0  0  0  0  0  0  0  0  0  0  # atno 8010 bound_to 7997
  139.6844  143.9526  152.2353 H   0  0  0  0  0  0  0  0  0  0  0  0  # atno 10167 bound_to 10162
  156.2339  130.4174  149.8842 H   0  0  0  0  0  0  0  0  0  0  0  0  # atno 10718 bound_to 10713
  154.8750  135.3976  154.3525 H   0  0  0  0  0  0  0  0  0  0  0  0  # atno 10763 bound_to 10752
  153.4308  135.7025  153.6237 H   0  0  0  0  0  0  0  0  0  0  0  0  # atno 10764 bound_to 10752
  153.4859  135.3759  155.2436 H   0  0  0  0  0  0  0  0  0  0  0  0  # atno 10765 bound_to 10752
  139.9440  134.7346  156.1025 H   0  0  0  0  0  0  0  0  0  0  0  0  # atno 11005 bound_to 11000
  145.4667  139.1507  143.3836 LP  0  0  0  0  0  0  0  0  0  0  0  0  # atno 17320 bound_to 7965
  146.2714  140.4799  142.8813 LP  0  0  0  0  0  0  0  0  0  0  0  0  # atno 17321 bound_to 7965
  139.9325  144.6732  150.8348 LP  0  0  0  0  0  0  0  0  0  0  0  0  # atno 17342 bound_to 10162
  140.7663  143.3299  151.2433 LP  0  0  0  0  0  0  0  0  0  0  0  0  # atno 17343 bound_to 10162
  156.6446  130.8719  151.3520 LP  0  0  0  0  0  0  0  0  0  0  0  0  # atno 17370 bound_to 10713
  157.7145  130.9481  150.1207 LP  0  0  0  0  0  0  0  0  0  0  0  0  # atno 17371 bound_to 10713
  141.1085  133.6651  156.2921 LP  0  0  0  0  0  0  0  0  0  0  0  0  # atno 17394 bound_to 11000
  140.5879  134.5680  157.5493 LP  0  0  0  0  0  0  0  0  0  0  0  0  # atno 17395 bound_to 11000

$$$$
