AV-unprocessed.smi:2675|AV-procd|sdf|10360|dock9
  -GOLD-   2272014383D 1   1.00000     0.00000
 Structure written by MMmdl.
 37 38  0  0  0  0  0  0  0  0  2 V2000
  152.0814  145.2417  158.6308 C   0  0  0  0  0  0  0  0  0  0  0  0
  151.7381  143.7942  158.5149 C   0  0  0  0  0  0  0  0  0  0  0  0
  150.7380  143.3558  157.6880 N   0  3  0  0  0  0  0  0  0  0  0  0
  150.6192  142.0295  157.7568 C   0  0  0  0  0  0  0  0  0  0  0  0
  151.5399  141.6036  158.6290 N   0  0  0  0  0  0  0  0  0  0  0  0
  151.6806  140.1802  158.9678 C   0  0  0  0  0  0  0  0  0  0  0  0
  152.1812  139.3850  157.7627 C   0  0  0  0  0  0  0  0  0  0  0  0
  153.2790  138.8332  157.8104 O   0  0  0  0  0  0  0  0  0  0  0  0
  151.3436  139.3098  156.7141 N   0  0  0  0  0  0  0  0  0  0  0  0
  151.5026  138.5429  155.4718 C   0  0  1  0  0  0  0  0  0  0  0  0
  152.8722  138.9415  154.8980 C   0  0  0  0  0  0  0  0  0  0  0  0
  151.5260  137.0880  155.7215 C   0  0  0  0  0  0  0  0  0  0  0  0
  151.5470  135.9473  155.9161 N   0  0  0  0  0  0  0  0  0  0  0  0
  150.4346  138.8134  154.4092 C   0  0  0  0  0  0  0  0  0  0  0  0
  149.5374  140.0307  154.4574 C   0  0  0  0  0  0  0  0  0  0  0  0
  148.9473  138.6497  154.6376 C   0  0  0  0  0  0  0  0  0  0  0  0
  152.2567  142.6722  159.1218 C   0  0  0  0  0  0  0  0  0  0  0  0
  153.3578  142.5208  160.1218 C   0  0  0  0  0  0  0  0  0  0  0  0
  152.8759  145.3957  159.3604 H   0  0  0  0  0  0  0  0  0  0  0  0
  151.2078  145.8114  158.9483 H   0  0  0  0  0  0  0  0  0  0  0  0
  152.4177  145.6265  157.6678 H   0  0  0  0  0  0  0  0  0  0  0  0
  149.9126  141.4231  157.2185 H   0  0  0  0  0  0  0  0  0  0  0  0
  152.3683  140.0863  159.8100 H   0  0  0  0  0  0  0  0  0  0  0  0
  150.7148  139.7974  159.2984 H   0  0  0  0  0  0  0  0  0  0  0  0
  150.4764  139.8204  156.7936 H   0  0  0  0  0  0  0  0  0  0  0  0
  153.0898  138.3982  153.9776 H   0  0  0  0  0  0  0  0  0  0  0  0
  153.6765  138.7226  155.6017 H   0  0  0  0  0  0  0  0  0  0  0  0
  152.9140  140.0070  154.6677 H   0  0  0  0  0  0  0  0  0  0  0  0
  150.7638  138.5234  153.4125 H   0  0  0  0  0  0  0  0  0  0  0  0
  149.5820  140.6726  155.3346 H   0  0  0  0  0  0  0  0  0  0  0  0
  149.3403  140.5435  153.5182 H   0  0  0  0  0  0  0  0  0  0  0  0
  148.3596  138.2464  153.8155 H   0  0  0  0  0  0  0  0  0  0  0  0
  148.5848  138.3921  155.6284 H   0  0  0  0  0  0  0  0  0  0  0  0
  153.8149  143.4845  160.3439 H   0  0  0  0  0  0  0  0  0  0  0  0
  154.1325  141.8584  159.7359 H   0  0  0  0  0  0  0  0  0  0  0  0
  152.9705  142.1039  161.0515 H   0  0  0  0  0  0  0  0  0  0  0  0
  150.1652  143.9538  157.1058 H   0  0  0  0  0  0  0  0  0  0  0  0
  1  2  1  0  0  0  0
  1 19  1  0  0  0  0
  1 20  1  0  0  0  0
  1 21  1  0  0  0  0
  2 17  2  0  0  0  0
  2  3  1  0  0  0  0
  3  4  2  0  0  0  0
  3 37  1  0  0  0  0
  4  5  1  0  0  0  0
  4 22  1  0  0  0  0
  5  6  1  0  0  0  0
  5 17  1  0  0  0  0
  6  7  1  0  0  0  0
  6 23  1  0  0  0  0
  6 24  1  0  0  0  0
  7  8  2  0  0  0  0
  7  9  1  0  0  0  0
  9 10  1  0  0  0  0
  9 25  1  0  0  0  0
 10 11  1  0  0  0  0
 10 12  1  0  0  0  0
 10 14  1  0  0  0  0
 11 26  1  0  0  0  0
 11 27  1  0  0  0  0
 11 28  1  0  0  0  0
 12 13  3  0  0  0  0
 14 16  1  0  0  0  0
 14 15  1  0  0  0  0
 14 29  1  0  0  0  0
 15 16  1  0  0  0  0
 15 30  1  0  0  0  0
 15 31  1  0  0  0  0
 16 32  1  0  0  0  0
 16 33  1  0  0  0  0
 17 18  1  0  0  0  0
 18 34  1  0  0  0  0
 18 35  1  0  0  0  0
 18 36  1  0  0  0  0
M  CHG  1   3   1
M  END
> <s_m_source_file>
AV-unprocessed.smi

> <i_m_source_file_index>
2675

> <i_lp_mmshare_version>
43012

> <i_f3d_flags>
0

> <s_epik_input>
W0NIM11jMW5bY0hdbihjMVtDSDNdKVtDSDJdQyg9TylbTkhdW0NAQF0oW0NIM10pKEMjTilbQ0hdMltDSDJdW0NIMl0y

> <s_epik_cmdline>
J2VwaWtfcHl0aG9uJywgJy1waCcsICc3LjAnLCAnLXRuJywgJzgnLCAnLW1hJywgJzIwMCcsICctbWV0YWxfYmluZGluZycsICctaW1hZScsICc8aW5maWxlLm1hZT4nLCAnLW9tYWUnLCAnPG91dGZpbGUubWFlPic=

> <r_lp_tautomer_probability>
1

> <r_epik_Ionization_Penalty>
0.153253

> <r_epik_Ionization_Penalty_Charging>
0

> <r_epik_Ionization_Penalty_Neutral>
0.153253

> <r_epik_State_Penalty>
0.14254

> <r_epik_Charging_Adjusted_Penalty>
0.14254

> <i_epik_Tot_Q>
1

> <i_epik_Tot_abs_Q>
1

> <r_epik_Metal_State_Penalty>
0.466899

> <b_epik_Metal_Only>
0

> <s_lp_Force_Field>
OPLS_2005

> <r_lp_Energy>
18.2007

> <b_lp_Chiralities_Consistent>
1

> <s_lp_Variant>
AV-unprocessed.smi:2675-1

> <Gold.Version>
5.8.1

> <Gold.Id.Protein>
6NUR|6NUR_protein|mol2

> <Gold.PLP.Fitness>
50.6817

> <Gold.PLP.PLP>
-39.2226

> <Gold.PLP.part.hbond>
-3.0000

> <Gold.PLP.part.metal>
0.0000

> <Gold.PLP.part.buried>
-4.5706

> <Gold.PLP.part.nonpolar>
-32.8468

> <Gold.PLP.part.repulsive>
0.1471

> <Gold.PLP.ligand.clash>
0.0000

> <Gold.PLP.ligand.torsion>
1.0216

> <Gold.PLP.Chemscore.Hbond>
4.0000

> <Gold.PLP.Chemscore.CHOScore>
0.0000

> <Gold.PLP.Chemscore.Metal>
0.0000

> <Gold.Chemscore.Hbonds>
donor molecule, donor type, donor heavy atom, donor atom, acceptor molecule, acceptor atom, score
      L1  H     3    37       P1  8028  1.85
      P1  H  7997  8009       L1     8  1.00
      P1  H 10752 10765       L1    13  1.00

> <Gold.PLP.Chemscore.Internal.Correction>
1.5022

> <Gold.Rescore>
     Score         DG    S(hbond)    S(metal)    S(lipo)     H(rot)  DE(clash)    DE(int)     intcor
     17.04     -20.01       2.70        0.00      86.30       1.80       0.14       2.83       ----

> <Gold.Chemscore.Fitness>
17.0372

> <Gold.Chemscore.DG>
-20.0077

> <Gold.Chemscore.ZeroCoef>
-5.4800

> <Gold.Chemscore.Hbond>
2.7026

> <Gold.Chemscore.Metal>
0.0000

> <Gold.Chemscore.Lipo>
86.3038

> <Gold.Chemscore.Internal_Hbond>
0.0000

> <Gold.Chemscore.DEClash>
0.1438

> <Gold.Chemscore.DEInternal>
2.8267

> <Gold.Chemscore.Rot>
1.7955

> <Gold.Chemscore.Internal.Correction>
   9.000000E+99

> <Gold.Chemscore.Hbonds>
donor molecule, donor type, donor heavy atom, donor atom, acceptor molecule, acceptor atom, score
      L1  H     3    37       P1  8028  0.84
      P1  H  7997  8009       L1     8  0.55
      P1  H 10752 10765       L1    13  0.26

> <Gold.Chemscore.Hbond.Weighted>
-9.0266

> <Gold.Chemscore.Metal.Weighted>
-0.0000

> <Gold.Chemscore.Lipo.Weighted>
-10.0975

> <Gold.Chemscore.Internal_Hbond.Weighted>
0.0000

> <Gold.Chemscore.DEClash.Weighted>
0.1438

> <Gold.Chemscore.DEInternal.Weighted>
2.8267

> <Gold.Chemscore.Rot.Weighted>
4.5965

> <Gold.Chemscore.Internal.Correction.Weighted>
   9.000000E+99

> <Gold.Protein.RotatedTorsions>
[ 6907 6896 6895 6894 ] final -155.70 input  -60.11 | X-H torsion
[ 7974 7965 7964 7962 ] final    8.47 input  175.53 | X-H torsion
[ 8008 7997 7996 7995 ] final  162.77 input   59.86 | X-H torsion
[ 10167 10162 10161 10158 ] final   88.36 input  -65.29 | X-H torsion
[ 10718 10713 10712 10709 ] final  -34.45 input   66.30 | X-H torsion
[ 10763 10752 10751 10750 ] final -156.25 input  -60.55 | X-H torsion
[ 11005 11000 10999 10996 ] final  -25.83 input  -57.11 | X-H torsion

> <Gold.Protein.ActiveResidues>
 VAL166  LYS551  ARG553  GLY616  TRP617  ASP618  TYR619  PRO620  LYS621  CYS622 
 ASP623  PHE694  ASN695  SER759  ASP760  ASP761  ALA762  ILE779  LEU786  VAL792 
 PHE793  MET794  SER795  GLU796  ALA797  LYS798  CYS799  TRP800  GLU811  SER814 

> <Gold.Protein.RotatedAtoms>
  151.2764  133.4230  159.2624 H   0  0  0  0  0  0  0  0  0  0  0  0  # atno 6907 bound_to 6896
  151.0399  134.9600  159.8166 H   0  0  0  0  0  0  0  0  0  0  0  0  # atno 6908 bound_to 6896
  152.5363  134.2722  159.9028 H   0  0  0  0  0  0  0  0  0  0  0  0  # atno 6909 bound_to 6896
  146.2416  139.9929  142.8424 H   0  0  0  0  0  0  0  0  0  0  0  0  # atno 7974 bound_to 7965
  156.2007  140.1741  156.7906 H   0  0  0  0  0  0  0  0  0  0  0  0  # atno 8008 bound_to 7997
  154.5587  140.0703  156.8816 H   0  0  0  0  0  0  0  0  0  0  0  0  # atno 8009 bound_to 7997
  155.2888  140.3354  155.4256 H   0  0  0  0  0  0  0  0  0  0  0  0  # atno 8010 bound_to 7997
  139.8681  144.6508  150.8981 H   0  0  0  0  0  0  0  0  0  0  0  0  # atno 10167 bound_to 10162
  156.3505  130.4307  149.7709 H   0  0  0  0  0  0  0  0  0  0  0  0  # atno 10718 bound_to 10713
  154.7727  135.3150  154.8156 H   0  0  0  0  0  0  0  0  0  0  0  0  # atno 10763 bound_to 10752
  153.8887  135.6827  153.4766 H   0  0  0  0  0  0  0  0  0  0  0  0  # atno 10764 bound_to 10752
  153.1344  135.4766  154.9334 H   0  0  0  0  0  0  0  0  0  0  0  0  # atno 10765 bound_to 10752
  140.8974  133.7547  156.0499 H   0  0  0  0  0  0  0  0  0  0  0  0  # atno 11005 bound_to 11000
  145.1486  140.9611  143.4446 LP  0  0  0  0  0  0  0  0  0  0  0  0  # atno 17320 bound_to 7965
  145.0226  139.3410  143.6064 LP  0  0  0  0  0  0  0  0  0  0  0  0  # atno 17321 bound_to 7965
  140.7765  143.3687  151.1690 LP  0  0  0  0  0  0  0  0  0  0  0  0  # atno 17342 bound_to 10162
  139.7310  143.9073  152.3019 LP  0  0  0  0  0  0  0  0  0  0  0  0  # atno 17343 bound_to 10162
  156.4911  130.8085  151.3095 LP  0  0  0  0  0  0  0  0  0  0  0  0  # atno 17370 bound_to 10713
  157.7460  130.9975  150.2818 LP  0  0  0  0  0  0  0  0  0  0  0  0  # atno 17371 bound_to 10713
  140.8272  134.3220  157.5361 LP  0  0  0  0  0  0  0  0  0  0  0  0  # atno 17394 bound_to 11000
  139.8737  134.9343  156.3603 LP  0  0  0  0  0  0  0  0  0  0  0  0  # atno 17395 bound_to 11000

$$$$
