AV-unprocessed.smi:1198|AV-procd|sdf|5012|dock6
  -GOLD-   22720 4 23D 1   1.00000     0.00000
 Structure written by MMmdl.
 40 41  0  0  0  0  0  0  0  0  2 V2000
  151.2027  141.3878  158.2147 C   0  0  0  0  0  0  0  0  0  0  0  0
  151.4222  141.2050  156.8202 O   0  0  0  0  0  0  0  0  0  0  0  0
  150.9764  140.0383  156.2341 C   0  0  0  0  0  0  0  0  0  0  0  0
  150.6056  138.9646  157.0673 C   0  0  0  0  0  0  0  0  0  0  0  0
  150.1483  137.7732  156.4741 C   0  0  0  0  0  0  0  0  0  0  0  0
  150.0811  137.6838  155.0692 C   0  0  0  0  0  0  0  0  0  0  0  0
  149.5987  136.4708  154.5068 N   0  0  0  0  0  0  0  0  0  0  0  0
  149.4347  135.2735  155.0951 C   0  0  0  0  0  0  0  0  0  0  0  0
  149.6697  135.0170  156.2755 O   0  0  0  0  0  0  0  0  0  0  0  0
  148.9611  134.3699  154.2257 N   0  0  0  0  0  0  0  0  0  0  0  0
  148.6678  132.9762  154.5423 C   0  0  0  0  0  0  0  0  0  0  0  0
  147.4398  132.4518  153.7730 C   0  0  2  0  0  0  0  0  0  0  0  0
  147.2916  130.9313  153.7548 C   0  0  0  0  0  0  0  0  0  0  0  0
  146.3508  130.7056  152.5742 C   0  0  0  0  0  0  0  0  0  0  0  0
  146.7150  131.7357  151.5772 N   0  3  1  0  0  0  0  0  0  0  0  0
  145.5849  132.1951  150.7427 C   0  0  0  0  0  0  0  0  0  0  0  0
  147.4351  132.8219  152.2835 C   0  0  0  0  0  0  0  0  0  0  0  0
  150.4676  138.8215  154.3188 C   0  0  0  0  0  0  0  0  0  0  0  0
  150.9058  139.9678  154.8819 N   0  0  0  0  0  0  0  0  0  0  0  0
  151.6188  142.3470  158.5224 H   0  0  0  0  0  0  0  0  0  0  0  0
  151.6947  140.6111  158.8017 H   0  0  0  0  0  0  0  0  0  0  0  0
  150.1380  141.3974  158.4526 H   0  0  0  0  0  0  0  0  0  0  0  0
  150.6689  139.0541  158.1417 H   0  0  0  0  0  0  0  0  0  0  0  0
  149.8558  136.9381  157.0939 H   0  0  0  0  0  0  0  0  0  0  0  0
  149.2979  136.5346  153.5454 H   0  0  0  0  0  0  0  0  0  0  0  0
  148.7881  134.6681  153.2767 H   0  0  0  0  0  0  0  0  0  0  0  0
  149.5405  132.3564  154.3291 H   0  0  0  0  0  0  0  0  0  0  0  0
  148.4955  132.9054  155.6165 H   0  0  0  0  0  0  0  0  0  0  0  0
  146.5349  132.8687  154.2191 H   0  0  0  0  0  0  0  0  0  0  0  0
  148.2549  130.4569  153.5617 H   0  0  0  0  0  0  0  0  0  0  0  0
  146.8971  130.5307  154.6893 H   0  0  0  0  0  0  0  0  0  0  0  0
  146.4308  129.7006  152.1590 H   0  0  0  0  0  0  0  0  0  0  0  0
  145.3199  130.8518  152.9016 H   0  0  0  0  0  0  0  0  0  0  0  0
  144.8272  132.6945  151.3483 H   0  0  0  0  0  0  0  0  0  0  0  0
  145.1177  131.3510  150.2340 H   0  0  0  0  0  0  0  0  0  0  0  0
  145.9331  132.8954  149.9830 H   0  0  0  0  0  0  0  0  0  0  0  0
  146.9864  133.8030  152.1195 H   0  0  0  0  0  0  0  0  0  0  0  0
  148.4511  132.8581  151.8887 H   0  0  0  0  0  0  0  0  0  0  0  0
  150.4149  138.8454  153.2419 H   0  0  0  0  0  0  0  0  0  0  0  0
  147.3894  131.3105  150.9567 H   0  0  0  0  0  0  0  0  0  0  0  0
  1  2  1  0  0  0  0
  1 20  1  0  0  0  0
  1 21  1  0  0  0  0
  1 22  1  0  0  0  0
  2  3  1  0  0  0  0
  3 19  1  0  0  0  0
  3  4  2  0  0  0  0
  4  5  1  0  0  0  0
  4 23  1  0  0  0  0
  5  6  2  0  0  0  0
  5 24  1  0  0  0  0
  6  7  1  0  0  0  0
  6 18  1  0  0  0  0
  7  8  1  0  0  0  0
  7 25  1  0  0  0  0
  8  9  2  0  0  0  0
  8 10  1  0  0  0  0
 10 11  1  0  0  0  0
 10 26  1  0  0  0  0
 11 12  1  0  0  0  0
 11 27  1  0  0  0  0
 11 28  1  0  0  0  0
 12 17  1  0  0  0  0
 12 13  1  0  0  0  0
 12 29  1  0  0  0  0
 13 14  1  0  0  0  0
 13 30  1  0  0  0  0
 13 31  1  0  0  0  0
 14 15  1  0  0  0  0
 14 32  1  0  0  0  0
 14 33  1  0  0  0  0
 15 16  1  0  0  0  0
 15 17  1  0  0  0  0
 15 40  1  0  0  0  0
 16 34  1  0  0  0  0
 16 35  1  0  0  0  0
 16 36  1  0  0  0  0
 17 37  1  0  0  0  0
 17 38  1  0  0  0  0
 18 19  2  0  0  0  0
 18 39  1  0  0  0  0
M  CHG  1  15   1
M  END
> <s_m_source_file>
AV-unprocessed.smi

> <i_m_source_file_index>
1198

> <i_lp_mmshare_version>
43012

> <i_f3d_flags>
0

> <s_epik_input>
W0NIM11PYzFbY0hdW2NIXWMoW2NIXW4xKVtOSF1DKD1PKVtOSF1bQ0gyXVtDQEBIXTJbQ0gyXVtDSDJdTihbQ0gzXSlbQ0gyXTI=

> <s_epik_cmdline>
J2VwaWtfcHl0aG9uJywgJy1waCcsICc3LjAnLCAnLXRuJywgJzgnLCAnLW1hJywgJzIwMCcsICctbWV0YWxfYmluZGluZycsICctaW1hZScsICc8aW5maWxlLm1hZT4nLCAnLW9tYWUnLCAnPG91dGZpbGUubWFlPic=

> <r_lp_tautomer_probability>
1

> <r_epik_Ionization_Penalty>
0.00131396

> <r_epik_Ionization_Penalty_Charging>
0.0012301

> <r_epik_Ionization_Penalty_Neutral>
8.38549e-05

> <r_epik_State_Penalty>
0.00081314

> <r_epik_Charging_Adjusted_Penalty>
0.00204324

> <i_epik_Tot_Q>
1

> <i_epik_Tot_abs_Q>
1

> <r_epik_Metal_State_Penalty>
-0

> <b_epik_Metal_Only>
0

> <s_lp_Force_Field>
OPLS_2005

> <r_lp_Energy>
29.8617

> <b_lp_Chiralities_Consistent>
1

> <s_lp_Variant>
AV-unprocessed.smi:1198-3

> <Gold.Version>
5.8.1

> <Gold.Id.Protein>
6NUR|6NUR_protein|mol2

> <Gold.PLP.Fitness>
42.9166

> <Gold.PLP.PLP>
-29.3848

> <Gold.PLP.part.hbond>
-4.0000

> <Gold.PLP.part.metal>
0.0000

> <Gold.PLP.part.buried>
-4.0476

> <Gold.PLP.part.nonpolar>
-21.5962

> <Gold.PLP.part.repulsive>
0.1547

> <Gold.PLP.ligand.clash>
0.1165

> <Gold.PLP.ligand.torsion>
0.4999

> <Gold.PLP.Chemscore.Hbond>
3.8760

> <Gold.PLP.Chemscore.CHOScore>
1.0000

> <Gold.PLP.Chemscore.Metal>
0.0000

> <Gold.Chemscore.Hbonds>
donor molecule, donor type, donor heavy atom, donor atom, acceptor molecule, acceptor atom, score
      L1  H     7    25       P1  7948  1.00
      L1  H    10    26       P1  7948  0.84
      L1  H    15    40       P1 10747  1.00
      P1  H  7989  7998       L1    19  1.00
      L1  C    18    39       P1  7957  1.00

> <Gold.PLP.Chemscore.Internal.Correction>
0.0201

> <Gold.Rescore>
     Score         DG    S(hbond)    S(metal)    S(lipo)     H(rot)  DE(clash)    DE(int)     intcor
     16.96     -18.68       2.96        0.00      61.35       1.51       0.08       1.64       ----

> <Gold.Chemscore.Fitness>
16.9638

> <Gold.Chemscore.DG>
-18.6797

> <Gold.Chemscore.ZeroCoef>
-5.4800

> <Gold.Chemscore.Hbond>
2.9639

> <Gold.Chemscore.Metal>
0.0000

> <Gold.Chemscore.Lipo>
61.3526

> <Gold.Chemscore.Internal_Hbond>
0.0000

> <Gold.Chemscore.DEClash>
0.0785

> <Gold.Chemscore.DEInternal>
1.6374

> <Gold.Chemscore.Rot>
1.5149

> <Gold.Chemscore.Internal.Correction>
   9.000000E+99

> <Gold.Chemscore.Hbonds>
donor molecule, donor type, donor heavy atom, donor atom, acceptor molecule, acceptor atom, score
      L1  H     7    25       P1  7948  0.93
      L1  H    10    26       P1  7948  0.20
      L1  H    15    40       P1 10747  1.00
      P1  H  7989  7998       L1    19  0.45

> <Gold.Chemscore.Hbond.Weighted>
-9.8996

> <Gold.Chemscore.Metal.Weighted>
-0.0000

> <Gold.Chemscore.Lipo.Weighted>
-7.1783

> <Gold.Chemscore.Internal_Hbond.Weighted>
0.0000

> <Gold.Chemscore.DEClash.Weighted>
0.0785

> <Gold.Chemscore.DEInternal.Weighted>
1.6374

> <Gold.Chemscore.Rot.Weighted>
3.8781

> <Gold.Chemscore.Internal.Correction.Weighted>
   9.000000E+99

> <Gold.Protein.RotatedTorsions>
[ 6907 6896 6895 6894 ] final  171.82 input  -60.11 | X-H torsion
[ 7974 7965 7964 7962 ] final   17.74 input  175.53 | X-H torsion
[ 8008 7997 7996 7995 ] final   12.71 input   59.86 | X-H torsion
[ 10167 10162 10161 10158 ] final   92.50 input  -65.29 | X-H torsion
[ 10718 10713 10712 10709 ] final  129.75 input   66.30 | X-H torsion
[ 10763 10752 10751 10750 ] final  169.09 input  -60.55 | X-H torsion
[ 11005 11000 10999 10996 ] final  -67.80 input  -57.11 | X-H torsion

> <Gold.Protein.ActiveResidues>
 VAL166  LYS551  ARG553  GLY616  TRP617  ASP618  TYR619  PRO620  LYS621  CYS622 
 ASP623  PHE694  ASN695  SER759  ASP760  ASP761  ALA762  ILE779  LEU786  VAL792 
 PHE793  MET794  SER795  GLU796  ALA797  LYS798  CYS799  TRP800  GLU811  SER814 

> <Gold.Protein.RotatedAtoms>
  151.7942  133.3362  159.3507 H   0  0  0  0  0  0  0  0  0  0  0  0  # atno 6907 bound_to 6896
  150.7381  134.5814  159.5950 H   0  0  0  0  0  0  0  0  0  0  0  0  # atno 6908 bound_to 6896
  152.3189  134.7406  160.0370 H   0  0  0  0  0  0  0  0  0  0  0  0  # atno 6909 bound_to 6896
  146.2208  139.8558  142.8614 H   0  0  0  0  0  0  0  0  0  0  0  0  # atno 7974 bound_to 7965
  154.8244  140.2889  155.5764 H   0  0  0  0  0  0  0  0  0  0  0  0  # atno 8008 bound_to 7997
  156.3000  140.2544  156.3088 H   0  0  0  0  0  0  0  0  0  0  0  0  # atno 8009 bound_to 7997
  154.9302  140.0383  157.2033 H   0  0  0  0  0  0  0  0  0  0  0  0  # atno 8010 bound_to 7997
  139.8271  144.6704  150.9446 H   0  0  0  0  0  0  0  0  0  0  0  0  # atno 10167 bound_to 10162
  157.5126  131.1097  150.9271 H   0  0  0  0  0  0  0  0  0  0  0  0  # atno 10718 bound_to 10713
  154.3780  135.2753  155.2228 H   0  0  0  0  0  0  0  0  0  0  0  0  # atno 10763 bound_to 10752
  154.4346  135.5969  153.6094 H   0  0  0  0  0  0  0  0  0  0  0  0  # atno 10764 bound_to 10752
  152.9835  135.6004  154.4020 H   0  0  0  0  0  0  0  0  0  0  0  0  # atno 10765 bound_to 10752
  141.1517  133.6727  156.6348 H   0  0  0  0  0  0  0  0  0  0  0  0  # atno 11005 bound_to 11000
  145.2754  141.0122  143.3748 LP  0  0  0  0  0  0  0  0  0  0  0  0  # atno 17320 bound_to 7965
  144.9191  139.4434  143.6550 LP  0  0  0  0  0  0  0  0  0  0  0  0  # atno 17321 bound_to 7965
  140.7809  143.4036  151.1108 LP  0  0  0  0  0  0  0  0  0  0  0  0  # atno 17342 bound_to 10162
  139.7693  143.8519  152.3117 LP  0  0  0  0  0  0  0  0  0  0  0  0  # atno 17343 bound_to 10162
  156.9907  130.5562  149.5303 LP  0  0  0  0  0  0  0  0  0  0  0  0  # atno 17370 bound_to 10713
  156.0299  130.5391  150.8506 LP  0  0  0  0  0  0  0  0  0  0  0  0  # atno 17371 bound_to 10713
  140.3439  134.7826  157.4417 LP  0  0  0  0  0  0  0  0  0  0  0  0  # atno 17394 bound_to 11000
  140.0916  134.5594  155.8439 LP  0  0  0  0  0  0  0  0  0  0  0  0  # atno 17395 bound_to 11000

$$$$
