AV-unprocessed.smi:1071|AV-procd|sdf|4680|dock7
  -GOLD-   22720 3193D 1   1.00000     0.00000
 Structure written by MMmdl.
 47 48  0  0  0  0  0  0  0  0  2 V2000
  152.4603  140.5428  159.2269 C   0  0  0  0  0  0  0  0  0  0  0  0
  152.7818  140.0391  157.9424 O   0  0  0  0  0  0  0  0  0  0  0  0
  151.7079  140.1648  157.0254 C   0  0  0  0  0  0  0  0  0  0  0  0
  152.1927  139.7615  155.6300 C   0  0  0  0  0  0  0  0  0  0  0  0
  151.1310  139.9597  154.7012 O   0  0  0  0  0  0  0  0  0  0  0  0
  150.0579  139.0927  154.7330 C   0  0  0  0  0  0  0  0  0  0  0  0
  148.8678  139.4693  154.0795 C   0  0  0  0  0  0  0  0  0  0  0  0
  147.7698  138.5892  154.1091 C   0  0  0  0  0  0  0  0  0  0  0  0
  147.8959  137.3557  154.7792 C   0  0  0  0  0  0  0  0  0  0  0  0
  146.7686  136.4922  154.8140 N   0  0  0  0  0  0  0  0  0  0  0  0
  145.7484  136.4174  153.9377 C   0  0  0  0  0  0  0  0  0  0  0  0
  145.5391  137.2555  153.0613 O   0  0  0  0  0  0  0  0  0  0  0  0
  144.8840  135.4152  154.2296 N   0  0  0  0  0  0  0  0  0  0  0  0
  145.3994  134.1001  154.6384 C   0  0  0  0  0  0  0  0  0  0  0  0
  145.5673  133.2117  153.3885 C   0  0  0  0  0  0  0  0  0  0  0  0
  144.2993  133.1061  152.6199 N   0  3  2  0  0  0  0  0  0  0  0  0
  144.4421  132.2773  151.4043 C   0  0  0  0  0  0  0  0  0  0  0  0
  143.6661  134.4216  152.3398 C   0  0  0  0  0  0  0  0  0  0  0  0
  143.5445  135.2635  153.6271 C   0  0  2  0  0  0  0  0  0  0  0  0
  142.7720  136.5812  153.4061 C   0  0  0  0  0  0  0  0  0  0  0  0
  149.1293  137.0738  155.4151 C   0  0  0  0  0  0  0  0  0  0  0  0
  150.1841  137.9155  155.3938 N   0  0  0  0  0  0  0  0  0  0  0  0
  153.3126  140.4145  159.8943 H   0  0  0  0  0  0  0  0  0  0  0  0
  151.6117  140.0107  159.6587 H   0  0  0  0  0  0  0  0  0  0  0  0
  152.2226  141.6065  159.1846 H   0  0  0  0  0  0  0  0  0  0  0  0
  150.8793  139.5241  157.3313 H   0  0  0  0  0  0  0  0  0  0  0  0
  151.3433  141.1931  157.0110 H   0  0  0  0  0  0  0  0  0  0  0  0
  153.0595  140.3644  155.3544 H   0  0  0  0  0  0  0  0  0  0  0  0
  152.4972  138.7135  155.6365 H   0  0  0  0  0  0  0  0  0  0  0  0
  148.7978  140.4168  153.5661 H   0  0  0  0  0  0  0  0  0  0  0  0
  146.8458  138.8595  153.6190 H   0  0  0  0  0  0  0  0  0  0  0  0
  146.7314  135.8565  155.5973 H   0  0  0  0  0  0  0  0  0  0  0  0
  146.3501  134.1627  155.1699 H   0  0  0  0  0  0  0  0  0  0  0  0
  144.7036  133.6366  155.3395 H   0  0  0  0  0  0  0  0  0  0  0  0
  146.3457  133.6241  152.7441 H   0  0  0  0  0  0  0  0  0  0  0  0
  145.8971  132.2152  153.6845 H   0  0  0  0  0  0  0  0  0  0  0  0
  145.1320  132.7377  150.6956 H   0  0  0  0  0  0  0  0  0  0  0  0
  143.4785  132.1492  150.9102 H   0  0  0  0  0  0  0  0  0  0  0  0
  144.8208  131.2863  151.6567 H   0  0  0  0  0  0  0  0  0  0  0  0
  144.2537  134.9582  151.5930 H   0  0  0  0  0  0  0  0  0  0  0  0
  142.6782  134.2573  151.9079 H   0  0  0  0  0  0  0  0  0  0  0  0
  142.9426  134.6960  154.3392 H   0  0  0  0  0  0  0  0  0  0  0  0
  141.7308  136.3748  153.1570 H   0  0  0  0  0  0  0  0  0  0  0  0
  143.1780  137.1743  152.5871 H   0  0  0  0  0  0  0  0  0  0  0  0
  142.7742  137.1969  154.3061 H   0  0  0  0  0  0  0  0  0  0  0  0
  149.2857  136.1670  155.9787 H   0  0  0  0  0  0  0  0  0  0  0  0
  143.6540  132.6160  153.2229 H   0  0  0  0  0  0  0  0  0  0  0  0
  1  2  1  0  0  0  0
  1 23  1  0  0  0  0
  1 24  1  0  0  0  0
  1 25  1  0  0  0  0
  2  3  1  0  0  0  0
  3  4  1  0  0  0  0
  3 26  1  0  0  0  0
  3 27  1  0  0  0  0
  4  5  1  0  0  0  0
  4 28  1  0  0  0  0
  4 29  1  0  0  0  0
  5  6  1  0  0  0  0
  6 22  1  0  0  0  0
  6  7  2  0  0  0  0
  7  8  1  0  0  0  0
  7 30  1  0  0  0  0
  8  9  2  0  0  0  0
  8 31  1  0  0  0  0
  9 10  1  0  0  0  0
  9 21  1  0  0  0  0
 10 11  1  0  0  0  0
 10 32  1  0  0  0  0
 11 12  2  0  0  0  0
 11 13  1  0  0  0  0
 13 19  1  0  0  0  0
 13 14  1  0  0  0  0
 14 15  1  0  0  0  0
 14 33  1  0  0  0  0
 14 34  1  0  0  0  0
 15 16  1  0  0  0  0
 15 35  1  0  0  0  0
 15 36  1  0  0  0  0
 16 17  1  0  0  0  0
 16 18  1  0  0  0  0
 16 47  1  0  0  0  0
 17 37  1  0  0  0  0
 17 38  1  0  0  0  0
 17 39  1  0  0  0  0
 18 19  1  0  0  0  0
 18 40  1  0  0  0  0
 18 41  1  0  0  0  0
 19 20  1  0  0  0  0
 19 42  1  0  0  0  0
 20 43  1  0  0  0  0
 20 44  1  0  0  0  0
 20 45  1  0  0  0  0
 21 22  2  0  0  0  0
 21 46  1  0  0  0  0
M  CHG  1  16   1
M  END
> <s_m_source_file>
AV-unprocessed.smi

> <i_m_source_file_index>
1071

> <i_lp_mmshare_version>
43012

> <i_f3d_flags>
0

> <s_epik_input>
W0NIM11PW0NIMl1bQ0gyXU9jMVtjSF1bY0hdYyhbY0hdbjEpW05IXUMoPU8pTjJbQ0gyXVtDSDJdTihbQ0gzXSlbQ0gyXVtDQEhdMltDSDNd

> <s_epik_cmdline>
J2VwaWtfcHl0aG9uJywgJy1waCcsICc3LjAnLCAnLXRuJywgJzgnLCAnLW1hJywgJzIwMCcsICctbWV0YWxfYmluZGluZycsICctaW1hZScsICc8aW5maWxlLm1hZT4nLCAnLW9tYWUnLCAnPG91dGZpbGUubWFlPic=

> <r_lp_tautomer_probability>
1

> <r_epik_Ionization_Penalty>
0.25455

> <r_epik_Ionization_Penalty_Charging>
0.254506

> <r_epik_Ionization_Penalty_Neutral>
4.43365e-05

> <r_epik_State_Penalty>
0.245983

> <r_epik_Charging_Adjusted_Penalty>
0.500488

> <i_epik_Tot_Q>
1

> <i_epik_Tot_abs_Q>
1

> <r_epik_Metal_State_Penalty>
0.245987

> <b_epik_Metal_Only>
0

> <s_lp_Force_Field>
OPLS_2005

> <r_lp_Energy>
54.7367

> <b_lp_Chiralities_Consistent>
1

> <s_lp_Variant>
AV-unprocessed.smi:1071-4

> <Gold.Version>
5.8.1

> <Gold.Id.Protein>
6NUR|6NUR_protein|mol2

> <Gold.PLP.Fitness>
36.9103

> <Gold.PLP.PLP>
-25.7006

> <Gold.PLP.part.hbond>
-3.0000

> <Gold.PLP.part.metal>
0.0000

> <Gold.PLP.part.buried>
-4.1315

> <Gold.PLP.part.nonpolar>
-19.3075

> <Gold.PLP.part.repulsive>
0.3495

> <Gold.PLP.ligand.clash>
0.0000

> <Gold.PLP.ligand.torsion>
0.7152

> <Gold.PLP.Chemscore.Hbond>
4.0000

> <Gold.PLP.Chemscore.CHOScore>
0.0000

> <Gold.PLP.Chemscore.Metal>
0.0000

> <Gold.Chemscore.Hbonds>
donor molecule, donor type, donor heavy atom, donor atom, acceptor molecule, acceptor atom, score
      L1  H    16    47       P1 10957  2.00
      P1  H  7989  7998       L1     5  1.00
      P1  H  7997  8008       L1     2  1.00

> <Gold.PLP.Chemscore.Internal.Correction>
0.6401

> <Gold.Rescore>
     Score         DG    S(hbond)    S(metal)    S(lipo)     H(rot)  DE(clash)    DE(int)     intcor
     13.39     -16.87       2.68        0.00      55.84       1.60       0.11       3.37       ----

> <Gold.Chemscore.Fitness>
13.3884

> <Gold.Chemscore.DG>
-16.8671

> <Gold.Chemscore.ZeroCoef>
-5.4800

> <Gold.Chemscore.Hbond>
2.6829

> <Gold.Chemscore.Metal>
0.0000

> <Gold.Chemscore.Lipo>
55.8447

> <Gold.Chemscore.Internal_Hbond>
0.0000

> <Gold.Chemscore.DEClash>
0.1095

> <Gold.Chemscore.DEInternal>
3.3692

> <Gold.Chemscore.Rot>
1.6045

> <Gold.Chemscore.Internal.Correction>
   9.000000E+99

> <Gold.Chemscore.Hbonds>
donor molecule, donor type, donor heavy atom, donor atom, acceptor molecule, acceptor atom, score
      L1  H    16    47       P1 10957  0.24
      P1  H  7989  7998       L1     5  0.68
      P1  H  7997  8008       L1     2  0.57

> <Gold.Chemscore.Hbond.Weighted>
-8.9608

> <Gold.Chemscore.Metal.Weighted>
-0.0000

> <Gold.Chemscore.Lipo.Weighted>
-6.5338

> <Gold.Chemscore.Internal_Hbond.Weighted>
0.0000

> <Gold.Chemscore.DEClash.Weighted>
0.1095

> <Gold.Chemscore.DEInternal.Weighted>
3.3692

> <Gold.Chemscore.Rot.Weighted>
4.1075

> <Gold.Chemscore.Internal.Correction.Weighted>
   9.000000E+99

> <Gold.Protein.RotatedTorsions>
[ 6907 6896 6895 6894 ] final  -51.56 input  -60.11 | X-H torsion
[ 7974 7965 7964 7962 ] final   75.65 input  175.53 | X-H torsion
[ 8008 7997 7996 7995 ] final  -74.31 input   59.86 | X-H torsion
[ 10167 10162 10161 10158 ] final  164.74 input  -65.29 | X-H torsion
[ 10718 10713 10712 10709 ] final   25.87 input   66.30 | X-H torsion
[ 10763 10752 10751 10750 ] final  -11.71 input  -60.55 | X-H torsion
[ 11005 11000 10999 10996 ] final   42.50 input  -57.11 | X-H torsion

> <Gold.Protein.ActiveResidues>
 VAL166  LYS551  ARG553  GLY616  TRP617  ASP618  TYR619  PRO620  LYS621  CYS622 
 ASP623  PHE694  ASN695  SER759  ASP760  ASP761  ALA762  ILE779  LEU786  VAL792 
 PHE793  MET794  SER795  GLU796  ALA797  LYS798  CYS799  TRP800  GLU811  SER814 

> <Gold.Protein.RotatedAtoms>
  150.8600  134.7949  159.7074 H   0  0  0  0  0  0  0  0  0  0  0  0  # atno 6907 bound_to 6896
  152.4640  134.5116  159.9765 H   0  0  0  0  0  0  0  0  0  0  0  0  # atno 6908 bound_to 6896
  151.5222  133.3426  159.2939 H   0  0  0  0  0  0  0  0  0  0  0  0  # atno 6909 bound_to 6896
  145.7129  139.2621  143.1640 H   0  0  0  0  0  0  0  0  0  0  0  0  # atno 7974 bound_to 7965
  154.5320  140.0764  156.8361 H   0  0  0  0  0  0  0  0  0  0  0  0  # atno 8008 bound_to 7997
  155.3356  140.3404  155.4221 H   0  0  0  0  0  0  0  0  0  0  0  0  # atno 8009 bound_to 7997
  156.1790  140.1646  156.8296 H   0  0  0  0  0  0  0  0  0  0  0  0  # atno 8010 bound_to 7997
  139.4894  144.4204  151.9193 H   0  0  0  0  0  0  0  0  0  0  0  0  # atno 10167 bound_to 10162
  157.1992  130.6882  149.6181 H   0  0  0  0  0  0  0  0  0  0  0  0  # atno 10718 bound_to 10713
  153.4877  135.7017  153.5901 H   0  0  0  0  0  0  0  0  0  0  0  0  # atno 10763 bound_to 10752
  153.4087  135.3854  155.2036 H   0  0  0  0  0  0  0  0  0  0  0  0  # atno 10764 bound_to 10752
  154.8718  135.3899  154.4334 H   0  0  0  0  0  0  0  0  0  0  0  0  # atno 10765 bound_to 10752
  140.1733  134.4194  155.8244 H   0  0  0  0  0  0  0  0  0  0  0  0  # atno 11005 bound_to 11000
  146.0696  140.7883  142.9694 LP  0  0  0  0  0  0  0  0  0  0  0  0  # atno 17320 bound_to 7965
  144.6937  140.3322  143.7214 LP  0  0  0  0  0  0  0  0  0  0  0  0  # atno 17321 bound_to 7965
  140.3648  144.2928  150.5928 LP  0  0  0  0  0  0  0  0  0  0  0  0  # atno 17342 bound_to 10162
  140.5371  143.2231  151.8145 LP  0  0  0  0  0  0  0  0  0  0  0  0  # atno 17343 bound_to 10162
  155.9702  130.4588  150.6014 LP  0  0  0  0  0  0  0  0  0  0  0  0  # atno 17370 bound_to 10713
  157.3784  131.0777  151.1498 LP  0  0  0  0  0  0  0  0  0  0  0  0  # atno 17371 bound_to 10713
  141.2219  133.6966  156.7802 LP  0  0  0  0  0  0  0  0  0  0  0  0  # atno 17394 bound_to 11000
  140.2352  134.8656  157.3517 LP  0  0  0  0  0  0  0  0  0  0  0  0  # atno 17395 bound_to 11000

$$$$
