#       Name:                AV-unprocessed.smi:1517
#       Creating user name   scv26
#       Creation time:       Fri Mar 27 06:25:34 2020


#       File generated by GOLD software.
#

@<TRIPOS>MOLECULE
AV-unprocessed.smi:1517
    46    48     1
SMALL
NO_CHARGES


@<TRIPOS>ATOM
      1 ****        -4.7276   1.5682   0.3931 O.3            1 S1                 0.0000
      2 ****        -4.3575   1.8972  -0.9288 C.3            1 S1                 0.0000
      3 ****        -2.9217   2.4373  -0.9512 C.3            1 S1                 0.0000
      4 ****        -1.9444   1.3608  -0.9676 N.pl3          1 S1                 0.0000
      5 ****        -0.5841   1.6765  -0.8913 C.cat          1 S1                 0.0000
      6 ****        -0.0442   2.9197  -1.0042 N.pl3          1 S1                 1.0000
      7 ****         1.3429   2.8110  -0.8672 C.ar           1 S1                 0.0000
      8 ****         2.3383   3.7828  -0.9020 C.ar           1 S1                 0.0000
      9 ****         3.6650   3.3375  -0.7257 C.ar           1 S1                 0.0000
     10 ****         3.9628   1.9741  -0.5226 C.ar           1 S1                 0.0000
     11 ****         2.9478   0.9954  -0.4882 C.ar           1 S1                 0.0000
     12 ****         1.6386   1.4412  -0.6656 C.ar           1 S1                 0.0000
     13 ****         0.4091   0.7719  -0.6911 N.pl3          1 S1                 0.0000
     14 ****         0.3689  -0.6859  -0.5037 C.3            1 S1                 0.0000
     15 ****         0.4262  -1.0983   0.9800 C.3            1 S1                 0.0000
     16 ****        -0.6409  -0.4918   1.6852 O.3            1 S1                 0.0000
     17 ****         0.4434  -2.6138   1.1273 C.ar           1 S1                 0.0000
     18 ****        -0.7644  -3.3464   1.1737 C.ar           1 S1                 0.0000
     19 ****        -0.7421  -4.7485   1.3022 C.ar           1 S1                 0.0000
     20 ****         0.4874  -5.4293   1.3797 C.ar           1 S1                 0.0000
     21 ****         0.5092  -6.7776   1.5027 F              1 S1                 0.0000
     22 ****         1.6947  -4.7073   1.3248 C.ar           1 S1                 0.0000
     23 ****         1.6747  -3.3046   1.1966 C.ar           1 S1                 0.0000
     24 ****         2.8458  -2.6255   1.1348 F              1 S1                 0.0000
     25 ****        -5.6218   1.2618   0.3879 H              1 S1                 0.0000
     26 ****        -4.4780   1.0358  -1.5870 H              1 S1                 0.0000
     27 ****        -5.0444   2.6679  -1.2794 H              1 S1                 0.0000
     28 ****        -2.7790   3.0259  -1.8583 H              1 S1                 0.0000
     29 ****        -2.7453   3.1052  -0.1068 H              1 S1                 0.0000
     30 ****        -2.2522   0.4148  -0.7914 H              1 S1                 0.0000
     31 ****         2.1144   4.8284  -1.0557 H              1 S1                 0.0000
     32 ****         4.4711   4.0567  -0.7457 H              1 S1                 0.0000
     33 ****         4.9916   1.6722  -0.3900 H              1 S1                 0.0000
     34 ****         3.1866  -0.0463  -0.3301 H              1 S1                 0.0000
     35 ****        -0.5461  -1.0572  -0.9673 H              1 S1                 0.0000
     36 ****         1.1953  -1.1259  -1.0632 H              1 S1                 0.0000
     37 ****         1.3406  -0.7022   1.4227 H              1 S1                 0.0000
     38 ****        -0.5363  -0.6781   2.6060 H              1 S1                 0.0000
     39 ****        -1.7151  -2.8377   1.1077 H              1 S1                 0.0000
     40 ****        -1.6690  -5.3017   1.3393 H              1 S1                 0.0000
     41 ****         2.6382  -5.2304   1.3790 H              1 S1                 0.0000
     42 ****        -0.5777   3.7654  -1.1577 H              1 S1                 0.0000
     43 ****        -4.6520   2.3775   0.9756 LP             1 S1                 0.0000
     44 ****        -4.1269   0.8490   0.7422 LP             1 S1                 0.0000
     45 ****        -1.5120  -0.8624   1.3629 LP             1 S1                 0.0000
     46 ****        -0.6242   0.4971   1.5371 LP             1 S1                 0.0000
@<TRIPOS>BOND
    1    1    2 1     
    2    1   25 1     
    3    2    3 1     
    4    2   26 1     
    5    2   27 1     
    6    3    4 1     
    7    3   28 1     
    8    3   29 1     
    9    4    5 ar    
   10    4   30 1     
   11    5   13 ar    
   12    5    6 ar    
   13    6    7 1     
   14    6   42 1     
   15    7   12 ar    
   16    7    8 ar    
   17    8    9 ar    
   18    8   31 1     
   19    9   10 ar    
   20    9   32 1     
   21   10   11 ar    
   22   10   33 1     
   23   11   12 ar    
   24   11   34 1     
   25   12   13 1     
   26   13   14 1     
   27   14   15 1     
   28   14   35 1     
   29   14   36 1     
   30   15   16 1     
   31   15   17 1     
   32   15   37 1     
   33   16   38 1     
   34   17   23 ar    
   35   17   18 ar    
   36   18   19 ar    
   37   18   39 1     
   38   19   20 ar    
   39   19   40 1     
   40   20   21 1     
   41   20   22 ar    
   42   22   23 ar    
   43   22   41 1     
   44   23   24 1     
   45    1   43 1     
   46    1   44 1     
   47   16   45 1     
   48   16   46 1     
@<TRIPOS>SUBSTRUCTURE
      1 S1             1
@<TRIPOS>SET
LONE_PAIRS      STATIC     ATOMS    <user>   **** ""
4 43 44 45 46
DONOR_HYDROGENS      STATIC     ATOMS    <user>   **** ""
4 25 30 42 38
ATOM$BLUE        STATIC     ATOMS    COLORGROUP SYSTEM
4 43 44 45 46
ATOM$RED        STATIC     ATOMS    COLORGROUP SYSTEM
4 25 30 42 38
