AV-unprocessed.smi:415|AV-procd|sdf|2520|dock5
  -GOLD-   2262022473D 1   1.00000     0.00000
 Structure written by MMmdl.
 53 54  0  0  0  0  0  0  0  0  1 V2000
  146.7399  142.9150  159.7983 C   0  0  0  0  0  0  0  0  0  0  0  0
  146.4279  141.6399  159.2663 O   0  0  0  0  0  0  0  0  0  0  0  0
  145.6788  141.7183  158.0651 C   0  0  0  0  0  0  0  0  0  0  0  0
  145.7861  140.3948  157.2898 C   0  0  0  0  0  0  0  0  0  0  0  0
  146.9513  140.3335  156.4272 N   0  0  0  0  0  0  0  0  0  0  0  0
  146.9882  140.9117  155.1617 C   0  0  0  0  0  0  0  0  0  0  0  0
  145.8842  141.6015  154.6938 N   0  0  0  0  0  0  0  0  0  0  0  0
  148.0863  140.8247  154.3786 C   0  0  0  0  0  0  0  0  0  0  0  0
  149.2881  140.1274  154.8135 C   0  0  0  0  0  0  0  0  0  0  0  0
  150.2855  140.0073  154.1019 O   0  0  0  0  0  0  0  0  0  0  0  0
  149.2406  139.5752  156.1140 N   0  0  0  0  0  0  0  0  0  0  0  0
  150.4221  138.8352  156.6180 C   0  0  0  0  0  0  0  0  0  0  0  0
  151.5682  139.7254  157.1316 C   0  0  0  0  0  0  0  0  0  0  0  0
  152.5940  139.8298  156.4604 O   0  0  0  0  0  0  0  0  0  0  0  0
  151.3924  140.3671  158.2989 N   0  0  0  0  0  0  0  0  0  0  0  0
  152.3245  141.3068  158.9147 C   0  0  2  0  0  0  0  0  0  0  0  0
  152.9117  140.6853  160.1964 C   0  0  0  0  0  0  0  0  0  0  0  0
  153.8628  141.6587  160.8985 C   0  0  0  0  0  0  0  0  0  0  0  0
  153.1482  142.9760  161.2182 C   0  0  0  0  0  0  0  0  0  0  0  0
  152.5615  143.6345  159.9532 C   0  0  2  0  0  0  0  0  0  0  0  0
  151.8839  144.9636  160.3344 C   0  0  0  0  0  0  0  0  0  0  0  0
  151.6133  142.6574  159.2015 C   0  0  1  0  0  0  0  0  0  0  0  0
  151.0508  143.2770  157.9023 C   0  0  0  0  0  0  0  0  0  0  0  0
  148.0953  139.6682  156.9383 C   0  0  0  0  0  0  0  0  0  0  0  0
  148.1010  139.1659  158.0654 O   0  0  0  0  0  0  0  0  0  0  0  0
  147.3120  142.7976  160.7185 H   0  0  0  0  0  0  0  0  0  0  0  0
  145.8351  143.4768  160.0337 H   0  0  0  0  0  0  0  0  0  0  0  0
  147.3420  143.4967  159.0990 H   0  0  0  0  0  0  0  0  0  0  0  0
  144.6327  141.9111  158.3060 H   0  0  0  0  0  0  0  0  0  0  0  0
  146.0278  142.5493  157.4502 H   0  0  0  0  0  0  0  0  0  0  0  0
  145.7809  139.5244  157.9477 H   0  0  0  0  0  0  0  0  0  0  0  0
  144.9217  140.2562  156.6408 H   0  0  0  0  0  0  0  0  0  0  0  0
  145.0440  141.7004  155.2455 H   0  0  0  0  0  0  0  0  0  0  0  0
  145.8652  142.0155  153.7729 H   0  0  0  0  0  0  0  0  0  0  0  0
  148.0815  141.2805  153.3986 H   0  0  0  0  0  0  0  0  0  0  0  0
  150.1467  138.1470  157.4182 H   0  0  0  0  0  0  0  0  0  0  0  0
  150.8223  138.1808  155.8419 H   0  0  0  0  0  0  0  0  0  0  0  0
  150.5199  140.2178  158.7843 H   0  0  0  0  0  0  0  0  0  0  0  0
  153.1416  141.4982  158.2161 H   0  0  0  0  0  0  0  0  0  0  0  0
  152.1060  140.4079  160.8777 H   0  0  0  0  0  0  0  0  0  0  0  0
  153.4464  139.7649  159.9597 H   0  0  0  0  0  0  0  0  0  0  0  0
  154.2444  141.2096  161.8158 H   0  0  0  0  0  0  0  0  0  0  0  0
  154.7281  141.8520  160.2635 H   0  0  0  0  0  0  0  0  0  0  0  0
  152.3528  142.7910  161.9416 H   0  0  0  0  0  0  0  0  0  0  0  0
  153.8505  143.6563  161.7015 H   0  0  0  0  0  0  0  0  0  0  0  0
  153.3952  143.8718  159.2903 H   0  0  0  0  0  0  0  0  0  0  0  0
  150.9840  144.7949  160.9266 H   0  0  0  0  0  0  0  0  0  0  0  0
  151.6060  145.5461  159.4569 H   0  0  0  0  0  0  0  0  0  0  0  0
  152.5544  145.5891  160.9244 H   0  0  0  0  0  0  0  0  0  0  0  0
  150.7646  142.4517  159.8565 H   0  0  0  0  0  0  0  0  0  0  0  0
  151.8531  143.5505  157.2164 H   0  0  0  0  0  0  0  0  0  0  0  0
  150.4611  144.1707  158.1013 H   0  0  0  0  0  0  0  0  0  0  0  0
  150.3877  142.5911  157.3754 H   0  0  0  0  0  0  0  0  0  0  0  0
  1  2  1  0  0  0  0
  1 26  1  0  0  0  0
  1 27  1  0  0  0  0
  1 28  1  0  0  0  0
  2  3  1  0  0  0  0
  3  4  1  0  0  0  0
  3 29  1  0  0  0  0
  3 30  1  0  0  0  0
  4  5  1  0  0  0  0
  4 31  1  0  0  0  0
  4 32  1  0  0  0  0
  5 24  1  0  0  0  0
  5  6  1  0  0  0  0
  6  7  1  0  0  0  0
  6  8  2  0  0  0  0
  7 33  1  0  0  0  0
  7 34  1  0  0  0  0
  8  9  1  0  0  0  0
  8 35  1  0  0  0  0
  9 10  2  0  0  0  0
  9 11  1  0  0  0  0
 11 12  1  0  0  0  0
 11 24  1  0  0  0  0
 12 13  1  0  0  0  0
 12 36  1  0  0  0  0
 12 37  1  0  0  0  0
 13 14  2  0  0  0  0
 13 15  1  0  0  0  0
 15 16  1  0  0  0  0
 15 38  1  0  0  0  0
 16 22  1  0  0  0  0
 16 17  1  0  0  0  0
 16 39  1  0  0  0  0
 17 18  1  0  0  0  0
 17 40  1  0  0  0  0
 17 41  1  0  0  0  0
 18 19  1  0  0  0  0
 18 42  1  0  0  0  0
 18 43  1  0  0  0  0
 19 20  1  0  0  0  0
 19 44  1  0  0  0  0
 19 45  1  0  0  0  0
 20 21  1  0  0  0  0
 20 22  1  0  0  0  0
 20 46  1  0  0  0  0
 21 47  1  0  0  0  0
 21 48  1  0  0  0  0
 21 49  1  0  0  0  0
 22 23  1  0  0  0  0
 22 50  1  0  0  0  0
 23 51  1  0  0  0  0
 23 52  1  0  0  0  0
 23 53  1  0  0  0  0
 24 25  2  0  0  0  0
M  END
> <s_m_source_file>
AV-unprocessed.smi

> <i_m_source_file_index>
415

> <i_lp_mmshare_version>
43012

> <i_f3d_flags>
0

> <s_epik_input>
W0NIM11PW0NIMl1bQ0gyXW4xYyhbTkgyXSlbY0hdYyg9TyluKGMxPU8pW0NIMl1DKD1PKVtOSF1bQ0BASF0yW0NIMl1bQ0gyXVtDSDJdW0NAQEhdKFtDSDNdKVtDQEhdMltDSDNd

> <s_epik_cmdline>
J2VwaWtfcHl0aG9uJywgJy1waCcsICc3LjAnLCAnLXRuJywgJzgnLCAnLW1hJywgJzIwMCcsICctbWV0YWxfYmluZGluZycsICctaW1hZScsICc8aW5maWxlLm1hZT4nLCAnLW9tYWUnLCAnPG91dGZpbGUubWFlPic=

> <r_lp_tautomer_probability>
1

> <r_epik_Ionization_Penalty>
8.6647e-06

> <r_epik_Ionization_Penalty_Charging>
1.81162e-08

> <r_epik_Ionization_Penalty_Neutral>
8.64658e-06

> <r_epik_State_Penalty>
-0

> <r_epik_Charging_Adjusted_Penalty>
1.81162e-08

> <i_epik_Tot_Q>
0

> <i_epik_Tot_abs_Q>
0

> <r_epik_Metal_State_Penalty>
-0

> <b_epik_Metal_Only>
0

> <s_lp_Force_Field>
OPLS_2005

> <r_lp_Energy>
21.9512

> <b_lp_Chiralities_Consistent>
1

> <s_lp_Variant>
AV-unprocessed.smi:415-3

> <Gold.Version>
5.8.1

> <Gold.Id.Protein>
6NUR|6NUR_protein|mol2

> <Gold.PLP.Fitness>
45.2067

> <Gold.PLP.PLP>
-38.4010

> <Gold.PLP.part.hbond>
-4.1688

> <Gold.PLP.part.metal>
0.0000

> <Gold.PLP.part.buried>
-7.3417

> <Gold.PLP.part.nonpolar>
-28.5553

> <Gold.PLP.part.repulsive>
1.1767

> <Gold.PLP.ligand.clash>
0.0000

> <Gold.PLP.ligand.torsion>
0.9990

> <Gold.PLP.Chemscore.Hbond>
2.9120

> <Gold.PLP.Chemscore.CHOScore>
0.0000

> <Gold.PLP.Chemscore.Metal>
0.0000

> <Gold.Chemscore.Hbonds>
donor molecule, donor type, donor heavy atom, donor atom, acceptor molecule, acceptor atom, score
      P1  H  6934  6946       L1     2  0.55
      P1  H  7989  7998       L1    10  1.00
      P1  H  7997  8009       L1    14  1.00

> <Gold.PLP.Chemscore.Internal.Correction>
0.0677

> <Gold.Rescore>
     Score         DG    S(hbond)    S(metal)    S(lipo)     H(rot)  DE(clash)    DE(int)     intcor
     18.59     -19.91       2.68        0.00      96.37       2.26       0.09       1.24       ----

> <Gold.Chemscore.Fitness>
18.5859

> <Gold.Chemscore.DG>
-19.9125

> <Gold.Chemscore.ZeroCoef>
-5.4800

> <Gold.Chemscore.Hbond>
2.6811

> <Gold.Chemscore.Metal>
0.0000

> <Gold.Chemscore.Lipo>
96.3652

> <Gold.Chemscore.Internal_Hbond>
0.0000

> <Gold.Chemscore.DEClash>
0.0854

> <Gold.Chemscore.DEInternal>
1.2413

> <Gold.Chemscore.Rot>
2.2645

> <Gold.Chemscore.Internal.Correction>
   9.000000E+99

> <Gold.Chemscore.Hbonds>
donor molecule, donor type, donor heavy atom, donor atom, acceptor molecule, acceptor atom, score
      P1  H  6934  6946       L1     2  0.05
      P1  H  7989  7998       L1    10  0.96
      P1  H  7997  8009       L1    14  1.00

> <Gold.Chemscore.Hbond.Weighted>
-8.9550

> <Gold.Chemscore.Metal.Weighted>
-0.0000

> <Gold.Chemscore.Lipo.Weighted>
-11.2747

> <Gold.Chemscore.Internal_Hbond.Weighted>
0.0000

> <Gold.Chemscore.DEClash.Weighted>
0.0854

> <Gold.Chemscore.DEInternal.Weighted>
1.2413

> <Gold.Chemscore.Rot.Weighted>
5.7972

> <Gold.Chemscore.Internal.Correction.Weighted>
   9.000000E+99

> <Gold.Protein.RotatedTorsions>
[ 6907 6896 6895 6894 ] final  -52.55 input  -60.11 | X-H torsion
[ 7974 7965 7964 7962 ] final  -68.71 input  175.53 | X-H torsion
[ 8008 7997 7996 7995 ] final -165.07 input   59.86 | X-H torsion
[ 10167 10162 10161 10158 ] final  153.87 input  -65.29 | X-H torsion
[ 10718 10713 10712 10709 ] final -170.09 input   66.30 | X-H torsion
[ 10763 10752 10751 10750 ] final  -14.63 input  -60.55 | X-H torsion
[ 11005 11000 10999 10996 ] final  -29.70 input  -57.11 | X-H torsion

> <Gold.Protein.ActiveResidues>
 VAL166  LYS551  ARG553  GLY616  TRP617  ASP618  TYR619  PRO620  LYS621  CYS622 
 ASP623  PHE694  ASN695  SER759  ASP760  ASP761  ALA762  ILE779  LEU786  VAL792 
 PHE793  MET794  SER795  GLU796  ALA797  LYS798  CYS799  TRP800  GLU811  SER814 

> <Gold.Protein.RotatedAtoms>
  150.8508  134.7831  159.7006 H   0  0  0  0  0  0  0  0  0  0  0  0  # atno 6907 bound_to 6896
  152.4573  134.5260  159.9806 H   0  0  0  0  0  0  0  0  0  0  0  0  # atno 6908 bound_to 6896
  151.5382  133.3399  159.2966 H   0  0  0  0  0  0  0  0  0  0  0  0  # atno 6909 bound_to 6896
  145.7130  140.9070  143.0670 H   0  0  0  0  0  0  0  0  0  0  0  0  # atno 7974 bound_to 7965
  155.8446  140.0953  157.1713 H   0  0  0  0  0  0  0  0  0  0  0  0  # atno 8008 bound_to 7997
  154.3983  140.1394  156.3832 H   0  0  0  0  0  0  0  0  0  0  0  0  # atno 8009 bound_to 7997
  155.8027  140.3452  155.5414 H   0  0  0  0  0  0  0  0  0  0  0  0  # atno 8010 bound_to 7997
  139.4825  144.5235  151.7837 H   0  0  0  0  0  0  0  0  0  0  0  0  # atno 10167 bound_to 10162
  156.7211  130.9270  151.3097 H   0  0  0  0  0  0  0  0  0  0  0  0  # atno 10718 bound_to 10713
  153.5312  135.7014  153.5682 H   0  0  0  0  0  0  0  0  0  0  0  0  # atno 10763 bound_to 10752
  153.3689  135.3950  155.1773 H   0  0  0  0  0  0  0  0  0  0  0  0  # atno 10764 bound_to 10752
  154.8684  135.3807  154.4809 H   0  0  0  0  0  0  0  0  0  0  0  0  # atno 10765 bound_to 10752
  140.9319  133.7333  156.0948 H   0  0  0  0  0  0  0  0  0  0  0  0  # atno 11005 bound_to 11000
  144.6937  139.9100  143.7463 LP  0  0  0  0  0  0  0  0  0  0  0  0  # atno 17320 bound_to 7965
  146.0695  139.3684  143.0532 LP  0  0  0  0  0  0  0  0  0  0  0  0  # atno 17321 bound_to 7965
  140.4752  144.1529  150.5924 LP  0  0  0  0  0  0  0  0  0  0  0  0  # atno 17342 bound_to 10162
  140.4338  143.2556  151.9561 LP  0  0  0  0  0  0  0  0  0  0  0  0  # atno 17343 bound_to 10162
  157.6897  130.9221  150.0482 LP  0  0  0  0  0  0  0  0  0  0  0  0  # atno 17370 bound_to 10713
  156.1594  130.3643  149.9322 LP  0  0  0  0  0  0  0  0  0  0  0  0  # atno 17371 bound_to 10713
  140.7851  134.3681  157.5478 LP  0  0  0  0  0  0  0  0  0  0  0  0  # atno 17394 bound_to 11000
  139.8798  134.9106  156.3017 LP  0  0  0  0  0  0  0  0  0  0  0  0  # atno 17395 bound_to 11000

$$$$
