AV-unprocessed.smi:2788|AV-procd|sdf|10761|dock2
  -GOLD-   2272015193D 1   1.00000     0.00000
 Structure written by MMmdl.
 47 48  0  0  0  0  0  0  0  0  1 V2000
  150.8835  136.8213  154.6999 C   0  0  0  0  0  0  0  0  0  0  0  0
  150.7361  135.5781  155.5291 C   0  0  0  0  0  0  0  0  0  0  0  0
  151.7007  135.2336  156.3654 N   0  0  0  0  0  0  0  0  0  0  0  0
  151.2624  134.0654  156.9957 O   0  0  0  0  0  0  0  0  0  0  0  0
  150.0356  133.7494  156.5099 C   0  0  0  0  0  0  0  0  0  0  0  0
  149.3860  132.5374  157.0866 C   0  0  0  0  0  0  0  0  0  0  0  0
  149.6432  134.6656  155.5721 C   0  0  0  0  0  0  0  0  0  0  0  0
  148.3555  134.7259  154.7897 C   0  0  0  0  0  0  0  0  0  0  0  0
  147.7435  136.1167  154.9444 C   0  0  0  0  0  0  0  0  0  0  0  0
  147.4372  136.5304  156.0617 O   0  0  0  0  0  0  0  0  0  0  0  0
  147.5482  136.8016  153.8024 N   0  0  0  0  0  0  0  0  0  0  0  0
  146.8801  138.0974  153.6052 C   0  0  2  0  0  0  0  0  0  0  0  0
  145.7207  138.1450  154.6276 C   0  0  0  0  0  0  0  0  0  0  0  0
  146.2859  138.1728  152.1682 C   0  0  0  0  0  0  0  0  0  0  0  0
  147.2815  138.3680  151.1812 O   0  0  0  0  0  0  0  0  0  0  0  0
  147.9022  139.2659  153.8550 C   0  0  0  0  0  0  0  0  0  0  0  0
  148.8460  139.0388  155.0682 C   0  0  0  0  0  0  0  0  0  0  0  0
  149.9043  140.1463  155.1864 C   0  0  0  0  0  0  0  0  0  0  0  0
  149.2505  141.5312  155.2839 C   0  0  0  0  0  0  0  0  0  0  0  0
  148.3146  141.7791  154.0932 C   0  0  0  0  0  0  0  0  0  0  0  0
  147.2561  140.6704  153.9703 C   0  0  0  0  0  0  0  0  0  0  0  0
  150.3301  137.6496  155.1424 H   0  0  0  0  0  0  0  0  0  0  0  0
  150.5020  136.6688  153.6904 H   0  0  0  0  0  0  0  0  0  0  0  0
  151.9270  137.1258  154.6140 H   0  0  0  0  0  0  0  0  0  0  0  0
  148.4960  132.2608  156.5220 H   0  0  0  0  0  0  0  0  0  0  0  0
  149.0863  132.7184  158.1190 H   0  0  0  0  0  0  0  0  0  0  0  0
  150.0699  131.6887  157.0754 H   0  0  0  0  0  0  0  0  0  0  0  0
  148.5207  134.5216  153.7313 H   0  0  0  0  0  0  0  0  0  0  0  0
  147.6391  133.9788  155.1327 H   0  0  0  0  0  0  0  0  0  0  0  0
  147.8576  136.3477  152.9556 H   0  0  0  0  0  0  0  0  0  0  0  0
  145.1222  139.0496  154.5243 H   0  0  0  0  0  0  0  0  0  0  0  0
  146.0776  138.0986  155.6560 H   0  0  0  0  0  0  0  0  0  0  0  0
  145.0411  137.3023  154.4970 H   0  0  0  0  0  0  0  0  0  0  0  0
  145.7638  137.2511  151.9145 H   0  0  0  0  0  0  0  0  0  0  0  0
  145.5521  138.9741  152.0823 H   0  0  0  0  0  0  0  0  0  0  0  0
  147.8947  139.0136  151.4975 H   0  0  0  0  0  0  0  0  0  0  0  0
  148.5452  139.3112  152.9753 H   0  0  0  0  0  0  0  0  0  0  0  0
  148.2712  139.0032  155.9933 H   0  0  0  0  0  0  0  0  0  0  0  0
  149.3643  138.0838  154.9939 H   0  0  0  0  0  0  0  0  0  0  0  0
  150.5299  139.9691  156.0617 H   0  0  0  0  0  0  0  0  0  0  0  0
  150.5675  140.1122  154.3211 H   0  0  0  0  0  0  0  0  0  0  0  0
  148.6877  141.6063  156.2153 H   0  0  0  0  0  0  0  0  0  0  0  0
  150.0185  142.3042  155.3219 H   0  0  0  0  0  0  0  0  0  0  0  0
  147.8262  142.7478  154.2025 H   0  0  0  0  0  0  0  0  0  0  0  0
  148.8987  141.8305  153.1734 H   0  0  0  0  0  0  0  0  0  0  0  0
  146.6380  140.8881  153.1007 H   0  0  0  0  0  0  0  0  0  0  0  0
  146.5982  140.7153  154.8383 H   0  0  0  0  0  0  0  0  0  0  0  0
  1  2  1  0  0  0  0
  1 22  1  0  0  0  0
  1 23  1  0  0  0  0
  1 24  1  0  0  0  0
  2  7  1  0  0  0  0
  2  3  2  0  0  0  0
  3  4  1  0  0  0  0
  4  5  1  0  0  0  0
  5  6  1  0  0  0  0
  5  7  2  0  0  0  0
  6 25  1  0  0  0  0
  6 26  1  0  0  0  0
  6 27  1  0  0  0  0
  7  8  1  0  0  0  0
  8  9  1  0  0  0  0
  8 28  1  0  0  0  0
  8 29  1  0  0  0  0
  9 10  2  0  0  0  0
  9 11  1  0  0  0  0
 11 12  1  0  0  0  0
 11 30  1  0  0  0  0
 12 13  1  0  0  0  0
 12 14  1  0  0  0  0
 12 16  1  0  0  0  0
 13 31  1  0  0  0  0
 13 32  1  0  0  0  0
 13 33  1  0  0  0  0
 14 15  1  0  0  0  0
 14 34  1  0  0  0  0
 14 35  1  0  0  0  0
 15 36  1  0  0  0  0
 16 21  1  0  0  0  0
 16 17  1  0  0  0  0
 16 37  1  0  0  0  0
 17 18  1  0  0  0  0
 17 38  1  0  0  0  0
 17 39  1  0  0  0  0
 18 19  1  0  0  0  0
 18 40  1  0  0  0  0
 18 41  1  0  0  0  0
 19 20  1  0  0  0  0
 19 42  1  0  0  0  0
 19 43  1  0  0  0  0
 20 21  1  0  0  0  0
 20 44  1  0  0  0  0
 20 45  1  0  0  0  0
 21 46  1  0  0  0  0
 21 47  1  0  0  0  0
M  END
> <s_m_source_file>
AV-unprocessed.smi

> <i_m_source_file_index>
2788

> <i_lp_mmshare_version>
43012

> <i_f3d_flags>
0

> <s_epik_input>
W0NIM11jMW5vYyhbQ0gzXSljMVtDSDJdQyg9TylbTkhdW0NAQF0oW0NIM10pKFtDSDJdW09IXSlbQ0hdMltDSDJdW0NIMl1bQ0gyXVtDSDJdW0NIMl0y

> <s_epik_cmdline>
J2VwaWtfcHl0aG9uJywgJy1waCcsICc3LjAnLCAnLXRuJywgJzgnLCAnLW1hJywgJzIwMCcsICctbWV0YWxfYmluZGluZycsICctaW1hZScsICc8aW5maWxlLm1hZT4nLCAnLW9tYWUnLCAnPG91dGZpbGUubWFlPic=

> <r_lp_tautomer_probability>
1

> <r_epik_Ionization_Penalty>
1.3408e-07

> <r_epik_Ionization_Penalty_Charging>
0

> <r_epik_Ionization_Penalty_Neutral>
1.3408e-07

> <r_epik_State_Penalty>
-0

> <r_epik_Charging_Adjusted_Penalty>
0

> <i_epik_Tot_Q>
0

> <i_epik_Tot_abs_Q>
0

> <r_epik_Metal_State_Penalty>
-0

> <b_epik_Metal_Only>
0

> <s_lp_Force_Field>
OPLS_2005

> <r_lp_Energy>
14.1961

> <b_lp_Chiralities_Consistent>
1

> <s_lp_Variant>
AV-unprocessed.smi:2788-2

> <Gold.Version>
5.8.1

> <Gold.Id.Protein>
6NUR|6NUR_protein|mol2

> <Gold.PLP.Fitness>
39.4218

> <Gold.PLP.PLP>
-29.6162

> <Gold.PLP.part.hbond>
-5.8246

> <Gold.PLP.part.metal>
0.0000

> <Gold.PLP.part.buried>
-2.4533

> <Gold.PLP.part.nonpolar>
-22.9012

> <Gold.PLP.part.repulsive>
0.0249

> <Gold.PLP.ligand.clash>
0.0000

> <Gold.PLP.ligand.torsion>
1.0294

> <Gold.PLP.Chemscore.Hbond>
3.9326

> <Gold.PLP.Chemscore.CHOScore>
0.0000

> <Gold.PLP.Chemscore.Metal>
0.0000

> <Gold.Chemscore.Hbonds>
donor molecule, donor type, donor heavy atom, donor atom, acceptor molecule, acceptor atom, score
      L1  H    11    30       P1  7948  0.96
      L1  H    15    36       P1  7957  0.91
      P1  H  6896  6907       L1     4  0.18
      P1  H  7954  7966       L1    15  0.80
      P1  H 10752 10765       L1     3  1.00

> <Gold.PLP.Chemscore.Internal.Correction>
0.0665

> <Gold.Rescore>
     Score         DG    S(hbond)    S(metal)    S(lipo)     H(rot)  DE(clash)    DE(int)     intcor
     15.09     -17.71       2.82        0.00      73.06       2.24       0.09       2.52       ----

> <Gold.Chemscore.Fitness>
15.0940

> <Gold.Chemscore.DG>
-17.7129

> <Gold.Chemscore.ZeroCoef>
-5.4800

> <Gold.Chemscore.Hbond>
2.8170

> <Gold.Chemscore.Metal>
0.0000

> <Gold.Chemscore.Lipo>
73.0576

> <Gold.Chemscore.Internal_Hbond>
0.0000

> <Gold.Chemscore.DEClash>
0.0945

> <Gold.Chemscore.DEInternal>
2.5244

> <Gold.Chemscore.Rot>
2.2357

> <Gold.Chemscore.Internal.Correction>
   9.000000E+99

> <Gold.Chemscore.Hbonds>
donor molecule, donor type, donor heavy atom, donor atom, acceptor molecule, acceptor atom, score
      L1  H    11    30       P1  7948  0.88
      L1  H    15    36       P1  7957  0.70
      P1  H  6896  6907       L1     4  0.07
      P1  H  7954  7966       L1    15  0.12
      P1  H 10752 10765       L1     3  0.25

> <Gold.Chemscore.Hbond.Weighted>
-9.4086

> <Gold.Chemscore.Metal.Weighted>
-0.0000

> <Gold.Chemscore.Lipo.Weighted>
-8.5477

> <Gold.Chemscore.Internal_Hbond.Weighted>
0.0000

> <Gold.Chemscore.DEClash.Weighted>
0.0945

> <Gold.Chemscore.DEInternal.Weighted>
2.5244

> <Gold.Chemscore.Rot.Weighted>
5.7235

> <Gold.Chemscore.Internal.Correction.Weighted>
   9.000000E+99

> <Gold.Protein.RotatedTorsions>
[ 6907 6896 6895 6894 ] final -140.44 input  -60.11 | X-H torsion
[ 7974 7965 7964 7962 ] final  -92.91 input  175.53 | X-H torsion
[ 8008 7997 7996 7995 ] final   26.04 input   59.86 | X-H torsion
[ 10167 10162 10161 10158 ] final  179.83 input  -65.29 | X-H torsion
[ 10718 10713 10712 10709 ] final   53.64 input   66.30 | X-H torsion
[ 10763 10752 10751 10750 ] final -139.60 input  -60.55 | X-H torsion
[ 11005 11000 10999 10996 ] final  -63.30 input  -57.11 | X-H torsion

> <Gold.Protein.ActiveResidues>
 VAL166  LYS551  ARG553  GLY616  TRP617  ASP618  TYR619  PRO620  LYS621  CYS622 
 ASP623  PHE694  ASN695  SER759  ASP760  ASP761  ALA762  ILE779  LEU786  VAL792 
 PHE793  MET794  SER795  GLU796  ALA797  LYS798  CYS799  TRP800  GLU811  SER814 

> <Gold.Protein.RotatedAtoms>
  151.0607  133.5546  159.2634 H   0  0  0  0  0  0  0  0  0  0  0  0  # atno 6907 bound_to 6896
  151.2522  135.0625  159.9076 H   0  0  0  0  0  0  0  0  0  0  0  0  # atno 6908 bound_to 6896
  152.5397  134.0366  159.8102 H   0  0  0  0  0  0  0  0  0  0  0  0  # atno 6909 bound_to 6896
  145.3936  140.9530  143.2327 H   0  0  0  0  0  0  0  0  0  0  0  0  # atno 7974 bound_to 7965
  155.0212  140.3148  155.4793 H   0  0  0  0  0  0  0  0  0  0  0  0  # atno 8008 bound_to 7997
  156.2892  140.2197  156.5272 H   0  0  0  0  0  0  0  0  0  0  0  0  # atno 8009 bound_to 7997
  154.7451  140.0470  157.0832 H   0  0  0  0  0  0  0  0  0  0  0  0  # atno 8010 bound_to 7997
  139.5353  144.2514  152.0781 H   0  0  0  0  0  0  0  0  0  0  0  0  # atno 10167 bound_to 10162
  157.5185  130.8549  149.8527 H   0  0  0  0  0  0  0  0  0  0  0  0  # atno 10718 bound_to 10713
  154.8604  135.3578  154.5572 H   0  0  0  0  0  0  0  0  0  0  0  0  # atno 10763 bound_to 10752
  153.6189  135.7006  153.5323 H   0  0  0  0  0  0  0  0  0  0  0  0  # atno 10764 bound_to 10752
  153.3146  135.4169  155.1325 H   0  0  0  0  0  0  0  0  0  0  0  0  # atno 10765 bound_to 10752
  141.1388  133.6650  156.5659 H   0  0  0  0  0  0  0  0  0  0  0  0  # atno 11005 bound_to 11000
  144.8423  139.5452  143.6894 LP  0  0  0  0  0  0  0  0  0  0  0  0  # atno 17320 bound_to 7965
  146.2786  139.6817  142.9245 LP  0  0  0  0  0  0  0  0  0  0  0  0  # atno 17321 bound_to 7965
  140.1984  144.4682  150.6444 LP  0  0  0  0  0  0  0  0  0  0  0  0  # atno 17342 bound_to 10162
  140.6556  143.2237  151.5976 LP  0  0  0  0  0  0  0  0  0  0  0  0  # atno 17343 bound_to 10162
  156.0337  130.3757  150.1618 LP  0  0  0  0  0  0  0  0  0  0  0  0  # atno 17370 bound_to 10713
  156.9807  130.9863  151.3438 LP  0  0  0  0  0  0  0  0  0  0  0  0  # atno 17371 bound_to 10713
  140.3951  134.7406  157.4745 LP  0  0  0  0  0  0  0  0  0  0  0  0  # atno 17394 bound_to 11000
  140.0537  134.6094  155.8830 LP  0  0  0  0  0  0  0  0  0  0  0  0  # atno 17395 bound_to 11000

$$$$
