AV-unprocessed.smi:2325|AV-procd|sdf|9295|dock10
  -GOLD-   2272012513D 1   1.00000     0.00000
 Structure written by MMmdl.
 40 41  0  0  0  0  0  0  0  0  1 V2000
  150.7347  137.2174  154.6876 C   0  0  0  0  0  0  0  0  0  0  0  0
  150.8147  135.8917  155.2700 N   0  0  0  0  0  0  0  0  0  0  0  0
  151.7376  135.6006  156.2166 N   0  0  0  0  0  0  0  0  0  0  0  0
  151.4870  134.3193  156.4867 C   0  0  0  0  0  0  0  0  0  0  0  0
  150.4642  133.7480  155.7845 N   0  0  0  0  0  0  0  0  0  0  0  0
  150.0932  134.7895  155.0463 C   0  0  0  0  0  0  0  0  0  0  0  0
  149.0398  134.8082  154.0935 N   0  0  0  0  0  0  0  0  0  0  0  0
  148.1591  133.8309  153.8210 C   0  0  0  0  0  0  0  0  0  0  0  0
  148.1389  132.7230  154.3575 O   0  0  0  0  0  0  0  0  0  0  0  0
  147.2862  134.2150  152.8793 N   0  0  0  0  0  0  0  0  0  0  0  0
  146.1814  133.4029  152.3737 C   0  0  2  0  0  0  0  0  0  0  0  0
  146.6501  132.4274  151.3123 C   0  0  0  0  0  0  0  0  0  0  0  0
  145.3720  132.1376  150.5167 C   0  0  0  0  0  0  0  0  0  0  0  0
  145.6509  131.9418  149.0187 C   0  0  0  0  0  0  0  0  0  0  0  0
  144.5933  130.9426  151.0929 C   0  0  0  0  0  0  0  0  0  0  0  0
  144.5540  133.2955  150.6771 O   0  0  0  0  0  0  0  0  0  0  0  0
  145.0980  134.2117  151.6263 C   0  0  0  0  0  0  0  0  0  0  0  0
  143.9567  134.6582  152.5537 C   0  0  0  0  0  0  0  0  0  0  0  0
  145.6422  135.4075  150.8169 C   0  0  0  0  0  0  0  0  0  0  0  0
  150.8153  137.1469  153.6024 H   0  0  0  0  0  0  0  0  0  0  0  0
  151.5413  137.8501  155.0605 H   0  0  0  0  0  0  0  0  0  0  0  0
  149.7781  137.6727  154.9450 H   0  0  0  0  0  0  0  0  0  0  0  0
  152.0642  133.7747  157.2193 H   0  0  0  0  0  0  0  0  0  0  0  0
  148.9415  135.6646  153.5689 H   0  0  0  0  0  0  0  0  0  0  0  0
  147.3793  135.1431  152.4937 H   0  0  0  0  0  0  0  0  0  0  0  0
  145.7300  132.8285  153.1853 H   0  0  0  0  0  0  0  0  0  0  0  0
  147.3944  132.9032  150.6715 H   0  0  0  0  0  0  0  0  0  0  0  0
  147.1071  131.5307  151.7323 H   0  0  0  0  0  0  0  0  0  0  0  0
  146.2969  131.0805  148.8469 H   0  0  0  0  0  0  0  0  0  0  0  0
  146.1405  132.8170  148.5903 H   0  0  0  0  0  0  0  0  0  0  0  0
  144.7261  131.7806  148.4640 H   0  0  0  0  0  0  0  0  0  0  0  0
  145.1710  130.0209  151.0164 H   0  0  0  0  0  0  0  0  0  0  0  0
  143.6552  130.7906  150.5579 H   0  0  0  0  0  0  0  0  0  0  0  0
  144.3480  131.0937  152.1444 H   0  0  0  0  0  0  0  0  0  0  0  0
  144.3082  135.3687  153.3016 H   0  0  0  0  0  0  0  0  0  0  0  0
  143.5191  133.8094  153.0800 H   0  0  0  0  0  0  0  0  0  0  0  0
  143.1579  135.1408  151.9901 H   0  0  0  0  0  0  0  0  0  0  0  0
  146.0397  136.1864  151.4683 H   0  0  0  0  0  0  0  0  0  0  0  0
  144.8542  135.8604  150.2150 H   0  0  0  0  0  0  0  0  0  0  0  0
  146.4373  135.1042  150.1355 H   0  0  0  0  0  0  0  0  0  0  0  0
  1  2  1  0  0  0  0
  1 20  1  0  0  0  0
  1 21  1  0  0  0  0
  1 22  1  0  0  0  0
  2  6  1  0  0  0  0
  2  3  1  0  0  0  0
  3  4  2  0  0  0  0
  4  5  1  0  0  0  0
  4 23  1  0  0  0  0
  5  6  2  0  0  0  0
  6  7  1  0  0  0  0
  7  8  1  0  0  0  0
  7 24  1  0  0  0  0
  8  9  2  0  0  0  0
  8 10  1  0  0  0  0
 10 11  1  0  0  0  0
 10 25  1  0  0  0  0
 11 17  1  0  0  0  0
 11 12  1  0  0  0  0
 11 26  1  0  0  0  0
 12 13  1  0  0  0  0
 12 27  1  0  0  0  0
 12 28  1  0  0  0  0
 13 14  1  0  0  0  0
 13 15  1  0  0  0  0
 13 16  1  0  0  0  0
 14 29  1  0  0  0  0
 14 30  1  0  0  0  0
 14 31  1  0  0  0  0
 15 32  1  0  0  0  0
 15 33  1  0  0  0  0
 15 34  1  0  0  0  0
 16 17  1  0  0  0  0
 17 18  1  0  0  0  0
 17 19  1  0  0  0  0
 18 35  1  0  0  0  0
 18 36  1  0  0  0  0
 18 37  1  0  0  0  0
 19 38  1  0  0  0  0
 19 39  1  0  0  0  0
 19 40  1  0  0  0  0
M  END
> <s_m_source_file>
AV-unprocessed.smi

> <i_m_source_file_index>
2325

> <i_lp_mmshare_version>
43012

> <i_f3d_flags>
0

> <s_epik_input>
W0NIM11uMW5bY0hdbmMxW05IXUMoPU8pW05IXVtDQEBIXShDKE8yKShbQ0gzXSlbQ0gzXSlbQ0gyXUMyKFtDSDNdKVtDSDNd

> <s_epik_cmdline>
J2VwaWtfcHl0aG9uJywgJy1waCcsICc3LjAnLCAnLXRuJywgJzgnLCAnLW1hJywgJzIwMCcsICctbWV0YWxfYmluZGluZycsICctaW1hZScsICc8aW5maWxlLm1hZT4nLCAnLW9tYWUnLCAnPG91dGZpbGUubWFlPic=

> <r_lp_tautomer_probability>
1

> <r_epik_Ionization_Penalty>
1.97832e-05

> <r_epik_Ionization_Penalty_Charging>
0

> <r_epik_Ionization_Penalty_Neutral>
1.97832e-05

> <r_epik_State_Penalty>
-0

> <r_epik_Charging_Adjusted_Penalty>
0

> <i_epik_Tot_Q>
0

> <i_epik_Tot_abs_Q>
0

> <r_epik_Metal_State_Penalty>
-0

> <b_epik_Metal_Only>
0

> <s_lp_Force_Field>
OPLS_2005

> <r_lp_Energy>
17.1508

> <b_lp_Chiralities_Consistent>
1

> <s_lp_Variant>
AV-unprocessed.smi:2325-1

> <Gold.Version>
5.8.1

> <Gold.Id.Protein>
6NUR|6NUR_protein|mol2

> <Gold.PLP.Fitness>
36.6714

> <Gold.PLP.PLP>
-29.9488

> <Gold.PLP.part.hbond>
-3.0000

> <Gold.PLP.part.metal>
0.0000

> <Gold.PLP.part.buried>
-0.7212

> <Gold.PLP.part.nonpolar>
-25.0194

> <Gold.PLP.part.repulsive>
0.2136

> <Gold.PLP.ligand.clash>
0.0000

> <Gold.PLP.ligand.torsion>
0.2802

> <Gold.PLP.Chemscore.Hbond>
2.4240

> <Gold.PLP.Chemscore.CHOScore>
0.0000

> <Gold.PLP.Chemscore.Metal>
0.0000

> <Gold.Chemscore.Hbonds>
donor molecule, donor type, donor heavy atom, donor atom, acceptor molecule, acceptor atom, score
      L1  H     7    24       P1  7948  0.77
      L1  H    10    25       P1  7948  0.66
      P1  H 10752 10763       L1     3  1.00

> <Gold.PLP.Chemscore.Internal.Correction>
0.0111

> <Gold.Rescore>
     Score         DG    S(hbond)    S(metal)    S(lipo)     H(rot)  DE(clash)    DE(int)     intcor
     13.49     -16.33       1.58        0.00      69.57       1.00       1.25       1.60       ----

> <Gold.Chemscore.Fitness>
13.4862

> <Gold.Chemscore.DG>
-16.3334

> <Gold.Chemscore.ZeroCoef>
-5.4800

> <Gold.Chemscore.Hbond>
1.5790

> <Gold.Chemscore.Metal>
0.0000

> <Gold.Chemscore.Lipo>
69.5685

> <Gold.Chemscore.Internal_Hbond>
0.0000

> <Gold.Chemscore.DEClash>
1.2482

> <Gold.Chemscore.DEInternal>
1.5990

> <Gold.Chemscore.Rot>
1.0000

> <Gold.Chemscore.Internal.Correction>
   9.000000E+99

> <Gold.Chemscore.Hbonds>
donor molecule, donor type, donor heavy atom, donor atom, acceptor molecule, acceptor atom, score
      L1  H     7    24       P1  7948  0.67
      L1  H    10    25       P1  7948  0.64
      P1  H 10752 10763       L1     3  0.08

> <Gold.Chemscore.Hbond.Weighted>
-5.2739

> <Gold.Chemscore.Metal.Weighted>
-0.0000

> <Gold.Chemscore.Lipo.Weighted>
-8.1395

> <Gold.Chemscore.Internal_Hbond.Weighted>
0.0000

> <Gold.Chemscore.DEClash.Weighted>
1.2482

> <Gold.Chemscore.DEInternal.Weighted>
1.5990

> <Gold.Chemscore.Rot.Weighted>
2.5600

> <Gold.Chemscore.Internal.Correction.Weighted>
   9.000000E+99

> <Gold.Protein.RotatedTorsions>
[ 6907 6896 6895 6894 ] final -151.06 input  -60.11 | X-H torsion
[ 7974 7965 7964 7962 ] final -109.54 input  175.53 | X-H torsion
[ 8008 7997 7996 7995 ] final   13.39 input   59.86 | X-H torsion
[ 10167 10162 10161 10158 ] final   62.43 input  -65.29 | X-H torsion
[ 10718 10713 10712 10709 ] final   98.35 input   66.30 | X-H torsion
[ 10763 10752 10751 10750 ] final  101.67 input  -60.55 | X-H torsion
[ 11005 11000 10999 10996 ] final -158.29 input  -57.11 | X-H torsion

> <Gold.Protein.ActiveResidues>
 VAL166  LYS551  ARG553  GLY616  TRP617  ASP618  TYR619  PRO620  LYS621  CYS622 
 ASP623  PHE694  ASN695  SER759  ASP760  ASP761  ALA762  ILE779  LEU786  VAL792 
 PHE793  MET794  SER795  GLU796  ALA797  LYS798  CYS799  TRP800  GLU811  SER814 

> <Gold.Protein.RotatedAtoms>
  151.2075  133.4575  159.2597 H   0  0  0  0  0  0  0  0  0  0  0  0  # atno 6907 bound_to 6896
  151.1008  134.9971  159.8458 H   0  0  0  0  0  0  0  0  0  0  0  0  # atno 6908 bound_to 6896
  152.5443  134.2002  159.8762 H   0  0  0  0  0  0  0  0  0  0  0  0  # atno 6909 bound_to 6896
  145.1793  140.8963  143.3489 H   0  0  0  0  0  0  0  0  0  0  0  0  # atno 7974 bound_to 7965
  154.8338  140.2904  155.5704 H   0  0  0  0  0  0  0  0  0  0  0  0  # atno 8008 bound_to 7997
  156.3007  140.2527  156.3200 H   0  0  0  0  0  0  0  0  0  0  0  0  # atno 8009 bound_to 7997
  154.9201  140.0386  157.1982 H   0  0  0  0  0  0  0  0  0  0  0  0  # atno 8010 bound_to 7997
  140.1440  144.4526  150.6795 H   0  0  0  0  0  0  0  0  0  0  0  0  # atno 10167 bound_to 10162
  157.6897  131.0637  150.4783 H   0  0  0  0  0  0  0  0  0  0  0  0  # atno 10718 bound_to 10713
  153.3297  135.4036  155.1485 H   0  0  0  0  0  0  0  0  0  0  0  0  # atno 10763 bound_to 10752
  154.8620  135.3607  154.5487 H   0  0  0  0  0  0  0  0  0  0  0  0  # atno 10764 bound_to 10752
  153.5925  135.7073  153.5477 H   0  0  0  0  0  0  0  0  0  0  0  0  # atno 10765 bound_to 10752
  140.6552  134.4408  157.5235 H   0  0  0  0  0  0  0  0  0  0  0  0  # atno 11005 bound_to 11000
  145.0152  139.3473  143.6100 LP  0  0  0  0  0  0  0  0  0  0  0  0  # atno 17320 bound_to 7965
  146.3456  139.9431  142.8738 LP  0  0  0  0  0  0  0  0  0  0  0  0  # atno 17321 bound_to 7965
  140.6743  143.2298  151.5547 LP  0  0  0  0  0  0  0  0  0  0  0  0  # atno 17342 bound_to 10162
  139.5458  144.2525  152.1439 LP  0  0  0  0  0  0  0  0  0  0  0  0  # atno 17343 bound_to 10162
  156.5116  130.4140  149.6298 LP  0  0  0  0  0  0  0  0  0  0  0  0  # atno 17370 bound_to 10713
  156.3235  130.7293  151.2210 LP  0  0  0  0  0  0  0  0  0  0  0  0  # atno 17371 bound_to 10713
  139.9032  134.8509  156.1811 LP  0  0  0  0  0  0  0  0  0  0  0  0  # atno 17394 bound_to 11000
  141.0507  133.6890  156.1766 LP  0  0  0  0  0  0  0  0  0  0  0  0  # atno 17395 bound_to 11000

$$$$
