AV-unprocessed.smi:1605|AV-procd|sdf|6454|dock1
  -GOLD-   22720 7103D 1   1.00000     0.00000
 Structure written by MMmdl.
 51 53  0  0  0  0  0  0  0  0  2 V2000
  142.8589  137.3073  152.7657 C   0  0  0  0  0  0  0  0  0  0  0  0
  144.0842  137.5262  153.4476 O   0  0  0  0  0  0  0  0  0  0  0  0
  145.1731  136.7497  152.9617 C   0  0  2  0  0  0  0  0  0  0  0  0
  146.2169  136.6416  154.0834 C   0  0  0  0  0  0  0  0  0  0  0  0
  146.8769  137.9997  154.3788 C   0  0  0  0  0  0  0  0  0  0  0  0
  147.4835  138.5783  153.1529 N   0  3  2  0  0  0  0  0  0  0  0  0
  148.2749  139.8035  153.4347 C   0  0  0  0  0  0  0  0  0  0  0  0
  149.4166  139.5917  154.4591 C   0  0  1  0  0  0  0  0  0  0  0  0
  150.5749  139.2450  153.7303 O   0  0  0  0  0  0  0  0  0  0  0  0
  149.7647  140.8284  155.3174 C   0  0  0  0  0  0  0  0  0  0  0  0
  150.4600  140.4867  156.5449 N   0  0  0  0  0  0  0  0  0  0  0  0
  150.6677  139.2512  157.0394 C   0  0  0  0  0  0  0  0  0  0  0  0
  151.3021  139.1616  158.2043 N   0  0  0  0  0  0  0  0  0  0  0  0
  151.5492  140.4923  158.4923 C   0  0  0  0  0  0  0  0  0  0  0  0
  152.1832  141.0875  159.6044 C   0  0  0  0  0  0  0  0  0  0  0  0
  152.3117  142.4914  159.6991 C   0  0  0  0  0  0  0  0  0  0  0  0
  152.9944  143.0895  160.9165 C   0  0  0  0  0  0  0  0  0  0  0  0
  151.8061  143.3226  158.6675 C   0  0  0  0  0  0  0  0  0  0  0  0
  151.9283  144.8338  158.7499 C   0  0  0  0  0  0  0  0  0  0  0  0
  151.1729  142.7442  157.5481 C   0  0  0  0  0  0  0  0  0  0  0  0
  151.0446  141.3466  157.4690 C   0  0  0  0  0  0  0  0  0  0  0  0
  146.4791  138.7441  152.0701 C   0  0  0  0  0  0  0  0  0  0  0  0
  145.8195  137.3986  151.7231 C   0  0  0  0  0  0  0  0  0  0  0  0
  142.0803  137.9231  153.2157 H   0  0  0  0  0  0  0  0  0  0  0  0
  142.5454  136.2654  152.8430 H   0  0  0  0  0  0  0  0  0  0  0  0
  142.9243  137.5761  151.7117 H   0  0  0  0  0  0  0  0  0  0  0  0
  144.8252  135.7443  152.7180 H   0  0  0  0  0  0  0  0  0  0  0  0
  145.7555  136.2442  154.9878 H   0  0  0  0  0  0  0  0  0  0  0  0
  146.9846  135.9244  153.7922 H   0  0  0  0  0  0  0  0  0  0  0  0
  146.1466  138.6978  154.7909 H   0  0  0  0  0  0  0  0  0  0  0  0
  147.6453  137.8597  155.1399 H   0  0  0  0  0  0  0  0  0  0  0  0
  148.6732  140.1818  152.4916 H   0  0  0  0  0  0  0  0  0  0  0  0
  147.6146  140.5825  153.8189 H   0  0  0  0  0  0  0  0  0  0  0  0
  149.2009  138.7449  155.1093 H   0  0  0  0  0  0  0  0  0  0  0  0
  150.3367  139.1164  152.8245 H   0  0  0  0  0  0  0  0  0  0  0  0
  150.4053  141.5079  154.7531 H   0  0  0  0  0  0  0  0  0  0  0  0
  148.8631  141.3899  155.5658 H   0  0  0  0  0  0  0  0  0  0  0  0
  150.3182  138.3689  156.5230 H   0  0  0  0  0  0  0  0  0  0  0  0
  152.5689  140.4544  160.3900 H   0  0  0  0  0  0  0  0  0  0  0  0
  153.9086  143.6063  160.6242 H   0  0  0  0  0  0  0  0  0  0  0  0
  153.2611  142.3206  161.6418 H   0  0  0  0  0  0  0  0  0  0  0  0
  152.3366  143.8024  161.4140 H   0  0  0  0  0  0  0  0  0  0  0  0
  151.5367  145.3143  157.8528 H   0  0  0  0  0  0  0  0  0  0  0  0
  152.9721  145.1291  158.8579 H   0  0  0  0  0  0  0  0  0  0  0  0
  151.3697  145.2145  159.6052 H   0  0  0  0  0  0  0  0  0  0  0  0
  150.7778  143.3677  156.7596 H   0  0  0  0  0  0  0  0  0  0  0  0
  145.7236  139.4687  152.3772 H   0  0  0  0  0  0  0  0  0  0  0  0
  146.9485  139.1409  151.1714 H   0  0  0  0  0  0  0  0  0  0  0  0
  146.5764  136.7240  151.3210 H   0  0  0  0  0  0  0  0  0  0  0  0
  145.0899  137.5343  150.9256 H   0  0  0  0  0  0  0  0  0  0  0  0
  148.1483  137.8911  152.8268 H   0  0  0  0  0  0  0  0  0  0  0  0
  1  2  1  0  0  0  0
  1 24  1  0  0  0  0
  1 25  1  0  0  0  0
  1 26  1  0  0  0  0
  2  3  1  0  0  0  0
  3 23  1  0  0  0  0
  3  4  1  0  0  0  0
  3 27  1  0  0  0  0
  4  5  1  0  0  0  0
  4 28  1  0  0  0  0
  4 29  1  0  0  0  0
  5  6  1  0  0  0  0
  5 30  1  0  0  0  0
  5 31  1  0  0  0  0
  6  7  1  0  0  0  0
  6 22  1  0  0  0  0
  6 51  1  0  0  0  0
  7  8  1  0  0  0  0
  7 32  1  0  0  0  0
  7 33  1  0  0  0  0
  8  9  1  0  0  0  0
  8 10  1  0  0  0  0
  8 34  1  0  0  0  0
  9 35  1  0  0  0  0
 10 11  1  0  0  0  0
 10 36  1  0  0  0  0
 10 37  1  0  0  0  0
 11 21  1  0  0  0  0
 11 12  1  0  0  0  0
 12 13  2  0  0  0  0
 12 38  1  0  0  0  0
 13 14  1  0  0  0  0
 14 21  2  0  0  0  0
 14 15  1  0  0  0  0
 15 16  2  0  0  0  0
 15 39  1  0  0  0  0
 16 17  1  0  0  0  0
 16 18  1  0  0  0  0
 17 40  1  0  0  0  0
 17 41  1  0  0  0  0
 17 42  1  0  0  0  0
 18 19  1  0  0  0  0
 18 20  2  0  0  0  0
 19 43  1  0  0  0  0
 19 44  1  0  0  0  0
 19 45  1  0  0  0  0
 20 21  1  0  0  0  0
 20 46  1  0  0  0  0
 22 23  1  0  0  0  0
 22 47  1  0  0  0  0
 22 48  1  0  0  0  0
 23 49  1  0  0  0  0
 23 50  1  0  0  0  0
M  CHG  1   6   1
M  END
> <s_m_source_file>
AV-unprocessed.smi

> <i_m_source_file_index>
1605

> <i_lp_mmshare_version>
43012

> <i_f3d_flags>
0

> <s_epik_input>
W0NIM11PW0NIXTFbQ0gyXVtDSDJdTihbQ0gyXVtDSDJdMSlbQ0gyXVtDQEhdKFtPSF0pW0NIMl1uKFtjSF1uMiljKGMyMylbY0hdYyhbQ0gzXSljKFtjSF0zKVtDSDNd

> <s_epik_cmdline>
J2VwaWtfcHl0aG9uJywgJy1waCcsICc3LjAnLCAnLXRuJywgJzgnLCAnLW1hJywgJzIwMCcsICctbWV0YWxfYmluZGluZycsICctaW1hZScsICc8aW5maWxlLm1hZT4nLCAnLW9tYWUnLCAnPG91dGZpbGUubWFlPic=

> <r_epik_Ionization_Penalty>
0.110943

> <r_epik_Ionization_Penalty_Charging>
0.0229283

> <r_epik_Ionization_Penalty_Neutral>
0.0880146

> <r_epik_State_Penalty>
0.0947554

> <r_epik_Charging_Adjusted_Penalty>
0.117684

> <i_epik_Tot_Q>
1

> <i_epik_Tot_abs_Q>
1

> <r_epik_Metal_State_Penalty>
0.0192456

> <b_epik_Metal_Only>
0

> <s_lp_Force_Field>
OPLS_2005

> <r_lp_Energy>
21.431

> <b_lp_Chiralities_Consistent>
1

> <s_lp_Variant>
AV-unprocessed.smi:1605-4

> <Gold.Version>
5.8.1

> <Gold.Id.Protein>
6NUR|6NUR_protein|mol2

> <Gold.PLP.Fitness>
51.2854

> <Gold.PLP.PLP>
-41.2196

> <Gold.PLP.part.hbond>
-3.5388

> <Gold.PLP.part.metal>
0.0000

> <Gold.PLP.part.buried>
3.1380

> <Gold.PLP.part.nonpolar>
-41.2864

> <Gold.PLP.part.repulsive>
0.1914

> <Gold.PLP.ligand.clash>
0.0000

> <Gold.PLP.ligand.torsion>
0.9053

> <Gold.PLP.Chemscore.Hbond>
3.8256

> <Gold.PLP.Chemscore.CHOScore>
0.0000

> <Gold.PLP.Chemscore.Metal>
0.0000

> <Gold.Chemscore.Hbonds>
donor molecule, donor type, donor heavy atom, donor atom, acceptor molecule, acceptor atom, score
      L1  H     6    51       P1  7948  1.82
      L1  H     9    35       P1  7957  0.90
      P1  H  7989  7998       L1     9  0.83

> <Gold.PLP.Chemscore.Internal.Correction>
0.3997

> <Gold.Rescore>
     Score         DG    S(hbond)    S(metal)    S(lipo)     H(rot)  DE(clash)    DE(int)     intcor
     19.86     -21.63       2.52        0.00     114.55       2.22       0.81       0.96       ----

> <Gold.Chemscore.Fitness>
19.8562

> <Gold.Chemscore.DG>
-21.6267

> <Gold.Chemscore.ZeroCoef>
-5.4800

> <Gold.Chemscore.Hbond>
2.5208

> <Gold.Chemscore.Metal>
0.0000

> <Gold.Chemscore.Lipo>
114.5513

> <Gold.Chemscore.Internal_Hbond>
0.0000

> <Gold.Chemscore.DEClash>
0.8084

> <Gold.Chemscore.DEInternal>
0.9621

> <Gold.Chemscore.Rot>
2.2169

> <Gold.Chemscore.Internal.Correction>
   9.000000E+99

> <Gold.Chemscore.Hbonds>
donor molecule, donor type, donor heavy atom, donor atom, acceptor molecule, acceptor atom, score
      L1  H     6    51       P1  7948  0.87
      L1  H     9    35       P1  7957  0.50
      P1  H  7989  7998       L1     9  0.09

> <Gold.Chemscore.Hbond.Weighted>
-8.4196

> <Gold.Chemscore.Metal.Weighted>
-0.0000

> <Gold.Chemscore.Lipo.Weighted>
-13.4025

> <Gold.Chemscore.Internal_Hbond.Weighted>
0.0000

> <Gold.Chemscore.DEClash.Weighted>
0.8084

> <Gold.Chemscore.DEInternal.Weighted>
0.9621

> <Gold.Chemscore.Rot.Weighted>
5.6753

> <Gold.Chemscore.Internal.Correction.Weighted>
   9.000000E+99

> <Gold.Protein.RotatedTorsions>
[ 6907 6896 6895 6894 ] final  110.64 input  -60.11 | X-H torsion
[ 7974 7965 7964 7962 ] final   27.03 input  175.53 | X-H torsion
[ 8008 7997 7996 7995 ] final  -20.23 input   59.86 | X-H torsion
[ 10167 10162 10161 10158 ] final  -64.63 input  -65.29 | X-H torsion
[ 10718 10713 10712 10709 ] final  157.88 input   66.30 | X-H torsion
[ 10763 10752 10751 10750 ] final   74.26 input  -60.55 | X-H torsion
[ 11005 11000 10999 10996 ] final  -24.84 input  -57.11 | X-H torsion

> <Gold.Protein.ActiveResidues>
 VAL166  LYS551  ARG553  GLY616  TRP617  ASP618  TYR619  PRO620  LYS621  CYS622 
 ASP623  PHE694  ASN695  SER759  ASP760  ASP761  ALA762  ILE779  LEU786  VAL792 
 PHE793  MET794  SER795  GLU796  ALA797  LYS798  CYS799  TRP800  GLU811  SER814 

> <Gold.Protein.RotatedAtoms>
  152.5009  133.8771  159.7327 H   0  0  0  0  0  0  0  0  0  0  0  0  # atno 6907 bound_to 6896
  150.9243  133.6834  159.2831 H   0  0  0  0  0  0  0  0  0  0  0  0  # atno 6908 bound_to 6896
  151.4200  135.1001  159.9663 H   0  0  0  0  0  0  0  0  0  0  0  0  # atno 6909 bound_to 6896
  146.1806  139.7247  142.8903 H   0  0  0  0  0  0  0  0  0  0  0  0  # atno 7974 bound_to 7965
  154.4784  140.2067  155.9823 H   0  0  0  0  0  0  0  0  0  0  0  0  # atno 8008 bound_to 7997
  156.1126  140.3226  155.8063 H   0  0  0  0  0  0  0  0  0  0  0  0  # atno 8009 bound_to 7997
  155.4609  140.0524  157.2982 H   0  0  0  0  0  0  0  0  0  0  0  0  # atno 8010 bound_to 7997
  140.5787  143.2325  151.6387 H   0  0  0  0  0  0  0  0  0  0  0  0  # atno 10167 bound_to 10162
  157.1855  131.0642  151.2108 H   0  0  0  0  0  0  0  0  0  0  0  0  # atno 10718 bound_to 10713
  153.0575  135.5032  154.8015 H   0  0  0  0  0  0  0  0  0  0  0  0  # atno 10763 bound_to 10752
  154.6830  135.2971  154.9589 H   0  0  0  0  0  0  0  0  0  0  0  0  # atno 10764 bound_to 10752
  154.0369  135.6722  153.4839 H   0  0  0  0  0  0  0  0  0  0  0  0  # atno 10765 bound_to 10752
  140.8882  133.7606  156.0388 H   0  0  0  0  0  0  0  0  0  0  0  0  # atno 11005 bound_to 11000
  145.4087  141.0394  143.3029 LP  0  0  0  0  0  0  0  0  0  0  0  0  # atno 17320 bound_to 7965
  144.8308  139.5631  143.6944 LP  0  0  0  0  0  0  0  0  0  0  0  0  # atno 17321 bound_to 7965
  139.5157  144.3369  152.0776 LP  0  0  0  0  0  0  0  0  0  0  0  0  # atno 17342 bound_to 10162
  140.2516  144.4163  150.6220 LP  0  0  0  0  0  0  0  0  0  0  0  0  # atno 17343 bound_to 10162
  157.3911  130.7282  149.6698 LP  0  0  0  0  0  0  0  0  0  0  0  0  # atno 17370 bound_to 10713
  155.9718  130.4146  150.4141 LP  0  0  0  0  0  0  0  0  0  0  0  0  # atno 17371 bound_to 10713
  140.8379  134.3102  157.5325 LP  0  0  0  0  0  0  0  0  0  0  0  0  # atno 17394 bound_to 11000
  139.8726  134.9399  156.3756 LP  0  0  0  0  0  0  0  0  0  0  0  0  # atno 17395 bound_to 11000

$$$$
