AV-unprocessed.smi:800|AV-procd|sdf|3787|dock3
  -GOLD-   22720 1223D 1   1.00000     0.00000
 Structure written by MMmdl.
 36 37  0  0  0  0  0  0  0  0  1 V2000
  152.8373  144.3841  163.0351 C   0  0  0  0  0  0  0  0  0  0  0  0
  153.0486  142.9557  163.5533 C   0  0  0  0  0  0  0  0  0  0  0  0
  154.2255  142.8778  164.5382 C   0  0  0  0  0  0  0  0  0  0  0  0
  153.2704  142.0589  162.4238 N   0  0  0  0  0  0  0  0  0  0  0  0
  152.5705  142.0588  161.2777 C   0  0  0  0  0  0  0  0  0  0  0  0
  151.6670  142.8581  161.0290 O   0  0  0  0  0  0  0  0  0  0  0  0
  153.0089  141.0542  160.2513 C   0  0  0  0  0  0  0  0  0  0  0  0
  152.3385  141.0658  159.0763 N   0  0  0  0  0  0  0  0  0  0  0  0
  152.6865  140.1862  158.1290 C   0  0  0  0  0  0  0  0  0  0  0  0
  151.9790  140.2214  156.9203 N   0  0  0  0  0  0  0  0  0  0  0  0
  151.1775  141.3815  156.5220 C   0  0  0  0  0  0  0  0  0  0  0  0
  149.9642  140.9464  155.6829 C   0  0  0  0  0  0  0  0  0  0  0  0
  150.3992  140.1775  154.5683 O   0  0  0  0  0  0  0  0  0  0  0  0
  151.0640  138.9901  154.9811 C   0  0  0  0  0  0  0  0  0  0  0  0
  152.3200  139.3512  155.7922 C   0  0  0  0  0  0  0  0  0  0  0  0
  153.6591  139.2750  158.2546 N   0  0  0  0  0  0  0  0  0  0  0  0
  154.3342  139.2334  159.4218 C   0  0  0  0  0  0  0  0  0  0  0  0
  154.0463  140.1135  160.4828 C   0  0  0  0  0  0  0  0  0  0  0  0
  154.9190  139.9798  161.9719 Cl  0  0  0  0  0  0  0  0  0  0  0  0
  152.6455  145.0749  163.8566 H   0  0  0  0  0  0  0  0  0  0  0  0
  151.9835  144.4341  162.3584 H   0  0  0  0  0  0  0  0  0  0  0  0
  153.7132  144.7454  162.4947 H   0  0  0  0  0  0  0  0  0  0  0  0
  152.1383  142.6532  164.0740 H   0  0  0  0  0  0  0  0  0  0  0  0
  154.0658  143.5383  165.3907 H   0  0  0  0  0  0  0  0  0  0  0  0
  155.1621  143.1695  164.0618 H   0  0  0  0  0  0  0  0  0  0  0  0
  154.3512  141.8668  164.9272 H   0  0  0  0  0  0  0  0  0  0  0  0
  154.0075  141.3757  162.5225 H   0  0  0  0  0  0  0  0  0  0  0  0
  150.8127  141.9449  157.3802 H   0  0  0  0  0  0  0  0  0  0  0  0
  151.8080  142.0586  155.9450 H   0  0  0  0  0  0  0  0  0  0  0  0
  149.2612  140.3695  156.2863 H   0  0  0  0  0  0  0  0  0  0  0  0
  149.4267  141.8224  155.3200 H   0  0  0  0  0  0  0  0  0  0  0  0
  150.3883  138.3654  155.5678 H   0  0  0  0  0  0  0  0  0  0  0  0
  151.3411  138.4146  154.0981 H   0  0  0  0  0  0  0  0  0  0  0  0
  153.0386  139.8700  155.1570 H   0  0  0  0  0  0  0  0  0  0  0  0
  152.7946  138.4252  156.1151 H   0  0  0  0  0  0  0  0  0  0  0  0
  155.1063  138.4837  159.5121 H   0  0  0  0  0  0  0  0  0  0  0  0
  1  2  1  0  0  0  0
  1 20  1  0  0  0  0
  1 21  1  0  0  0  0
  1 22  1  0  0  0  0
  2  3  1  0  0  0  0
  2  4  1  0  0  0  0
  2 23  1  0  0  0  0
  3 24  1  0  0  0  0
  3 25  1  0  0  0  0
  3 26  1  0  0  0  0
  4  5  1  0  0  0  0
  4 27  1  0  0  0  0
  5  6  2  0  0  0  0
  5  7  1  0  0  0  0
  7 18  1  0  0  0  0
  7  8  2  0  0  0  0
  8  9  1  0  0  0  0
  9 10  1  0  0  0  0
  9 16  2  0  0  0  0
 10 15  1  0  0  0  0
 10 11  1  0  0  0  0
 11 12  1  0  0  0  0
 11 28  1  0  0  0  0
 11 29  1  0  0  0  0
 12 13  1  0  0  0  0
 12 30  1  0  0  0  0
 12 31  1  0  0  0  0
 13 14  1  0  0  0  0
 14 15  1  0  0  0  0
 14 32  1  0  0  0  0
 14 33  1  0  0  0  0
 15 34  1  0  0  0  0
 15 35  1  0  0  0  0
 16 17  1  0  0  0  0
 17 18  2  0  0  0  0
 17 36  1  0  0  0  0
 18 19  1  0  0  0  0
M  END
> <s_m_source_file>
AV-unprocessed.smi

> <i_m_source_file_index>
800

> <i_lp_mmshare_version>
43012

> <i_f3d_flags>
0

> <s_epik_input>
W0NIM11bQ0hdKFtDSDNdKVtOSF1DKD1PKWMxbmMobltjSF1jMUNsKU4yW0NIMl1bQ0gyXU9bQ0gyXVtDSDJdMg==

> <s_epik_cmdline>
J2VwaWtfcHl0aG9uJywgJy1waCcsICc3LjAnLCAnLXRuJywgJzgnLCAnLW1hJywgJzIwMCcsICctbWV0YWxfYmluZGluZycsICctaW1hZScsICc8aW5maWxlLm1hZT4nLCAnLW9tYWUnLCAnPG91dGZpbGUubWFlPic=

> <r_lp_tautomer_probability>
1

> <r_epik_Ionization_Penalty>
1.24434e-05

> <r_epik_Ionization_Penalty_Charging>
0

> <r_epik_Ionization_Penalty_Neutral>
1.24434e-05

> <r_epik_State_Penalty>
-0

> <r_epik_Charging_Adjusted_Penalty>
0

> <i_epik_Tot_Q>
0

> <i_epik_Tot_abs_Q>
0

> <r_epik_Metal_State_Penalty>
0.0120585

> <b_epik_Metal_Only>
0

> <s_lp_Force_Field>
OPLS_2005

> <r_lp_Energy>
14.0321

> <b_lp_Chiralities_Consistent>
1

> <s_lp_Variant>
AV-unprocessed.smi:800-1

> <Gold.Version>
5.8.1

> <Gold.Id.Protein>
6NUR|6NUR_protein|mol2

> <Gold.PLP.Fitness>
41.7207

> <Gold.PLP.PLP>
-37.4555

> <Gold.PLP.part.hbond>
-2.7770

> <Gold.PLP.part.metal>
0.0000

> <Gold.PLP.part.buried>
-3.8821

> <Gold.PLP.part.nonpolar>
-29.9388

> <Gold.PLP.part.repulsive>
0.2452

> <Gold.PLP.ligand.clash>
0.0000

> <Gold.PLP.ligand.torsion>
0.2501

> <Gold.PLP.Chemscore.Hbond>
1.5500

> <Gold.PLP.Chemscore.CHOScore>
0.0000

> <Gold.PLP.Chemscore.Metal>
0.0000

> <Gold.Chemscore.Hbonds>
donor molecule, donor type, donor heavy atom, donor atom, acceptor molecule, acceptor atom, score
      P1  H  6933  6945       L1     6  0.10
      P1  H  7989  7998       L1    13  1.00
      P1  H  7997  8009       L1    16  0.70

> <Gold.PLP.Chemscore.Internal.Correction>
0.1154

> <Gold.Rescore>
     Score         DG    S(hbond)    S(metal)    S(lipo)     H(rot)  DE(clash)    DE(int)     intcor
     11.58     -16.15       0.80        0.00      90.26       1.00       1.34       3.23       ----

> <Gold.Chemscore.Fitness>
11.5806

> <Gold.Chemscore.DG>
-16.1496

> <Gold.Chemscore.ZeroCoef>
-5.4800

> <Gold.Chemscore.Hbond>
0.7990

> <Gold.Chemscore.Metal>
0.0000

> <Gold.Chemscore.Lipo>
90.2649

> <Gold.Chemscore.Internal_Hbond>
0.0000

> <Gold.Chemscore.DEClash>
1.3366

> <Gold.Chemscore.DEInternal>
3.2324

> <Gold.Chemscore.Rot>
1.0000

> <Gold.Chemscore.Internal.Correction>
   9.000000E+99

> <Gold.Chemscore.Hbonds>
donor molecule, donor type, donor heavy atom, donor atom, acceptor molecule, acceptor atom, score
      P1  H  6933  6945       L1     6  0.02
      P1  H  7989  7998       L1    13  0.28
      P1  H  7997  8009       L1    16  0.05

> <Gold.Chemscore.Hbond.Weighted>
-2.6687

> <Gold.Chemscore.Metal.Weighted>
-0.0000

> <Gold.Chemscore.Lipo.Weighted>
-10.5610

> <Gold.Chemscore.Internal_Hbond.Weighted>
0.0000

> <Gold.Chemscore.DEClash.Weighted>
1.3366

> <Gold.Chemscore.DEInternal.Weighted>
3.2324

> <Gold.Chemscore.Rot.Weighted>
2.5600

> <Gold.Chemscore.Internal.Correction.Weighted>
   9.000000E+99

> <Gold.Protein.RotatedTorsions>
[ 6907 6896 6895 6894 ] final -141.21 input  -60.11 | X-H torsion
[ 7974 7965 7964 7962 ] final  -10.17 input  175.53 | X-H torsion
[ 8008 7997 7996 7995 ] final  149.69 input   59.86 | X-H torsion
[ 10167 10162 10161 10158 ] final   94.51 input  -65.29 | X-H torsion
[ 10718 10713 10712 10709 ] final  173.54 input   66.30 | X-H torsion
[ 10763 10752 10751 10750 ] final -140.08 input  -60.55 | X-H torsion
[ 11005 11000 10999 10996 ] final  -64.49 input  -57.11 | X-H torsion

> <Gold.Protein.ActiveResidues>
 VAL166  LYS551  ARG553  GLY616  TRP617  ASP618  TYR619  PRO620  LYS621  CYS622 
 ASP623  PHE694  ASN695  SER759  ASP760  ASP761  ALA762  ILE779  LEU786  VAL792 
 PHE793  MET794  SER795  GLU796  ALA797  LYS798  CYS799  TRP800  GLU811  SER814 

> <Gold.Protein.RotatedAtoms>
  151.0708  133.5467  159.2627 H   0  0  0  0  0  0  0  0  0  0  0  0  # atno 6907 bound_to 6896
  151.2407  135.0587  159.9034 H   0  0  0  0  0  0  0  0  0  0  0  0  # atno 6908 bound_to 6896
  152.5411  134.0484  159.8152 H   0  0  0  0  0  0  0  0  0  0  0  0  # atno 6909 bound_to 6896
  146.2229  140.2724  142.8357 H   0  0  0  0  0  0  0  0  0  0  0  0  # atno 7974 bound_to 7965
  156.2745  140.2095  156.5898 H   0  0  0  0  0  0  0  0  0  0  0  0  # atno 8008 bound_to 7997
  154.6991  140.0522  157.0464 H   0  0  0  0  0  0  0  0  0  0  0  0  # atno 8009 bound_to 7997
  155.0759  140.3181  155.4619 H   0  0  0  0  0  0  0  0  0  0  0  0  # atno 8010 bound_to 7997
  139.8077  144.6787  150.9681 H   0  0  0  0  0  0  0  0  0  0  0  0  # atno 10167 bound_to 10162
  156.9627  131.0066  151.2923 H   0  0  0  0  0  0  0  0  0  0  0  0  # atno 10718 bound_to 10713
  154.8590  135.3564  154.5649 H   0  0  0  0  0  0  0  0  0  0  0  0  # atno 10763 bound_to 10752
  153.6264  135.7004  153.5296 H   0  0  0  0  0  0  0  0  0  0  0  0  # atno 10764 bound_to 10752
  153.3086  135.4185  155.1276 H   0  0  0  0  0  0  0  0  0  0  0  0  # atno 10765 bound_to 10752
  141.1426  133.6666  156.5841 H   0  0  0  0  0  0  0  0  0  0  0  0  # atno 11005 bound_to 11000
  144.9258  140.7919  143.5720 LP  0  0  0  0  0  0  0  0  0  0  0  0  # atno 17320 bound_to 7965
  145.2664  139.1972  143.4865 LP  0  0  0  0  0  0  0  0  0  0  0  0  # atno 17321 bound_to 7965
  140.7819  143.4217  151.0832 LP  0  0  0  0  0  0  0  0  0  0  0  0  # atno 17342 bound_to 10162
  139.7885  143.8252  152.3148 LP  0  0  0  0  0  0  0  0  0  0  0  0  # atno 17343 bound_to 10162
  157.5646  130.8269  149.8311 LP  0  0  0  0  0  0  0  0  0  0  0  0  # atno 17370 bound_to 10713
  156.0315  130.3763  150.1674 LP  0  0  0  0  0  0  0  0  0  0  0  0  # atno 17371 bound_to 10713
  140.3815  134.7519  157.4664 LP  0  0  0  0  0  0  0  0  0  0  0  0  # atno 17394 bound_to 11000
  140.0634  134.5963  155.8723 LP  0  0  0  0  0  0  0  0  0  0  0  0  # atno 17395 bound_to 11000

$$$$
