AV-unprocessed.smi:158|AV-procd|sdf|1334|dock8
  -GOLD-   2262019 33D 1   1.00000     0.00000
 Structure written by MMmdl.
 31 33  0  0  0  0  0  0  0  0  1 V2000
  152.2046  144.6005  158.8472 N   0  0  0  0  0  0  0  0  0  0  0  0
  152.2712  143.2624  158.8049 C   0  0  0  0  0  0  0  0  0  0  0  0
  153.1680  142.6376  159.6025 N   0  0  0  0  0  0  0  0  0  0  0  0
  153.2692  141.3035  159.5864 C   0  0  0  0  0  0  0  0  0  0  0  0
  154.4412  140.6068  160.6417 Cl  0  0  0  0  0  0  0  0  0  0  0  0
  152.5620  140.4470  158.8436 N   0  0  0  0  0  0  0  0  0  0  0  0
  151.6492  141.0679  158.0408 C   0  0  0  0  0  0  0  0  0  0  0  0
  151.4486  142.4733  157.9638 C   0  0  0  0  0  0  0  0  0  0  0  0
  150.4532  142.7621  157.0420 N   0  0  0  0  0  0  0  0  0  0  0  0
  150.0863  141.5890  156.6024 C   0  0  0  0  0  0  0  0  0  0  0  0
  150.7449  140.5102  157.1533 N   0  0  0  0  0  0  0  0  0  0  0  0
  150.5145  139.0609  156.8246 C   0  0  1  0  0  0  0  0  0  0  0  0
  149.1755  138.8763  156.4644 O   0  0  0  0  0  0  0  0  0  0  0  0
  149.0791  138.3657  155.1330 C   0  0  1  0  0  0  0  0  0  0  0  0
  147.7869  138.8276  154.4348 C   0  0  0  0  0  0  0  0  0  0  0  0
  147.8935  138.6412  153.0392 O   0  0  0  0  0  0  0  0  0  0  0  0
  150.4089  138.7266  154.4536 C   0  0  1  0  0  0  0  0  0  0  0  0
  150.3906  140.0332  153.9082 O   0  0  0  0  0  0  0  0  0  0  0  0
  151.3647  138.6105  155.6263 C   0  0  1  0  0  0  0  0  0  0  0  0
  152.4974  139.3041  155.4884 F   0  0  0  0  0  0  0  0  0  0  0  0
  150.7550  138.5372  157.7504 H   0  0  0  0  0  0  0  0  0  0  0  0
  149.0429  137.2802  155.2410 H   0  0  0  0  0  0  0  0  0  0  0  0
  150.6590  138.0264  153.6559 H   0  0  0  0  0  0  0  0  0  0  0  0
  151.6375  137.5659  155.7803 H   0  0  0  0  0  0  0  0  0  0  0  0
  151.5439  145.0894  158.2601 H   0  0  0  0  0  0  0  0  0  0  0  0
  152.8129  145.1168  159.4661 H   0  0  0  0  0  0  0  0  0  0  0  0
  149.3105  141.4743  155.8594 H   0  0  0  0  0  0  0  0  0  0  0  0
  146.9426  138.2380  154.7932 H   0  0  0  0  0  0  0  0  0  0  0  0
  147.5564  139.8709  154.6488 H   0  0  0  0  0  0  0  0  0  0  0  0
  147.0342  138.7380  152.6574 H   0  0  0  0  0  0  0  0  0  0  0  0
  149.8055  140.0395  153.1661 H   0  0  0  0  0  0  0  0  0  0  0  0
  1  2  1  0  0  0  0
  1 25  1  0  0  0  0
  1 26  1  0  0  0  0
  2  8  1  0  0  0  0
  2  3  2  0  0  0  0
  3  4  1  0  0  0  0
  4  5  1  0  0  0  0
  4  6  2  0  0  0  0
  6  7  1  0  0  0  0
  7 11  1  0  0  0  0
  7  8  2  0  0  0  0
  8  9  1  0  0  0  0
  9 10  2  0  0  0  0
 10 11  1  0  0  0  0
 10 27  1  0  0  0  0
 11 12  1  0  0  0  0
 12 21  1  0  0  0  0
 12 19  1  0  0  0  0
 12 13  1  0  0  0  0
 13 14  1  0  0  0  0
 14 22  1  0  0  0  0
 14 15  1  0  0  0  0
 14 17  1  0  0  0  0
 15 16  1  0  0  0  0
 15 28  1  0  0  0  0
 15 29  1  0  0  0  0
 16 30  1  0  0  0  0
 17 23  1  0  0  0  0
 17 18  1  0  0  0  0
 17 19  1  0  0  0  0
 18 31  1  0  0  0  0
 19 24  1  0  0  0  0
 19 20  1  0  0  0  0
M  END
> <s_m_source_file>
AV-unprocessed.smi

> <i_m_source_file_index>
158

> <i_lp_mmshare_version>
43012

> <i_f3d_flags>
0

> <s_epik_input>
Q2xjKG4xKW5jKFtOSDJdKWMoYzEyKW5bY0hdbjJbQ0BASF0zT1tDQEhdKFtDSDJdW09IXSlbQ0BASF0oW09IXSlbQ0BASF0zRg==

> <s_epik_cmdline>
J2VwaWtfcHl0aG9uJywgJy1waCcsICc3LjAnLCAnLXRuJywgJzgnLCAnLW1hJywgJzIwMCcsICctbWV0YWxfYmluZGluZycsICctaW1hZScsICc8aW5maWxlLm1hZT4nLCAnLW9tYWUnLCAnPG91dGZpbGUubWFlPic=

> <r_lp_tautomer_probability>
1

> <r_epik_Ionization_Penalty>
6.51543e-05

> <r_epik_Ionization_Penalty_Charging>
0

> <r_epik_Ionization_Penalty_Neutral>
6.51543e-05

> <r_epik_State_Penalty>
-0

> <r_epik_Charging_Adjusted_Penalty>
0

> <i_epik_Tot_Q>
0

> <i_epik_Tot_abs_Q>
0

> <r_epik_Metal_State_Penalty>
-0

> <b_epik_Metal_Only>
0

> <s_epik_Chemistry_Notes>
This compound contains an acetal/aminal-like group ( X-CH(R)-Y where X, Y are N, S, or O) that may be acid/base labile, releasing an aldehyde.

> <s_lp_Force_Field>
OPLS_2005

> <r_lp_Energy>
41.2986

> <b_lp_Chiralities_Consistent>
1

> <s_lp_Variant>
AV-unprocessed.smi:158-12

> <Gold.Version>
5.8.1

> <Gold.Id.Protein>
6NUR|6NUR_protein|mol2

> <Gold.PLP.Fitness>
36.4484

> <Gold.PLP.PLP>
-31.6906

> <Gold.PLP.part.hbond>
-3.7473

> <Gold.PLP.part.metal>
0.0000

> <Gold.PLP.part.buried>
-5.7741

> <Gold.PLP.part.nonpolar>
-23.2233

> <Gold.PLP.part.repulsive>
1.1274

> <Gold.PLP.ligand.clash>
0.0000

> <Gold.PLP.ligand.torsion>
0.8960

> <Gold.PLP.Chemscore.Hbond>
1.9200

> <Gold.PLP.Chemscore.CHOScore>
0.0000

> <Gold.PLP.Chemscore.Metal>
0.0000

> <Gold.Chemscore.Hbonds>
donor molecule, donor type, donor heavy atom, donor atom, acceptor molecule, acceptor atom, score
      L1  H    18    31       P1  7957  0.93
      P1  H  7989  7998       L1    18  0.99

> <Gold.PLP.Chemscore.Internal.Correction>
0.7897

> <Gold.Rescore>
     Score         DG    S(hbond)    S(metal)    S(lipo)     H(rot)  DE(clash)    DE(int)     intcor
      5.74      -6.95       1.49        0.00      38.26       3.12       0.46       0.75       ----

> <Gold.Chemscore.Fitness>
5.7423

> <Gold.Chemscore.DG>
-6.9508

> <Gold.Chemscore.ZeroCoef>
-5.4800

> <Gold.Chemscore.Hbond>
1.4938

> <Gold.Chemscore.Metal>
0.0000

> <Gold.Chemscore.Lipo>
38.2602

> <Gold.Chemscore.Internal_Hbond>
0.0000

> <Gold.Chemscore.DEClash>
0.4603

> <Gold.Chemscore.DEInternal>
0.7482

> <Gold.Chemscore.Rot>
3.1230

> <Gold.Chemscore.Internal.Correction>
   9.000000E+99

> <Gold.Chemscore.Hbonds>
donor molecule, donor type, donor heavy atom, donor atom, acceptor molecule, acceptor atom, score
      L1  H    18    31       P1  7957  0.87
      P1  H  7989  7998       L1    18  0.44

> <Gold.Chemscore.Hbond.Weighted>
-4.9893

> <Gold.Chemscore.Metal.Weighted>
-0.0000

> <Gold.Chemscore.Lipo.Weighted>
-4.4764

> <Gold.Chemscore.Internal_Hbond.Weighted>
0.0000

> <Gold.Chemscore.DEClash.Weighted>
0.4603

> <Gold.Chemscore.DEInternal.Weighted>
0.7482

> <Gold.Chemscore.Rot.Weighted>
7.9950

> <Gold.Chemscore.Internal.Correction.Weighted>
   9.000000E+99

> <Gold.Protein.RotatedTorsions>
[ 6907 6896 6895 6894 ] final -162.19 input  -60.11 | X-H torsion
[ 7974 7965 7964 7962 ] final -106.35 input  175.53 | X-H torsion
[ 8008 7997 7996 7995 ] final   29.91 input   59.86 | X-H torsion
[ 10167 10162 10161 10158 ] final    4.40 input  -65.29 | X-H torsion
[ 10718 10713 10712 10709 ] final  -31.88 input   66.30 | X-H torsion
[ 10763 10752 10751 10750 ] final   24.25 input  -60.55 | X-H torsion
[ 11005 11000 10999 10996 ] final  139.31 input  -57.11 | X-H torsion

> <Gold.Protein.ActiveResidues>
 VAL166  LYS551  ARG553  GLY616  TRP617  ASP618  TYR619  PRO620  LYS621  CYS622 
 ASP623  PHE694  ASN695  SER759  ASP760  ASP761  ALA762  ILE779  LEU786  VAL792 
 PHE793  MET794  SER795  GLU796  ALA797  LYS798  CYS799  TRP800  GLU811  SER814 

> <Gold.Protein.RotatedAtoms>
  151.3763  133.3837  159.2704 H   0  0  0  0  0  0  0  0  0  0  0  0  # atno 6907 bound_to 6896
  150.9611  134.9000  159.7742 H   0  0  0  0  0  0  0  0  0  0  0  0  # atno 6908 bound_to 6896
  152.5150  134.3723  159.9374 H   0  0  0  0  0  0  0  0  0  0  0  0  # atno 6909 bound_to 6896
  145.2190  140.9126  143.3271 H   0  0  0  0  0  0  0  0  0  0  0  0  # atno 7974 bound_to 7965
  155.0820  140.3211  155.4598 H   0  0  0  0  0  0  0  0  0  0  0  0  # atno 8008 bound_to 7997
  156.2764  140.2093  156.5894 H   0  0  0  0  0  0  0  0  0  0  0  0  # atno 8009 bound_to 7997
  154.6971  140.0510  157.0408 H   0  0  0  0  0  0  0  0  0  0  0  0  # atno 8010 bound_to 7997
  140.6537  143.7482  150.7617 H   0  0  0  0  0  0  0  0  0  0  0  0  # atno 10167 bound_to 10162
  156.3818  130.4357  149.7463 H   0  0  0  0  0  0  0  0  0  0  0  0  # atno 10718 bound_to 10713
  153.0778  135.6609  154.0110 H   0  0  0  0  0  0  0  0  0  0  0  0  # atno 10763 bound_to 10752
  153.9739  135.2962  155.3427 H   0  0  0  0  0  0  0  0  0  0  0  0  # atno 10764 bound_to 10752
  154.7170  135.5181  153.8824 H   0  0  0  0  0  0  0  0  0  0  0  0  # atno 10765 bound_to 10752
  140.0245  134.9381  157.0541 H   0  0  0  0  0  0  0  0  0  0  0  0  # atno 11005 bound_to 11000
  144.9784  139.3808  143.6274 LP  0  0  0  0  0  0  0  0  0  0  0  0  # atno 17320 bound_to 7965
  146.3380  139.8913  142.8808 LP  0  0  0  0  0  0  0  0  0  0  0  0  # atno 17321 bound_to 7965
  140.1137  143.4675  152.2354 LP  0  0  0  0  0  0  0  0  0  0  0  0  # atno 17342 bound_to 10162
  139.5755  144.7485  151.3775 LP  0  0  0  0  0  0  0  0  0  0  0  0  # atno 17343 bound_to 10162
  156.4551  130.7925  151.2946 LP  0  0  0  0  0  0  0  0  0  0  0  0  # atno 17370 bound_to 10713
  157.7493  131.0083  150.3224 LP  0  0  0  0  0  0  0  0  0  0  0  0  # atno 17371 bound_to 10713
  140.4330  134.1761  155.7169 LP  0  0  0  0  0  0  0  0  0  0  0  0  # atno 17394 bound_to 11000
  141.1794  133.8445  157.1309 LP  0  0  0  0  0  0  0  0  0  0  0  0  # atno 17395 bound_to 11000

$$$$
