AV-unprocessed.smi:2741|AV-procd|sdf|10558|dock4
  -GOLD-   2272015 13D 1   1.00000     0.00000
 Structure written by MMmdl.
 39 40  0  0  0  0  0  0  0  0  1 V2000
  151.1644  141.1977  157.2436 O   0  0  0  0  0  0  0  0  0  0  0  0
  150.6838  142.3249  157.3699 C   0  0  0  0  0  0  0  0  0  0  0  0
  151.5433  143.4953  157.8683 C   0  0  0  0  0  0  0  0  0  0  0  0
  152.0658  143.2951  159.2305 N   0  0  0  0  0  0  0  0  0  0  0  0
  152.8810  142.1668  159.4479 C   0  0  0  0  0  0  0  0  0  0  0  0
  153.4096  141.8651  160.6494 C   0  0  0  0  0  0  0  0  0  0  0  0
  154.3277  140.6678  160.8407 C   0  0  0  0  0  0  0  0  0  0  0  0
  153.7195  139.5344  160.4899 F   0  0  0  0  0  0  0  0  0  0  0  0
  155.4162  140.8062  160.0851 F   0  0  0  0  0  0  0  0  0  0  0  0
  154.7165  140.5582  162.1118 F   0  0  0  0  0  0  0  0  0  0  0  0
  153.1265  142.7898  161.7295 C   0  0  0  0  0  0  0  0  0  0  0  0
  152.3537  143.8767  161.5372 C   0  0  0  0  0  0  0  0  0  0  0  0
  151.7655  144.1777  160.2302 C   0  0  0  0  0  0  0  0  0  0  0  0
  151.0500  145.1626  160.0445 O   0  0  0  0  0  0  0  0  0  0  0  0
  149.4104  142.6189  157.0679 N   0  0  0  0  0  0  0  0  0  0  0  0
  148.4251  141.6692  156.5619 C   0  0  0  0  0  0  0  0  0  0  0  0
  148.7820  141.1607  155.1515 C   0  0  2  0  0  0  0  0  0  0  0  0
  147.5767  140.6617  154.3390 C   0  0  0  0  0  0  0  0  0  0  0  0
  148.1693  139.6440  153.3689 C   0  0  0  0  0  0  0  0  0  0  0  0
  149.2111  138.9200  154.2204 C   0  0  1  0  0  0  0  0  0  0  0  0
  150.2030  138.2998  153.4298 O   0  0  0  0  0  0  0  0  0  0  0  0
  149.7915  139.9952  155.1520 C   0  0  0  0  0  0  0  0  0  0  0  0
  152.3605  143.6391  157.1602 H   0  0  0  0  0  0  0  0  0  0  0  0
  150.9630  144.4191  157.8233 H   0  0  0  0  0  0  0  0  0  0  0  0
  153.0468  141.5559  158.5723 H   0  0  0  0  0  0  0  0  0  0  0  0
  153.5367  142.6066  162.7117 H   0  0  0  0  0  0  0  0  0  0  0  0
  152.1613  144.5428  162.3655 H   0  0  0  0  0  0  0  0  0  0  0  0
  149.1004  143.5713  157.1958 H   0  0  0  0  0  0  0  0  0  0  0  0
  148.3249  140.8310  157.2538 H   0  0  0  0  0  0  0  0  0  0  0  0
  147.4564  142.1693  156.5436 H   0  0  0  0  0  0  0  0  0  0  0  0
  149.2372  141.9795  154.5919 H   0  0  0  0  0  0  0  0  0  0  0  0
  146.8597  140.1633  154.9929 H   0  0  0  0  0  0  0  0  0  0  0  0
  147.0533  141.4704  153.8279 H   0  0  0  0  0  0  0  0  0  0  0  0
  147.4205  138.9696  152.9522 H   0  0  0  0  0  0  0  0  0  0  0  0
  148.6503  140.1666  152.5404 H   0  0  0  0  0  0  0  0  0  0  0  0
  148.7124  138.1573  154.8204 H   0  0  0  0  0  0  0  0  0  0  0  0
  149.7771  137.7602  152.7811 H   0  0  0  0  0  0  0  0  0  0  0  0
  150.7577  140.3522  154.7922 H   0  0  0  0  0  0  0  0  0  0  0  0
  149.9542  139.5872  156.1504 H   0  0  0  0  0  0  0  0  0  0  0  0
  1  2  2  0  0  0  0
  2  3  1  0  0  0  0
  2 15  1  0  0  0  0
  3  4  1  0  0  0  0
  3 23  1  0  0  0  0
  3 24  1  0  0  0  0
  4 13  1  0  0  0  0
  4  5  1  0  0  0  0
  5  6  2  0  0  0  0
  5 25  1  0  0  0  0
  6  7  1  0  0  0  0
  6 11  1  0  0  0  0
  7  8  1  0  0  0  0
  7  9  1  0  0  0  0
  7 10  1  0  0  0  0
 11 12  2  0  0  0  0
 11 26  1  0  0  0  0
 12 13  1  0  0  0  0
 12 27  1  0  0  0  0
 13 14  2  0  0  0  0
 15 16  1  0  0  0  0
 15 28  1  0  0  0  0
 16 17  1  0  0  0  0
 16 29  1  0  0  0  0
 16 30  1  0  0  0  0
 17 22  1  0  0  0  0
 17 18  1  0  0  0  0
 17 31  1  0  0  0  0
 18 19  1  0  0  0  0
 18 32  1  0  0  0  0
 18 33  1  0  0  0  0
 19 20  1  0  0  0  0
 19 34  1  0  0  0  0
 19 35  1  0  0  0  0
 20 21  1  0  0  0  0
 20 22  1  0  0  0  0
 20 36  1  0  0  0  0
 21 37  1  0  0  0  0
 22 38  1  0  0  0  0
 22 39  1  0  0  0  0
M  END
> <s_m_source_file>
AV-unprocessed.smi

> <i_m_source_file_index>
2741

> <i_lp_mmshare_version>
43012

> <i_f3d_flags>
0

> <s_epik_input>
W09IXVtDQEBIXShbQ0gyXTEpW0NIMl1bQ0gyXVtDQEhdMVtDSDJdW05IXUMoPU8pW0NIMl1uMltjSF1jKEMoRikoRilGKVtjSF1bY0hdYzI9Tw==

> <s_epik_cmdline>
J2VwaWtfcHl0aG9uJywgJy1waCcsICc3LjAnLCAnLXRuJywgJzgnLCAnLW1hJywgJzIwMCcsICctbWV0YWxfYmluZGluZycsICctaW1hZScsICc8aW5maWxlLm1hZT4nLCAnLW9tYWUnLCAnPG91dGZpbGUubWFlPic=

> <r_lp_tautomer_probability>
1

> <r_epik_Ionization_Penalty>
1.17551e-06

> <r_epik_Ionization_Penalty_Charging>
1.78841e-08

> <r_epik_Ionization_Penalty_Neutral>
1.15762e-06

> <r_epik_State_Penalty>
-0

> <r_epik_Charging_Adjusted_Penalty>
1.78841e-08

> <i_epik_Tot_Q>
0

> <i_epik_Tot_abs_Q>
0

> <r_epik_Metal_State_Penalty>
-0

> <b_epik_Metal_Only>
0

> <s_lp_Force_Field>
OPLS_2005

> <r_lp_Energy>
33.5858

> <b_lp_Chiralities_Consistent>
1

> <s_lp_Variant>
AV-unprocessed.smi:2741-1

> <Gold.Version>
5.8.1

> <Gold.Id.Protein>
6NUR|6NUR_protein|mol2

> <Gold.PLP.Fitness>
53.0340

> <Gold.PLP.PLP>
-49.4581

> <Gold.PLP.part.hbond>
-3.5101

> <Gold.PLP.part.metal>
0.0000

> <Gold.PLP.part.buried>
-0.5956

> <Gold.PLP.part.nonpolar>
-45.5459

> <Gold.PLP.part.repulsive>
0.2079

> <Gold.PLP.ligand.clash>
0.0000

> <Gold.PLP.ligand.torsion>
0.3171

> <Gold.PLP.Chemscore.Hbond>
1.3840

> <Gold.PLP.Chemscore.CHOScore>
0.0000

> <Gold.PLP.Chemscore.Metal>
0.0000

> <Gold.Chemscore.Hbonds>
donor molecule, donor type, donor heavy atom, donor atom, acceptor molecule, acceptor atom, score
      L1  H    15    28       P1  8028  0.42
      L1  H    21    37       P1  7948  1.00

> <Gold.PLP.Chemscore.Internal.Correction>
0.0582

> <Gold.Rescore>
     Score         DG    S(hbond)    S(metal)    S(lipo)     H(rot)  DE(clash)    DE(int)     intcor
     11.41     -14.58       1.24        0.00      96.60       2.48       0.22       2.94       ----

> <Gold.Chemscore.Fitness>
11.4091

> <Gold.Chemscore.DG>
-14.5750

> <Gold.Chemscore.ZeroCoef>
-5.4800

> <Gold.Chemscore.Hbond>
1.2406

> <Gold.Chemscore.Metal>
0.0000

> <Gold.Chemscore.Lipo>
96.5996

> <Gold.Chemscore.Internal_Hbond>
0.0000

> <Gold.Chemscore.DEClash>
0.2233

> <Gold.Chemscore.DEInternal>
2.9427

> <Gold.Chemscore.Rot>
2.4807

> <Gold.Chemscore.Internal.Correction>
   9.000000E+99

> <Gold.Chemscore.Hbonds>
donor molecule, donor type, donor heavy atom, donor atom, acceptor molecule, acceptor atom, score
      L1  H    15    28       P1  8028  0.21
      L1  H    21    37       P1  7948  0.39

> <Gold.Chemscore.Hbond.Weighted>
-4.1435

> <Gold.Chemscore.Metal.Weighted>
-0.0000

> <Gold.Chemscore.Lipo.Weighted>
-11.3022

> <Gold.Chemscore.Internal_Hbond.Weighted>
0.0000

> <Gold.Chemscore.DEClash.Weighted>
0.2233

> <Gold.Chemscore.DEInternal.Weighted>
2.9427

> <Gold.Chemscore.Rot.Weighted>
6.3507

> <Gold.Chemscore.Internal.Correction.Weighted>
   9.000000E+99

> <Gold.Protein.RotatedTorsions>
[ 6907 6896 6895 6894 ] final -128.73 input  -60.11 | X-H torsion
[ 7974 7965 7964 7962 ] final -161.33 input  175.53 | X-H torsion
[ 8008 7997 7996 7995 ] final   41.20 input   59.86 | X-H torsion
[ 10167 10162 10161 10158 ] final   83.21 input  -65.29 | X-H torsion
[ 10718 10713 10712 10709 ] final -145.94 input   66.30 | X-H torsion
[ 10763 10752 10751 10750 ] final   -6.46 input  -60.55 | X-H torsion
[ 11005 11000 10999 10996 ] final   97.27 input  -57.11 | X-H torsion

> <Gold.Protein.ActiveResidues>
 VAL166  LYS551  ARG553  GLY616  TRP617  ASP618  TYR619  PRO620  LYS621  CYS622 
 ASP623  PHE694  ASN695  SER759  ASP760  ASP761  ALA762  ILE779  LEU786  VAL792 
 PHE793  MET794  SER795  GLU796  ALA797  LYS798  CYS799  TRP800  GLU811  SER814 

> <Gold.Protein.RotatedAtoms>
  150.9211  133.6880  159.2831 H   0  0  0  0  0  0  0  0  0  0  0  0  # atno 6907 bound_to 6896
  151.4334  135.1011  159.9658 H   0  0  0  0  0  0  0  0  0  0  0  0  # atno 6908 bound_to 6896
  152.4980  133.8636  159.7317 H   0  0  0  0  0  0  0  0  0  0  0  0  # atno 6909 bound_to 6896
  144.7395  140.3414  143.6134 H   0  0  0  0  0  0  0  0  0  0  0  0  # atno 7974 bound_to 7965
  155.2657  140.3362  155.4269 H   0  0  0  0  0  0  0  0  0  0  0  0  # atno 8008 bound_to 7997
  156.2155  140.1787  156.7641 H   0  0  0  0  0  0  0  0  0  0  0  0  # atno 8009 bound_to 7997
  154.5747  140.0664  156.9001 H   0  0  0  0  0  0  0  0  0  0  0  0  # atno 8010 bound_to 7997
  139.9207  144.6214  150.8443 H   0  0  0  0  0  0  0  0  0  0  0  0  # atno 10167 bound_to 10162
  156.3887  130.7875  151.2075 H   0  0  0  0  0  0  0  0  0  0  0  0  # atno 10718 bound_to 10713
  153.4127  135.7008  153.6348 H   0  0  0  0  0  0  0  0  0  0  0  0  # atno 10763 bound_to 10752
  153.4835  135.3688  155.2455 H   0  0  0  0  0  0  0  0  0  0  0  0  # atno 10764 bound_to 10752
  154.8718  135.4071  154.3482 H   0  0  0  0  0  0  0  0  0  0  0  0  # atno 10765 bound_to 10752
  139.8777  134.8992  156.4282 H   0  0  0  0  0  0  0  0  0  0  0  0  # atno 11005 bound_to 11000
  145.7371  139.1753  143.2397 LP  0  0  0  0  0  0  0  0  0  0  0  0  # atno 17320 bound_to 7965
  146.1162  140.7366  142.9479 LP  0  0  0  0  0  0  0  0  0  0  0  0  # atno 17321 bound_to 7965
  140.7663  143.3299  151.2434 LP  0  0  0  0  0  0  0  0  0  0  0  0  # atno 17342 bound_to 10162
  139.6864  143.9767  152.2836 LP  0  0  0  0  0  0  0  0  0  0  0  0  # atno 17343 bound_to 10162
  157.7497  131.0322  150.4216 LP  0  0  0  0  0  0  0  0  0  0  0  0  # atno 17370 bound_to 10713
  156.4473  130.4004  149.6658 LP  0  0  0  0  0  0  0  0  0  0  0  0  # atno 17371 bound_to 10713
  140.9085  133.7728  155.9764 LP  0  0  0  0  0  0  0  0  0  0  0  0  # atno 17394 bound_to 11000
  140.8572  134.2883  157.5250 LP  0  0  0  0  0  0  0  0  0  0  0  0  # atno 17395 bound_to 11000

$$$$
