AV-unprocessed.smi:174|AV-procd|sdf|1427|dock1
  -GOLD-   2262019203D 1   1.00000     0.00000
 Structure written by MMmdl.
 51 54  0  0  0  0  0  0  0  0  1 V2000
  145.3573  133.9751  162.9410 N   0  0  0  0  0  0  0  0  0  0  0  0
  146.6113  134.1859  162.5355 C   0  0  0  0  0  0  0  0  0  0  0  0
  147.4011  133.2617  162.3479 O   0  0  0  0  0  0  0  0  0  0  0  0
  147.0319  135.6489  162.3349 C   0  0  0  0  0  0  0  0  0  0  0  0
  147.3349  135.9807  160.9349 N   0  0  0  0  0  0  0  0  0  0  0  0
  148.3860  135.1653  160.3048 C   0  0  0  0  0  0  0  0  0  0  0  0
  148.4127  135.2668  158.7706 C   0  0  0  0  0  0  0  0  0  0  0  0
  148.2739  136.6578  158.3603 N   0  0  0  0  0  0  0  0  0  0  0  0
  149.4299  137.3735  158.3814 C   0  0  0  0  0  0  0  0  0  0  0  0
  150.5658  136.8232  158.8889 N   0  0  0  0  0  0  0  0  0  0  0  0
  151.7083  137.5156  158.8968 C   0  0  0  0  0  0  0  0  0  0  0  0
  151.9368  138.7532  158.4542 N   0  0  0  0  0  0  0  0  0  0  0  0
  150.8018  139.3118  157.9453 C   0  0  0  0  0  0  0  0  0  0  0  0
  149.5191  138.6990  157.8710 C   0  0  0  0  0  0  0  0  0  0  0  0
  148.6067  139.5802  157.3018 N   0  0  0  0  0  0  0  0  0  0  0  0
  149.3093  140.6517  157.0543 C   0  0  0  0  0  0  0  0  0  0  0  0
  150.6355  140.5783  157.4134 N   0  0  0  0  0  0  0  0  0  0  0  0
  151.6313  141.6242  157.2686 C   0  0  0  0  0  0  0  0  0  0  0  0
  151.2540  142.9212  158.0147 C   0  0  2  0  0  0  0  0  0  0  0  0
  151.3465  143.9813  157.0842 O   0  0  0  0  0  0  0  0  0  0  0  0
  152.1482  143.2399  159.2341 C   0  0  1  0  0  0  0  0  0  0  0  0
  151.6952  144.4484  160.0586 C   0  0  0  0  0  0  0  0  0  0  0  0
  152.2480  144.1741  161.4499 C   0  0  0  0  0  0  0  0  0  0  0  0
  152.6784  142.7072  161.3951 C   0  0  0  0  0  0  0  0  0  0  0  0
  152.0855  142.2075  160.2073 O   0  0  0  0  0  0  0  0  0  0  0  0
  147.0407  137.3023  158.8286 C   0  0  0  0  0  0  0  0  0  0  0  0
  146.6853  136.9872  160.2946 C   0  0  0  0  0  0  0  0  0  0  0  0
  145.8137  137.6671  160.8370 O   0  0  0  0  0  0  0  0  0  0  0  0
  145.0302  133.0306  163.0836 H   0  0  0  0  0  0  0  0  0  0  0  0
  144.7387  134.7570  163.1001 H   0  0  0  0  0  0  0  0  0  0  0  0
  146.2526  136.3106  162.7183 H   0  0  0  0  0  0  0  0  0  0  0  0
  147.9080  135.8384  162.9568 H   0  0  0  0  0  0  0  0  0  0  0  0
  149.3448  135.4976  160.7048 H   0  0  0  0  0  0  0  0  0  0  0  0
  148.2738  134.1201  160.5966 H   0  0  0  0  0  0  0  0  0  0  0  0
  149.3149  134.7998  158.3762 H   0  0  0  0  0  0  0  0  0  0  0  0
  147.5765  134.7054  158.3514 H   0  0  0  0  0  0  0  0  0  0  0  0
  152.5611  137.0039  159.3180 H   0  0  0  0  0  0  0  0  0  0  0  0
  148.8756  141.5348  156.6080 H   0  0  0  0  0  0  0  0  0  0  0  0
  152.5890  141.2446  157.6274 H   0  0  0  0  0  0  0  0  0  0  0  0
  151.7574  141.8241  156.2036 H   0  0  0  0  0  0  0  0  0  0  0  0
  150.2143  142.8609  158.3388 H   0  0  0  0  0  0  0  0  0  0  0  0
  150.4731  144.2836  156.8869 H   0  0  0  0  0  0  0  0  0  0  0  0
  153.1857  143.3731  158.9208 H   0  0  0  0  0  0  0  0  0  0  0  0
  152.0465  145.3936  159.6436 H   0  0  0  0  0  0  0  0  0  0  0  0
  150.6057  144.4871  160.1028 H   0  0  0  0  0  0  0  0  0  0  0  0
  153.0958  144.8187  161.6841 H   0  0  0  0  0  0  0  0  0  0  0  0
  151.4807  144.3376  162.2075 H   0  0  0  0  0  0  0  0  0  0  0  0
  153.7635  142.6259  161.3152 H   0  0  0  0  0  0  0  0  0  0  0  0
  152.3563  142.1395  162.2682 H   0  0  0  0  0  0  0  0  0  0  0  0
  147.0646  138.3825  158.6765 H   0  0  0  0  0  0  0  0  0  0  0  0
  146.2225  136.9385  158.2066 H   0  0  0  0  0  0  0  0  0  0  0  0
  1  2  1  0  0  0  0
  1 29  1  0  0  0  0
  1 30  1  0  0  0  0
  2  3  2  0  0  0  0
  2  4  1  0  0  0  0
  4  5  1  0  0  0  0
  4 31  1  0  0  0  0
  4 32  1  0  0  0  0
  5 27  1  0  0  0  0
  5  6  1  0  0  0  0
  6  7  1  0  0  0  0
  6 33  1  0  0  0  0
  6 34  1  0  0  0  0
  7  8  1  0  0  0  0
  7 35  1  0  0  0  0
  7 36  1  0  0  0  0
  8  9  1  0  0  0  0
  8 26  1  0  0  0  0
  9 14  1  0  0  0  0
  9 10  2  0  0  0  0
 10 11  1  0  0  0  0
 11 12  2  0  0  0  0
 11 37  1  0  0  0  0
 12 13  1  0  0  0  0
 13 17  1  0  0  0  0
 13 14  2  0  0  0  0
 14 15  1  0  0  0  0
 15 16  2  0  0  0  0
 16 17  1  0  0  0  0
 16 38  1  0  0  0  0
 17 18  1  0  0  0  0
 18 19  1  0  0  0  0
 18 39  1  0  0  0  0
 18 40  1  0  0  0  0
 19 20  1  0  0  0  0
 19 21  1  0  0  0  0
 19 41  1  0  0  0  0
 20 42  1  0  0  0  0
 21 25  1  0  0  0  0
 21 22  1  0  0  0  0
 21 43  1  0  0  0  0
 22 23  1  0  0  0  0
 22 44  1  0  0  0  0
 22 45  1  0  0  0  0
 23 24  1  0  0  0  0
 23 46  1  0  0  0  0
 23 47  1  0  0  0  0
 24 25  1  0  0  0  0
 24 48  1  0  0  0  0
 24 49  1  0  0  0  0
 26 27  1  0  0  0  0
 26 50  1  0  0  0  0
 26 51  1  0  0  0  0
 27 28  2  0  0  0  0
M  END
> <s_m_source_file>
AV-unprocessed.smi

> <i_m_source_file_index>
174

> <i_lp_mmshare_version>
43012

> <i_f3d_flags>
0

> <s_epik_input>
W05IMl1DKD1PKVtDSDJdTjFbQ0gyXVtDSDJdTihbQ0gyXUMxPU8pYyhuW2NIXW4yKWMoYzIzKW5bY0hdbjNbQ0gyXVtDQEhdKFtPSF0pW0NAQEhdNFtDSDJdW0NIMl1bQ0gyXU80

> <s_epik_cmdline>
J2VwaWtfcHl0aG9uJywgJy1waCcsICc3LjAnLCAnLXRuJywgJzgnLCAnLW1hJywgJzIwMCcsICctbWV0YWxfYmluZGluZycsICctaW1hZScsICc8aW5maWxlLm1hZT4nLCAnLW9tYWUnLCAnPG91dGZpbGUubWFlPic=

> <r_lp_tautomer_probability>
1

> <r_epik_Ionization_Penalty>
0.000250477

> <r_epik_Ionization_Penalty_Charging>
0

> <r_epik_Ionization_Penalty_Neutral>
0.000250477

> <r_epik_State_Penalty>
-0

> <r_epik_Charging_Adjusted_Penalty>
0

> <i_epik_Tot_Q>
0

> <i_epik_Tot_abs_Q>
0

> <r_epik_Metal_State_Penalty>
-0

> <b_epik_Metal_Only>
0

> <s_lp_Force_Field>
OPLS_2005

> <r_lp_Energy>
34.8675

> <b_lp_Chiralities_Consistent>
1

> <s_lp_Variant>
AV-unprocessed.smi:174-3

> <Gold.Version>
5.8.1

> <Gold.Id.Protein>
6NUR|6NUR_protein|mol2

> <Gold.PLP.Fitness>
49.9093

> <Gold.PLP.PLP>
-44.9209

> <Gold.PLP.part.hbond>
-2.9967

> <Gold.PLP.part.metal>
0.0000

> <Gold.PLP.part.buried>
-9.2809

> <Gold.PLP.part.nonpolar>
-32.8897

> <Gold.PLP.part.repulsive>
0.1065

> <Gold.PLP.ligand.clash>
0.0000

> <Gold.PLP.ligand.torsion>
0.9713

> <Gold.PLP.Chemscore.Hbond>
2.1200

> <Gold.PLP.Chemscore.CHOScore>
0.0000

> <Gold.PLP.Chemscore.Metal>
0.0000

> <Gold.Chemscore.Hbonds>
donor molecule, donor type, donor heavy atom, donor atom, acceptor molecule, acceptor atom, score
      L1  H    20    42       P1  8028  1.00
      P1  H  6896  6907       L1    10  0.93
      P1  H  6934  6947       L1    28  0.30

> <Gold.PLP.Chemscore.Internal.Correction>
0.5710

> <Gold.Rescore>
     Score         DG    S(hbond)    S(metal)    S(lipo)     H(rot)  DE(clash)    DE(int)     intcor
      9.35     -11.35       1.80        0.00      84.00       3.90       0.85       1.15       ----

> <Gold.Chemscore.Fitness>
9.3480

> <Gold.Chemscore.DG>
-11.3474

> <Gold.Chemscore.ZeroCoef>
-5.4800

> <Gold.Chemscore.Hbond>
1.8026

> <Gold.Chemscore.Metal>
0.0000

> <Gold.Chemscore.Lipo>
83.9960

> <Gold.Chemscore.Internal_Hbond>
0.0000

> <Gold.Chemscore.DEClash>
0.8503

> <Gold.Chemscore.DEInternal>
1.1492

> <Gold.Chemscore.Rot>
3.8988

> <Gold.Chemscore.Internal.Correction>
   9.000000E+99

> <Gold.Chemscore.Hbonds>
donor molecule, donor type, donor heavy atom, donor atom, acceptor molecule, acceptor atom, score
      L1  H    20    42       P1  8028  0.88
      P1  H  6896  6907       L1    10  0.39

> <Gold.Chemscore.Hbond.Weighted>
-6.0207

> <Gold.Chemscore.Metal.Weighted>
-0.0000

> <Gold.Chemscore.Lipo.Weighted>
-9.8275

> <Gold.Chemscore.Internal_Hbond.Weighted>
0.0000

> <Gold.Chemscore.DEClash.Weighted>
0.8503

> <Gold.Chemscore.DEInternal.Weighted>
1.1492

> <Gold.Chemscore.Rot.Weighted>
9.9808

> <Gold.Chemscore.Internal.Correction.Weighted>
   9.000000E+99

> <Gold.Protein.RotatedTorsions>
[ 6907 6896 6895 6894 ] final  -33.78 input  -60.11 | X-H torsion
[ 7974 7965 7964 7962 ] final  144.41 input  175.53 | X-H torsion
[ 8008 7997 7996 7995 ] final  -77.12 input   59.86 | X-H torsion
[ 10167 10162 10161 10158 ] final  105.67 input  -65.29 | X-H torsion
[ 10718 10713 10712 10709 ] final  127.48 input   66.30 | X-H torsion
[ 10763 10752 10751 10750 ] final  147.77 input  -60.55 | X-H torsion
[ 11005 11000 10999 10996 ] final   86.07 input  -57.11 | X-H torsion

> <Gold.Protein.ActiveResidues>
 VAL166  LYS551  ARG553  GLY616  TRP617  ASP618  TYR619  PRO620  LYS621  CYS622 
 ASP623  PHE694  ASN695  SER759  ASP760  ASP761  ALA762  ILE779  LEU786  VAL792 
 PHE793  MET794  SER795  GLU796  ALA797  LYS798  CYS799  TRP800  GLU811  SER814 

> <Gold.Protein.RotatedAtoms>
  151.0611  134.9737  159.8260 H   0  0  0  0  0  0  0  0  0  0  0  0  # atno 6907 bound_to 6896
  152.5395  134.2416  159.8874 H   0  0  0  0  0  0  0  0  0  0  0  0  # atno 6908 bound_to 6896
  151.2436  133.4343  159.2642 H   0  0  0  0  0  0  0  0  0  0  0  0  # atno 6909 bound_to 6896
  144.8838  139.5659  143.5830 H   0  0  0  0  0  0  0  0  0  0  0  0  # atno 7974 bound_to 7965
  154.5567  140.0716  156.8754 H   0  0  0  0  0  0  0  0  0  0  0  0  # atno 8008 bound_to 7997
  155.2889  140.3376  155.4235 H   0  0  0  0  0  0  0  0  0  0  0  0  # atno 8009 bound_to 7997
  156.2008  140.1721  156.7890 H   0  0  0  0  0  0  0  0  0  0  0  0  # atno 8010 bound_to 7997
  139.7073  144.7084  151.1085 H   0  0  0  0  0  0  0  0  0  0  0  0  # atno 10167 bound_to 10162
  157.5329  131.1098  150.8980 H   0  0  0  0  0  0  0  0  0  0  0  0  # atno 10718 bound_to 10713
  154.0437  135.2887  155.3351 H   0  0  0  0  0  0  0  0  0  0  0  0  # atno 10763 bound_to 10752
  154.6913  135.5225  153.8399 H   0  0  0  0  0  0  0  0  0  0  0  0  # atno 10764 bound_to 10752
  153.0589  135.6606  154.0639 H   0  0  0  0  0  0  0  0  0  0  0  0  # atno 10765 bound_to 10752
  139.8954  134.8330  156.2670 H   0  0  0  0  0  0  0  0  0  0  0  0  # atno 11005 bound_to 11000
  146.3011  139.7430  142.9090 LP  0  0  0  0  0  0  0  0  0  0  0  0  # atno 17320 bound_to 7965
  145.3906  141.0372  143.3126 LP  0  0  0  0  0  0  0  0  0  0  0  0  # atno 17321 bound_to 7965
  140.7725  143.5340  150.9389 LP  0  0  0  0  0  0  0  0  0  0  0  0  # atno 17342 bound_to 10162
  139.9024  143.6819  152.3129 LP  0  0  0  0  0  0  0  0  0  0  0  0  # atno 17343 bound_to 10162
  156.9556  130.5436  149.5284 LP  0  0  0  0  0  0  0  0  0  0  0  0  # atno 17370 bound_to 10713
  156.0436  130.5516  150.8829 LP  0  0  0  0  0  0  0  0  0  0  0  0  # atno 17371 bound_to 10713
  141.0125  133.7087  156.1135 LP  0  0  0  0  0  0  0  0  0  0  0  0  # atno 17394 bound_to 11000
  140.7347  134.4216  157.5562 LP  0  0  0  0  0  0  0  0  0  0  0  0  # atno 17395 bound_to 11000

$$$$
