#       Name:                AV-unprocessed.smi:54
#       Creating user name   scv26
#       Creation time:       Thu Mar 26 16:45:42 2020


#       File generated by GOLD software.
#

@<TRIPOS>MOLECULE
AV-unprocessed.smi:54
    58    60     1
SMALL
NO_CHARGES


@<TRIPOS>ATOM
      1 ****        -1.1854   4.5390   1.3479 C.3            1 S1                 0.0000
      2 ****        -1.3226   3.9042  -0.0457 C.3            1 S1                 0.0000
      3 ****        -1.9885   4.8727  -1.0372 C.3            1 S1                 0.0000
      4 ****        -2.1028   2.5844   0.0334 C.2            1 S1                 0.0000
      5 ****        -3.2736   2.6017   0.4193 O.2            1 S1                 0.0000
      6 ****        -1.4082   1.4821  -0.3248 N.am           1 S1                 0.0000
      7 ****        -1.8187   0.1445  -0.3288 C.2            1 S1                 0.0000
      8 ****        -0.8164  -0.6990  -0.3098 N.2            1 S1                 0.0000
      9 ****        -1.2266  -2.0181  -0.3116 C.2            1 S1                 0.0000
     10 ****        -2.5096  -2.4922  -0.3494 C.2            1 S1                 0.0000
     11 ****        -2.5401  -3.8815  -0.3367 N.2            1 S1                 0.0000
     12 ****        -1.2448  -4.1873  -0.2896 C.2            1 S1                 0.0000
     13 ****        -0.3995  -3.1380  -0.2713 N.pl3          1 S1                 0.0000
     14 ****         1.0932  -3.2080  -0.2161 C.3            1 S1                 0.0000
     15 ****         1.6050  -2.2135  -1.0469 O.3            1 S1                 0.0000
     16 ****         2.7386  -1.6197  -0.4334 C.3            1 S1                 0.0000
     17 ****         3.0173  -0.2335  -1.0410 C.3            1 S1                 0.0000
     18 ****         4.2089   0.3067  -0.5100 O.3            1 S1                 0.0000
     19 ****         2.4342  -1.6782   1.0717 C.3            1 S1                 0.0000
     20 ****         1.7013  -0.5504   1.5098 O.3            1 S1                 0.0000
     21 ****         1.6018  -2.9499   1.2144 C.3            1 S1                 0.0000
     22 ****         2.4291  -4.0093   1.6533 O.3            1 S1                 0.0000
     23 ****        -3.5958  -1.4848  -0.3951 C.2            1 S1                 0.0000
     24 ****        -4.7638  -1.8663  -0.4384 O.2            1 S1                 0.0000
     25 ****        -3.1885  -0.1804  -0.3865 N.pl3          1 S1                -1.0000
     26 ****         1.3432  -4.1978  -0.6014 H              1 S1                 0.0000
     27 ****         3.5845  -2.2778  -0.6406 H              1 S1                 0.0000
     28 ****         3.3531  -1.7120   1.6589 H              1 S1                 0.0000
     29 ****         0.7738  -2.8330   1.9162 H              1 S1                 0.0000
     30 ****        -0.7187   3.8499   2.0529 H              1 S1                 0.0000
     31 ****        -2.1553   4.8268   1.7556 H              1 S1                 0.0000
     32 ****        -0.5653   5.4348   1.3084 H              1 S1                 0.0000
     33 ****        -0.3179   3.6895  -0.4139 H              1 S1                 0.0000
     34 ****        -2.0914   4.4200  -2.0241 H              1 S1                 0.0000
     35 ****        -1.3944   5.7795  -1.1536 H              1 S1                 0.0000
     36 ****        -2.9826   5.1707  -0.7018 H              1 S1                 0.0000
     37 ****        -0.4380   1.6476  -0.5470 H              1 S1                 0.0000
     38 ****        -0.8985  -5.2101  -0.2654 H              1 S1                 0.0000
     39 ****         3.1336  -0.3215  -2.1214 H              1 S1                 0.0000
     40 ****         2.1890   0.4547  -0.8694 H              1 S1                 0.0000
     41 ****         4.3735   1.1379  -0.9287 H              1 S1                 0.0000
     42 ****         2.2231   0.2223   1.3568 H              1 S1                 0.0000
     43 ****         3.1425  -4.1053   1.0413 H              1 S1                 0.0000
     44 ****        -3.7028   3.4677   0.6757 LP             1 S1                 0.0000
     45 ****        -3.7940   1.7497   0.4759 LP             1 S1                 0.0000
     46 ****         0.1432  -0.4180  -0.2955 LP             1 S1                 0.0000
     47 ****        -3.3306  -4.4936  -0.3576 LP             1 S1                 0.0000
     48 ****         0.9057  -1.5155  -1.2008 LP             1 S1                 0.0000
     49 ****         1.8726  -2.6160  -1.9224 LP             1 S1                 0.0000
     50 ****         4.9704  -0.3170  -0.6870 LP             1 S1                 0.0000
     51 ****         4.1091   0.4395   0.4761 LP             1 S1                 0.0000
     52 ****         1.5021  -0.6355   2.4860 LP             1 S1                 0.0000
     53 ****         0.8440  -0.4856   0.9991 LP             1 S1                 0.0000
     54 ****         1.9003  -4.8572   1.6907 LP             1 S1                 0.0000
     55 ****         2.7901  -3.8012   2.5624 LP             1 S1                 0.0000
     56 ****        -4.9704  -2.8448  -0.4424 LP             1 S1                 0.0000
     57 ****        -5.5072  -1.1982  -0.4696 LP             1 S1                 0.0000
     58 ****        -3.8695   0.5509  -0.4215 LP             1 S1                 0.0000
@<TRIPOS>BOND
    1    1    2 1     
    2    1   30 1     
    3    1   31 1     
    4    1   32 1     
    5    2    3 1     
    6    2    4 1     
    7    2   33 1     
    8    3   34 1     
    9    3   35 1     
   10    3   36 1     
   11    4    5 2     
   12    4    6 am    
   13    6   37 1     
   14    6    7 1     
   15    7   25 1     
   16    7    8 2     
   17    8    9 1     
   18    9   13 1     
   19    9   10 2     
   20   10   11 1     
   21   10   23 1     
   22   11   12 2     
   23   12   13 1     
   24   12   38 1     
   25   13   14 1     
   26   14   26 1     
   27   14   21 1     
   28   14   15 1     
   29   15   16 1     
   30   16   27 1     
   31   16   17 1     
   32   16   19 1     
   33   17   18 1     
   34   17   39 1     
   35   17   40 1     
   36   18   41 1     
   37   19   28 1     
   38   19   20 1     
   39   19   21 1     
   40   20   42 1     
   41   21   29 1     
   42   21   22 1     
   43   22   43 1     
   44   23   24 2     
   45   23   25 1     
   46    5   44 1     
   47    5   45 1     
   48    8   46 1     
   49   11   47 1     
   50   15   48 1     
   51   15   49 1     
   52   18   50 1     
   53   18   51 1     
   54   20   52 1     
   55   20   53 1     
   56   22   54 1     
   57   22   55 1     
   58   24   56 1     
   59   24   57 1     
   60   25   58 1     
@<TRIPOS>SUBSTRUCTURE
      1 S1             1
@<TRIPOS>SET
LONE_PAIRS      STATIC     ATOMS    <user>   **** ""
15 44 45 46 47 48 49 50 51 52 53 54 55 56 57 58
DONOR_HYDROGENS      STATIC     ATOMS    <user>   **** ""
4 37 41 42 43
ATOM$BLUE        STATIC     ATOMS    COLORGROUP SYSTEM
15 44 45 46 47 48 49 50 51 52 53 54 55 56 57 58
ATOM$RED        STATIC     ATOMS    COLORGROUP SYSTEM
4 37 41 42 43
