#       Name:                AV-unprocessed.smi:2332
#       Creating user name   scv26
#       Creation time:       Fri Mar 27 12:54:00 2020


#       File generated by GOLD software.
#

@<TRIPOS>MOLECULE
AV-unprocessed.smi:2332
    39    40     1
SMALL
NO_CHARGES


@<TRIPOS>ATOM
      1 ****        -4.2872  -3.1778  -0.8658 C.3            1 S1                 0.0000
      2 ****        -2.9045  -2.7367  -0.9644 N.am           1 S1                 0.0000
      3 ****        -2.2888  -1.9639  -0.0567 C.2            1 S1                 0.0000
      4 ****        -2.8485  -1.5606   0.9635 O.2            1 S1                 0.0000
      5 ****        -0.8190  -1.6068  -0.3267 C.3            1 S1                 0.0000
      6 ****        -0.4487  -0.2119   0.2278 C.3            1 S1                 0.0000
      7 ****         0.9170   0.1493  -0.1458 N.3            1 S1                 0.0000
      8 ****         1.4517   1.2746   0.5186 C.ar           1 S1                 0.0000
      9 ****         1.4411   1.3377   1.9330 C.ar           1 S1                 0.0000
     10 ****         1.9755   2.4715   2.5754 C.ar           1 S1                 0.0000
     11 ****         2.5076   3.5102   1.7882 C.ar           1 S1                 0.0000
     12 ****         3.0700   4.6999   2.4035 C.1            1 S1                 0.0000
     13 ****         3.5180   5.6473   2.8939 N.1            1 S1                 0.0000
     14 ****         2.4834   3.3630   0.3878 C.ar           1 S1                 0.0000
     15 ****         1.9732   2.2772  -0.2321 N.ar           1 S1                 0.0000
     16 ****         1.1862   0.0085  -1.5749 C.3            1 S1                 0.0000
     17 ****         0.7833  -1.3932  -2.0572 C.3            1 S1                 0.0000
     18 ****        -0.5818  -1.6311  -1.7351 O.3            1 S1                 0.0000
     19 ****        -4.5567  -3.7563  -1.7493 H              1 S1                 0.0000
     20 ****        -4.9640  -2.3252  -0.7969 H              1 S1                 0.0000
     21 ****        -4.4307  -3.8085   0.0123 H              1 S1                 0.0000
     22 ****        -2.3801  -3.0292  -1.7765 H              1 S1                 0.0000
     23 ****        -0.2040  -2.3705   0.1526 H              1 S1                 0.0000
     24 ****        -1.1290   0.5443  -0.1668 H              1 S1                 0.0000
     25 ****        -0.5721  -0.2135   1.3100 H              1 S1                 0.0000
     26 ****         1.0458   0.5289   2.5295 H              1 S1                 0.0000
     27 ****         1.9769   2.5346   3.6541 H              1 S1                 0.0000
     28 ****         2.8828   4.1321  -0.2577 H              1 S1                 0.0000
     29 ****         0.6283   0.7675  -2.1252 H              1 S1                 0.0000
     30 ****         2.2461   0.1691  -1.7773 H              1 S1                 0.0000
     31 ****         0.9118  -1.4701  -3.1369 H              1 S1                 0.0000
     32 ****         1.4157  -2.1590  -1.6053 H              1 S1                 0.0000
     33 ****        -3.8009  -1.8076   1.1422 LP             1 S1                 0.0000
     34 ****        -2.3505  -0.9862   1.6132 LP             1 S1                 0.0000
     35 ****         1.4995  -0.5613   0.2490 LP             1 S1                 0.0000
     36 ****         3.9052   6.4661   3.3177 LP             1 S1                 0.0000
     37 ****         1.9797   2.2130  -1.2300 LP             1 S1                 0.0000
     38 ****        -1.1420  -0.9248  -2.1677 LP             1 S1                 0.0000
     39 ****        -0.8442  -2.5285  -2.0899 LP             1 S1                 0.0000
@<TRIPOS>BOND
    1    1    2 1     
    2    1   19 1     
    3    1   20 1     
    4    1   21 1     
    5    2    3 am    
    6    2   22 1     
    7    3    4 2     
    8    3    5 1     
    9    5   18 1     
   10    5    6 1     
   11    5   23 1     
   12    6    7 1     
   13    6   24 1     
   14    6   25 1     
   15    7    8 1     
   16    7   16 1     
   17    8   15 ar    
   18    8    9 ar    
   19    9   10 ar    
   20    9   26 1     
   21   10   11 ar    
   22   10   27 1     
   23   11   12 1     
   24   11   14 ar    
   25   12   13 3     
   26   14   15 ar    
   27   14   28 1     
   28   16   17 1     
   29   16   29 1     
   30   16   30 1     
   31   17   18 1     
   32   17   31 1     
   33   17   32 1     
   34    4   33 1     
   35    4   34 1     
   36    7   35 1     
   37   13   36 1     
   38   15   37 1     
   39   18   38 1     
   40   18   39 1     
@<TRIPOS>SUBSTRUCTURE
      1 S1             1
@<TRIPOS>SET
LONE_PAIRS      STATIC     ATOMS    <user>   **** ""
7 33 34 35 36 37 38 39
DONOR_HYDROGENS      STATIC     ATOMS    <user>   **** ""
1 22
ATOM$BLUE        STATIC     ATOMS    COLORGROUP SYSTEM
7 33 34 35 36 37 38 39
ATOM$RED        STATIC     ATOMS    COLORGROUP SYSTEM
1 22
