AV-unprocessed.smi:753|AV-procd|sdf|3602|dock10
  -GOLD-   22720 0593D 1   1.00000     0.00000
 Structure written by MMmdl.
 43 45  0  0  0  0  0  0  0  0  1 V2000
  151.6010  141.1250  156.8420 C   0  0  0  0  0  0  0  0  0  0  0  0
  150.2713  140.6837  156.2670 C   0  0  0  0  0  0  0  0  0  0  0  0
  149.0885  140.7647  157.0319 C   0  0  0  0  0  0  0  0  0  0  0  0
  147.8807  140.3397  156.4456 C   0  0  0  0  0  0  0  0  0  0  0  0
  147.9022  139.8522  155.1229 C   0  0  0  0  0  0  0  0  0  0  0  0
  146.6315  139.3757  154.4485 C   0  0  0  0  0  0  0  0  0  0  0  0
  146.8327  139.1369  152.9437 C   0  0  0  0  0  0  0  0  0  0  0  0
  146.9625  137.7168  152.6444 N   0  0  0  0  0  0  0  0  0  0  0  0
  145.9460  136.8387  152.6146 C   0  0  0  0  0  0  0  0  0  0  0  0
  144.7804  137.1426  152.8611 O   0  0  0  0  0  0  0  0  0  0  0  0
  146.2980  135.5824  152.2888 N   0  0  0  0  0  0  0  0  0  0  0  0
  145.4342  134.4050  152.1705 C   0  0  1  0  0  0  0  0  0  0  0  0
  144.4598  134.5277  150.9784 C   0  0  0  0  0  0  0  0  0  0  0  0
  144.7813  133.2761  150.1403 C   0  0  2  0  0  0  0  0  0  0  0  0
  144.3109  132.0162  150.8927 C   0  0  0  0  0  0  0  0  0  0  0  0
  145.3314  131.9024  152.0424 C   0  0  0  0  0  0  0  0  0  0  0  0
  146.2331  133.1287  151.8118 C   0  0  1  0  0  0  0  0  0  0  0  0
  146.2934  133.1834  150.2883 C   0  0  0  0  0  0  0  0  0  0  0  0
  149.1388  139.8116  154.4452 C   0  0  0  0  0  0  0  0  0  0  0  0
  150.3017  140.2169  154.9991 N   0  0  0  0  0  0  0  0  0  0  0  0
  151.4827  141.5250  157.8494 H   0  0  0  0  0  0  0  0  0  0  0  0
  152.0453  141.9012  156.2183 H   0  0  0  0  0  0  0  0  0  0  0  0
  152.2916  140.2826  156.8887 H   0  0  0  0  0  0  0  0  0  0  0  0
  149.1029  141.1419  158.0439 H   0  0  0  0  0  0  0  0  0  0  0  0
  146.9569  140.3862  157.0034 H   0  0  0  0  0  0  0  0  0  0  0  0
  146.2941  138.4595  154.9353 H   0  0  0  0  0  0  0  0  0  0  0  0
  145.8467  140.1163  154.6091 H   0  0  0  0  0  0  0  0  0  0  0  0
  145.9775  139.5217  152.3875 H   0  0  0  0  0  0  0  0  0  0  0  0
  147.7087  139.6788  152.5827 H   0  0  0  0  0  0  0  0  0  0  0  0
  147.8893  137.3779  152.4314 H   0  0  0  0  0  0  0  0  0  0  0  0
  147.2805  135.4223  152.1194 H   0  0  0  0  0  0  0  0  0  0  0  0
  144.8726  134.2730  153.0975 H   0  0  0  0  0  0  0  0  0  0  0  0
  143.4173  134.5521  151.2978 H   0  0  0  0  0  0  0  0  0  0  0  0
  144.6468  135.4320  150.3969 H   0  0  0  0  0  0  0  0  0  0  0  0
  144.4211  133.3332  149.1128 H   0  0  0  0  0  0  0  0  0  0  0  0
  143.2858  132.1087  151.2530 H   0  0  0  0  0  0  0  0  0  0  0  0
  144.3616  131.1374  150.2485 H   0  0  0  0  0  0  0  0  0  0  0  0
  144.8581  131.9104  153.0248 H   0  0  0  0  0  0  0  0  0  0  0  0
  145.9047  130.9785  151.9551 H   0  0  0  0  0  0  0  0  0  0  0  0
  147.2013  133.0467  152.3071 H   0  0  0  0  0  0  0  0  0  0  0  0
  146.7181  132.2842  149.8386 H   0  0  0  0  0  0  0  0  0  0  0  0
  146.8212  134.0588  149.9055 H   0  0  0  0  0  0  0  0  0  0  0  0
  149.1979  139.4407  153.4326 H   0  0  0  0  0  0  0  0  0  0  0  0
  1  2  1  0  0  0  0
  1 21  1  0  0  0  0
  1 22  1  0  0  0  0
  1 23  1  0  0  0  0
  2 20  1  0  0  0  0
  2  3  2  0  0  0  0
  3  4  1  0  0  0  0
  3 24  1  0  0  0  0
  4  5  2  0  0  0  0
  4 25  1  0  0  0  0
  5  6  1  0  0  0  0
  5 19  1  0  0  0  0
  6  7  1  0  0  0  0
  6 26  1  0  0  0  0
  6 27  1  0  0  0  0
  7  8  1  0  0  0  0
  7 28  1  0  0  0  0
  7 29  1  0  0  0  0
  8  9  1  0  0  0  0
  8 30  1  0  0  0  0
  9 10  2  0  0  0  0
  9 11  1  0  0  0  0
 11 12  1  0  0  0  0
 11 31  1  0  0  0  0
 12 17  1  0  0  0  0
 12 13  1  0  0  0  0
 12 32  1  0  0  0  0
 13 14  1  0  0  0  0
 13 33  1  0  0  0  0
 13 34  1  0  0  0  0
 14 18  1  0  0  0  0
 14 15  1  0  0  0  0
 14 35  1  0  0  0  0
 15 16  1  0  0  0  0
 15 36  1  0  0  0  0
 15 37  1  0  0  0  0
 16 17  1  0  0  0  0
 16 38  1  0  0  0  0
 16 39  1  0  0  0  0
 17 18  1  0  0  0  0
 17 40  1  0  0  0  0
 18 41  1  0  0  0  0
 18 42  1  0  0  0  0
 19 20  2  0  0  0  0
 19 43  1  0  0  0  0
M  END
> <s_m_source_file>
AV-unprocessed.smi

> <i_m_source_file_index>
753

> <i_lp_mmshare_version>
43012

> <i_f3d_flags>
0

> <s_epik_input>
W0NIM11jMVtjSF1bY0hdYyhbY0hdbjEpW0NIMl1bQ0gyXVtOSF1DKD1PKVtOSF1bQ0BIXShbQ0gyXVtDQEBIXTIzKVtDQEBIXShbQ0gyXTMpW0NIMl1bQ0gyXTI=

> <s_epik_cmdline>
J2VwaWtfcHl0aG9uJywgJy1waCcsICc3LjAnLCAnLXRuJywgJzgnLCAnLW1hJywgJzIwMCcsICctbWV0YWxfYmluZGluZycsICctaW1hZScsICc8aW5maWxlLm1hZT4nLCAnLW9tYWUnLCAnPG91dGZpbGUubWFlPic=

> <r_epik_Ionization_Penalty>
0.0569047

> <r_epik_Ionization_Penalty_Charging>
0

> <r_epik_Ionization_Penalty_Neutral>
0.0569047

> <r_epik_State_Penalty>
0.0490541

> <r_epik_Charging_Adjusted_Penalty>
0.0490541

> <i_epik_Tot_Q>
0

> <i_epik_Tot_abs_Q>
0

> <r_epik_Metal_State_Penalty>
0.0447357

> <b_epik_Metal_Only>
0

> <s_lp_Force_Field>
OPLS_2005

> <r_lp_Energy>
50.3887

> <b_lp_Chiralities_Consistent>
1

> <s_lp_Variant>
AV-unprocessed.smi:753-4

> <Gold.Version>
5.8.1

> <Gold.Id.Protein>
6NUR|6NUR_protein|mol2

> <Gold.PLP.Fitness>
43.0714

> <Gold.PLP.PLP>
-32.6092

> <Gold.PLP.part.hbond>
-3.0000

> <Gold.PLP.part.metal>
0.0000

> <Gold.PLP.part.buried>
-3.9699

> <Gold.PLP.part.nonpolar>
-26.2678

> <Gold.PLP.part.repulsive>
0.4062

> <Gold.PLP.ligand.clash>
0.0000

> <Gold.PLP.ligand.torsion>
0.5398

> <Gold.PLP.Chemscore.Hbond>
2.8400

> <Gold.PLP.Chemscore.CHOScore>
1.0000

> <Gold.PLP.Chemscore.Metal>
0.0000

> <Gold.Chemscore.Hbonds>
donor molecule, donor type, donor heavy atom, donor atom, acceptor molecule, acceptor atom, score
      L1  H     8    30       P1  7948  1.00
      L1  H    11    31       P1  7948  0.93
      P1  H  7989  7998       L1    20  0.81
      L1  C    19    43       P1  7957  1.00

> <Gold.PLP.Chemscore.Internal.Correction>
0.0219

> <Gold.Rescore>
     Score         DG    S(hbond)    S(metal)    S(lipo)     H(rot)  DE(clash)    DE(int)     intcor
     20.12     -21.18       2.73        0.00      87.51       1.43       0.60       0.45       ----

> <Gold.Chemscore.Fitness>
20.1226

> <Gold.Chemscore.DG>
-21.1751

> <Gold.Chemscore.ZeroCoef>
-5.4800

> <Gold.Chemscore.Hbond>
2.7292

> <Gold.Chemscore.Metal>
0.0000

> <Gold.Chemscore.Lipo>
87.5055

> <Gold.Chemscore.Internal_Hbond>
0.0000

> <Gold.Chemscore.DEClash>
0.6003

> <Gold.Chemscore.DEInternal>
0.4522

> <Gold.Chemscore.Rot>
1.4291

> <Gold.Chemscore.Internal.Correction>
   9.000000E+99

> <Gold.Chemscore.Hbonds>
donor molecule, donor type, donor heavy atom, donor atom, acceptor molecule, acceptor atom, score
      L1  H     8    30       P1  7948  0.97
      L1  H    11    31       P1  7948  0.90
      P1  H  7989  7998       L1    20  0.59

> <Gold.Chemscore.Hbond.Weighted>
-9.1155

> <Gold.Chemscore.Metal.Weighted>
-0.0000

> <Gold.Chemscore.Lipo.Weighted>
-10.2381

> <Gold.Chemscore.Internal_Hbond.Weighted>
0.0000

> <Gold.Chemscore.DEClash.Weighted>
0.6003

> <Gold.Chemscore.DEInternal.Weighted>
0.4522

> <Gold.Chemscore.Rot.Weighted>
3.6585

> <Gold.Chemscore.Internal.Correction.Weighted>
   9.000000E+99

> <Gold.Protein.RotatedTorsions>
[ 6907 6896 6895 6894 ] final   92.95 input  -60.11 | X-H torsion
[ 7974 7965 7964 7962 ] final -170.18 input  175.53 | X-H torsion
[ 8008 7997 7996 7995 ] final  -80.59 input   59.86 | X-H torsion
[ 10167 10162 10161 10158 ] final   66.07 input  -65.29 | X-H torsion
[ 10718 10713 10712 10709 ] final   55.19 input   66.30 | X-H torsion
[ 10763 10752 10751 10750 ] final   25.41 input  -60.55 | X-H torsion
[ 11005 11000 10999 10996 ] final  -50.76 input  -57.11 | X-H torsion

> <Gold.Protein.ActiveResidues>
 VAL166  LYS551  ARG553  GLY616  TRP617  ASP618  TYR619  PRO620  LYS621  CYS622 
 ASP623  PHE694  ASN695  SER759  ASP760  ASP761  ALA762  ILE779  LEU786  VAL792 
 PHE793  MET794  SER795  GLU796  ALA797  LYS798  CYS799  TRP800  GLU811  SER814 

> <Gold.Protein.RotatedAtoms>
  152.5453  134.1423  159.8483 H   0  0  0  0  0  0  0  0  0  0  0  0  # atno 6907 bound_to 6896
  151.1458  133.4933  159.2603 H   0  0  0  0  0  0  0  0  0  0  0  0  # atno 6908 bound_to 6896
  151.1525  135.0244  159.8729 H   0  0  0  0  0  0  0  0  0  0  0  0  # atno 6909 bound_to 6896
  144.7174  140.2111  143.6327 H   0  0  0  0  0  0  0  0  0  0  0  0  # atno 7974 bound_to 7965
  154.5898  140.0660  156.9223 H   0  0  0  0  0  0  0  0  0  0  0  0  # atno 8008 bound_to 7997
  155.2315  140.3338  155.4284 H   0  0  0  0  0  0  0  0  0  0  0  0  # atno 8009 bound_to 7997
  156.2248  140.1814  156.7374 H   0  0  0  0  0  0  0  0  0  0  0  0  # atno 8010 bound_to 7997
  140.1045  144.4874  150.7017 H   0  0  0  0  0  0  0  0  0  0  0  0  # atno 10167 bound_to 10162
  157.5323  130.8639  149.8705 H   0  0  0  0  0  0  0  0  0  0  0  0  # atno 10718 bound_to 10713
  153.0694  135.6583  154.0281 H   0  0  0  0  0  0  0  0  0  0  0  0  # atno 10763 bound_to 10752
  153.9930  135.2944  155.3411 H   0  0  0  0  0  0  0  0  0  0  0  0  # atno 10764 bound_to 10752
  154.7063  135.5223  153.8670 H   0  0  0  0  0  0  0  0  0  0  0  0  # atno 10765 bound_to 10752
  141.0833  133.6648  156.3777 H   0  0  0  0  0  0  0  0  0  0  0  0  # atno 11005 bound_to 11000
  145.8590  139.2213  143.1727 LP  0  0  0  0  0  0  0  0  0  0  0  0  # atno 17320 bound_to 7965
  146.0191  140.8365  142.9932 LP  0  0  0  0  0  0  0  0  0  0  0  0  # atno 17321 bound_to 7965
  140.6960  143.2404  151.5000 LP  0  0  0  0  0  0  0  0  0  0  0  0  # atno 17342 bound_to 10162
  139.5653  144.2057  152.1755 LP  0  0  0  0  0  0  0  0  0  0  0  0  # atno 17343 bound_to 10162
  156.0432  130.3734  150.1383 LP  0  0  0  0  0  0  0  0  0  0  0  0  # atno 17370 bound_to 10713
  156.9567  130.9792  151.3487 LP  0  0  0  0  0  0  0  0  0  0  0  0  # atno 17371 bound_to 10713
  140.5419  134.6112  157.5382 LP  0  0  0  0  0  0  0  0  0  0  0  0  # atno 17394 bound_to 11000
  139.9649  134.7389  156.0159 LP  0  0  0  0  0  0  0  0  0  0  0  0  # atno 17395 bound_to 11000

$$$$
