AV-unprocessed.smi:72|AV-procd|sdf|703|dock6
  -GOLD-   2262017 23D 1   1.00000     0.00000
 Structure written by MMmdl.
 30 31  0  0  0  0  0  0  0  0  2 V2000
  147.0844  138.4632  153.0535 N   0  0  0  0  0  0  0  0  0  0  0  0
  146.2018  137.4284  152.8223 C   0  0  0  0  0  0  0  0  0  0  0  0
  146.6313  136.3824  152.0266 N   0  3  0  0  0  0  0  0  0  0  0  0
  145.8899  135.3185  151.6907 C   0  0  0  0  0  0  0  0  0  0  0  0
  144.6384  135.2520  152.0957 N   0  0  0  0  0  0  0  0  0  0  0  0
  143.8062  134.0412  151.7513 C   0  0  2  0  0  0  0  0  0  0  0  0
  144.5544  132.9242  152.1083 O   0  0  0  0  0  0  0  0  0  0  0  0
  144.3643  131.9059  151.1359 C   0  0  2  0  0  0  0  0  0  0  0  0
  145.5489  130.9274  151.1608 C   0  0  0  0  0  0  0  0  0  0  0  0
  146.7651  131.6434  151.1661 O   0  0  0  0  0  0  0  0  0  0  0  0
  144.2471  132.6963  149.8277 C   0  0  1  0  0  0  0  0  0  0  0  0
  143.5239  131.9539  148.8668 O   0  0  0  0  0  0  0  0  0  0  0  0
  143.4692  133.9378  150.2485 C   0  0  2  0  0  0  0  0  0  0  0  0
  143.8345  135.0707  149.4803 O   0  0  0  0  0  0  0  0  0  0  0  0
  144.1383  136.2328  152.9920 C   0  0  0  0  0  0  0  0  0  0  0  0
  143.0082  136.1380  153.4680 O   0  0  0  0  0  0  0  0  0  0  0  0
  144.9879  137.3103  153.2843 N   0  0  0  0  0  0  0  0  0  0  0  0
  142.8950  134.0782  152.3476 H   0  0  0  0  0  0  0  0  0  0  0  0
  143.4223  131.3921  151.3420 H   0  0  0  0  0  0  0  0  0  0  0  0
  145.2362  132.9583  149.4485 H   0  0  0  0  0  0  0  0  0  0  0  0
  142.3943  133.7702  150.1616 H   0  0  0  0  0  0  0  0  0  0  0  0
  146.8603  139.2627  153.6295 H   0  0  0  0  0  0  0  0  0  0  0  0
  148.0167  138.5073  152.6678 H   0  0  0  0  0  0  0  0  0  0  0  0
  146.3323  134.5199  151.1086 H   0  0  0  0  0  0  0  0  0  0  0  0
  145.5208  130.3265  152.0701 H   0  0  0  0  0  0  0  0  0  0  0  0
  145.5148  130.2392  150.3158 H   0  0  0  0  0  0  0  0  0  0  0  0
  147.3536  131.2435  150.5439 H   0  0  0  0  0  0  0  0  0  0  0  0
  142.7920  132.4737  148.5713 H   0  0  0  0  0  0  0  0  0  0  0  0
  144.7062  134.9362  149.1398 H   0  0  0  0  0  0  0  0  0  0  0  0
  147.5789  136.4239  151.6793 H   0  0  0  0  0  0  0  0  0  0  0  0
  1  2  1  0  0  0  0
  1 22  1  0  0  0  0
  1 23  1  0  0  0  0
  2 17  2  0  0  0  0
  2  3  1  0  0  0  0
  3  4  2  0  0  0  0
  3 30  1  0  0  0  0
  4  5  1  0  0  0  0
  4 24  1  0  0  0  0
  5  6  1  0  0  0  0
  5 15  1  0  0  0  0
  6 18  1  0  0  0  0
  6 13  1  0  0  0  0
  6  7  1  0  0  0  0
  7  8  1  0  0  0  0
  8 19  1  0  0  0  0
  8  9  1  0  0  0  0
  8 11  1  0  0  0  0
  9 10  1  0  0  0  0
  9 25  1  0  0  0  0
  9 26  1  0  0  0  0
 10 27  1  0  0  0  0
 11 20  1  0  0  0  0
 11 12  1  0  0  0  0
 11 13  1  0  0  0  0
 12 28  1  0  0  0  0
 13 21  1  0  0  0  0
 13 14  1  0  0  0  0
 14 29  1  0  0  0  0
 15 16  2  0  0  0  0
 15 17  1  0  0  0  0
M  CHG  1   3   1
M  END
> <s_m_source_file>
AV-unprocessed.smi

> <i_m_source_file_index>
72

> <i_lp_mmshare_version>
43012

> <i_f3d_flags>
0

> <s_epik_input>
W05IMl1jMW5bY0hdbihjKD1PKW4xKVtDQEBIXTJPW0NASF0oW0NIMl1bT0hdKVtDQEBIXShbT0hdKVtDQEhdMltPSF0=

> <s_epik_cmdline>
J2VwaWtfcHl0aG9uJywgJy1waCcsICc3LjAnLCAnLXRuJywgJzgnLCAnLW1hJywgJzIwMCcsICctbWV0YWxfYmluZGluZycsICctaW1hZScsICc8aW5maWxlLm1hZT4nLCAnLW9tYWUnLCAnPG91dGZpbGUubWFlPic=

> <r_lp_tautomer_probability>
4.77166e-05

> <r_epik_Ionization_Penalty>
0.104979

> <r_epik_Ionization_Penalty_Charging>
0.0999619

> <r_epik_Ionization_Penalty_Neutral>
0.00501745

> <r_epik_State_Penalty>
2.51541

> <r_epik_Charging_Adjusted_Penalty>
2.61537

> <i_epik_Tot_Q>
1

> <i_epik_Tot_abs_Q>
1

> <r_epik_Metal_State_Penalty>
3.53763

> <b_epik_Metal_Only>
0

> <s_epik_Chemistry_Notes>
This compound contains an acetal/aminal-like group ( X-CH(R)-Y where X, Y are N, S, or O) that may be acid/base labile, releasing an aldehyde.

> <s_lp_Force_Field>
OPLS_2005

> <r_lp_Energy>
34.5598

> <b_lp_Chiralities_Consistent>
1

> <s_lp_Variant>
AV-unprocessed.smi:72-41

> <Gold.Version>
5.8.1

> <Gold.Id.Protein>
6NUR|6NUR_protein|mol2

> <Gold.PLP.Fitness>
40.0372

> <Gold.PLP.PLP>
-25.4683

> <Gold.PLP.part.hbond>
-6.6458

> <Gold.PLP.part.metal>
0.0000

> <Gold.PLP.part.buried>
-2.0779

> <Gold.PLP.part.nonpolar>
-19.0584

> <Gold.PLP.part.repulsive>
0.8624

> <Gold.PLP.ligand.clash>
0.0000

> <Gold.PLP.ligand.torsion>
0.1400

> <Gold.PLP.Chemscore.Hbond>
4.9073

> <Gold.PLP.Chemscore.CHOScore>
0.0000

> <Gold.PLP.Chemscore.Metal>
0.0000

> <Gold.Chemscore.Hbonds>
donor molecule, donor type, donor heavy atom, donor atom, acceptor molecule, acceptor atom, score
      L1  H     3    30       P1  7948  1.20
      L1  H    10    27       P1 10747  0.88
      L1  H    14    29       P1  7921  0.89
      P1  H 10785 10796       L1    12  0.83

> <Gold.PLP.Chemscore.Internal.Correction>
0.1271

> <Gold.Rescore>
     Score         DG    S(hbond)    S(metal)    S(lipo)     H(rot)  DE(clash)    DE(int)     intcor
      8.71     -11.99       3.80        0.00      36.52       4.08       2.33       0.96       ----

> <Gold.Chemscore.Fitness>
8.7099

> <Gold.Chemscore.DG>
-11.9936

> <Gold.Chemscore.ZeroCoef>
-5.4800

> <Gold.Chemscore.Hbond>
3.7968

> <Gold.Chemscore.Metal>
0.0000

> <Gold.Chemscore.Lipo>
36.5173

> <Gold.Chemscore.Internal_Hbond>
0.0000

> <Gold.Chemscore.DEClash>
2.3252

> <Gold.Chemscore.DEInternal>
0.9584

> <Gold.Chemscore.Rot>
4.0783

> <Gold.Chemscore.Internal.Correction>
   9.000000E+99

> <Gold.Chemscore.Hbonds>
donor molecule, donor type, donor heavy atom, donor atom, acceptor molecule, acceptor atom, score
      L1  H     3    30       P1  7948  0.59
      L1  H    10    27       P1 10747  0.86
      L1  H    14    29       P1  7921  0.83
      P1  H 10785 10796       L1    12  0.71

> <Gold.Chemscore.Hbond.Weighted>
-12.6815

> <Gold.Chemscore.Metal.Weighted>
-0.0000

> <Gold.Chemscore.Lipo.Weighted>
-4.2725

> <Gold.Chemscore.Internal_Hbond.Weighted>
0.0000

> <Gold.Chemscore.DEClash.Weighted>
2.3252

> <Gold.Chemscore.DEInternal.Weighted>
0.9584

> <Gold.Chemscore.Rot.Weighted>
10.4404

> <Gold.Chemscore.Internal.Correction.Weighted>
   9.000000E+99

> <Gold.Protein.RotatedTorsions>
[ 6907 6896 6895 6894 ] final -163.43 input  -60.11 | X-H torsion
[ 7974 7965 7964 7962 ] final   69.50 input  175.53 | X-H torsion
[ 8008 7997 7996 7995 ] final  -74.32 input   59.86 | X-H torsion
[ 10167 10162 10161 10158 ] final  165.06 input  -65.29 | X-H torsion
[ 10718 10713 10712 10709 ] final  -93.12 input   66.30 | X-H torsion
[ 10763 10752 10751 10750 ] final   45.79 input  -60.55 | X-H torsion
[ 11005 11000 10999 10996 ] final  164.18 input  -57.11 | X-H torsion

> <Gold.Protein.ActiveResidues>
 VAL166  LYS551  ARG553  GLY616  TRP617  ASP618  TYR619  PRO620  LYS621  CYS622 
 ASP623  PHE694  ASN695  SER759  ASP760  ASP761  ALA762  ILE779  LEU786  VAL792 
 PHE793  MET794  SER795  GLU796  ALA797  LYS798  CYS799  TRP800  GLU811  SER814 

> <Gold.Protein.RotatedAtoms>
  151.3959  133.3773  159.2726 H   0  0  0  0  0  0  0  0  0  0  0  0  # atno 6907 bound_to 6896
  150.9470  134.8875  159.7659 H   0  0  0  0  0  0  0  0  0  0  0  0  # atno 6908 bound_to 6896
  152.5096  134.3912  159.9437 H   0  0  0  0  0  0  0  0  0  0  0  0  # atno 6909 bound_to 6896
  145.7896  139.2927  143.1218 H   0  0  0  0  0  0  0  0  0  0  0  0  # atno 7974 bound_to 7965
  154.5320  140.0763  156.8362 H   0  0  0  0  0  0  0  0  0  0  0  0  # atno 8008 bound_to 7997
  155.3354  140.3404  155.4221 H   0  0  0  0  0  0  0  0  0  0  0  0  # atno 8009 bound_to 7997
  156.1791  140.1646  156.8294 H   0  0  0  0  0  0  0  0  0  0  0  0  # atno 8010 bound_to 7997
  139.4899  144.4171  151.9231 H   0  0  0  0  0  0  0  0  0  0  0  0  # atno 10167 bound_to 10162
  156.0009  130.5014  150.5728 H   0  0  0  0  0  0  0  0  0  0  0  0  # atno 10718 bound_to 10713
  152.9819  135.6028  154.3494 H   0  0  0  0  0  0  0  0  0  0  0  0  # atno 10763 bound_to 10752
  154.3184  135.2770  155.2533 H   0  0  0  0  0  0  0  0  0  0  0  0  # atno 10764 bound_to 10752
  154.4711  135.5941  153.6378 H   0  0  0  0  0  0  0  0  0  0  0  0  # atno 10765 bound_to 10752
  140.2433  134.8033  157.3432 H   0  0  0  0  0  0  0  0  0  0  0  0  # atno 11005 bound_to 11000
  145.9990  140.8536  143.0028 LP  0  0  0  0  0  0  0  0  0  0  0  0  # atno 17320 bound_to 7965
  144.6784  140.2325  143.7353 LP  0  0  0  0  0  0  0  0  0  0  0  0  # atno 17321 bound_to 7965
  140.3614  144.2968  150.5933 LP  0  0  0  0  0  0  0  0  0  0  0  0  # atno 17342 bound_to 10162
  140.5399  143.2225  151.8101 LP  0  0  0  0  0  0  0  0  0  0  0  0  # atno 17343 bound_to 10162
  157.3620  131.0751  151.1628 LP  0  0  0  0  0  0  0  0  0  0  0  0  # atno 17370 bound_to 10713
  157.2410  130.6569  149.5890 LP  0  0  0  0  0  0  0  0  0  0  0  0  # atno 17371 bound_to 10713
  140.1631  134.4704  155.7881 LP  0  0  0  0  0  0  0  0  0  0  0  0  # atno 17394 bound_to 11000
  141.2208  133.6909  156.7578 LP  0  0  0  0  0  0  0  0  0  0  0  0  # atno 17395 bound_to 11000

$$$$
