AV-unprocessed.smi:618|AV-procd|sdf|3074|dock3
  -GOLD-   2262023593D 1   1.00000     0.00000
 Structure written by MMmdl.
 41 43  0  0  0  0  0  0  0  0  2 V2000
  150.5495  134.8473  156.0016 O   0  0  0  0  0  0  0  0  0  0  0  0
  150.0437  135.1853  154.9315 C   0  0  0  0  0  0  0  0  0  0  0  0
  149.4161  134.3307  154.1120 N   0  0  0  0  0  0  0  0  0  0  0  0
  149.2549  132.9015  154.3574 C   0  0  0  0  0  0  0  0  0  0  0  0
  148.4795  132.2060  153.2246 C   0  0  2  0  0  0  0  0  0  0  0  0
  147.5634  133.1934  152.4638 C   0  0  0  0  0  0  0  0  0  0  0  0
  146.7758  132.4284  151.4800 N   0  3  2  0  0  0  0  0  0  0  0  0
  145.8345  133.1599  150.6146 C   0  0  0  0  0  0  0  0  0  0  0  0
  144.7879  132.1086  150.1933 C   0  0  0  0  0  0  0  0  0  0  0  0
  145.1256  130.8379  150.9947 C   0  0  0  0  0  0  0  0  0  0  0  0
  145.9970  131.3703  152.1273 C   0  0  1  0  0  0  0  0  0  0  0  0
  146.9566  130.3991  152.8267 C   0  0  0  0  0  0  0  0  0  0  0  0
  147.6957  131.1494  153.7920 O   0  0  0  0  0  0  0  0  0  0  0  0
  150.0199  136.4358  154.4404 N   0  0  0  0  0  0  0  0  0  0  0  0
  150.5903  137.6154  154.9906 C   0  0  0  0  0  0  0  0  0  0  0  0
  151.5437  137.6282  156.0377 C   0  0  0  0  0  0  0  0  0  0  0  0
  152.0490  138.8652  156.4814 C   0  0  0  0  0  0  0  0  0  0  0  0
  151.5902  140.0422  155.8591 C   0  0  0  0  0  0  0  0  0  0  0  0
  150.6918  140.0443  154.8518 N   0  0  0  0  0  0  0  0  0  0  0  0
  150.2119  138.8546  154.4313 C   0  0  0  0  0  0  0  0  0  0  0  0
  149.0221  134.6930  153.2558 H   0  0  0  0  0  0  0  0  0  0  0  0
  150.2457  132.4580  154.4594 H   0  0  0  0  0  0  0  0  0  0  0  0
  148.7490  132.7507  155.3126 H   0  0  0  0  0  0  0  0  0  0  0  0
  149.1873  131.7711  152.5167 H   0  0  0  0  0  0  0  0  0  0  0  0
  146.8958  133.7129  153.1532 H   0  0  0  0  0  0  0  0  0  0  0  0
  148.1569  133.9504  151.9499 H   0  0  0  0  0  0  0  0  0  0  0  0
  145.3553  133.9627  151.1774 H   0  0  0  0  0  0  0  0  0  0  0  0
  146.3511  133.6018  149.7622 H   0  0  0  0  0  0  0  0  0  0  0  0
  143.7846  132.4625  150.4340 H   0  0  0  0  0  0  0  0  0  0  0  0
  144.8184  131.9142  149.1208 H   0  0  0  0  0  0  0  0  0  0  0  0
  144.2387  130.3148  151.3538 H   0  0  0  0  0  0  0  0  0  0  0  0
  145.6964  130.1469  150.3725 H   0  0  0  0  0  0  0  0  0  0  0  0
  145.3446  131.8245  152.8766 H   0  0  0  0  0  0  0  0  0  0  0  0
  146.4016  129.6094  153.3333 H   0  0  0  0  0  0  0  0  0  0  0  0
  147.6328  129.9207  152.1163 H   0  0  0  0  0  0  0  0  0  0  0  0
  149.4923  136.5691  153.5900 H   0  0  0  0  0  0  0  0  0  0  0  0
  151.9067  136.7223  156.4971 H   0  0  0  0  0  0  0  0  0  0  0  0
  152.7766  138.9099  157.2782 H   0  0  0  0  0  0  0  0  0  0  0  0
  151.9594  141.0067  156.1747 H   0  0  0  0  0  0  0  0  0  0  0  0
  149.4975  138.8948  153.6218 H   0  0  0  0  0  0  0  0  0  0  0  0
  147.4296  131.9658  150.8644 H   0  0  0  0  0  0  0  0  0  0  0  0
  1  2  2  0  0  0  0
  2  3  1  0  0  0  0
  2 14  1  0  0  0  0
  3  4  1  0  0  0  0
  3 21  1  0  0  0  0
  4  5  1  0  0  0  0
  4 22  1  0  0  0  0
  4 23  1  0  0  0  0
  5 13  1  0  0  0  0
  5  6  1  0  0  0  0
  5 24  1  0  0  0  0
  6  7  1  0  0  0  0
  6 25  1  0  0  0  0
  6 26  1  0  0  0  0
  7 11  1  0  0  0  0
  7  8  1  0  0  0  0
  7 41  1  0  0  0  0
  8  9  1  0  0  0  0
  8 27  1  0  0  0  0
  8 28  1  0  0  0  0
  9 10  1  0  0  0  0
  9 29  1  0  0  0  0
  9 30  1  0  0  0  0
 10 11  1  0  0  0  0
 10 31  1  0  0  0  0
 10 32  1  0  0  0  0
 11 12  1  0  0  0  0
 11 33  1  0  0  0  0
 12 13  1  0  0  0  0
 12 34  1  0  0  0  0
 12 35  1  0  0  0  0
 14 15  1  0  0  0  0
 14 36  1  0  0  0  0
 15 20  1  0  0  0  0
 15 16  2  0  0  0  0
 16 17  1  0  0  0  0
 16 37  1  0  0  0  0
 17 18  2  0  0  0  0
 17 38  1  0  0  0  0
 18 19  1  0  0  0  0
 18 39  1  0  0  0  0
 19 20  2  0  0  0  0
 20 40  1  0  0  0  0
M  CHG  1   7   1
M  END
> <s_m_source_file>
AV-unprocessed.smi

> <i_m_source_file_index>
618

> <i_lp_mmshare_version>
43012

> <i_f3d_flags>
0

> <s_epik_input>
W2NIXTFuW2NIXVtjSF1bY0hdYzFbTkhdQyg9TylbTkhdW0NIMl1bQ0BIXShbQ0gyXTIpT1tDSDJdW0NAQEhdKE4yMylbQ0gyXVtDSDJdW0NIMl0z

> <s_epik_cmdline>
J2VwaWtfcHl0aG9uJywgJy1waCcsICc3LjAnLCAnLXRuJywgJzgnLCAnLW1hJywgJzIwMCcsICctbWV0YWxfYmluZGluZycsICctaW1hZScsICc8aW5maWxlLm1hZT4nLCAnLW9tYWUnLCAnPG91dGZpbGUubWFlPic=

> <r_epik_Ionization_Penalty>
0.111044

> <r_epik_Ionization_Penalty_Charging>
0.10673

> <r_epik_Ionization_Penalty_Neutral>
0.00431361

> <r_epik_State_Penalty>
0.0978747

> <r_epik_Charging_Adjusted_Penalty>
0.204605

> <i_epik_Tot_Q>
1

> <i_epik_Tot_abs_Q>
1

> <r_epik_Metal_State_Penalty>
0.0947591

> <b_epik_Metal_Only>
0

> <s_lp_Force_Field>
OPLS_2005

> <r_lp_Energy>
37.7541

> <b_lp_Chiralities_Consistent>
1

> <s_lp_Variant>
AV-unprocessed.smi:618-1

> <Gold.Version>
5.8.1

> <Gold.Id.Protein>
6NUR|6NUR_protein|mol2

> <Gold.PLP.Fitness>
51.1930

> <Gold.PLP.PLP>
-39.2998

> <Gold.PLP.part.hbond>
-4.9884

> <Gold.PLP.part.metal>
0.0000

> <Gold.PLP.part.buried>
-5.2898

> <Gold.PLP.part.nonpolar>
-30.0363

> <Gold.PLP.part.repulsive>
0.3070

> <Gold.PLP.ligand.clash>
0.7922

> <Gold.PLP.ligand.torsion>
0.5044

> <Gold.PLP.Chemscore.Hbond>
3.5805

> <Gold.PLP.Chemscore.CHOScore>
0.9837

> <Gold.PLP.Chemscore.Metal>
0.0000

> <Gold.Chemscore.Hbonds>
donor molecule, donor type, donor heavy atom, donor atom, acceptor molecule, acceptor atom, score
      L1  H     3    21       P1  7948  0.71
      L1  H     7    41       P1 10747  1.00
      L1  H    14    36       P1  7948  1.00
      P1  H  7989  7998       L1    19  1.00
      L1  C    20    40       P1  7957  0.55

> <Gold.PLP.Chemscore.Internal.Correction>
0.0016

> <Gold.Rescore>
     Score         DG    S(hbond)    S(metal)    S(lipo)     H(rot)  DE(clash)    DE(int)     intcor
     18.87     -20.58       2.14        0.00      95.54       1.27       0.03       1.67       ----

> <Gold.Chemscore.Fitness>
18.8719

> <Gold.Chemscore.DG>
-20.5784

> <Gold.Chemscore.ZeroCoef>
-5.4800

> <Gold.Chemscore.Hbond>
2.1437

> <Gold.Chemscore.Metal>
0.0000

> <Gold.Chemscore.Lipo>
95.5413

> <Gold.Chemscore.Internal_Hbond>
0.0000

> <Gold.Chemscore.DEClash>
0.0339

> <Gold.Chemscore.DEInternal>
1.6725

> <Gold.Chemscore.Rot>
1.2656

> <Gold.Chemscore.Internal.Correction>
   9.000000E+99

> <Gold.Chemscore.Hbonds>
donor molecule, donor type, donor heavy atom, donor atom, acceptor molecule, acceptor atom, score
      L1  H     3    21       P1  7948  0.08
      L1  H     7    41       P1 10747  0.96
      L1  H    14    36       P1  7948  0.77
      P1  H  7989  7998       L1    19  0.26

> <Gold.Chemscore.Hbond.Weighted>
-7.1599

> <Gold.Chemscore.Metal.Weighted>
-0.0000

> <Gold.Chemscore.Lipo.Weighted>
-11.1783

> <Gold.Chemscore.Internal_Hbond.Weighted>
0.0000

> <Gold.Chemscore.DEClash.Weighted>
0.0339

> <Gold.Chemscore.DEInternal.Weighted>
1.6725

> <Gold.Chemscore.Rot.Weighted>
3.2399

> <Gold.Chemscore.Internal.Correction.Weighted>
   9.000000E+99

> <Gold.Protein.RotatedTorsions>
[ 6907 6896 6895 6894 ] final  147.46 input  -60.11 | X-H torsion
[ 7974 7965 7964 7962 ] final -158.68 input  175.53 | X-H torsion
[ 8008 7997 7996 7995 ] final  179.35 input   59.86 | X-H torsion
[ 10167 10162 10161 10158 ] final  -17.38 input  -65.29 | X-H torsion
[ 10718 10713 10712 10709 ] final  -60.19 input   66.30 | X-H torsion
[ 10763 10752 10751 10750 ] final   56.14 input  -60.55 | X-H torsion
[ 11005 11000 10999 10996 ] final  -38.85 input  -57.11 | X-H torsion

> <Gold.Protein.ActiveResidues>
 VAL166  LYS551  ARG553  GLY616  TRP617  ASP618  TYR619  PRO620  LYS621  CYS622 
 ASP623  PHE694  ASN695  SER759  ASP760  ASP761  ALA762  ILE779  LEU786  VAL792 
 PHE793  MET794  SER795  GLU796  ALA797  LYS798  CYS799  TRP800  GLU811  SER814 

> <Gold.Protein.RotatedAtoms>
  152.1544  133.4542  159.4829 H   0  0  0  0  0  0  0  0  0  0  0  0  # atno 6907 bound_to 6896
  150.6899  134.2149  159.4383 H   0  0  0  0  0  0  0  0  0  0  0  0  # atno 6908 bound_to 6896
  152.0048  134.9908  160.0617 H   0  0  0  0  0  0  0  0  0  0  0  0  # atno 6909 bound_to 6896
  144.7496  140.3793  143.6058 H   0  0  0  0  0  0  0  0  0  0  0  0  # atno 7974 bound_to 7965
  156.0443  140.1311  157.0121 H   0  0  0  0  0  0  0  0  0  0  0  0  # atno 8008 bound_to 7997
  154.4405  140.1024  156.6354 H   0  0  0  0  0  0  0  0  0  0  0  0  # atno 8009 bound_to 7997
  155.5619  140.3465  155.4495 H   0  0  0  0  0  0  0  0  0  0  0  0  # atno 8010 bound_to 7997
  140.7246  143.5022  150.9855 H   0  0  0  0  0  0  0  0  0  0  0  0  # atno 10167 bound_to 10162
  156.1008  130.4186  150.0819 H   0  0  0  0  0  0  0  0  0  0  0  0  # atno 10718 bound_to 10713
  152.9827  135.5686  154.5181 H   0  0  0  0  0  0  0  0  0  0  0  0  # atno 10763 bound_to 10752
  154.4673  135.2783  155.1670 H   0  0  0  0  0  0  0  0  0  0  0  0  # atno 10764 bound_to 10752
  154.3233  135.6264  153.5571 H   0  0  0  0  0  0  0  0  0  0  0  0  # atno 10765 bound_to 10752
  141.0058  133.6932  156.2108 H   0  0  0  0  0  0  0  0  0  0  0  0  # atno 11005 bound_to 11000
  145.6994  139.1657  143.2601 LP  0  0  0  0  0  0  0  0  0  0  0  0  # atno 17320 bound_to 7965
  146.1426  140.7037  142.9360 LP  0  0  0  0  0  0  0  0  0  0  0  0  # atno 17321 bound_to 7965
  139.8731  143.7166  152.3164 LP  0  0  0  0  0  0  0  0  0  0  0  0  # atno 17342 bound_to 10162
  139.7422  144.7556  151.0634 LP  0  0  0  0  0  0  0  0  0  0  0  0  # atno 17343 bound_to 10162
  156.8807  130.9555  151.3600 LP  0  0  0  0  0  0  0  0  0  0  0  0  # atno 17370 bound_to 10713
  157.6178  130.8632  149.9057 LP  0  0  0  0  0  0  0  0  0  0  0  0  # atno 17371 bound_to 10713
  140.6815  134.4762  157.5589 LP  0  0  0  0  0  0  0  0  0  0  0  0  # atno 17394 bound_to 11000
  139.9063  134.8443  156.1695 LP  0  0  0  0  0  0  0  0  0  0  0  0  # atno 17395 bound_to 11000

$$$$
