#       Name:                AV-unprocessed.smi:2329
#       Creating user name   scv26
#       Creation time:       Fri Mar 27 12:52:47 2020


#       File generated by GOLD software.
#

@<TRIPOS>MOLECULE
AV-unprocessed.smi:2329
    50    53     1
SMALL
NO_CHARGES


@<TRIPOS>ATOM
      1 ****        -5.9115   2.6322  -0.0352 C.3            1 S1                 0.0000
      2 ****        -5.1777   1.3159   0.1126 C.ar           1 S1                 0.0000
      3 ****        -5.8804   0.1135   0.3246 C.ar           1 S1                 0.0000
      4 ****        -5.1380  -1.0732   0.4587 C.ar           1 S1                 0.0000
      5 ****        -3.7337  -1.0095   0.3760 C.ar           1 S1                 0.0000
      6 ****        -3.1064   0.2378   0.1590 C.ar           1 S1                 0.0000
      7 ****        -1.6890   0.1944   0.0927 N.am           1 S1                 0.0000
      8 ****        -0.8320   1.2058  -0.1517 C.2            1 S1                 0.0000
      9 ****        -1.1642   2.3606  -0.4129 O.2            1 S1                 0.0000
     10 ****         0.4620   0.8415  -0.1328 N.am           1 S1                 0.0000
     11 ****         1.6377   1.6915  -0.3579 C.3            1 S1                 0.0000
     12 ****         2.2999   2.2033   0.9448 C.3            1 S1                 0.0000
     13 ****         1.6514   2.0924   2.3042 C.3            1 S1                 0.0000
     14 ****         2.2844   0.8235   2.8820 C.3            1 S1                 0.0000
     15 ****         2.7642   0.1059   1.7471 O.3            1 S1                 0.0000
     16 ****         3.2897   1.0552   0.8232 C.3            1 S1                 0.0000
     17 ****         2.9061   0.8573  -0.6575 C.3            1 S1                 0.0000
     18 ****         2.7856  -0.5766  -1.1768 C.3            1 S1                 0.0000
     19 ****         4.1637  -0.9808  -1.7067 C.3            1 S1                 0.0000
     20 ****         4.8859   0.3332  -2.0198 C.3            1 S1                 0.0000
     21 ****         3.8946   1.4446  -1.6633 C.3            1 S1                 0.0000
     22 ****        -3.8311   1.3772   0.0323 N.ar           1 S1                 0.0000
     23 ****        -6.9902   2.4800  -0.0820 H              1 S1                 0.0000
     24 ****        -5.6010   3.1420  -0.9477 H              1 S1                 0.0000
     25 ****        -5.6947   3.2817   0.8133 H              1 S1                 0.0000
     26 ****        -6.9588   0.0982   0.3847 H              1 S1                 0.0000
     27 ****        -5.6363  -2.0170   0.6232 H              1 S1                 0.0000
     28 ****        -3.1482  -1.9118   0.4775 H              1 S1                 0.0000
     29 ****        -1.2736  -0.7113   0.2527 H              1 S1                 0.0000
     30 ****         0.6509  -0.1446  -0.0246 H              1 S1                 0.0000
     31 ****         1.4818   2.4804  -1.0959 H              1 S1                 0.0000
     32 ****         2.7936   3.1612   0.7737 H              1 S1                 0.0000
     33 ****         1.8637   2.9568   2.9337 H              1 S1                 0.0000
     34 ****         0.5685   1.9986   2.2413 H              1 S1                 0.0000
     35 ****         3.1290   1.0763   3.5246 H              1 S1                 0.0000
     36 ****         1.5794   0.2287   3.4628 H              1 S1                 0.0000
     37 ****         4.3254   1.3342   1.0234 H              1 S1                 0.0000
     38 ****         2.4345  -1.2747  -0.4163 H              1 S1                 0.0000
     39 ****         2.0634  -0.6151  -1.9938 H              1 S1                 0.0000
     40 ****         4.7140  -1.5334  -0.9439 H              1 S1                 0.0000
     41 ****         4.0816  -1.6238  -2.5837 H              1 S1                 0.0000
     42 ****         5.7829   0.4164  -1.4048 H              1 S1                 0.0000
     43 ****         5.1960   0.3929  -3.0636 H              1 S1                 0.0000
     44 ****         3.3649   1.7565  -2.5646 H              1 S1                 0.0000
     45 ****         4.4081   2.3276  -1.2809 H              1 S1                 0.0000
     46 ****        -2.1330   2.6047  -0.4559 LP             1 S1                 0.0000
     47 ****        -0.4655   3.0557  -0.5824 LP             1 S1                 0.0000
     48 ****         2.0142  -0.4021   1.3236 LP             1 S1                 0.0000
     49 ****         3.4827  -0.5312   2.0261 LP             1 S1                 0.0000
     50 ****        -3.3732   2.2533  -0.1190 LP             1 S1                 0.0000
@<TRIPOS>BOND
    1    1    2 1     
    2    1   23 1     
    3    1   24 1     
    4    1   25 1     
    5    2   22 ar    
    6    2    3 ar    
    7    3    4 ar    
    8    3   26 1     
    9    4    5 ar    
   10    4   27 1     
   11    5    6 ar    
   12    5   28 1     
   13    6    7 1     
   14    6   22 ar    
   15    7    8 am    
   16    7   29 1     
   17    8    9 2     
   18    8   10 am    
   19   10   11 1     
   20   10   30 1     
   21   11   17 1     
   22   11   12 1     
   23   11   31 1     
   24   12   16 1     
   25   12   13 1     
   26   12   32 1     
   27   13   14 1     
   28   13   33 1     
   29   13   34 1     
   30   14   15 1     
   31   14   35 1     
   32   14   36 1     
   33   15   16 1     
   34   16   17 1     
   35   16   37 1     
   36   17   21 1     
   37   17   18 1     
   38   18   19 1     
   39   18   38 1     
   40   18   39 1     
   41   19   20 1     
   42   19   40 1     
   43   19   41 1     
   44   20   21 1     
   45   20   42 1     
   46   20   43 1     
   47   21   44 1     
   48   21   45 1     
   49    9   46 1     
   50    9   47 1     
   51   15   48 1     
   52   15   49 1     
   53   22   50 1     
@<TRIPOS>SUBSTRUCTURE
      1 S1             1
@<TRIPOS>SET
LONE_PAIRS      STATIC     ATOMS    <user>   **** ""
5 46 47 48 49 50
DONOR_HYDROGENS      STATIC     ATOMS    <user>   **** ""
2 29 30
ATOM$BLUE        STATIC     ATOMS    COLORGROUP SYSTEM
5 46 47 48 49 50
ATOM$RED        STATIC     ATOMS    COLORGROUP SYSTEM
2 29 30
