AV-unprocessed.smi:415|AV-procd|sdf|2524|dock6
  -GOLD-   2262022483D 1   1.00000     0.00000
 Structure written by MMmdl.
 53 54  0  0  0  0  0  0  0  0  1 V2000
  144.3748  144.1689  154.7982 C   0  0  0  0  0  0  0  0  0  0  0  0
  145.5669  143.9223  154.0693 O   0  0  0  0  0  0  0  0  0  0  0  0
  146.1248  142.6346  154.2928 C   0  0  0  0  0  0  0  0  0  0  0  0
  147.4986  142.4587  153.6141 C   0  0  0  0  0  0  0  0  0  0  0  0
  148.1699  141.2336  154.0066 N   0  0  0  0  0  0  0  0  0  0  0  0
  147.7422  139.9726  153.6000 C   0  0  0  0  0  0  0  0  0  0  0  0
  146.6144  139.8560  152.8071 N   0  0  0  0  0  0  0  0  0  0  0  0
  148.4116  138.8530  153.9529 C   0  0  0  0  0  0  0  0  0  0  0  0
  149.6161  138.9019  154.7693 C   0  0  0  0  0  0  0  0  0  0  0  0
  150.2460  137.8941  155.0913 O   0  0  0  0  0  0  0  0  0  0  0  0
  150.0355  140.1918  155.1673 N   0  0  0  0  0  0  0  0  0  0  0  0
  151.2749  140.3250  155.9643 C   0  0  0  0  0  0  0  0  0  0  0  0
  151.0417  140.9640  157.3416 C   0  0  0  0  0  0  0  0  0  0  0  0
  150.6633  140.2874  158.2990 O   0  0  0  0  0  0  0  0  0  0  0  0
  151.2737  142.2825  157.4207 N   0  0  0  0  0  0  0  0  0  0  0  0
  151.1563  143.0898  158.6326 C   0  0  2  0  0  0  0  0  0  0  0  0
  151.5931  144.5379  158.3380 C   0  0  0  0  0  0  0  0  0  0  0  0
  151.4582  145.4252  159.5843 C   0  0  0  0  0  0  0  0  0  0  0  0
  152.2234  144.8382  160.7808 C   0  0  0  0  0  0  0  0  0  0  0  0
  151.7872  143.3880  161.0718 C   0  0  2  0  0  0  0  0  0  0  0  0
  152.4692  142.8279  162.3310 C   0  0  0  0  0  0  0  0  0  0  0  0
  151.9485  142.4807  159.8229 C   0  0  2  0  0  0  0  0  0  0  0  0
  153.4222  142.1628  159.4758 C   0  0  0  0  0  0  0  0  0  0  0  0
  149.3426  141.3663  154.7941 C   0  0  0  0  0  0  0  0  0  0  0  0
  149.7651  142.4715  155.1451 O   0  0  0  0  0  0  0  0  0  0  0  0
  144.0232  145.1786  154.5867 H   0  0  0  0  0  0  0  0  0  0  0  0
  144.5297  144.0890  155.8739 H   0  0  0  0  0  0  0  0  0  0  0  0
  143.5870  143.4729  154.5077 H   0  0  0  0  0  0  0  0  0  0  0  0
  146.1981  142.4323  155.3624 H   0  0  0  0  0  0  0  0  0  0  0  0
  145.4279  141.8967  153.8947 H   0  0  0  0  0  0  0  0  0  0  0  0
  147.4505  142.5086  152.5259 H   0  0  0  0  0  0  0  0  0  0  0  0
  148.1695  143.2710  153.8929 H   0  0  0  0  0  0  0  0  0  0  0  0
  146.0866  140.6647  152.5112 H   0  0  0  0  0  0  0  0  0  0  0  0
  146.2255  138.9562  152.5644 H   0  0  0  0  0  0  0  0  0  0  0  0
  148.0545  137.8891  153.6193 H   0  0  0  0  0  0  0  0  0  0  0  0
  151.7460  139.3496  156.0989 H   0  0  0  0  0  0  0  0  0  0  0  0
  152.0309  140.9122  155.4413 H   0  0  0  0  0  0  0  0  0  0  0  0
  151.5756  142.7605  156.5844 H   0  0  0  0  0  0  0  0  0  0  0  0
  150.1005  143.1239  158.9095 H   0  0  0  0  0  0  0  0  0  0  0  0
  152.6244  144.5576  157.9842 H   0  0  0  0  0  0  0  0  0  0  0  0
  150.9860  144.9523  157.5322 H   0  0  0  0  0  0  0  0  0  0  0  0
  151.8208  146.4301  159.3666 H   0  0  0  0  0  0  0  0  0  0  0  0
  150.4035  145.5282  159.8431 H   0  0  0  0  0  0  0  0  0  0  0  0
  153.2958  144.8781  160.5879 H   0  0  0  0  0  0  0  0  0  0  0  0
  152.0498  145.4610  161.6589 H   0  0  0  0  0  0  0  0  0  0  0  0
  150.7201  143.4195  161.2983 H   0  0  0  0  0  0  0  0  0  0  0  0
  153.5557  142.8480  162.2476 H   0  0  0  0  0  0  0  0  0  0  0  0
  152.1640  141.7980  162.5188 H   0  0  0  0  0  0  0  0  0  0  0  0
  152.2010  143.4144  163.2102 H   0  0  0  0  0  0  0  0  0  0  0  0
  151.4818  141.5246  160.0650 H   0  0  0  0  0  0  0  0  0  0  0  0
  153.9925  143.0618  159.2452 H   0  0  0  0  0  0  0  0  0  0  0  0
  153.4979  141.4976  158.6157 H   0  0  0  0  0  0  0  0  0  0  0  0
  153.9250  141.6541  160.2975 H   0  0  0  0  0  0  0  0  0  0  0  0
  1  2  1  0  0  0  0
  1 26  1  0  0  0  0
  1 27  1  0  0  0  0
  1 28  1  0  0  0  0
  2  3  1  0  0  0  0
  3  4  1  0  0  0  0
  3 29  1  0  0  0  0
  3 30  1  0  0  0  0
  4  5  1  0  0  0  0
  4 31  1  0  0  0  0
  4 32  1  0  0  0  0
  5 24  1  0  0  0  0
  5  6  1  0  0  0  0
  6  7  1  0  0  0  0
  6  8  2  0  0  0  0
  7 33  1  0  0  0  0
  7 34  1  0  0  0  0
  8  9  1  0  0  0  0
  8 35  1  0  0  0  0
  9 10  2  0  0  0  0
  9 11  1  0  0  0  0
 11 12  1  0  0  0  0
 11 24  1  0  0  0  0
 12 13  1  0  0  0  0
 12 36  1  0  0  0  0
 12 37  1  0  0  0  0
 13 14  2  0  0  0  0
 13 15  1  0  0  0  0
 15 16  1  0  0  0  0
 15 38  1  0  0  0  0
 16 22  1  0  0  0  0
 16 17  1  0  0  0  0
 16 39  1  0  0  0  0
 17 18  1  0  0  0  0
 17 40  1  0  0  0  0
 17 41  1  0  0  0  0
 18 19  1  0  0  0  0
 18 42  1  0  0  0  0
 18 43  1  0  0  0  0
 19 20  1  0  0  0  0
 19 44  1  0  0  0  0
 19 45  1  0  0  0  0
 20 21  1  0  0  0  0
 20 22  1  0  0  0  0
 20 46  1  0  0  0  0
 21 47  1  0  0  0  0
 21 48  1  0  0  0  0
 21 49  1  0  0  0  0
 22 23  1  0  0  0  0
 22 50  1  0  0  0  0
 23 51  1  0  0  0  0
 23 52  1  0  0  0  0
 23 53  1  0  0  0  0
 24 25  2  0  0  0  0
M  END
> <s_m_source_file>
AV-unprocessed.smi

> <i_m_source_file_index>
415

> <i_lp_mmshare_version>
43012

> <i_f3d_flags>
0

> <s_epik_input>
W0NIM11PW0NIMl1bQ0gyXW4xYyhbTkgyXSlbY0hdYyg9TyluKGMxPU8pW0NIMl1DKD1PKVtOSF1bQ0BASF0yW0NIMl1bQ0gyXVtDSDJdW0NAQEhdKFtDSDNdKVtDQEhdMltDSDNd

> <s_epik_cmdline>
J2VwaWtfcHl0aG9uJywgJy1waCcsICc3LjAnLCAnLXRuJywgJzgnLCAnLW1hJywgJzIwMCcsICctbWV0YWxfYmluZGluZycsICctaW1hZScsICc8aW5maWxlLm1hZT4nLCAnLW9tYWUnLCAnPG91dGZpbGUubWFlPic=

> <r_lp_tautomer_probability>
1

> <r_epik_Ionization_Penalty>
8.6647e-06

> <r_epik_Ionization_Penalty_Charging>
1.81162e-08

> <r_epik_Ionization_Penalty_Neutral>
8.64658e-06

> <r_epik_State_Penalty>
-0

> <r_epik_Charging_Adjusted_Penalty>
1.81162e-08

> <i_epik_Tot_Q>
0

> <i_epik_Tot_abs_Q>
0

> <r_epik_Metal_State_Penalty>
-0

> <b_epik_Metal_Only>
0

> <s_lp_Force_Field>
OPLS_2005

> <r_lp_Energy>
23.9123

> <b_lp_Chiralities_Consistent>
1

> <s_lp_Variant>
AV-unprocessed.smi:415-7

> <Gold.Version>
5.8.1

> <Gold.Id.Protein>
6NUR|6NUR_protein|mol2

> <Gold.PLP.Fitness>
50.5392

> <Gold.PLP.PLP>
-50.1242

> <Gold.PLP.part.hbond>
-1.2413

> <Gold.PLP.part.metal>
0.0000

> <Gold.PLP.part.buried>
-8.1095

> <Gold.PLP.part.nonpolar>
-46.0323

> <Gold.PLP.part.repulsive>
5.5584

> <Gold.PLP.ligand.clash>
0.0000

> <Gold.PLP.ligand.torsion>
0.4972

> <Gold.PLP.Chemscore.Hbond>
0.4368

> <Gold.PLP.Chemscore.CHOScore>
0.0000

> <Gold.PLP.Chemscore.Metal>
0.0000

> <Gold.Chemscore.Hbonds>
donor molecule, donor type, donor heavy atom, donor atom, acceptor molecule, acceptor atom, score
      L1  H     7    33       P1 10175  0.03

> <Gold.PLP.Chemscore.Internal.Correction>
0.0990

> <Gold.Rescore>
     Score         DG    S(hbond)    S(metal)    S(lipo)     H(rot)  DE(clash)    DE(int)     intcor
     10.21     -16.39       0.91        0.00     116.88       2.26       1.56       4.62       ----

> <Gold.Chemscore.Fitness>
10.2127

> <Gold.Chemscore.DG>
-16.3903

> <Gold.Chemscore.ZeroCoef>
-5.4800

> <Gold.Chemscore.Hbond>
0.9079

> <Gold.Chemscore.Metal>
0.0000

> <Gold.Chemscore.Lipo>
116.8819

> <Gold.Chemscore.Internal_Hbond>
0.0000

> <Gold.Chemscore.DEClash>
1.5574

> <Gold.Chemscore.DEInternal>
4.6202

> <Gold.Chemscore.Rot>
2.2645

> <Gold.Chemscore.Internal.Correction>
   9.000000E+99

> <Gold.Chemscore.Hbonds>
donor molecule, donor type, donor heavy atom, donor atom, acceptor molecule, acceptor atom, score
      L1  H     7    33       P1 10175  0.01

> <Gold.Chemscore.Hbond.Weighted>
-3.0323

> <Gold.Chemscore.Metal.Weighted>
-0.0000

> <Gold.Chemscore.Lipo.Weighted>
-13.6752

> <Gold.Chemscore.Internal_Hbond.Weighted>
0.0000

> <Gold.Chemscore.DEClash.Weighted>
1.5574

> <Gold.Chemscore.DEInternal.Weighted>
4.6202

> <Gold.Chemscore.Rot.Weighted>
5.7972

> <Gold.Chemscore.Internal.Correction.Weighted>
   9.000000E+99

> <Gold.Protein.RotatedTorsions>
[ 6907 6896 6895 6894 ] final  -71.53 input  -60.11 | X-H torsion
[ 7974 7965 7964 7962 ] final  -93.23 input  175.53 | X-H torsion
[ 8008 7997 7996 7995 ] final   80.11 input   59.86 | X-H torsion
[ 10167 10162 10161 10158 ] final -168.91 input  -65.29 | X-H torsion
[ 10718 10713 10712 10709 ] final   57.71 input   66.30 | X-H torsion
[ 10763 10752 10751 10750 ] final  134.81 input  -60.55 | X-H torsion
[ 11005 11000 10999 10996 ] final  -35.15 input  -57.11 | X-H torsion

> <Gold.Protein.ActiveResidues>
 VAL166  LYS551  ARG553  GLY616  TRP617  ASP618  TYR619  PRO620  LYS621  CYS622 
 ASP623  PHE694  ASN695  SER759  ASP760  ASP761  ALA762  ILE779  LEU786  VAL792 
 PHE793  MET794  SER795  GLU796  ALA797  LYS798  CYS799  TRP800  GLU811  SER814 

> <Gold.Protein.RotatedAtoms>
  150.7208  134.5294  159.5692 H   0  0  0  0  0  0  0  0  0  0  0  0  # atno 6907 bound_to 6896
  152.2831  134.7803  160.0402 H   0  0  0  0  0  0  0  0  0  0  0  0  # atno 6908 bound_to 6896
  151.8443  133.3393  159.3689 H   0  0  0  0  0  0  0  0  0  0  0  0  # atno 6909 bound_to 6896
  145.3892  140.9526  143.2350 H   0  0  0  0  0  0  0  0  0  0  0  0  # atno 7974 bound_to 7965
  155.8789  140.3445  155.5874 H   0  0  0  0  0  0  0  0  0  0  0  0  # atno 8008 bound_to 7997
  155.7742  140.0849  157.2111 H   0  0  0  0  0  0  0  0  0  0  0  0  # atno 8009 bound_to 7997
  154.4023  140.1512  156.2964 H   0  0  0  0  0  0  0  0  0  0  0  0  # atno 8010 bound_to 7997
  139.5955  144.1121  152.1684 H   0  0  0  0  0  0  0  0  0  0  0  0  # atno 10167 bound_to 10162
  157.5537  130.8784  149.9002 H   0  0  0  0  0  0  0  0  0  0  0  0  # atno 10718 bound_to 10713
  153.8298  135.3105  155.3417 H   0  0  0  0  0  0  0  0  0  0  0  0  # atno 10763 bound_to 10752
  154.7978  135.4745  154.0205 H   0  0  0  0  0  0  0  0  0  0  0  0  # atno 10764 bound_to 10752
  153.1641  135.6866  153.8790 H   0  0  0  0  0  0  0  0  0  0  0  0  # atno 10765 bound_to 10752
  140.9773  133.7076  156.1624 H   0  0  0  0  0  0  0  0  0  0  0  0  # atno 11005 bound_to 11000
  144.8452  139.5408  143.6882 LP  0  0  0  0  0  0  0  0  0  0  0  0  # atno 17320 bound_to 7965
  146.2805  139.6866  142.9232 LP  0  0  0  0  0  0  0  0  0  0  0  0  # atno 17321 bound_to 7965
  140.0705  144.5783  150.7195 LP  0  0  0  0  0  0  0  0  0  0  0  0  # atno 17342 bound_to 10162
  140.7208  143.2587  151.4283 LP  0  0  0  0  0  0  0  0  0  0  0  0  # atno 17343 bound_to 10162
  156.0599  130.3701  150.1006 LP  0  0  0  0  0  0  0  0  0  0  0  0  # atno 17370 bound_to 10713
  156.9176  130.9672  151.3553 LP  0  0  0  0  0  0  0  0  0  0  0  0  # atno 17371 bound_to 10713
  140.7239  134.4328  157.5572 LP  0  0  0  0  0  0  0  0  0  0  0  0  # atno 17394 bound_to 11000
  139.8936  134.8727  156.2217 LP  0  0  0  0  0  0  0  0  0  0  0  0  # atno 17395 bound_to 11000

$$$$
