AV-unprocessed.smi:834|AV-procd|sdf|3885|dock10
  -GOLD-   22720 1343D 1   1.00000     0.00000
 Structure written by MMmdl.
 38 39  0  0  0  0  0  0  0  0  2 V2000
  145.8319  134.9218  162.7750 C   0  0  0  0  0  0  0  0  0  0  0  0
  146.8757  135.5175  161.8940 C   0  0  0  0  0  0  0  0  0  0  0  0
  147.2522  136.7956  161.9816 N   0  0  0  0  0  0  0  0  0  0  0  0
  148.2361  137.1151  161.0573 N   0  0  0  0  0  0  0  0  0  0  0  0
  148.5808  136.0808  160.2773 C   0  0  0  0  0  0  0  0  0  0  0  0
  149.5189  136.1814  159.3212 N   0  5  0  0  0  0  0  0  0  0  0  0
  150.1813  137.3471  159.1431 C   0  0  0  0  0  0  0  0  0  0  0  0
  151.1969  137.7091  159.7420 O   0  0  0  0  0  0  0  0  0  0  0  0
  149.6301  138.1449  158.2174 N   0  0  0  0  0  0  0  0  0  0  0  0
  150.1177  139.4626  157.8232 C   0  0  0  0  0  0  0  0  0  0  0  0
  151.6415  139.4524  157.5903 C   0  0  0  0  0  0  0  0  0  0  0  0
  152.4117  140.4128  158.5023 C   0  0  0  0  0  0  0  0  0  0  0  0
  153.1615  139.9909  159.3837 O   0  0  0  0  0  0  0  0  0  0  0  0
  152.2183  141.7199  158.2684 N   0  0  0  0  0  0  0  0  0  0  0  0
  152.8484  142.8097  159.0089 C   0  0  0  0  0  0  0  0  0  0  0  0
  152.2473  142.9327  160.4224 C   0  0  0  0  0  0  0  0  0  0  0  0
  151.9454  144.4183  160.6268 C   0  0  0  0  0  0  0  0  0  0  0  0
  151.6434  144.9370  159.2248 C   0  0  0  0  0  0  0  0  0  0  0  0
  152.6155  144.1730  158.3255 C   0  0  0  0  0  0  0  0  0  0  0  0
  147.7073  134.5956  160.6529 S   0  0  0  0  0  0  0  0  0  0  0  0
  144.8406  135.1562  162.3873 H   0  0  0  0  0  0  0  0  0  0  0  0
  145.9179  135.3190  163.7866 H   0  0  0  0  0  0  0  0  0  0  0  0
  145.9457  133.8385  162.8160 H   0  0  0  0  0  0  0  0  0  0  0  0
  148.8009  137.8077  157.7509 H   0  0  0  0  0  0  0  0  0  0  0  0
  149.5898  139.8053  156.9313 H   0  0  0  0  0  0  0  0  0  0  0  0
  149.8639  140.1596  158.6224 H   0  0  0  0  0  0  0  0  0  0  0  0
  152.0307  138.4457  157.7480 H   0  0  0  0  0  0  0  0  0  0  0  0
  151.8594  139.7134  156.5538 H   0  0  0  0  0  0  0  0  0  0  0  0
  151.5853  141.9782  157.5252 H   0  0  0  0  0  0  0  0  0  0  0  0
  153.9210  142.6215  159.0875 H   0  0  0  0  0  0  0  0  0  0  0  0
  151.3149  142.3703  160.4933 H   0  0  0  0  0  0  0  0  0  0  0  0
  152.9166  142.5432  161.1903 H   0  0  0  0  0  0  0  0  0  0  0  0
  151.1246  144.5886  161.3242 H   0  0  0  0  0  0  0  0  0  0  0  0
  152.8286  144.9223  161.0215 H   0  0  0  0  0  0  0  0  0  0  0  0
  150.6169  144.6871  158.9533 H   0  0  0  0  0  0  0  0  0  0  0  0
  151.7570  146.0183  159.1422 H   0  0  0  0  0  0  0  0  0  0  0  0
  153.5614  144.7141  158.2775 H   0  0  0  0  0  0  0  0  0  0  0  0
  152.2436  144.0916  157.3032 H   0  0  0  0  0  0  0  0  0  0  0  0
  1  2  1  0  0  0  0
  1 21  1  0  0  0  0
  1 22  1  0  0  0  0
  1 23  1  0  0  0  0
  2 20  1  0  0  0  0
  2  3  2  0  0  0  0
  3  4  1  0  0  0  0
  4  5  2  0  0  0  0
  5  6  1  0  0  0  0
  5 20  1  0  0  0  0
  6  7  1  0  0  0  0
  7  8  2  0  0  0  0
  7  9  1  0  0  0  0
  9 10  1  0  0  0  0
  9 24  1  0  0  0  0
 10 11  1  0  0  0  0
 10 25  1  0  0  0  0
 10 26  1  0  0  0  0
 11 12  1  0  0  0  0
 11 27  1  0  0  0  0
 11 28  1  0  0  0  0
 12 13  2  0  0  0  0
 12 14  1  0  0  0  0
 14 15  1  0  0  0  0
 14 29  1  0  0  0  0
 15 19  1  0  0  0  0
 15 16  1  0  0  0  0
 15 30  1  0  0  0  0
 16 17  1  0  0  0  0
 16 31  1  0  0  0  0
 16 32  1  0  0  0  0
 17 18  1  0  0  0  0
 17 33  1  0  0  0  0
 17 34  1  0  0  0  0
 18 19  1  0  0  0  0
 18 35  1  0  0  0  0
 18 36  1  0  0  0  0
 19 37  1  0  0  0  0
 19 38  1  0  0  0  0
M  CHG  1   6  -1
M  END
> <s_m_source_file>
AV-unprocessed.smi

> <i_m_source_file_index>
834

> <i_lp_mmshare_version>
43012

> <i_f3d_flags>
0

> <s_epik_input>
W0NIM11jMW5uYyhzMSlbTkhdQyg9TylbTkhdW0NIMl1bQ0gyXUMoPU8pW05IXVtDSF0yW0NIMl1bQ0gyXVtDSDJdW0NIMl0y

> <s_epik_cmdline>
J2VwaWtfcHl0aG9uJywgJy1waCcsICc3LjAnLCAnLXRuJywgJzgnLCAnLW1hJywgJzIwMCcsICctbWV0YWxfYmluZGluZycsICctaW1hZScsICc8aW5maWxlLm1hZT4nLCAnLW9tYWUnLCAnPG91dGZpbGUubWFlPic=

> <r_lp_tautomer_probability>
1

> <r_epik_Ionization_Penalty>
3.40129

> <r_epik_Ionization_Penalty_Charging>
3.26946

> <r_epik_Ionization_Penalty_Neutral>
0.131835

> <r_epik_State_Penalty>
3.26707

> <r_epik_Charging_Adjusted_Penalty>
6.53653

> <i_epik_Tot_Q>
-1

> <i_epik_Tot_abs_Q>
1

> <r_epik_Metal_State_Penalty>
0.478667

> <b_epik_Metal_Only>
1

> <s_lp_Force_Field>
OPLS_2005

> <r_lp_Energy>
15.9775

> <b_lp_Chiralities_Consistent>
1

> <s_lp_Variant>
AV-unprocessed.smi:834-2

> <Gold.Version>
5.8.1

> <Gold.Id.Protein>
6NUR|6NUR_protein|mol2

> <Gold.PLP.Fitness>
47.5612

> <Gold.PLP.PLP>
-40.9645

> <Gold.PLP.part.hbond>
-3.6636

> <Gold.PLP.part.metal>
0.0000

> <Gold.PLP.part.buried>
-6.3139

> <Gold.PLP.part.nonpolar>
-33.0517

> <Gold.PLP.part.repulsive>
0.2089

> <Gold.PLP.ligand.clash>
0.0000

> <Gold.PLP.ligand.torsion>
1.3949

> <Gold.PLP.Chemscore.Hbond>
3.0994

> <Gold.PLP.Chemscore.CHOScore>
0.0000

> <Gold.PLP.Chemscore.Metal>
0.0000

> <Gold.Chemscore.Hbonds>
donor molecule, donor type, donor heavy atom, donor atom, acceptor molecule, acceptor atom, score
      P1  H  6896  6908       L1     6  1.98
      P1  H  6931  6943       L1     4  1.00
      P1  H  6934  6947       L1     4  0.10

> <Gold.PLP.Chemscore.Internal.Correction>
0.0885

> <Gold.Rescore>
     Score         DG    S(hbond)    S(metal)    S(lipo)     H(rot)  DE(clash)    DE(int)     intcor
     13.20     -15.81       1.54        0.00      86.85       1.95       0.12       2.49       ----

> <Gold.Chemscore.Fitness>
13.2033

> <Gold.Chemscore.DG>
-15.8087

> <Gold.Chemscore.ZeroCoef>
-5.4800

> <Gold.Chemscore.Hbond>
1.5413

> <Gold.Chemscore.Metal>
0.0000

> <Gold.Chemscore.Lipo>
86.8482

> <Gold.Chemscore.Internal_Hbond>
0.0000

> <Gold.Chemscore.DEClash>
0.1162

> <Gold.Chemscore.DEInternal>
2.4892

> <Gold.Chemscore.Rot>
1.9455

> <Gold.Chemscore.Internal.Correction>
   9.000000E+99

> <Gold.Chemscore.Hbonds>
donor molecule, donor type, donor heavy atom, donor atom, acceptor molecule, acceptor atom, score
      P1  H  6896  6908       L1     6  0.41
      P1  H  6931  6943       L1     4  0.24

> <Gold.Chemscore.Hbond.Weighted>
-5.1480

> <Gold.Chemscore.Metal.Weighted>
-0.0000

> <Gold.Chemscore.Lipo.Weighted>
-10.1612

> <Gold.Chemscore.Internal_Hbond.Weighted>
0.0000

> <Gold.Chemscore.DEClash.Weighted>
0.1162

> <Gold.Chemscore.DEInternal.Weighted>
2.4892

> <Gold.Chemscore.Rot.Weighted>
4.9805

> <Gold.Chemscore.Internal.Correction.Weighted>
   9.000000E+99

> <Gold.Protein.RotatedTorsions>
[ 6907 6896 6895 6894 ] final  167.56 input  -60.11 | X-H torsion
[ 7974 7965 7964 7962 ] final -142.44 input  175.53 | X-H torsion
[ 8008 7997 7996 7995 ] final -118.93 input   59.86 | X-H torsion
[ 10167 10162 10161 10158 ] final  -33.90 input  -65.29 | X-H torsion
[ 10718 10713 10712 10709 ] final -125.27 input   66.30 | X-H torsion
[ 10763 10752 10751 10750 ] final   62.96 input  -60.55 | X-H torsion
[ 11005 11000 10999 10996 ] final -127.28 input  -57.11 | X-H torsion

> <Gold.Protein.ActiveResidues>
 VAL166  LYS551  ARG553  GLY616  TRP617  ASP618  TYR619  PRO620  LYS621  CYS622 
 ASP623  PHE694  ASN695  SER759  ASP760  ASP761  ALA762  ILE779  LEU786  VAL792 
 PHE793  MET794  SER795  GLU796  ALA797  LYS798  CYS799  TRP800  GLU811  SER814 

> <Gold.Protein.RotatedAtoms>
  151.8615  133.3458  159.3704 H   0  0  0  0  0  0  0  0  0  0  0  0  # atno 6907 bound_to 6896
  150.7178  134.5202  159.5659 H   0  0  0  0  0  0  0  0  0  0  0  0  # atno 6908 bound_to 6896
  152.2716  134.7927  160.0464 H   0  0  0  0  0  0  0  0  0  0  0  0  # atno 6909 bound_to 6896
  144.8444  140.5958  143.5431 H   0  0  0  0  0  0  0  0  0  0  0  0  # atno 7974 bound_to 7965
  155.1075  140.0397  157.2714 H   0  0  0  0  0  0  0  0  0  0  0  0  # atno 8008 bound_to 7997
  154.6710  140.2612  155.6981 H   0  0  0  0  0  0  0  0  0  0  0  0  # atno 8009 bound_to 7997
  156.2658  140.2797  156.1219 H   0  0  0  0  0  0  0  0  0  0  0  0  # atno 8010 bound_to 7997
  140.7196  143.3587  151.2007 H   0  0  0  0  0  0  0  0  0  0  0  0  # atno 10167 bound_to 10162
  156.1660  130.6635  151.0116 H   0  0  0  0  0  0  0  0  0  0  0  0  # atno 10718 bound_to 10713
  153.0000  135.5446  154.6275 H   0  0  0  0  0  0  0  0  0  0  0  0  # atno 10763 bound_to 10752
  154.5560  135.2830  155.0966 H   0  0  0  0  0  0  0  0  0  0  0  0  # atno 10764 bound_to 10752
  154.2187  135.6454  153.5190 H   0  0  0  0  0  0  0  0  0  0  0  0  # atno 10765 bound_to 10752
  140.9613  134.0933  157.3966 H   0  0  0  0  0  0  0  0  0  0  0  0  # atno 11005 bound_to 11000
  145.4628  139.1511  143.3857 LP  0  0  0  0  0  0  0  0  0  0  0  0  # atno 17320 bound_to 7965
  146.2731  140.4759  142.8806 LP  0  0  0  0  0  0  0  0  0  0  0  0  # atno 17321 bound_to 7965
  139.7134  143.9340  152.2957 LP  0  0  0  0  0  0  0  0  0  0  0  0  # atno 17342 bound_to 10162
  139.9072  144.6877  150.8601 LP  0  0  0  0  0  0  0  0  0  0  0  0  # atno 17343 bound_to 10162
  157.6768  131.0848  150.7473 LP  0  0  0  0  0  0  0  0  0  0  0  0  # atno 17370 bound_to 10713
  156.7534  130.4776  149.5452 LP  0  0  0  0  0  0  0  0  0  0  0  0  # atno 17371 bound_to 10713
  139.8879  135.0093  156.6588 LP  0  0  0  0  0  0  0  0  0  0  0  0  # atno 17394 bound_to 11000
  140.7464  133.8934  155.8315 LP  0  0  0  0  0  0  0  0  0  0  0  0  # atno 17395 bound_to 11000

$$$$
