#       Name:                AV-unprocessed.smi:1703
#       Creating user name   scv26
#       Creation time:       Fri Mar 27 08:06:41 2020


#       File generated by GOLD software.
#

@<TRIPOS>MOLECULE
AV-unprocessed.smi:1703
    56    58     1
SMALL
NO_CHARGES


@<TRIPOS>ATOM
      1 ****         0.2241   2.5305  -0.6428 C.3            1 S1                 0.0000
      2 ****        -0.9285   2.5145   0.3734 C.3            1 S1                 0.0000
      3 ****        -0.8365   1.3601   1.3928 C.3            1 S1                 0.0000
      4 ****        -1.2111   0.0647   0.8284 N.3            1 S1                 0.0000
      5 ****        -1.1730  -1.0091   1.8223 C.3            1 S1                 0.0000
      6 ****         0.2318  -1.4351   2.3055 C.3            1 S1                 0.0000
      7 ****         0.0615  -2.2234   3.4640 O.3            1 S1                 0.0000
      8 ****         1.0266  -2.2938   1.2969 C.3            1 S1                 0.0000
      9 ****         1.3190  -1.6071   0.0293 N.pl3          1 S1                 0.0000
     10 ****         0.7308  -1.7126  -1.1987 C.2            1 S1                 0.0000
     11 ****        -0.4275  -2.5798  -1.5752 C.3            1 S1                 0.0000
     12 ****        -1.2634  -1.9859  -2.5454 O.3            1 S1                 0.0000
     13 ****         1.3991  -0.8704  -2.0372 N.pl3          1 S1                 1.0000
     14 ****         2.4127  -0.2130  -1.3405 C.ar           1 S1                 0.0000
     15 ****         3.3402   0.7351  -1.7607 C.ar           1 S1                 0.0000
     16 ****         4.2386   1.2159  -0.7856 C.ar           1 S1                 0.0000
     17 ****         4.1953   0.7518   0.5454 C.ar           1 S1                 0.0000
     18 ****         3.2525  -0.2130   0.9579 C.ar           1 S1                 0.0000
     19 ****         2.3654  -0.6793  -0.0114 C.ar           1 S1                 0.0000
     20 ****        -2.5351   0.1733   0.2305 C.3            1 S1                 0.0000
     21 ****        -2.5871   1.2654  -0.8513 C.3            1 S1                 0.0000
     22 ****        -3.9917   1.4270  -1.4410 C.3            1 S1                 0.0000
     23 ****        -2.2005   2.5121  -0.2763 O.3            1 S1                 0.0000
     24 ****         1.1879   2.6054  -0.1387 H              1 S1                 0.0000
     25 ****         0.1357   3.3823  -1.3169 H              1 S1                 0.0000
     26 ****         0.2410   1.6280  -1.2507 H              1 S1                 0.0000
     27 ****        -0.8705   3.4509   0.9287 H              1 S1                 0.0000
     28 ****         0.1749   1.3266   1.7955 H              1 S1                 0.0000
     29 ****        -1.4932   1.5881   2.2340 H              1 S1                 0.0000
     30 ****        -1.7718  -0.7057   2.6829 H              1 S1                 0.0000
     31 ****        -1.6707  -1.8936   1.4226 H              1 S1                 0.0000
     32 ****         0.8198  -0.5692   2.6056 H              1 S1                 0.0000
     33 ****        -0.3867  -1.7070   4.1164 H              1 S1                 0.0000
     34 ****         1.9746  -2.6168   1.7296 H              1 S1                 0.0000
     35 ****         0.4790  -3.2070   1.0618 H              1 S1                 0.0000
     36 ****        -0.0527  -3.5291  -1.9579 H              1 S1                 0.0000
     37 ****        -1.0286  -2.7995  -0.6937 H              1 S1                 0.0000
     38 ****        -1.9744  -2.5800  -2.7330 H              1 S1                 0.0000
     39 ****         3.3735   1.0927  -2.7794 H              1 S1                 0.0000
     40 ****         4.9753   1.9555  -1.0642 H              1 S1                 0.0000
     41 ****         4.9003   1.1425   1.2649 H              1 S1                 0.0000
     42 ****         3.2272  -0.5632   1.9792 H              1 S1                 0.0000
     43 ****        -2.8176  -0.7819  -0.2137 H              1 S1                 0.0000
     44 ****        -3.2744   0.3876   1.0042 H              1 S1                 0.0000
     45 ****        -1.9038   1.0082  -1.6612 H              1 S1                 0.0000
     46 ****        -4.3310   0.5011  -1.9057 H              1 S1                 0.0000
     47 ****        -4.0067   2.2066  -2.2031 H              1 S1                 0.0000
     48 ****        -4.7143   1.6996  -0.6712 H              1 S1                 0.0000
     49 ****         1.1652  -0.7509  -3.0144 H              1 S1                 0.0000
     50 ****        -0.5405  -0.1783   0.1276 LP             1 S1                 0.0000
     51 ****         0.9547  -2.5063   3.8134 LP             1 S1                 0.0000
     52 ****        -0.4820  -3.0334   3.2435 LP             1 S1                 0.0000
     53 ****        -0.7406  -1.8114  -3.3798 LP             1 S1                 0.0000
     54 ****        -1.6282  -1.1236  -2.1941 LP             1 S1                 0.0000
     55 ****        -2.1762   3.1951  -1.0064 LP             1 S1                 0.0000
     56 ****        -2.8927   2.7695   0.3980 LP             1 S1                 0.0000
@<TRIPOS>BOND
    1    1    2 1     
    2    1   24 1     
    3    1   25 1     
    4    1   26 1     
    5    2   23 1     
    6    2    3 1     
    7    2   27 1     
    8    3    4 1     
    9    3   28 1     
   10    3   29 1     
   11    4    5 1     
   12    4   20 1     
   13    5    6 1     
   14    5   30 1     
   15    5   31 1     
   16    6    7 1     
   17    6    8 1     
   18    6   32 1     
   19    7   33 1     
   20    8    9 1     
   21    8   34 1     
   22    8   35 1     
   23    9   19 1     
   24    9   10 1     
   25   10   11 1     
   26   10   13 2     
   27   11   12 1     
   28   11   36 1     
   29   11   37 1     
   30   12   38 1     
   31   13   14 1     
   32   13   49 1     
   33   14   19 ar    
   34   14   15 ar    
   35   15   16 ar    
   36   15   39 1     
   37   16   17 ar    
   38   16   40 1     
   39   17   18 ar    
   40   17   41 1     
   41   18   19 ar    
   42   18   42 1     
   43   20   21 1     
   44   20   43 1     
   45   20   44 1     
   46   21   22 1     
   47   21   23 1     
   48   21   45 1     
   49   22   46 1     
   50   22   47 1     
   51   22   48 1     
   52    4   50 1     
   53    7   51 1     
   54    7   52 1     
   55   12   53 1     
   56   12   54 1     
   57   23   55 1     
   58   23   56 1     
@<TRIPOS>SUBSTRUCTURE
      1 S1             1
@<TRIPOS>SET
LONE_PAIRS      STATIC     ATOMS    <user>   **** ""
7 50 51 52 53 54 55 56
DONOR_HYDROGENS      STATIC     ATOMS    <user>   **** ""
3 33 38 49
ATOM$BLUE        STATIC     ATOMS    COLORGROUP SYSTEM
7 50 51 52 53 54 55 56
ATOM$RED        STATIC     ATOMS    COLORGROUP SYSTEM
3 33 38 49
