#       Name:                AV-unprocessed.smi:2195
#       Creating user name   scv26
#       Creation time:       Fri Mar 27 12:12:16 2020


#       File generated by GOLD software.
#

@<TRIPOS>MOLECULE
AV-unprocessed.smi:2195
    44    46     1
SMALL
NO_CHARGES


@<TRIPOS>ATOM
      1 ****        -6.9837   0.7234   0.2869 C.3            1 S1                 0.0000
      2 ****        -5.4895   0.4739   0.2730 C.ar           1 S1                 0.0000
      3 ****        -4.5867   1.5467   0.1342 C.ar           1 S1                 0.0000
      4 ****        -3.1995   1.3051   0.1230 C.ar           1 S1                 0.0000
      5 ****        -2.6928  -0.0048   0.2495 C.ar           1 S1                 0.0000
      6 ****        -1.3223  -0.1490   0.2294 O.3            1 S1                 0.0000
      7 ****        -0.7786  -1.4552   0.3746 C.3            1 S1                 0.0000
      8 ****         0.7564  -1.3958   0.3050 C.3            1 S1                 0.0000
      9 ****         1.2608  -0.9031   1.5306 O.3            1 S1                 0.0000
     10 ****         1.2871  -0.5909  -0.8990 C.3            1 S1                 0.0000
     11 ****         2.7510  -0.6390  -1.0184 N.pl3          1 S1                 0.0000
     12 ****         3.5414  -1.5464  -1.6534 C.2            1 S1                 0.0000
     13 ****         4.8349  -1.1539  -1.4875 N.pl3          1 S1                 1.0000
     14 ****         4.8725   0.0212  -0.7339 C.ar           1 S1                 0.0000
     15 ****         5.9470   0.7958  -0.3074 C.ar           1 S1                 0.0000
     16 ****         5.6382   1.9422   0.4539 C.ar           1 S1                 0.0000
     17 ****         4.3051   2.2798   0.7655 C.ar           1 S1                 0.0000
     18 ****         3.2235   1.4878   0.3272 C.ar           1 S1                 0.0000
     19 ****         3.5366   0.3573  -0.4270 C.ar           1 S1                 0.0000
     20 ****        -3.6068  -1.0800   0.3863 C.ar           1 S1                 0.0000
     21 ****        -4.9946  -0.8391   0.3971 C.ar           1 S1                 0.0000
     22 ****        -7.2083   1.7902   0.3070 H              1 S1                 0.0000
     23 ****        -7.4369   0.2656   1.1665 H              1 S1                 0.0000
     24 ****        -7.4465   0.2936  -0.6017 H              1 S1                 0.0000
     25 ****        -4.9526   2.5582   0.0360 H              1 S1                 0.0000
     26 ****        -2.5159   2.1347   0.0172 H              1 S1                 0.0000
     27 ****        -1.0996  -1.9125   1.3122 H              1 S1                 0.0000
     28 ****        -1.1401  -2.0834  -0.4412 H              1 S1                 0.0000
     29 ****         1.1212  -2.4202   0.2209 H              1 S1                 0.0000
     30 ****         0.9264  -1.4417   2.2316 H              1 S1                 0.0000
     31 ****         0.8775  -0.9997  -1.8235 H              1 S1                 0.0000
     32 ****         0.9677   0.4509  -0.8595 H              1 S1                 0.0000
     33 ****         3.2034  -2.4191  -2.1936 H              1 S1                 0.0000
     34 ****         6.9693   0.5384  -0.5429 H              1 S1                 0.0000
     35 ****         6.4397   2.5744   0.8073 H              1 S1                 0.0000
     36 ****         4.1073   3.1639   1.3541 H              1 S1                 0.0000
     37 ****         2.2065   1.7519   0.5771 H              1 S1                 0.0000
     38 ****        -3.2695  -2.1006   0.4848 H              1 S1                 0.0000
     39 ****        -5.6797  -1.6678   0.5007 H              1 S1                 0.0000
     40 ****         5.6313  -1.6532  -1.8625 H              1 S1                 0.0000
     41 ****        -0.9552   0.4088   0.9738 LP             1 S1                 0.0000
     42 ****        -0.9999   0.2101  -0.6464 LP             1 S1                 0.0000
     43 ****         0.9641   0.0429   1.6613 LP             1 S1                 0.0000
     44 ****         2.2600  -0.9411   1.5236 LP             1 S1                 0.0000
@<TRIPOS>BOND
    1    1    2 1     
    2    1   22 1     
    3    1   23 1     
    4    1   24 1     
    5    2   21 ar    
    6    2    3 ar    
    7    3    4 ar    
    8    3   25 1     
    9    4    5 ar    
   10    4   26 1     
   11    5    6 1     
   12    5   20 ar    
   13    6    7 1     
   14    7    8 1     
   15    7   27 1     
   16    7   28 1     
   17    8    9 1     
   18    8   10 1     
   19    8   29 1     
   20    9   30 1     
   21   10   11 1     
   22   10   31 1     
   23   10   32 1     
   24   11   19 1     
   25   11   12 1     
   26   12   13 2     
   27   12   33 1     
   28   13   14 1     
   29   13   40 1     
   30   14   19 ar    
   31   14   15 ar    
   32   15   16 ar    
   33   15   34 1     
   34   16   17 ar    
   35   16   35 1     
   36   17   18 ar    
   37   17   36 1     
   38   18   19 ar    
   39   18   37 1     
   40   20   21 ar    
   41   20   38 1     
   42   21   39 1     
   43    6   41 1     
   44    6   42 1     
   45    9   43 1     
   46    9   44 1     
@<TRIPOS>SUBSTRUCTURE
      1 S1             1
@<TRIPOS>SET
LONE_PAIRS      STATIC     ATOMS    <user>   **** ""
4 41 42 43 44
DONOR_HYDROGENS      STATIC     ATOMS    <user>   **** ""
2 30 40
ATOM$BLUE        STATIC     ATOMS    COLORGROUP SYSTEM
4 41 42 43 44
ATOM$RED        STATIC     ATOMS    COLORGROUP SYSTEM
2 30 40
