AV-unprocessed.smi:241|AV-procd|sdf|1842|dock8
  -GOLD-   2262020463D 1   1.00000     0.00000
 Structure written by MMmdl.
 54 57  0  0  0  0  0  0  0  0  1 V2000
  152.1114  138.9017  154.6149 C   0  0  0  0  0  0  0  0  0  0  0  0
  150.9164  139.5991  154.3033 O   0  0  0  0  0  0  0  0  0  0  0  0
  149.7336  138.9276  154.7130 C   0  0  0  0  0  0  0  0  0  0  0  0
  148.4831  139.6045  154.1189 C   0  0  2  0  0  0  0  0  0  0  0  0
  148.4552  141.1278  154.2359 C   0  0  0  0  0  0  0  0  0  0  0  0
  146.9778  141.4346  154.0105 C   0  0  2  0  0  0  0  0  0  0  0  0
  146.6280  142.6887  154.5773 O   0  0  0  0  0  0  0  0  0  0  0  0
  145.2280  142.9059  154.6433 C   0  0  0  0  0  0  0  0  0  0  0  0
  146.2681  140.2457  154.6761 C   0  0  0  0  0  0  0  0  0  0  0  0
  147.2540  139.1737  154.7788 N   0  0  0  0  0  0  0  0  0  0  0  0
  146.7936  137.9498  154.4386 C   0  0  0  0  0  0  0  0  0  0  0  0
  146.6809  136.9751  155.3793 N   0  0  0  0  0  0  0  0  0  0  0  0
  146.2234  135.7674  155.0348 C   0  0  0  0  0  0  0  0  0  0  0  0
  145.8375  135.3319  153.8330 N   0  0  0  0  0  0  0  0  0  0  0  0
  145.9563  136.3094  152.8887 C   0  0  0  0  0  0  0  0  0  0  0  0
  146.4174  137.6372  153.1070 C   0  0  0  0  0  0  0  0  0  0  0  0
  146.3858  138.3566  151.9198 N   0  0  0  0  0  0  0  0  0  0  0  0
  145.9253  137.5021  151.0469 C   0  0  0  0  0  0  0  0  0  0  0  0
  145.6683  136.2405  151.5370 N   0  0  0  0  0  0  0  0  0  0  0  0
  145.1272  135.1278  150.8133 C   0  0  0  0  0  0  0  0  0  0  0  0
  144.4156  133.9860  151.5410 C   0  0  0  0  0  0  0  0  0  0  0  0
  144.9191  132.9974  150.4636 C   0  0  0  0  0  0  0  0  0  0  0  0
  145.4266  131.6360  150.9698 C   0  0  0  0  0  0  0  0  0  0  0  0
  146.6836  131.7397  151.6066 O   0  0  0  0  0  0  0  0  0  0  0  0
  143.9966  132.7747  149.2465 C   0  0  0  0  0  0  0  0  0  0  0  0
  142.8280  132.0600  149.5911 O   0  0  0  0  0  0  0  0  0  0  0  0
  146.0317  134.0427  150.2231 C   0  0  0  0  0  0  0  0  0  0  0  0
  148.4236  139.3462  153.0603 H   0  0  0  0  0  0  0  0  0  0  0  0
  146.7828  141.4281  152.9362 H   0  0  0  0  0  0  0  0  0  0  0  0
  152.9708  139.4857  154.2857 H   0  0  0  0  0  0  0  0  0  0  0  0
  152.1462  137.9394  154.1027 H   0  0  0  0  0  0  0  0  0  0  0  0
  152.2138  138.7295  155.6858 H   0  0  0  0  0  0  0  0  0  0  0  0
  149.8065  137.9101  154.3278 H   0  0  0  0  0  0  0  0  0  0  0  0
  149.6605  138.8357  155.7983 H   0  0  0  0  0  0  0  0  0  0  0  0
  148.7553  141.4372  155.2384 H   0  0  0  0  0  0  0  0  0  0  0  0
  149.1035  141.6244  153.5136 H   0  0  0  0  0  0  0  0  0  0  0  0
  145.0313  143.8877  155.0733 H   0  0  0  0  0  0  0  0  0  0  0  0
  144.7355  142.1626  155.2711 H   0  0  0  0  0  0  0  0  0  0  0  0
  144.7777  142.8786  153.6505 H   0  0  0  0  0  0  0  0  0  0  0  0
  145.9610  140.5069  155.6893 H   0  0  0  0  0  0  0  0  0  0  0  0
  145.3709  139.9590  154.1254 H   0  0  0  0  0  0  0  0  0  0  0  0
  146.1591  135.0459  155.8360 H   0  0  0  0  0  0  0  0  0  0  0  0
  145.7658  137.7712  150.0128 H   0  0  0  0  0  0  0  0  0  0  0  0
  144.4810  135.5549  150.0446 H   0  0  0  0  0  0  0  0  0  0  0  0
  144.8408  133.7914  152.5275 H   0  0  0  0  0  0  0  0  0  0  0  0
  143.3328  134.0978  151.6016 H   0  0  0  0  0  0  0  0  0  0  0  0
  144.7162  131.1827  151.6619 H   0  0  0  0  0  0  0  0  0  0  0  0
  145.5379  130.9338  150.1429 H   0  0  0  0  0  0  0  0  0  0  0  0
  147.3591  131.5650  150.9690 H   0  0  0  0  0  0  0  0  0  0  0  0
  143.6831  133.7225  148.8084 H   0  0  0  0  0  0  0  0  0  0  0  0
  144.5154  132.2338  148.4546 H   0  0  0  0  0  0  0  0  0  0  0  0
  142.1173  132.6776  149.6794 H   0  0  0  0  0  0  0  0  0  0  0  0
  146.2995  134.1987  149.1775 H   0  0  0  0  0  0  0  0  0  0  0  0
  146.9221  133.8675  150.8299 H   0  0  0  0  0  0  0  0  0  0  0  0
  1  2  1  0  0  0  0
  1 30  1  0  0  0  0
  1 31  1  0  0  0  0
  1 32  1  0  0  0  0
  2  3  1  0  0  0  0
  3  4  1  0  0  0  0
  3 33  1  0  0  0  0
  3 34  1  0  0  0  0
  4 28  1  0  0  0  0
  4 10  1  0  0  0  0
  4  5  1  0  0  0  0
  5  6  1  0  0  0  0
  5 35  1  0  0  0  0
  5 36  1  0  0  0  0
  6 29  1  0  0  0  0
  6  7  1  0  0  0  0
  6  9  1  0  0  0  0
  7  8  1  0  0  0  0
  8 37  1  0  0  0  0
  8 38  1  0  0  0  0
  8 39  1  0  0  0  0
  9 10  1  0  0  0  0
  9 40  1  0  0  0  0
  9 41  1  0  0  0  0
 10 11  1  0  0  0  0
 11 16  1  0  0  0  0
 11 12  2  0  0  0  0
 12 13  1  0  0  0  0
 13 14  2  0  0  0  0
 13 42  1  0  0  0  0
 14 15  1  0  0  0  0
 15 19  1  0  0  0  0
 15 16  2  0  0  0  0
 16 17  1  0  0  0  0
 17 18  2  0  0  0  0
 18 19  1  0  0  0  0
 18 43  1  0  0  0  0
 19 20  1  0  0  0  0
 20 27  1  0  0  0  0
 20 21  1  0  0  0  0
 20 44  1  0  0  0  0
 21 22  1  0  0  0  0
 21 45  1  0  0  0  0
 21 46  1  0  0  0  0
 22 23  1  0  0  0  0
 22 25  1  0  0  0  0
 22 27  1  0  0  0  0
 23 24  1  0  0  0  0
 23 47  1  0  0  0  0
 23 48  1  0  0  0  0
 24 49  1  0  0  0  0
 25 26  1  0  0  0  0
 25 50  1  0  0  0  0
 25 51  1  0  0  0  0
 26 52  1  0  0  0  0
 27 53  1  0  0  0  0
 27 54  1  0  0  0  0
M  END
> <s_m_source_file>
AV-unprocessed.smi

> <i_m_source_file_index>
241

> <i_lp_mmshare_version>
43012

> <i_f3d_flags>
0

> <s_epik_input>
W0NIM11PW0NIMl1bQ0BASF0xW0NIMl1bQ0BASF0oT1tDSDNdKVtDSDJdTjFjKG5bY0hdbjIpYyhjMjMpbltjSF1uM1tDSF0oW0NIMl00KVtDSDJdQzQoW0NIMl1bT0hdKVtDSDJdW09IXQ==

> <s_epik_cmdline>
J2VwaWtfcHl0aG9uJywgJy1waCcsICc3LjAnLCAnLXRuJywgJzgnLCAnLW1hJywgJzIwMCcsICctbWV0YWxfYmluZGluZycsICctaW1hZScsICc8aW5maWxlLm1hZT4nLCAnLW9tYWUnLCAnPG91dGZpbGUubWFlPic=

> <r_lp_tautomer_probability>
1

> <r_epik_Ionization_Penalty>
0.00568677

> <r_epik_Ionization_Penalty_Charging>
0

> <r_epik_Ionization_Penalty_Neutral>
0.00568677

> <r_epik_State_Penalty>
0.00400877

> <r_epik_Charging_Adjusted_Penalty>
0.00400877

> <i_epik_Tot_Q>
0

> <i_epik_Tot_abs_Q>
0

> <r_epik_Metal_State_Penalty>
-0

> <b_epik_Metal_Only>
0

> <s_lp_Force_Field>
OPLS_2005

> <r_lp_Energy>
58.6567

> <b_lp_Chiralities_Consistent>
1

> <s_lp_Variant>
AV-unprocessed.smi:241-3

> <Gold.Version>
5.8.1

> <Gold.Id.Protein>
6NUR|6NUR_protein|mol2

> <Gold.PLP.Fitness>
52.5440

> <Gold.PLP.PLP>
-41.7709

> <Gold.PLP.part.hbond>
-4.7062

> <Gold.PLP.part.metal>
0.0000

> <Gold.PLP.part.buried>
-0.9825

> <Gold.PLP.part.nonpolar>
-37.1454

> <Gold.PLP.part.repulsive>
0.8397

> <Gold.PLP.ligand.clash>
0.0000

> <Gold.PLP.ligand.torsion>
1.3994

> <Gold.PLP.Chemscore.Hbond>
3.7800

> <Gold.PLP.Chemscore.CHOScore>
0.5027

> <Gold.PLP.Chemscore.Metal>
0.0000

> <Gold.Chemscore.Hbonds>
donor molecule, donor type, donor heavy atom, donor atom, acceptor molecule, acceptor atom, score
      L1  H    24    49       P1 10747  1.00
      L1  H    26    52       P1 10186  0.93
      P1  H  7989  7998       L1     2  0.85
      P1  H 10785 10796       L1    26  0.75
      L1  C    18    43       P1 10171  0.61

> <Gold.PLP.Chemscore.Internal.Correction>
0.7238

> <Gold.Rescore>
     Score         DG    S(hbond)    S(metal)    S(lipo)     H(rot)  DE(clash)    DE(int)     intcor
     10.80     -14.86       2.60        0.00      92.97       3.97       1.53       2.53       ----

> <Gold.Chemscore.Fitness>
10.7998

> <Gold.Chemscore.DG>
-14.8644

> <Gold.Chemscore.ZeroCoef>
-5.4800

> <Gold.Chemscore.Hbond>
2.5981

> <Gold.Chemscore.Metal>
0.0000

> <Gold.Chemscore.Lipo>
92.9667

> <Gold.Chemscore.Internal_Hbond>
0.0000

> <Gold.Chemscore.DEClash>
1.5330

> <Gold.Chemscore.DEInternal>
2.5316

> <Gold.Chemscore.Rot>
3.9727

> <Gold.Chemscore.Internal.Correction>
   9.000000E+99

> <Gold.Chemscore.Hbonds>
donor molecule, donor type, donor heavy atom, donor atom, acceptor molecule, acceptor atom, score
      L1  H    24    49       P1 10747  0.99
      L1  H    26    52       P1 10186  0.88
      P1  H  7989  7998       L1     2  0.15
      P1  H 10785 10796       L1    26  0.30

> <Gold.Chemscore.Hbond.Weighted>
-8.6775

> <Gold.Chemscore.Metal.Weighted>
-0.0000

> <Gold.Chemscore.Lipo.Weighted>
-10.8771

> <Gold.Chemscore.Internal_Hbond.Weighted>
0.0000

> <Gold.Chemscore.DEClash.Weighted>
1.5330

> <Gold.Chemscore.DEInternal.Weighted>
2.5316

> <Gold.Chemscore.Rot.Weighted>
10.1702

> <Gold.Chemscore.Internal.Correction.Weighted>
   9.000000E+99

> <Gold.Protein.RotatedTorsions>
[ 6907 6896 6895 6894 ] final   51.74 input  -60.11 | X-H torsion
[ 7974 7965 7964 7962 ] final -176.57 input  175.53 | X-H torsion
[ 8008 7997 7996 7995 ] final  -90.78 input   59.86 | X-H torsion
[ 10167 10162 10161 10158 ] final   50.09 input  -65.29 | X-H torsion
[ 10718 10713 10712 10709 ] final -127.24 input   66.30 | X-H torsion
[ 10763 10752 10751 10750 ] final  -65.78 input  -60.55 | X-H torsion
[ 11005 11000 10999 10996 ] final -153.25 input  -57.11 | X-H torsion

> <Gold.Protein.ActiveResidues>
 VAL166  LYS551  ARG553  GLY616  TRP617  ASP618  TYR619  PRO620  LYS621  CYS622 
 ASP623  PHE694  ASN695  SER759  ASP760  ASP761  ALA762  ILE779  LEU786  VAL792 
 PHE793  MET794  SER795  GLU796  ALA797  LYS798  CYS799  TRP800  GLU811  SER814 

> <Gold.Protein.RotatedAtoms>
  152.3159  134.7441  160.0325 H   0  0  0  0  0  0  0  0  0  0  0  0  # atno 6907 bound_to 6896
  151.7905  133.3353  159.3506 H   0  0  0  0  0  0  0  0  0  0  0  0  # atno 6908 bound_to 6896
  150.7344  134.5777  159.5967 H   0  0  0  0  0  0  0  0  0  0  0  0  # atno 6909 bound_to 6896
  144.7127  140.1150  143.6409 H   0  0  0  0  0  0  0  0  0  0  0  0  # atno 7974 bound_to 7965
  154.7027  140.0526  157.0473 H   0  0  0  0  0  0  0  0  0  0  0  0  # atno 8008 bound_to 7997
  155.0663  140.3195  155.4625 H   0  0  0  0  0  0  0  0  0  0  0  0  # atno 8009 bound_to 7997
  156.2765  140.2090  156.5790 H   0  0  0  0  0  0  0  0  0  0  0  0  # atno 8010 bound_to 7997
  140.2761  144.3210  150.6277 H   0  0  0  0  0  0  0  0  0  0  0  0  # atno 10167 bound_to 10162
  156.1839  130.6750  151.0339 H   0  0  0  0  0  0  0  0  0  0  0  0  # atno 10718 bound_to 10713
  154.3500  135.6138  153.5638 H   0  0  0  0  0  0  0  0  0  0  0  0  # atno 10763 bound_to 10752
  152.9799  135.5790  154.4754 H   0  0  0  0  0  0  0  0  0  0  0  0  # atno 10764 bound_to 10752
  154.4473  135.2852  155.1783 H   0  0  0  0  0  0  0  0  0  0  0  0  # atno 10765 bound_to 10752
  140.7102  134.3841  157.5198 H   0  0  0  0  0  0  0  0  0  0  0  0  # atno 11005 bound_to 11000
  145.9421  139.2676  143.1262 LP  0  0  0  0  0  0  0  0  0  0  0  0  # atno 17320 bound_to 7965
  145.9412  140.8978  143.0306 LP  0  0  0  0  0  0  0  0  0  0  0  0  # atno 17321 bound_to 7965
  140.5850  143.2170  151.7359 LP  0  0  0  0  0  0  0  0  0  0  0  0  # atno 17342 bound_to 10162
  139.4975  144.4024  152.0167 LP  0  0  0  0  0  0  0  0  0  0  0  0  # atno 17343 bound_to 10162
  157.6886  131.0817  150.7173 LP  0  0  0  0  0  0  0  0  0  0  0  0  # atno 17370 bound_to 10713
  156.7229  130.4686  149.5518 LP  0  0  0  0  0  0  0  0  0  0  0  0  # atno 17371 bound_to 10713
  139.8874  134.8885  156.2533 LP  0  0  0  0  0  0  0  0  0  0  0  0  # atno 17394 bound_to 11000
  141.0091  133.7106  156.1082 LP  0  0  0  0  0  0  0  0  0  0  0  0  # atno 17395 bound_to 11000

$$$$
