AV-unprocessed.smi:292|AV-procd|sdf|2249|dock7
  -GOLD-   2262022133D 1   1.00000     0.00000
 Structure written by MMmdl.
 33 34  0  0  0  0  0  0  0  0  1 V2000
  144.0760  146.0602  153.4591 N   0  0  0  0  0  0  0  0  0  0  0  0
  144.6162  145.0772  153.7435 C   0  0  0  0  0  0  0  0  0  0  0  0
  145.2945  143.8427  154.1007 C   0  0  0  0  0  0  0  0  0  0  0  0
  144.7849  142.9965  155.0424 N   0  0  0  0  0  0  0  0  0  0  0  0
  145.7282  142.0636  155.0127 C   0  0  0  0  0  0  0  0  0  0  0  0
  146.7140  142.3143  154.1445 N   0  0  0  0  0  0  0  0  0  0  0  0
  147.9191  141.5579  153.8411 C   0  0  0  0  0  0  0  0  0  0  0  0
  148.7266  141.1710  155.0889 C   0  0  0  0  0  0  0  0  0  0  0  0
  148.6518  140.0218  155.5221 O   0  0  0  0  0  0  0  0  0  0  0  0
  149.4755  142.1242  155.6695 N   0  0  0  0  0  0  0  0  0  0  0  0
  150.3287  141.9586  156.8444 C   0  0  2  0  0  0  0  0  0  0  0  0
  150.8674  143.3313  157.3241 C   0  0  0  0  0  0  0  0  0  0  0  0
  152.2081  143.3069  158.0873 C   0  0  0  0  0  0  0  0  0  0  0  0
  152.2593  142.3705  159.3115 C   0  0  0  0  0  0  0  0  0  0  0  0
  151.8734  140.8920  159.0698 C   0  0  0  0  0  0  0  0  0  0  0  0
  152.0788  140.4341  157.6962 N   0  0  0  0  0  0  0  0  0  0  0  0
  151.3923  140.8649  156.6237 C   0  0  0  0  0  0  0  0  0  0  0  0
  151.6131  140.4187  155.4982 O   0  0  0  0  0  0  0  0  0  0  0  0
  146.4418  143.4894  153.5251 N   0  0  0  0  0  0  0  0  0  0  0  0
  145.7058  141.1853  155.6412 H   0  0  0  0  0  0  0  0  0  0  0  0
  147.6378  140.6509  153.3049 H   0  0  0  0  0  0  0  0  0  0  0  0
  148.5439  142.1474  153.1685 H   0  0  0  0  0  0  0  0  0  0  0  0
  149.4820  143.0398  155.2433 H   0  0  0  0  0  0  0  0  0  0  0  0
  149.6834  141.5684  157.6326 H   0  0  0  0  0  0  0  0  0  0  0  0
  150.9965  143.9883  156.4629 H   0  0  0  0  0  0  0  0  0  0  0  0
  150.1088  143.8101  157.9447 H   0  0  0  0  0  0  0  0  0  0  0  0
  153.0117  143.0431  157.3983 H   0  0  0  0  0  0  0  0  0  0  0  0
  152.4406  144.3205  158.4148 H   0  0  0  0  0  0  0  0  0  0  0  0
  153.2761  142.4003  159.7042 H   0  0  0  0  0  0  0  0  0  0  0  0
  151.6293  142.7733  160.1054 H   0  0  0  0  0  0  0  0  0  0  0  0
  152.4518  140.2520  159.7365 H   0  0  0  0  0  0  0  0  0  0  0  0
  150.8320  140.7274  159.3487 H   0  0  0  0  0  0  0  0  0  0  0  0
  152.7836  139.7255  157.5511 H   0  0  0  0  0  0  0  0  0  0  0  0
  1  2  3  0  0  0  0
  2  3  1  0  0  0  0
  3 19  2  0  0  0  0
  3  4  1  0  0  0  0
  4  5  2  0  0  0  0
  5  6  1  0  0  0  0
  5 20  1  0  0  0  0
  6  7  1  0  0  0  0
  6 19  1  0  0  0  0
  7  8  1  0  0  0  0
  7 21  1  0  0  0  0
  7 22  1  0  0  0  0
  8  9  2  0  0  0  0
  8 10  1  0  0  0  0
 10 11  1  0  0  0  0
 10 23  1  0  0  0  0
 11 17  1  0  0  0  0
 11 12  1  0  0  0  0
 11 24  1  0  0  0  0
 12 13  1  0  0  0  0
 12 25  1  0  0  0  0
 12 26  1  0  0  0  0
 13 14  1  0  0  0  0
 13 27  1  0  0  0  0
 13 28  1  0  0  0  0
 14 15  1  0  0  0  0
 14 29  1  0  0  0  0
 14 30  1  0  0  0  0
 15 16  1  0  0  0  0
 15 31  1  0  0  0  0
 15 32  1  0  0  0  0
 16 17  1  0  0  0  0
 16 33  1  0  0  0  0
 17 18  2  0  0  0  0
M  END
> <s_m_source_file>
AV-unprocessed.smi

> <i_m_source_file_index>
292

> <i_lp_mmshare_version>
43012

> <i_f3d_flags>
0

> <s_epik_input>
TiNDYzFuW2NIXW4objEpW0NIMl1DKD1PKVtOSF1bQ0BASF0yW0NIMl1bQ0gyXVtDSDJdW0NIMl1bTkhdQzI9Tw==

> <s_epik_cmdline>
J2VwaWtfcHl0aG9uJywgJy1waCcsICc3LjAnLCAnLXRuJywgJzgnLCAnLW1hJywgJzIwMCcsICctbWV0YWxfYmluZGluZycsICctaW1hZScsICc8aW5maWxlLm1hZT4nLCAnLW9tYWUnLCAnPG91dGZpbGUubWFlPic=

> <r_lp_tautomer_probability>
1

> <r_epik_Ionization_Penalty>
1.99744e-07

> <r_epik_Ionization_Penalty_Charging>
0

> <r_epik_Ionization_Penalty_Neutral>
1.99744e-07

> <r_epik_State_Penalty>
-0

> <r_epik_Charging_Adjusted_Penalty>
0

> <i_epik_Tot_Q>
0

> <i_epik_Tot_abs_Q>
0

> <r_epik_Metal_State_Penalty>
-0

> <b_epik_Metal_Only>
0

> <s_lp_Force_Field>
OPLS_2005

> <r_lp_Energy>
19.194

> <b_lp_Chiralities_Consistent>
1

> <s_lp_Variant>
AV-unprocessed.smi:292-1

> <Gold.Version>
5.8.1

> <Gold.Id.Protein>
6NUR|6NUR_protein|mol2

> <Gold.PLP.Fitness>
38.6629

> <Gold.PLP.PLP>
-34.5018

> <Gold.PLP.part.hbond>
-4.8889

> <Gold.PLP.part.metal>
0.0000

> <Gold.PLP.part.buried>
-3.1853

> <Gold.PLP.part.nonpolar>
-27.1364

> <Gold.PLP.part.repulsive>
0.7537

> <Gold.PLP.ligand.clash>
0.0000

> <Gold.PLP.ligand.torsion>
0.3462

> <Gold.PLP.Chemscore.Hbond>
1.6000

> <Gold.PLP.Chemscore.CHOScore>
0.0000

> <Gold.PLP.Chemscore.Metal>
0.0000

> <Gold.Chemscore.Hbonds>
donor molecule, donor type, donor heavy atom, donor atom, acceptor molecule, acceptor atom, score
      L1  H    10    23       P1  8028  0.77
      P1  H  7989  7998       L1    18  0.80

> <Gold.PLP.Chemscore.Internal.Correction>
0.0535

> <Gold.Rescore>
     Score         DG    S(hbond)    S(metal)    S(lipo)     H(rot)  DE(clash)    DE(int)     intcor
     10.93     -11.51       1.76        0.00      48.23       2.14       0.21       0.38       ----

> <Gold.Chemscore.Fitness>
10.9255

> <Gold.Chemscore.DG>
-11.5072

> <Gold.Chemscore.ZeroCoef>
-5.4800

> <Gold.Chemscore.Hbond>
1.7587

> <Gold.Chemscore.Metal>
0.0000

> <Gold.Chemscore.Lipo>
48.2282

> <Gold.Chemscore.Internal_Hbond>
0.0000

> <Gold.Chemscore.DEClash>
0.2052

> <Gold.Chemscore.DEInternal>
0.3764

> <Gold.Chemscore.Rot>
2.1444

> <Gold.Chemscore.Internal.Correction>
   9.000000E+99

> <Gold.Chemscore.Hbonds>
donor molecule, donor type, donor heavy atom, donor atom, acceptor molecule, acceptor atom, score
      L1  H    10    23       P1  8028  0.76
      P1  H  7989  7998       L1    18  0.75

> <Gold.Chemscore.Hbond.Weighted>
-5.8741

> <Gold.Chemscore.Metal.Weighted>
-0.0000

> <Gold.Chemscore.Lipo.Weighted>
-5.6427

> <Gold.Chemscore.Internal_Hbond.Weighted>
0.0000

> <Gold.Chemscore.DEClash.Weighted>
0.2052

> <Gold.Chemscore.DEInternal.Weighted>
0.3764

> <Gold.Chemscore.Rot.Weighted>
5.4896

> <Gold.Chemscore.Internal.Correction.Weighted>
   9.000000E+99

> <Gold.Protein.RotatedTorsions>
[ 6907 6896 6895 6894 ] final  -77.84 input  -60.11 | X-H torsion
[ 7974 7965 7964 7962 ] final  117.69 input  175.53 | X-H torsion
[ 8008 7997 7996 7995 ] final   83.85 input   59.86 | X-H torsion
[ 10167 10162 10161 10158 ] final  -56.44 input  -65.29 | X-H torsion
[ 10718 10713 10712 10709 ] final  152.65 input   66.30 | X-H torsion
[ 10763 10752 10751 10750 ] final  168.71 input  -60.55 | X-H torsion
[ 11005 11000 10999 10996 ] final  131.39 input  -57.11 | X-H torsion

> <Gold.Protein.ActiveResidues>
 VAL166  LYS551  ARG553  GLY616  TRP617  ASP618  TYR619  PRO620  LYS621  CYS622 
 ASP623  PHE694  ASN695  SER759  ASP760  ASP761  ALA762  ILE779  LEU786  VAL792 
 PHE793  MET794  SER795  GLU796  ALA797  LYS798  CYS799  TRP800  GLU811  SER814 

> <Gold.Protein.RotatedAtoms>
  150.6988  134.4362  159.5270 H   0  0  0  0  0  0  0  0  0  0  0  0  # atno 6907 bound_to 6896
  152.2080  134.8525  160.0510 H   0  0  0  0  0  0  0  0  0  0  0  0  # atno 6908 bound_to 6896
  151.9421  133.3606  159.4006 H   0  0  0  0  0  0  0  0  0  0  0  0  # atno 6909 bound_to 6896
  145.1643  139.3137  143.4500 H   0  0  0  0  0  0  0  0  0  0  0  0  # atno 7974 bound_to 7965
  155.9293  140.3416  155.6236 H   0  0  0  0  0  0  0  0  0  0  0  0  # atno 8008 bound_to 7997
  155.7177  140.0779  157.2363 H   0  0  0  0  0  0  0  0  0  0  0  0  # atno 8009 bound_to 7997
  154.4082  140.1611  156.2354 H   0  0  0  0  0  0  0  0  0  0  0  0  # atno 8010 bound_to 7997
  140.6317  143.2462  151.5224 H   0  0  0  0  0  0  0  0  0  0  0  0  # atno 10167 bound_to 10162
  157.2550  131.0786  151.1704 H   0  0  0  0  0  0  0  0  0  0  0  0  # atno 10718 bound_to 10713
  154.3725  135.2753  155.2258 H   0  0  0  0  0  0  0  0  0  0  0  0  # atno 10763 bound_to 10752
  154.4399  135.5957  153.6126 H   0  0  0  0  0  0  0  0  0  0  0  0  # atno 10764 bound_to 10752
  152.9838  135.6016  154.3958 H   0  0  0  0  0  0  0  0  0  0  0  0  # atno 10765 bound_to 10752
  139.9727  134.9572  156.9431 H   0  0  0  0  0  0  0  0  0  0  0  0  # atno 11005 bound_to 11000
  146.3478  140.1766  142.8589 LP  0  0  0  0  0  0  0  0  0  0  0  0  # atno 17320 bound_to 7965
  145.0298  140.8861  143.5116 LP  0  0  0  0  0  0  0  0  0  0  0  0  # atno 17321 bound_to 7965
  139.5530  144.2346  152.1564 LP  0  0  0  0  0  0  0  0  0  0  0  0  # atno 17342 bound_to 10162
  140.1591  144.5042  150.6643 LP  0  0  0  0  0  0  0  0  0  0  0  0  # atno 17343 bound_to 10162
  157.3237  130.6950  149.6284 LP  0  0  0  0  0  0  0  0  0  0  0  0  # atno 17370 bound_to 10713
  155.9665  130.4328  150.4978 LP  0  0  0  0  0  0  0  0  0  0  0  0  # atno 17371 bound_to 10713
  140.5259  134.0861  155.7303 LP  0  0  0  0  0  0  0  0  0  0  0  0  # atno 17394 bound_to 11000
  141.1406  133.9145  157.2334 LP  0  0  0  0  0  0  0  0  0  0  0  0  # atno 17395 bound_to 11000

$$$$
