AV-unprocessed.smi:1444|AV-procd|sdf|5883|dock10
  -GOLD-   22720 5563D 1   1.00000     0.00000
 Structure written by MMmdl.
 44 45  0  0  0  0  0  0  0  0  2 V2000
  151.8211  138.0891  155.0094 C   0  0  0  0  0  0  0  0  0  0  0  0
  150.5397  138.0857  154.3894 O   0  0  0  0  0  0  0  0  0  0  0  0
  149.7248  139.1904  154.5500 C   0  0  0  0  0  0  0  0  0  0  0  0
  150.2977  140.3654  154.9123 N   0  0  0  0  0  0  0  0  0  0  0  0
  149.5058  141.4452  155.0692 C   0  0  0  0  0  0  0  0  0  0  0  0
  148.1136  141.4126  154.8721 C   0  0  0  0  0  0  0  0  0  0  0  0
  147.5161  140.1954  154.4966 C   0  0  0  0  0  0  0  0  0  0  0  0
  148.3337  139.0498  154.3302 C   0  0  0  0  0  0  0  0  0  0  0  0
  147.8553  137.7618  153.9546 N   0  0  0  0  0  0  0  0  0  0  0  0
  146.6777  137.1683  154.2126 C   0  0  0  0  0  0  0  0  0  0  0  0
  145.7433  137.6630  154.8413 O   0  0  0  0  0  0  0  0  0  0  0  0
  146.6348  135.9399  153.6760 N   0  0  0  0  0  0  0  0  0  0  0  0
  145.5279  134.9884  153.7822 C   0  0  2  0  0  0  0  0  0  0  0  0
  145.0444  134.9493  155.2382 C   0  0  0  0  0  0  0  0  0  0  0  0
  145.9437  133.5819  153.2933 C   0  0  0  0  0  0  0  0  0  0  0  0
  145.4091  133.2507  151.9481 N   0  3  0  0  0  0  0  0  0  0  0  0
  145.7943  131.8964  151.4876 C   0  0  0  0  0  0  0  0  0  0  0  0
  145.2726  131.6514  150.0613 C   0  0  0  0  0  0  0  0  0  0  0  0
  143.8614  131.8270  150.0316 O   0  0  0  0  0  0  0  0  0  0  0  0
  143.4806  133.1486  150.3955 C   0  0  0  0  0  0  0  0  0  0  0  0
  143.9425  133.4395  151.8327 C   0  0  0  0  0  0  0  0  0  0  0  0
  152.3303  137.1515  154.7872 H   0  0  0  0  0  0  0  0  0  0  0  0
  151.7396  138.1719  156.0943 H   0  0  0  0  0  0  0  0  0  0  0  0
  152.4453  138.9009  154.6331 H   0  0  0  0  0  0  0  0  0  0  0  0
  149.9965  142.3622  155.3599 H   0  0  0  0  0  0  0  0  0  0  0  0
  147.5167  142.3024  155.0068 H   0  0  0  0  0  0  0  0  0  0  0  0
  146.4493  140.1782  154.3467 H   0  0  0  0  0  0  0  0  0  0  0  0
  148.5147  137.2096  153.4255 H   0  0  0  0  0  0  0  0  0  0  0  0
  147.4511  135.6221  153.1738 H   0  0  0  0  0  0  0  0  0  0  0  0
  144.6895  135.3469  153.1832 H   0  0  0  0  0  0  0  0  0  0  0  0
  144.1931  134.2773  155.3505 H   0  0  0  0  0  0  0  0  0  0  0  0
  144.7283  135.9375  155.5745 H   0  0  0  0  0  0  0  0  0  0  0  0
  145.8308  134.6044  155.9107 H   0  0  0  0  0  0  0  0  0  0  0  0
  147.0339  133.5429  153.2647 H   0  0  0  0  0  0  0  0  0  0  0  0
  145.6332  132.8167  154.0064 H   0  0  0  0  0  0  0  0  0  0  0  0
  146.8800  131.7929  151.5021 H   0  0  0  0  0  0  0  0  0  0  0  0
  145.3895  131.1472  152.1701 H   0  0  0  0  0  0  0  0  0  0  0  0
  145.7504  132.3275  149.3502 H   0  0  0  0  0  0  0  0  0  0  0  0
  145.5094  130.6356  149.7437 H   0  0  0  0  0  0  0  0  0  0  0  0
  143.9062  133.8700  149.6961 H   0  0  0  0  0  0  0  0  0  0  0  0
  142.3963  133.2367  150.3245 H   0  0  0  0  0  0  0  0  0  0  0  0
  143.4296  132.7759  152.5305 H   0  0  0  0  0  0  0  0  0  0  0  0
  143.6671  134.4589  152.1012 H   0  0  0  0  0  0  0  0  0  0  0  0
  145.8390  133.8999  151.3041 H   0  0  0  0  0  0  0  0  0  0  0  0
  1  2  1  0  0  0  0
  1 22  1  0  0  0  0
  1 23  1  0  0  0  0
  1 24  1  0  0  0  0
  2  3  1  0  0  0  0
  3  8  1  0  0  0  0
  3  4  2  0  0  0  0
  4  5  1  0  0  0  0
  5  6  2  0  0  0  0
  5 25  1  0  0  0  0
  6  7  1  0  0  0  0
  6 26  1  0  0  0  0
  7  8  2  0  0  0  0
  7 27  1  0  0  0  0
  8  9  1  0  0  0  0
  9 10  1  0  0  0  0
  9 28  1  0  0  0  0
 10 11  2  0  0  0  0
 10 12  1  0  0  0  0
 12 13  1  0  0  0  0
 12 29  1  0  0  0  0
 13 14  1  0  0  0  0
 13 15  1  0  0  0  0
 13 30  1  0  0  0  0
 14 31  1  0  0  0  0
 14 32  1  0  0  0  0
 14 33  1  0  0  0  0
 15 16  1  0  0  0  0
 15 34  1  0  0  0  0
 15 35  1  0  0  0  0
 16 21  1  0  0  0  0
 16 17  1  0  0  0  0
 16 44  1  0  0  0  0
 17 18  1  0  0  0  0
 17 36  1  0  0  0  0
 17 37  1  0  0  0  0
 18 19  1  0  0  0  0
 18 38  1  0  0  0  0
 18 39  1  0  0  0  0
 19 20  1  0  0  0  0
 20 21  1  0  0  0  0
 20 40  1  0  0  0  0
 20 41  1  0  0  0  0
 21 42  1  0  0  0  0
 21 43  1  0  0  0  0
M  CHG  1  16   1
M  END
> <s_m_source_file>
AV-unprocessed.smi

> <i_m_source_file_index>
1444

> <i_lp_mmshare_version>
43012

> <i_f3d_flags>
0

> <s_epik_input>
W0NIM11PYzFuW2NIXVtjSF1bY0hdYzFbTkhdQyg9TylbTkhdW0NASF0oW0NIM10pW0NIMl1OMltDSDJdW0NIMl1PW0NIMl1bQ0gyXTI=

> <s_epik_cmdline>
J2VwaWtfcHl0aG9uJywgJy1waCcsICc3LjAnLCAnLXRuJywgJzgnLCAnLW1hJywgJzIwMCcsICctbWV0YWxfYmluZGluZycsICctaW1hZScsICc8aW5maWxlLm1hZT4nLCAnLW9tYWUnLCAnPG91dGZpbGUubWFlPic=

> <r_lp_tautomer_probability>
1

> <r_epik_Ionization_Penalty>
0.602604

> <r_epik_Ionization_Penalty_Charging>
0.602531

> <r_epik_Ionization_Penalty_Neutral>
7.37688e-05

> <r_epik_State_Penalty>
0.617039

> <r_epik_Charging_Adjusted_Penalty>
1.21957

> <i_epik_Tot_Q>
1

> <i_epik_Tot_abs_Q>
1

> <r_epik_Metal_State_Penalty>
0.617045

> <b_epik_Metal_Only>
0

> <s_lp_Force_Field>
OPLS_2005

> <r_lp_Energy>
24.7121

> <b_lp_Chiralities_Consistent>
1

> <s_lp_Variant>
AV-unprocessed.smi:1444-3

> <Gold.Version>
5.8.1

> <Gold.Id.Protein>
6NUR|6NUR_protein|mol2

> <Gold.PLP.Fitness>
41.3639

> <Gold.PLP.PLP>
-31.0759

> <Gold.PLP.part.hbond>
-4.0000

> <Gold.PLP.part.metal>
0.0000

> <Gold.PLP.part.buried>
-4.5063

> <Gold.PLP.part.nonpolar>
-24.2638

> <Gold.PLP.part.repulsive>
0.5648

> <Gold.PLP.ligand.clash>
0.0000

> <Gold.PLP.ligand.torsion>
1.2982

> <Gold.PLP.Chemscore.Hbond>
3.2815

> <Gold.PLP.Chemscore.CHOScore>
1.0000

> <Gold.PLP.Chemscore.Metal>
0.0000

> <Gold.Chemscore.Hbonds>
donor molecule, donor type, donor heavy atom, donor atom, acceptor molecule, acceptor atom, score
      L1  H     9    28       P1  7948  1.00
      L1  H    12    29       P1  7948  0.79
      P1  H  7989  7998       L1     4  1.00
      P1  H 10785 10796       L1    19  0.45
      L1  C     5    25       P1  8028  0.73

> <Gold.PLP.Chemscore.Internal.Correction>
0.0398

> <Gold.Rescore>
     Score         DG    S(hbond)    S(metal)    S(lipo)     H(rot)  DE(clash)    DE(int)     intcor
     15.28     -18.37       2.62        0.00      74.31       1.78       0.29       2.80       ----

> <Gold.Chemscore.Fitness>
15.2805

> <Gold.Chemscore.DG>
-18.3736

> <Gold.Chemscore.ZeroCoef>
-5.4800

> <Gold.Chemscore.Hbond>
2.6216

> <Gold.Chemscore.Metal>
0.0000

> <Gold.Chemscore.Lipo>
74.3105

> <Gold.Chemscore.Internal_Hbond>
0.0000

> <Gold.Chemscore.DEClash>
0.2899

> <Gold.Chemscore.DEInternal>
2.8032

> <Gold.Chemscore.Rot>
1.7801

> <Gold.Chemscore.Internal.Correction>
   9.000000E+99

> <Gold.Chemscore.Hbonds>
donor molecule, donor type, donor heavy atom, donor atom, acceptor molecule, acceptor atom, score
      L1  H     9    28       P1  7948  0.95
      L1  H    12    29       P1  7948  0.74
      P1  H  7989  7998       L1     4  0.30
      P1  H 10785 10796       L1    19  0.15

> <Gold.Chemscore.Hbond.Weighted>
-8.7563

> <Gold.Chemscore.Metal.Weighted>
-0.0000

> <Gold.Chemscore.Lipo.Weighted>
-8.6943

> <Gold.Chemscore.Internal_Hbond.Weighted>
0.0000

> <Gold.Chemscore.DEClash.Weighted>
0.2899

> <Gold.Chemscore.DEInternal.Weighted>
2.8032

> <Gold.Chemscore.Rot.Weighted>
4.5570

> <Gold.Chemscore.Internal.Correction.Weighted>
   9.000000E+99

> <Gold.Protein.RotatedTorsions>
[ 6907 6896 6895 6894 ] final  -39.15 input  -60.11 | X-H torsion
[ 7974 7965 7964 7962 ] final  -17.71 input  175.53 | X-H torsion
[ 8008 7997 7996 7995 ] final  -19.14 input   59.86 | X-H torsion
[ 10167 10162 10161 10158 ] final  -86.06 input  -65.29 | X-H torsion
[ 10718 10713 10712 10709 ] final   95.90 input   66.30 | X-H torsion
[ 10763 10752 10751 10750 ] final   48.49 input  -60.55 | X-H torsion
[ 11005 11000 10999 10996 ] final  -94.05 input  -57.11 | X-H torsion

> <Gold.Protein.ActiveResidues>
 VAL166  LYS551  ARG553  GLY616  TRP617  ASP618  TYR619  PRO620  LYS621  CYS622 
 ASP623  PHE694  ASN695  SER759  ASP760  ASP761  ALA762  ILE779  LEU786  VAL792 
 PHE793  MET794  SER795  GLU796  ALA797  LYS798  CYS799  TRP800  GLU811  SER814 

> <Gold.Protein.RotatedAtoms>
  150.9938  134.9266  159.7914 H   0  0  0  0  0  0  0  0  0  0  0  0  # atno 6907 bound_to 6896
  152.5258  134.3246  159.9171 H   0  0  0  0  0  0  0  0  0  0  0  0  # atno 6908 bound_to 6896
  151.3252  133.3982  159.2692 H   0  0  0  0  0  0  0  0  0  0  0  0  # atno 6909 bound_to 6896
  146.1928  140.3818  142.8452 H   0  0  0  0  0  0  0  0  0  0  0  0  # atno 7974 bound_to 7965
  154.4857  140.2097  155.9661 H   0  0  0  0  0  0  0  0  0  0  0  0  # atno 8008 bound_to 7997
  156.1232  140.3210  155.8208 H   0  0  0  0  0  0  0  0  0  0  0  0  # atno 8009 bound_to 7997
  155.4430  140.0511  157.2999 H   0  0  0  0  0  0  0  0  0  0  0  0  # atno 8010 bound_to 7997
  140.3978  143.2676  151.9182 H   0  0  0  0  0  0  0  0  0  0  0  0  # atno 10167 bound_to 10162
  157.6933  131.0561  150.4410 H   0  0  0  0  0  0  0  0  0  0  0  0  # atno 10718 bound_to 10713
  152.9791  135.5942  154.3935 H   0  0  0  0  0  0  0  0  0  0  0  0  # atno 10763 bound_to 10752
  154.3588  135.2767  155.2333 H   0  0  0  0  0  0  0  0  0  0  0  0  # atno 10764 bound_to 10752
  154.4340  135.6029  153.6142 H   0  0  0  0  0  0  0  0  0  0  0  0  # atno 10765 bound_to 10752
  141.1481  133.7930  157.0245 H   0  0  0  0  0  0  0  0  0  0  0  0  # atno 11005 bound_to 11000
  144.8520  140.7014  143.6162 LP  0  0  0  0  0  0  0  0  0  0  0  0  # atno 17320 bound_to 7965
  145.3740  139.1652  143.4317 LP  0  0  0  0  0  0  0  0  0  0  0  0  # atno 17321 bound_to 7965
  139.4786  144.5664  151.8158 LP  0  0  0  0  0  0  0  0  0  0  0  0  # atno 17342 bound_to 10162
  140.4772  144.1502  150.5927 LP  0  0  0  0  0  0  0  0  0  0  0  0  # atno 17343 bound_to 10162
  156.4768  130.4065  149.6485 LP  0  0  0  0  0  0  0  0  0  0  0  0  # atno 17370 bound_to 10713
  156.3545  130.7449  151.2413 LP  0  0  0  0  0  0  0  0  0  0  0  0  # atno 17371 bound_to 10713
  140.0794  134.9657  157.1599 LP  0  0  0  0  0  0  0  0  0  0  0  0  # atno 17394 bound_to 11000
  140.3598  134.2507  155.7188 LP  0  0  0  0  0  0  0  0  0  0  0  0  # atno 17395 bound_to 11000

$$$$
