AV-unprocessed.smi:2001|AV-procd|sdf|8103|dock5
  -GOLD-   2272010323D 1   1.00000     0.00000
 Structure written by MMmdl.
 50 51  0  0  0  0  0  0  0  0  1 V2000
  149.8018  131.0624  157.0641 C   0  0  0  0  0  0  0  0  0  0  0  0
  149.4681  132.2841  157.6996 O   0  0  0  0  0  0  0  0  0  0  0  0
  148.0782  132.5581  157.6521 C   0  0  0  0  0  0  0  0  0  0  0  0
  147.3918  131.8576  158.8348 C   0  0  0  0  0  0  0  0  0  0  0  0
  147.2089  132.7692  159.9689 N   0  0  0  0  0  0  0  0  0  0  0  0
  147.7370  134.0340  159.7682 N   0  0  0  0  0  0  0  0  0  0  0  0
  147.6476  134.9306  160.6970 C   0  0  0  0  0  0  0  0  0  0  0  0
  148.1959  136.3039  160.5197 C   0  0  0  0  0  0  0  0  0  0  0  0
  148.1662  137.1382  161.4261 O   0  0  0  0  0  0  0  0  0  0  0  0
  148.7182  136.5645  159.3078 N   0  0  0  0  0  0  0  0  0  0  0  0
  149.2960  137.8393  158.9021 C   0  0  0  0  0  0  0  0  0  0  0  0
  150.7696  137.6770  158.4862 C   0  0  0  0  0  0  0  0  0  0  0  0
  151.1774  138.4924  157.3439 N   0  0  0  0  0  0  0  0  0  0  0  0
  150.8351  139.8935  157.5529 C   0  0  0  0  0  0  0  0  0  0  0  0
  151.2960  140.7790  156.3814 C   0  0  2  0  0  0  0  0  0  0  0  0
  150.8700  142.2400  156.5607 C   0  0  0  0  0  0  0  0  0  0  0  0
  150.7213  140.2948  155.1692 O   0  0  0  0  0  0  0  0  0  0  0  0
  150.9683  138.9165  154.8862 C   0  0  1  0  0  0  0  0  0  0  0  0
  152.4121  138.6813  154.4113 C   0  0  0  0  0  0  0  0  0  0  0  0
  150.5728  138.0402  156.0920 C   0  0  0  0  0  0  0  0  0  0  0  0
  146.9986  134.6294  161.9619 C   0  0  0  0  0  0  0  0  0  0  0  0
  146.4881  133.3917  162.1427 C   0  0  0  0  0  0  0  0  0  0  0  0
  146.5749  132.3595  161.1088 C   0  0  0  0  0  0  0  0  0  0  0  0
  146.1219  131.2243  161.2516 O   0  0  0  0  0  0  0  0  0  0  0  0
  150.8769  130.8958  157.1315 H   0  0  0  0  0  0  0  0  0  0  0  0
  149.5304  131.0805  156.0077 H   0  0  0  0  0  0  0  0  0  0  0  0
  149.2998  130.2193  157.5406 H   0  0  0  0  0  0  0  0  0  0  0  0
  147.9112  133.6353  157.6991 H   0  0  0  0  0  0  0  0  0  0  0  0
  147.6604  132.2001  156.7098 H   0  0  0  0  0  0  0  0  0  0  0  0
  146.4249  131.4669  158.5121 H   0  0  0  0  0  0  0  0  0  0  0  0
  147.9706  130.9839  159.1394 H   0  0  0  0  0  0  0  0  0  0  0  0
  148.7066  135.8271  158.6179 H   0  0  0  0  0  0  0  0  0  0  0  0
  148.7150  138.2234  158.0632 H   0  0  0  0  0  0  0  0  0  0  0  0
  149.1844  138.5594  159.7132 H   0  0  0  0  0  0  0  0  0  0  0  0
  151.4203  137.8870  159.3367 H   0  0  0  0  0  0  0  0  0  0  0  0
  150.9276  136.6256  158.2416 H   0  0  0  0  0  0  0  0  0  0  0  0
  149.7565  139.9943  157.6859 H   0  0  0  0  0  0  0  0  0  0  0  0
  151.2967  140.2519  158.4740 H   0  0  0  0  0  0  0  0  0  0  0  0
  152.3833  140.7458  156.3057 H   0  0  0  0  0  0  0  0  0  0  0  0
  151.2929  142.6622  157.4726 H   0  0  0  0  0  0  0  0  0  0  0  0
  149.7852  142.3305  156.6206 H   0  0  0  0  0  0  0  0  0  0  0  0
  151.2097  142.8504  155.7236 H   0  0  0  0  0  0  0  0  0  0  0  0
  150.3144  138.6540  154.0541 H   0  0  0  0  0  0  0  0  0  0  0  0
  152.5508  137.6487  154.0902 H   0  0  0  0  0  0  0  0  0  0  0  0
  153.1403  138.8775  155.1981 H   0  0  0  0  0  0  0  0  0  0  0  0
  152.6525  139.3249  153.5649 H   0  0  0  0  0  0  0  0  0  0  0  0
  150.8503  137.0081  155.8816 H   0  0  0  0  0  0  0  0  0  0  0  0
  149.4863  138.0509  156.1922 H   0  0  0  0  0  0  0  0  0  0  0  0
  146.9198  135.3718  162.7428 H   0  0  0  0  0  0  0  0  0  0  0  0
  146.0012  133.1544  163.0773 H   0  0  0  0  0  0  0  0  0  0  0  0
  1  2  1  0  0  0  0
  1 25  1  0  0  0  0
  1 26  1  0  0  0  0
  1 27  1  0  0  0  0
  2  3  1  0  0  0  0
  3  4  1  0  0  0  0
  3 28  1  0  0  0  0
  3 29  1  0  0  0  0
  4  5  1  0  0  0  0
  4 30  1  0  0  0  0
  4 31  1  0  0  0  0
  5 23  1  0  0  0  0
  5  6  1  0  0  0  0
  6  7  2  0  0  0  0
  7  8  1  0  0  0  0
  7 21  1  0  0  0  0
  8  9  2  0  0  0  0
  8 10  1  0  0  0  0
 10 11  1  0  0  0  0
 10 32  1  0  0  0  0
 11 12  1  0  0  0  0
 11 33  1  0  0  0  0
 11 34  1  0  0  0  0
 12 13  1  0  0  0  0
 12 35  1  0  0  0  0
 12 36  1  0  0  0  0
 13 20  1  0  0  0  0
 13 14  1  0  0  0  0
 14 15  1  0  0  0  0
 14 37  1  0  0  0  0
 14 38  1  0  0  0  0
 15 16  1  0  0  0  0
 15 17  1  0  0  0  0
 15 39  1  0  0  0  0
 16 40  1  0  0  0  0
 16 41  1  0  0  0  0
 16 42  1  0  0  0  0
 17 18  1  0  0  0  0
 18 19  1  0  0  0  0
 18 20  1  0  0  0  0
 18 43  1  0  0  0  0
 19 44  1  0  0  0  0
 19 45  1  0  0  0  0
 19 46  1  0  0  0  0
 20 47  1  0  0  0  0
 20 48  1  0  0  0  0
 21 22  2  0  0  0  0
 21 49  1  0  0  0  0
 22 23  1  0  0  0  0
 22 50  1  0  0  0  0
 23 24  2  0  0  0  0
M  END
> <s_m_source_file>
AV-unprocessed.smi

> <i_m_source_file_index>
2001

> <i_lp_mmshare_version>
43012

> <i_f3d_flags>
0

> <s_epik_input>
W0NIM11PW0NIMl1bQ0gyXW4xbmMoW2NIXVtjSF1jMT1PKUMoPU8pW05IXVtDSDJdW0NIMl1OMltDSDJdW0NAQEhdKFtDSDNdKU9bQ0BASF0oW0NIM10pW0NIMl0y

> <s_epik_cmdline>
J2VwaWtfcHl0aG9uJywgJy1waCcsICc3LjAnLCAnLXRuJywgJzgnLCAnLW1hJywgJzIwMCcsICctbWV0YWxfYmluZGluZycsICctaW1hZScsICc8aW5maWxlLm1hZT4nLCAnLW9tYWUnLCAnPG91dGZpbGUubWFlPic=

> <r_lp_tautomer_probability>
1

> <r_epik_Ionization_Penalty>
0.206669

> <r_epik_Ionization_Penalty_Charging>
5.55992e-09

> <r_epik_Ionization_Penalty_Neutral>
0.206669

> <r_epik_State_Penalty>
0.196651

> <r_epik_Charging_Adjusted_Penalty>
0.196651

> <i_epik_Tot_Q>
0

> <i_epik_Tot_abs_Q>
0

> <r_epik_Metal_State_Penalty>
0.198372

> <b_epik_Metal_Only>
0

> <s_lp_Force_Field>
OPLS_2005

> <r_lp_Energy>
40.7423

> <b_lp_Chiralities_Consistent>
1

> <s_lp_Variant>
AV-unprocessed.smi:2001-2

> <Gold.Version>
5.8.1

> <Gold.Id.Protein>
6NUR|6NUR_protein|mol2

> <Gold.PLP.Fitness>
47.0208

> <Gold.PLP.PLP>
-37.0080

> <Gold.PLP.part.hbond>
-4.0000

> <Gold.PLP.part.metal>
0.0000

> <Gold.PLP.part.buried>
-5.6650

> <Gold.PLP.part.nonpolar>
-28.2203

> <Gold.PLP.part.repulsive>
0.2637

> <Gold.PLP.ligand.clash>
0.0000

> <Gold.PLP.ligand.torsion>
0.7114

> <Gold.PLP.Chemscore.Hbond>
3.7360

> <Gold.PLP.Chemscore.CHOScore>
0.0000

> <Gold.PLP.Chemscore.Metal>
0.0000

> <Gold.Chemscore.Hbonds>
donor molecule, donor type, donor heavy atom, donor atom, acceptor molecule, acceptor atom, score
      P1  H  6931  6943       L1     9  0.89
      P1  H  6934  6947       L1     9  0.40
      P1  H  7989  7998       L1    17  0.60

> <Gold.PLP.Chemscore.Internal.Correction>
0.2276

> <Gold.Rescore>
     Score         DG    S(hbond)    S(metal)    S(lipo)     H(rot)  DE(clash)    DE(int)     intcor
     20.21     -21.12       3.57        0.00      75.47       2.00       0.04       0.88       ----

> <Gold.Chemscore.Fitness>
20.2122

> <Gold.Chemscore.DG>
-21.1226

> <Gold.Chemscore.ZeroCoef>
-5.4800

> <Gold.Chemscore.Hbond>
3.5742

> <Gold.Chemscore.Metal>
0.0000

> <Gold.Chemscore.Lipo>
75.4695

> <Gold.Chemscore.Internal_Hbond>
0.0000

> <Gold.Chemscore.DEClash>
0.0353

> <Gold.Chemscore.DEInternal>
0.8750

> <Gold.Chemscore.Rot>
2.0020

> <Gold.Chemscore.Internal.Correction>
   9.000000E+99

> <Gold.Chemscore.Hbonds>
donor molecule, donor type, donor heavy atom, donor atom, acceptor molecule, acceptor atom, score
      P1  H  6896  6909       L1     2  0.02
      P1  H  6931  6943       L1     9  0.87
      P1  H  6934  6947       L1     9  0.36
      P1  H  7989  7998       L1    17  0.04

> <Gold.Chemscore.Hbond.Weighted>
-11.9378

> <Gold.Chemscore.Metal.Weighted>
-0.0000

> <Gold.Chemscore.Lipo.Weighted>
-8.8299

> <Gold.Chemscore.Internal_Hbond.Weighted>
0.0000

> <Gold.Chemscore.DEClash.Weighted>
0.0353

> <Gold.Chemscore.DEInternal.Weighted>
0.8750

> <Gold.Chemscore.Rot.Weighted>
5.1252

> <Gold.Chemscore.Internal.Correction.Weighted>
   9.000000E+99

> <Gold.Protein.RotatedTorsions>
[ 6907 6896 6895 6894 ] final   -9.22 input  -60.11 | X-H torsion
[ 7974 7965 7964 7962 ] final  -60.94 input  175.53 | X-H torsion
[ 8008 7997 7996 7995 ] final -126.61 input   59.86 | X-H torsion
[ 10167 10162 10161 10158 ] final -154.73 input  -65.29 | X-H torsion
[ 10718 10713 10712 10709 ] final   72.45 input   66.30 | X-H torsion
[ 10763 10752 10751 10750 ] final  105.62 input  -60.55 | X-H torsion
[ 11005 11000 10999 10996 ] final   63.42 input  -57.11 | X-H torsion

> <Gold.Protein.ActiveResidues>
 VAL166  LYS551  ARG553  GLY616  TRP617  ASP618  TYR619  PRO620  LYS621  CYS622 
 ASP623  PHE694  ASN695  SER759  ASP760  ASP761  ALA762  ILE779  LEU786  VAL792 
 PHE793  MET794  SER795  GLU796  ALA797  LYS798  CYS799  TRP800  GLU811  SER814 

> <Gold.Protein.RotatedAtoms>
  151.4212  135.0998  159.9614 H   0  0  0  0  0  0  0  0  0  0  0  0  # atno 6907 bound_to 6896
  152.4988  133.8706  159.7307 H   0  0  0  0  0  0  0  0  0  0  0  0  # atno 6908 bound_to 6896
  150.9222  133.6809  159.2857 H   0  0  0  0  0  0  0  0  0  0  0  0  # atno 6909 bound_to 6896
  145.8095  140.8607  143.0189 H   0  0  0  0  0  0  0  0  0  0  0  0  # atno 7974 bound_to 7965
  155.2325  140.0426  157.2964 H   0  0  0  0  0  0  0  0  0  0  0  0  # atno 8008 bound_to 7997
  154.5879  140.2419  155.7932 H   0  0  0  0  0  0  0  0  0  0  0  0  # atno 8009 bound_to 7997
  156.2239  140.2961  156.0027 H   0  0  0  0  0  0  0  0  0  0  0  0  # atno 8010 bound_to 7997
  139.6989  143.9295  152.2420 H   0  0  0  0  0  0  0  0  0  0  0  0  # atno 10167 bound_to 10162
  157.6501  130.9579  150.0931 H   0  0  0  0  0  0  0  0  0  0  0  0  # atno 10718 bound_to 10713
  153.3818  135.3904  155.1862 H   0  0  0  0  0  0  0  0  0  0  0  0  # atno 10763 bound_to 10752
  154.8708  135.3727  154.4847 H   0  0  0  0  0  0  0  0  0  0  0  0  # atno 10764 bound_to 10752
  153.5325  135.7085  153.5737 H   0  0  0  0  0  0  0  0  0  0  0  0  # atno 10765 bound_to 10752
  140.0026  134.6419  155.9907 H   0  0  0  0  0  0  0  0  0  0  0  0  # atno 11005 bound_to 11000
  144.6759  140.0374  143.7481 LP  0  0  0  0  0  0  0  0  0  0  0  0  # atno 17320 bound_to 7965
  145.9793  139.2929  143.1052 LP  0  0  0  0  0  0  0  0  0  0  0  0  # atno 17321 bound_to 7965
  139.9132  144.6844  150.8540 LP  0  0  0  0  0  0  0  0  0  0  0  0  # atno 17342 bound_to 10162
  140.7704  143.3428  151.2173 LP  0  0  0  0  0  0  0  0  0  0  0  0  # atno 17343 bound_to 10162
  156.1874  130.3653  149.8954 LP  0  0  0  0  0  0  0  0  0  0  0  0  # atno 17370 bound_to 10713
  156.6891  130.8888  151.3586 LP  0  0  0  0  0  0  0  0  0  0  0  0  # atno 17371 bound_to 10713
  141.1653  133.6537  156.4458 LP  0  0  0  0  0  0  0  0  0  0  0  0  # atno 17394 bound_to 11000
  140.4700  134.6762  157.5125 LP  0  0  0  0  0  0  0  0  0  0  0  0  # atno 17395 bound_to 11000

$$$$
