#       Name:                AV-unprocessed.smi:3335
#       Creating user name   scv26
#       Creation time:       Fri Mar 27 19:23:47 2020


#       File generated by GOLD software.
#

@<TRIPOS>MOLECULE
AV-unprocessed.smi:3335
    50    51     1
SMALL
NO_CHARGES


@<TRIPOS>ATOM
      1 ****        -4.8997  -2.4294   3.3844 C.3            1 S1                 0.0000
      2 ****        -3.7280  -1.7025   2.7902 C.2            1 S1                 0.0000
      3 ****        -2.3475  -1.8801   3.0888 C.2            1 S1                 0.0000
      4 ****        -1.5625  -1.0794   2.3872 N.2            1 S1                 0.0000
      5 ****        -2.4103  -0.3606   1.6174 N.pl3          1 S1                 0.0000
      6 ****        -1.8951   0.6379   0.6884 C.3            1 S1                 0.0000
      7 ****        -1.1283   1.7297   1.4596 C.3            1 S1                 0.0000
      8 ****        -1.0522  -0.0065  -0.4461 C.3            1 S1                 0.0000
      9 ****        -1.7415  -1.2128  -1.1118 C.3            1 S1                 0.0000
     10 ****        -0.8178   0.9861  -1.4957 N.3            1 S1                 0.0000
     11 ****         0.5822   1.4333  -1.6197 C.3            1 S1                 0.0000
     12 ****         0.6627   2.6107  -2.6027 C.3            1 S1                 0.0000
     13 ****         1.5375   0.3059  -2.0725 C.2            1 S1                 0.0000
     14 ****         1.1815  -0.4368  -2.9891 O.2            1 S1                 0.0000
     15 ****         2.7316   0.1553  -1.4588 N.am           1 S1                 0.0000
     16 ****         3.2743   0.9964  -0.3921 C.3            1 S1                 0.0000
     17 ****         4.7331   0.5706  -0.2258 C.3            1 S1                 0.0000
     18 ****         4.7607  -0.8661  -0.7261 C.3            1 S1                 0.0000
     19 ****         3.6784  -0.9039  -1.8050 C.3            1 S1                 0.0000
     20 ****        -3.7233  -0.7192   1.8418 C.2            1 S1                 0.0000
     21 ****        -5.1827  -2.0111   4.3503 H              1 S1                 0.0000
     22 ****        -4.6811  -3.4857   3.5423 H              1 S1                 0.0000
     23 ****        -5.7781  -2.3769   2.7409 H              1 S1                 0.0000
     24 ****        -1.8951  -2.5647   3.7911 H              1 S1                 0.0000
     25 ****        -2.7669   1.1115   0.2337 H              1 S1                 0.0000
     26 ****        -0.8758   2.5704   0.8138 H              1 S1                 0.0000
     27 ****        -0.1998   1.3448   1.8820 H              1 S1                 0.0000
     28 ****        -1.7290   2.1245   2.2797 H              1 S1                 0.0000
     29 ****        -0.1128  -0.3595  -0.0182 H              1 S1                 0.0000
     30 ****        -1.8729  -2.0378  -0.4116 H              1 S1                 0.0000
     31 ****        -1.1511  -1.5972  -1.9440 H              1 S1                 0.0000
     32 ****        -2.7256  -0.9453  -1.4980 H              1 S1                 0.0000
     33 ****        -1.1734   0.6435  -2.3769 H              1 S1                 0.0000
     34 ****         0.8796   1.8078  -0.6421 H              1 S1                 0.0000
     35 ****         1.6810   2.9943  -2.6784 H              1 S1                 0.0000
     36 ****         0.0279   3.4352  -2.2771 H              1 S1                 0.0000
     37 ****         0.3411   2.3207  -3.6039 H              1 S1                 0.0000
     38 ****         3.2043   2.0591  -0.6281 H              1 S1                 0.0000
     39 ****         2.7168   0.8101   0.5272 H              1 S1                 0.0000
     40 ****         5.3689   1.1892  -0.8605 H              1 S1                 0.0000
     41 ****         5.0885   0.6690   0.8002 H              1 S1                 0.0000
     42 ****         5.7403  -1.1672  -1.0982 H              1 S1                 0.0000
     43 ****         4.4900  -1.5407   0.0872 H              1 S1                 0.0000
     44 ****         3.2001  -1.8837  -1.8505 H              1 S1                 0.0000
     45 ****         4.1073  -0.6900  -2.7852 H              1 S1                 0.0000
     46 ****        -4.5391  -0.2510   1.3106 H              1 S1                 0.0000
     47 ****        -0.5648  -1.0191   2.4191 LP             1 S1                 0.0000
     48 ****        -1.3196   1.8063  -1.2209 LP             1 S1                 0.0000
     49 ****         0.2908  -0.3033  -3.4235 LP             1 S1                 0.0000
     50 ****         1.7834  -1.1729  -3.2985 LP             1 S1                 0.0000
@<TRIPOS>BOND
    1    1    2 1     
    2    1   21 1     
    3    1   22 1     
    4    1   23 1     
    5    2   20 2     
    6    2    3 1     
    7    3    4 2     
    8    3   24 1     
    9    4    5 1     
   10    5    6 1     
   11    5   20 1     
   12    6    7 1     
   13    6    8 1     
   14    6   25 1     
   15    7   26 1     
   16    7   27 1     
   17    7   28 1     
   18    8    9 1     
   19    8   10 1     
   20    8   29 1     
   21    9   30 1     
   22    9   31 1     
   23    9   32 1     
   24   10   11 1     
   25   10   33 1     
   26   11   12 1     
   27   11   13 1     
   28   11   34 1     
   29   12   35 1     
   30   12   36 1     
   31   12   37 1     
   32   13   14 2     
   33   13   15 am    
   34   15   19 1     
   35   15   16 1     
   36   16   17 1     
   37   16   38 1     
   38   16   39 1     
   39   17   18 1     
   40   17   40 1     
   41   17   41 1     
   42   18   19 1     
   43   18   42 1     
   44   18   43 1     
   45   19   44 1     
   46   19   45 1     
   47   20   46 1     
   48    4   47 1     
   49   10   48 1     
   50   14   49 1     
   51   14   50 1     
@<TRIPOS>SUBSTRUCTURE
      1 S1             1
@<TRIPOS>SET
LONE_PAIRS      STATIC     ATOMS    <user>   **** ""
4 47 48 49 50
DONOR_HYDROGENS      STATIC     ATOMS    <user>   **** ""
1 33
ATOM$BLUE        STATIC     ATOMS    COLORGROUP SYSTEM
4 47 48 49 50
ATOM$RED        STATIC     ATOMS    COLORGROUP SYSTEM
1 33
