AV-unprocessed.smi:610|AV-procd|sdf|3054|dock8
  -GOLD-   2262023573D 1   1.00000     0.00000
 Structure written by MMmdl.
 39 40  0  0  0  0  0  0  0  0  3 V2000
  147.5958  137.1401  154.7182 C   0  0  0  0  0  0  0  0  0  0  0  0
  146.8210  137.8722  153.6141 C   0  0  1  0  0  0  0  0  0  0  0  0
  147.6091  139.0970  153.1017 C   0  0  0  0  0  0  0  0  0  0  0  0
  147.5370  140.2484  154.0083 N   0  0  0  0  0  0  0  0  0  0  0  0
  146.7368  140.3863  155.1135 C   0  0  0  0  0  0  0  0  0  0  0  0
  147.0083  141.6225  155.6408 C   0  0  0  0  0  0  0  0  0  0  0  0
  147.9676  142.1832  154.8410 N   0  3  0  0  0  0  0  0  0  0  0  0
  148.2932  141.3431  153.8532 C   0  0  0  0  0  0  0  0  0  0  0  0
  146.5469  136.9303  152.5293 N   0  0  0  0  0  0  0  0  0  0  0  0
  145.3317  136.5694  152.0808 C   0  0  0  0  0  0  0  0  0  0  0  0
  144.2915  137.0145  152.5667 O   0  0  0  0  0  0  0  0  0  0  0  0
  145.2498  135.5460  150.9230 C   0  0  0  0  0  0  0  0  0  0  0  0
  145.5927  136.2638  149.6815 N   0  3  0  0  0  0  0  0  0  0  0  0
  146.2035  134.3603  151.1639 C   0  0  0  0  0  0  0  0  0  0  0  0
  145.4224  133.3712  152.0424 C   0  0  0  0  0  0  0  0  0  0  0  0
  143.9347  133.6986  151.8394 C   0  0  0  0  0  0  0  0  0  0  0  0
  143.8934  134.8220  150.7953 C   0  0  0  0  0  0  0  0  0  0  0  0
  147.7919  137.8003  155.5637 H   0  0  0  0  0  0  0  0  0  0  0  0
  148.5564  136.7736  154.3541 H   0  0  0  0  0  0  0  0  0  0  0  0
  147.0332  136.2849  155.0941 H   0  0  0  0  0  0  0  0  0  0  0  0
  145.8818  138.2135  154.0537 H   0  0  0  0  0  0  0  0  0  0  0  0
  148.6651  138.8469  152.9920 H   0  0  0  0  0  0  0  0  0  0  0  0
  147.2544  139.4029  152.1159 H   0  0  0  0  0  0  0  0  0  0  0  0
  146.0471  139.6174  155.4307 H   0  0  0  0  0  0  0  0  0  0  0  0
  146.6023  142.1308  156.5035 H   0  0  0  0  0  0  0  0  0  0  0  0
  149.0188  141.5190  153.0792 H   0  0  0  0  0  0  0  0  0  0  0  0
  147.3526  136.5162  152.0827 H   0  0  0  0  0  0  0  0  0  0  0  0
  144.8620  136.9238  149.4572 H   0  0  0  0  0  0  0  0  0  0  0  0
  145.6886  135.5974  148.9281 H   0  0  0  0  0  0  0  0  0  0  0  0
  146.4412  133.8789  150.2139 H   0  0  0  0  0  0  0  0  0  0  0  0
  147.1550  134.6412  151.6177 H   0  0  0  0  0  0  0  0  0  0  0  0
  145.6511  132.3399  151.7714 H   0  0  0  0  0  0  0  0  0  0  0  0
  145.6921  133.4977  153.0911 H   0  0  0  0  0  0  0  0  0  0  0  0
  143.3622  132.8291  151.5148 H   0  0  0  0  0  0  0  0  0  0  0  0
  143.5012  134.0415  152.7798 H   0  0  0  0  0  0  0  0  0  0  0  0
  143.0215  135.4677  150.9079 H   0  0  0  0  0  0  0  0  0  0  0  0
  143.8138  134.3731  149.8037 H   0  0  0  0  0  0  0  0  0  0  0  0
  146.4662  136.7552  149.8055 H   0  0  0  0  0  0  0  0  0  0  0  0
  148.3775  143.0987  154.9797 H   0  0  0  0  0  0  0  0  0  0  0  0
  1  2  1  0  0  0  0
  1 18  1  0  0  0  0
  1 19  1  0  0  0  0
  1 20  1  0  0  0  0
  2  3  1  0  0  0  0
  2  9  1  0  0  0  0
  2 21  1  0  0  0  0
  3  4  1  0  0  0  0
  3 22  1  0  0  0  0
  3 23  1  0  0  0  0
  4  8  1  0  0  0  0
  4  5  1  0  0  0  0
  5  6  2  0  0  0  0
  5 24  1  0  0  0  0
  6  7  1  0  0  0  0
  6 25  1  0  0  0  0
  7  8  2  0  0  0  0
  7 39  1  0  0  0  0
  8 26  1  0  0  0  0
  9 10  1  0  0  0  0
  9 27  1  0  0  0  0
 10 11  2  0  0  0  0
 10 12  1  0  0  0  0
 12 17  1  0  0  0  0
 12 13  1  0  0  0  0
 12 14  1  0  0  0  0
 13 28  1  0  0  0  0
 13 29  1  0  0  0  0
 13 38  1  0  0  0  0
 14 15  1  0  0  0  0
 14 30  1  0  0  0  0
 14 31  1  0  0  0  0
 15 16  1  0  0  0  0
 15 32  1  0  0  0  0
 15 33  1  0  0  0  0
 16 17  1  0  0  0  0
 16 34  1  0  0  0  0
 16 35  1  0  0  0  0
 17 36  1  0  0  0  0
 17 37  1  0  0  0  0
M  CHG  1   7   1
M  CHG  1  13   1
M  END
> <s_m_source_file>
AV-unprocessed.smi

> <i_m_source_file_index>
610

> <i_lp_mmshare_version>
43012

> <i_f3d_flags>
0

> <s_epik_input>
W2NIXTFuW2NIXVtjSF1uMVtDSDJdW0NAQEhdKFtDSDNdKVtOSF1DKD1PKUMyKFtOSDJdKVtDSDJdW0NIMl1bQ0gyXVtDSDJdMg==

> <s_epik_cmdline>
J2VwaWtfcHl0aG9uJywgJy1waCcsICc3LjAnLCAnLXRuJywgJzgnLCAnLW1hJywgJzIwMCcsICctbWV0YWxfYmluZGluZycsICctaW1hZScsICc8aW5maWxlLm1hZT4nLCAnLW9tYWUnLCAnPG91dGZpbGUubWFlPic=

> <r_lp_tautomer_probability>
1

> <r_epik_Ionization_Penalty>
0.349719

> <r_epik_Ionization_Penalty_Charging>
0.0753376

> <r_epik_Ionization_Penalty_Neutral>
0.274381

> <r_epik_State_Penalty>
0.326418

> <r_epik_Charging_Adjusted_Penalty>
0.401755

> <i_epik_Tot_Q>
2

> <i_epik_Tot_abs_Q>
2

> <r_epik_Metal_State_Penalty>
0.608513

> <b_epik_Metal_Only>
0

> <s_lp_Force_Field>
OPLS_2005

> <r_lp_Energy>
30.9651

> <b_lp_Chiralities_Consistent>
1

> <s_lp_Variant>
AV-unprocessed.smi:610-2

> <Gold.Version>
5.8.1

> <Gold.Id.Protein>
6NUR|6NUR_protein|mol2

> <Gold.PLP.Fitness>
42.1206

> <Gold.PLP.PLP>
-25.9717

> <Gold.PLP.part.hbond>
-4.0000

> <Gold.PLP.part.metal>
0.0000

> <Gold.PLP.part.buried>
-1.3846

> <Gold.PLP.part.nonpolar>
-20.8381

> <Gold.PLP.part.repulsive>
0.5515

> <Gold.PLP.ligand.clash>
0.0000

> <Gold.PLP.ligand.torsion>
0.9013

> <Gold.PLP.Chemscore.Hbond>
5.0000

> <Gold.PLP.Chemscore.CHOScore>
0.9643

> <Gold.PLP.Chemscore.Metal>
0.0000

> <Gold.Chemscore.Hbonds>
donor molecule, donor type, donor heavy atom, donor atom, acceptor molecule, acceptor atom, score
      L1  H     7    39       P1  8028  2.00
      L1  H     9    27       P1  7948  1.00
      L1  H    13    28       P1 10171  1.00
      L1  H    13    29       P1  7921  1.00
      L1  C     8    26       P1  7957  0.98

> <Gold.PLP.Chemscore.Internal.Correction>
0.0587

> <Gold.Rescore>
     Score         DG    S(hbond)    S(metal)    S(lipo)     H(rot)  DE(clash)    DE(int)     intcor
     18.06     -18.52       3.99        0.00      42.71       2.06       0.11       0.35       ----

> <Gold.Chemscore.Fitness>
18.0632

> <Gold.Chemscore.DG>
-18.5195

> <Gold.Chemscore.ZeroCoef>
-5.4800

> <Gold.Chemscore.Hbond>
3.9903

> <Gold.Chemscore.Metal>
0.0000

> <Gold.Chemscore.Lipo>
42.7082

> <Gold.Chemscore.Internal_Hbond>
0.0000

> <Gold.Chemscore.DEClash>
0.1112

> <Gold.Chemscore.DEInternal>
0.3451

> <Gold.Chemscore.Rot>
2.0644

> <Gold.Chemscore.Internal.Correction>
   9.000000E+99

> <Gold.Chemscore.Hbonds>
donor molecule, donor type, donor heavy atom, donor atom, acceptor molecule, acceptor atom, score
      L1  H     7    39       P1  8028  1.00
      L1  H     9    27       P1  7948  0.98
      L1  H    13    28       P1 10171  0.96
      L1  H    13    29       P1  7921  0.96

> <Gold.Chemscore.Hbond.Weighted>
-13.3274

> <Gold.Chemscore.Metal.Weighted>
-0.0000

> <Gold.Chemscore.Lipo.Weighted>
-4.9969

> <Gold.Chemscore.Internal_Hbond.Weighted>
0.0000

> <Gold.Chemscore.DEClash.Weighted>
0.1112

> <Gold.Chemscore.DEInternal.Weighted>
0.3451

> <Gold.Chemscore.Rot.Weighted>
5.2848

> <Gold.Chemscore.Internal.Correction.Weighted>
   9.000000E+99

> <Gold.Protein.RotatedTorsions>
[ 6907 6896 6895 6894 ] final  167.43 input  -60.11 | X-H torsion
[ 7974 7965 7964 7962 ] final   72.75 input  175.53 | X-H torsion
[ 8008 7997 7996 7995 ] final   41.37 input   59.86 | X-H torsion
[ 10167 10162 10161 10158 ] final  175.84 input  -65.29 | X-H torsion
[ 10718 10713 10712 10709 ] final  176.00 input   66.30 | X-H torsion
[ 10763 10752 10751 10750 ] final   86.81 input  -60.55 | X-H torsion
[ 11005 11000 10999 10996 ] final  -85.18 input  -57.11 | X-H torsion

> <Gold.Protein.ActiveResidues>
 VAL166  LYS551  ARG553  GLY616  TRP617  ASP618  TYR619  PRO620  LYS621  CYS622 
 ASP623  PHE694  ASN695  SER759  ASP760  ASP761  ALA762  ILE779  LEU786  VAL792 
 PHE793  MET794  SER795  GLU796  ALA797  LYS798  CYS799  TRP800  GLU811  SER814 

> <Gold.Protein.RotatedAtoms>
  151.8635  133.3461  159.3711 H   0  0  0  0  0  0  0  0  0  0  0  0  # atno 6907 bound_to 6896
  150.7172  134.5183  159.5650 H   0  0  0  0  0  0  0  0  0  0  0  0  # atno 6908 bound_to 6896
  152.2701  134.7942  160.0466 H   0  0  0  0  0  0  0  0  0  0  0  0  # atno 6909 bound_to 6896
  145.7495  139.2754  143.1440 H   0  0  0  0  0  0  0  0  0  0  0  0  # atno 7974 bound_to 7965
  155.2686  140.3364  155.4267 H   0  0  0  0  0  0  0  0  0  0  0  0  # atno 8008 bound_to 7997
  156.2143  140.1782  156.7667 H   0  0  0  0  0  0  0  0  0  0  0  0  # atno 8009 bound_to 7997
  154.5731  140.0666  156.8978 H   0  0  0  0  0  0  0  0  0  0  0  0  # atno 8010 bound_to 7997
  139.5192  144.2984  152.0400 H   0  0  0  0  0  0  0  0  0  0  0  0  # atno 10167 bound_to 10162
  156.9265  130.9957  151.2995 H   0  0  0  0  0  0  0  0  0  0  0  0  # atno 10718 bound_to 10713
  153.1607  135.4566  154.9767 H   0  0  0  0  0  0  0  0  0  0  0  0  # atno 10763 bound_to 10752
  154.7895  135.3215  154.7812 H   0  0  0  0  0  0  0  0  0  0  0  0  # atno 10764 bound_to 10752
  153.8303  135.6939  153.4870 H   0  0  0  0  0  0  0  0  0  0  0  0  # atno 10765 bound_to 10752
  141.1644  133.7385  156.8977 H   0  0  0  0  0  0  0  0  0  0  0  0  # atno 11005 bound_to 11000
  146.0370  140.8202  142.9847 LP  0  0  0  0  0  0  0  0  0  0  0  0  # atno 17320 bound_to 7965
  144.6853  140.2854  143.7286 LP  0  0  0  0  0  0  0  0  0  0  0  0  # atno 17321 bound_to 7965
  140.2433  144.4246  150.6251 LP  0  0  0  0  0  0  0  0  0  0  0  0  # atno 17342 bound_to 10162
  140.6275  143.2183  151.6565 LP  0  0  0  0  0  0  0  0  0  0  0  0  # atno 17343 bound_to 10162
  157.5874  130.8419  149.8609 LP  0  0  0  0  0  0  0  0  0  0  0  0  # atno 17370 bound_to 10713
  156.0467  130.3726  150.1301 LP  0  0  0  0  0  0  0  0  0  0  0  0  # atno 17371 bound_to 10713
  140.1604  134.9169  157.2707 LP  0  0  0  0  0  0  0  0  0  0  0  0  # atno 17394 bound_to 11000
  140.2618  134.3562  155.7404 LP  0  0  0  0  0  0  0  0  0  0  0  0  # atno 17395 bound_to 11000

$$$$
