#       Name:                AV-unprocessed.smi:244
#       Creating user name   scv26
#       Creation time:       Thu Mar 26 20:50:13 2020


#       File generated by GOLD software.
#

@<TRIPOS>MOLECULE
AV-unprocessed.smi:244
    67    71     1
SMALL
NO_CHARGES


@<TRIPOS>ATOM
      1 ****        -3.0096   2.5853  -3.4889 C.3            1 S1                 0.0000
      2 ****        -3.0129   1.1086  -3.3719 N.4            1 S1                 1.0000
      3 ****        -4.3641   0.5046  -3.5044 C.3            1 S1                 0.0000
      4 ****        -5.2034   0.6735  -2.2245 C.3            1 S1                 0.0000
      5 ****        -4.4518   0.1131  -1.0110 C.3            1 S1                 0.0000
      6 ****        -5.2187   0.3312   0.1678 O.3            1 S1                 0.0000
      7 ****        -4.5941  -0.2364   1.3145 C.3            1 S1                 0.0000
      8 ****        -3.2210   0.4215   1.5240 C.3            1 S1                 0.0000
      9 ****        -2.4021   0.2875   0.3212 N.3            1 S1                 0.0000
     10 ****        -1.1345   0.7279   0.4923 C.ar           1 S1                 0.0000
     11 ****        -0.9025   1.9940   0.9286 N.ar           1 S1                 0.0000
     12 ****         0.3532   2.4282   1.0753 C.ar           1 S1                 0.0000
     13 ****         1.4948   1.7777   0.8384 N.ar           1 S1                 0.0000
     14 ****         1.2613   0.5091   0.3944 C.ar           1 S1                 0.0000
     15 ****        -0.0132  -0.0885   0.1919 C.ar           1 S1                 0.0000
     16 ****         0.1344  -1.3846  -0.2835 N.2            1 S1                 0.0000
     17 ****         1.4277  -1.5475  -0.3539 C.2            1 S1                 0.0000
     18 ****         2.1803  -0.4642   0.0434 N.pl3          1 S1                 0.0000
     19 ****         3.6322  -0.3733   0.0693 C.3            1 S1                 0.0000
     20 ****         4.2689  -0.8242   1.4078 C.3            1 S1                 0.0000
     21 ****         3.8082   0.0508   2.4227 O.3            1 S1                 0.0000
     22 ****         3.8799  -2.2679   1.7955 C.3            1 S1                 0.0000
     23 ****         4.6810  -2.7795   3.0058 C.3            1 S1                 0.0000
     24 ****         6.0760  -2.6646   2.7537 O.3            1 S1                 0.0000
     25 ****         6.4914  -1.3164   2.5733 C.3            1 S1                 0.0000
     26 ****         5.8052  -0.7158   1.3334 C.3            1 S1                 0.0000
     27 ****        -3.0777   0.8040  -0.8720 C.3            1 S1                 0.0000
     28 ****        -2.2743   0.6058  -2.1839 C.3            1 S1                 0.0000
     29 ****        -3.5486   3.0601  -2.6692 H              1 S1                 0.0000
     30 ****        -3.4754   2.8956  -4.4246 H              1 S1                 0.0000
     31 ****        -1.9881   2.9669  -3.4881 H              1 S1                 0.0000
     32 ****        -4.8836   0.9322  -4.3628 H              1 S1                 0.0000
     33 ****        -4.2428  -0.5581  -3.7187 H              1 S1                 0.0000
     34 ****        -5.4394   1.7259  -2.0637 H              1 S1                 0.0000
     35 ****        -6.1580   0.1593  -2.3391 H              1 S1                 0.0000
     36 ****        -4.3156  -0.9615  -1.1512 H              1 S1                 0.0000
     37 ****        -5.2284  -0.0692   2.1850 H              1 S1                 0.0000
     38 ****        -4.4950  -1.3165   1.1950 H              1 S1                 0.0000
     39 ****        -3.3596   1.4766   1.7651 H              1 S1                 0.0000
     40 ****        -2.7129  -0.0395   2.3724 H              1 S1                 0.0000
     41 ****         0.4595   3.4421   1.4323 H              1 S1                 0.0000
     42 ****         1.8727  -2.4716  -0.6936 H              1 S1                 0.0000
     43 ****         4.0192  -0.9800  -0.7506 H              1 S1                 0.0000
     44 ****         3.9153   0.6559  -0.1572 H              1 S1                 0.0000
     45 ****         4.2072  -0.2012   3.2415 H              1 S1                 0.0000
     46 ****         2.8131  -2.3399   2.0098 H              1 S1                 0.0000
     47 ****         4.0692  -2.9300   0.9495 H              1 S1                 0.0000
     48 ****         4.4168  -2.2321   3.9119 H              1 S1                 0.0000
     49 ****         4.4436  -3.8271   3.1918 H              1 S1                 0.0000
     50 ****         6.2705  -0.7325   3.4682 H              1 S1                 0.0000
     51 ****         7.5737  -1.2979   2.4451 H              1 S1                 0.0000
     52 ****         6.1620  -1.2495   0.4513 H              1 S1                 0.0000
     53 ****         6.1098   0.3237   1.2040 H              1 S1                 0.0000
     54 ****        -3.2387   1.8717  -0.7155 H              1 S1                 0.0000
     55 ****        -2.0660  -0.4549  -2.3309 H              1 S1                 0.0000
     56 ****        -1.3059   1.1056  -2.1399 H              1 S1                 0.0000
     57 ****        -2.4908   0.7863  -4.1744 H              1 S1                 0.0000
     58 ****        -6.1200  -0.0857   0.0499 LP             1 S1                 0.0000
     59 ****        -5.3227   1.3157   0.3092 LP             1 S1                 0.0000
     60 ****        -2.2946  -0.6917   0.1491 LP             1 S1                 0.0000
     61 ****        -1.6698   2.5996   1.1394 LP             1 S1                 0.0000
     62 ****         2.4051   2.1704   0.9697 LP             1 S1                 0.0000
     63 ****        -0.5831  -2.0407  -0.5176 LP             1 S1                 0.0000
     64 ****         2.8133  -0.0150   2.4983 LP             1 S1                 0.0000
     65 ****         4.0640   0.9912   2.1985 LP             1 S1                 0.0000
     66 ****         6.2951  -3.1805   1.9255 LP             1 S1                 0.0000
     67 ****         6.5744  -3.0520   3.5293 LP             1 S1                 0.0000
@<TRIPOS>BOND
    1    1    2 1     
    2    1   29 1     
    3    1   30 1     
    4    1   31 1     
    5    2   28 1     
    6    2    3 1     
    7    2   57 1     
    8    3    4 1     
    9    3   32 1     
   10    3   33 1     
   11    4    5 1     
   12    4   34 1     
   13    4   35 1     
   14    5   27 1     
   15    5    6 1     
   16    5   36 1     
   17    6    7 1     
   18    7    8 1     
   19    7   37 1     
   20    7   38 1     
   21    8    9 1     
   22    8   39 1     
   23    8   40 1     
   24    9   10 1     
   25    9   27 1     
   26   10   15 ar    
   27   10   11 ar    
   28   11   12 ar    
   29   12   13 ar    
   30   12   41 1     
   31   13   14 ar    
   32   14   18 1     
   33   14   15 ar    
   34   15   16 1     
   35   16   17 2     
   36   17   18 1     
   37   17   42 1     
   38   18   19 1     
   39   19   20 1     
   40   19   43 1     
   41   19   44 1     
   42   20   26 1     
   43   20   21 1     
   44   20   22 1     
   45   21   45 1     
   46   22   23 1     
   47   22   46 1     
   48   22   47 1     
   49   23   24 1     
   50   23   48 1     
   51   23   49 1     
   52   24   25 1     
   53   25   26 1     
   54   25   50 1     
   55   25   51 1     
   56   26   52 1     
   57   26   53 1     
   58   27   28 1     
   59   27   54 1     
   60   28   55 1     
   61   28   56 1     
   62    6   58 1     
   63    6   59 1     
   64    9   60 1     
   65   11   61 1     
   66   13   62 1     
   67   16   63 1     
   68   21   64 1     
   69   21   65 1     
   70   24   66 1     
   71   24   67 1     
@<TRIPOS>SUBSTRUCTURE
      1 S1             1
@<TRIPOS>SET
LONE_PAIRS      STATIC     ATOMS    <user>   **** ""
10 58 59 60 61 62 63 64 65 66 67
DONOR_HYDROGENS      STATIC     ATOMS    <user>   **** ""
2 57 45
ATOM$BLUE        STATIC     ATOMS    COLORGROUP SYSTEM
10 58 59 60 61 62 63 64 65 66 67
ATOM$RED        STATIC     ATOMS    COLORGROUP SYSTEM
2 57 45
