#       Name:                AV-unprocessed.smi:2385
#       Creating user name   scv26
#       Creation time:       Fri Mar 27 13:09:21 2020


#       File generated by GOLD software.
#

@<TRIPOS>MOLECULE
AV-unprocessed.smi:2385
    55    57     1
SMALL
NO_CHARGES


@<TRIPOS>ATOM
      1 ****        -6.3743   5.7136   0.9420 C.3            1 S1                 0.0000
      2 ****        -5.2267   4.7267   0.9839 C.ar           1 S1                 0.0000
      3 ****        -5.4624   3.3390   0.9860 C.ar           1 S1                 0.0000
      4 ****        -4.3601   2.4636   1.0239 C.ar           1 S1                 0.0000
      5 ****        -3.0511   2.9942   1.0575 C.ar           1 S1                 0.0000
      6 ****        -2.0118   2.0268   1.0970 N.am           1 S1                 0.0000
      7 ****        -0.6838   2.2337   1.1271 C.2            1 S1                 0.0000
      8 ****        -0.1312   3.3337   1.1161 O.2            1 S1                 0.0000
      9 ****        -0.0139   1.0725   1.1666 N.am           1 S1                 0.0000
     10 ****         1.4415   0.9344   1.2160 C.3            1 S1                 0.0000
     11 ****         2.0907   1.1669  -0.1613 C.3            1 S1                 0.0000
     12 ****         1.7657   0.0330  -1.1495 C.3            1 S1                 0.0000
     13 ****         2.1616  -1.2953  -0.6096 N.4            1 S1                 1.0000
     14 ****         1.9547  -2.3794  -1.6073 C.3            1 S1                 0.0000
     15 ****         2.8872  -3.5941  -1.4054 C.3            1 S1                 0.0000
     16 ****         3.0048  -4.4555  -2.6511 C.3            1 S1                 0.0000
     17 ****         3.4760  -5.7834  -2.0784 C.3            1 S1                 0.0000
     18 ****         2.7197  -5.9170  -0.8861 O.3            1 S1                 0.0000
     19 ****         2.4293  -4.6251  -0.3600 C.3            1 S1                 0.0000
     20 ****         1.5119  -1.5638   0.7017 C.3            1 S1                 0.0000
     21 ****         1.8295  -0.4613   1.7290 C.3            1 S1                 0.0000
     22 ****        -2.8337   4.3329   1.0522 N.ar           1 S1                 0.0000
     23 ****        -3.8907   5.1716   1.0166 C.ar           1 S1                 0.0000
     24 ****        -7.2892   5.2651   1.3308 H              1 S1                 0.0000
     25 ****        -6.5575   6.0332  -0.0839 H              1 S1                 0.0000
     26 ****        -6.1475   6.5951   1.5422 H              1 S1                 0.0000
     27 ****        -6.4691   2.9483   0.9594 H              1 S1                 0.0000
     28 ****        -4.5241   1.3957   1.0272 H              1 S1                 0.0000
     29 ****        -2.3176   1.0652   1.1075 H              1 S1                 0.0000
     30 ****        -0.5528   0.2190   1.1801 H              1 S1                 0.0000
     31 ****         1.8269   1.6753   1.9189 H              1 S1                 0.0000
     32 ****         1.7794   2.1260  -0.5771 H              1 S1                 0.0000
     33 ****         3.1726   1.2316  -0.0389 H              1 S1                 0.0000
     34 ****         0.7003   0.0292  -1.3850 H              1 S1                 0.0000
     35 ****         2.2938   0.2233  -2.0847 H              1 S1                 0.0000
     36 ****         0.9062  -2.6793  -1.6397 H              1 S1                 0.0000
     37 ****         2.1759  -1.9730  -2.5955 H              1 S1                 0.0000
     38 ****         3.8902  -3.2489  -1.1491 H              1 S1                 0.0000
     39 ****         2.0301  -4.5823  -3.1251 H              1 S1                 0.0000
     40 ****         3.6934  -4.0461  -3.3906 H              1 S1                 0.0000
     41 ****         3.3102  -6.6214  -2.7558 H              1 S1                 0.0000
     42 ****         4.5377  -5.7439  -1.8308 H              1 S1                 0.0000
     43 ****         2.9466  -4.4855   0.5895 H              1 S1                 0.0000
     44 ****         1.3568  -4.5652  -0.1729 H              1 S1                 0.0000
     45 ****         0.4333  -1.6542   0.5637 H              1 S1                 0.0000
     46 ****         1.8554  -2.5113   1.1088 H              1 S1                 0.0000
     47 ****         2.8977  -0.4776   1.9494 H              1 S1                 0.0000
     48 ****         1.3240  -0.6709   2.6725 H              1 S1                 0.0000
     49 ****        -3.6616   6.2271   1.0135 H              1 S1                 0.0000
     50 ****         3.1566  -1.2432  -0.4432 H              1 S1                 0.0000
     51 ****        -0.6804   4.1688   1.0823 LP             1 S1                 0.0000
     52 ****         0.8667   3.3923   1.1410 LP             1 S1                 0.0000
     53 ****         3.2452  -6.4397  -0.2148 LP             1 S1                 0.0000
     54 ****         1.8645  -6.3954  -1.0857 LP             1 S1                 0.0000
     55 ****        -1.9015   4.6943   1.0744 LP             1 S1                 0.0000
@<TRIPOS>BOND
    1    1    2 1     
    2    1   24 1     
    3    1   25 1     
    4    1   26 1     
    5    2   23 ar    
    6    2    3 ar    
    7    3    4 ar    
    8    3   27 1     
    9    4    5 ar    
   10    4   28 1     
   11    5    6 1     
   12    5   22 ar    
   13    6    7 am    
   14    6   29 1     
   15    7    8 2     
   16    7    9 am    
   17    9   10 1     
   18    9   30 1     
   19   10   21 1     
   20   10   11 1     
   21   10   31 1     
   22   11   12 1     
   23   11   32 1     
   24   11   33 1     
   25   12   13 1     
   26   12   34 1     
   27   12   35 1     
   28   13   14 1     
   29   13   20 1     
   30   13   50 1     
   31   14   15 1     
   32   14   36 1     
   33   14   37 1     
   34   15   19 1     
   35   15   16 1     
   36   15   38 1     
   37   16   17 1     
   38   16   39 1     
   39   16   40 1     
   40   17   18 1     
   41   17   41 1     
   42   17   42 1     
   43   18   19 1     
   44   19   43 1     
   45   19   44 1     
   46   20   21 1     
   47   20   45 1     
   48   20   46 1     
   49   21   47 1     
   50   21   48 1     
   51   22   23 ar    
   52   23   49 1     
   53    8   51 1     
   54    8   52 1     
   55   18   53 1     
   56   18   54 1     
   57   22   55 1     
@<TRIPOS>SUBSTRUCTURE
      1 S1             1
@<TRIPOS>SET
LONE_PAIRS      STATIC     ATOMS    <user>   **** ""
5 51 52 53 54 55
DONOR_HYDROGENS      STATIC     ATOMS    <user>   **** ""
3 29 30 50
ATOM$BLUE        STATIC     ATOMS    COLORGROUP SYSTEM
5 51 52 53 54 55
ATOM$RED        STATIC     ATOMS    COLORGROUP SYSTEM
3 29 30 50
