AV-unprocessed.smi:1956|AV-procd|sdf|7903|dock1
  -GOLD-   2272010 63D 1   1.00000     0.00000
 Structure written by MMmdl.
 46 47  0  0  0  0  0  0  0  0  2 V2000
  151.5560  141.1021  158.1082 C   0  0  0  0  0  0  0  0  0  0  0  0
  151.5144  141.0059  156.6887 O   0  0  0  0  0  0  0  0  0  0  0  0
  151.1171  139.8111  156.1241 C   0  0  0  0  0  0  0  0  0  0  0  0
  151.1025  138.6562  156.9309 C   0  0  0  0  0  0  0  0  0  0  0  0
  150.7006  137.4326  156.3623 C   0  0  0  0  0  0  0  0  0  0  0  0
  150.3323  137.4005  154.9959 C   0  0  0  0  0  0  0  0  0  0  0  0
  149.8936  136.2338  154.3122 N   0  0  0  0  0  0  0  0  0  0  0  0
  149.8586  134.9669  154.7597 C   0  0  0  0  0  0  0  0  0  0  0  0
  150.2491  134.5898  155.8645 O   0  0  0  0  0  0  0  0  0  0  0  0
  149.3590  134.1344  153.8348 N   0  0  0  0  0  0  0  0  0  0  0  0
  149.1897  132.6970  154.0167 C   0  0  0  0  0  0  0  0  0  0  0  0
  147.7352  132.2613  153.7512 C   0  0  0  0  0  0  0  0  0  0  0  0
  147.6485  131.0157  152.9473 N   0  3  2  0  0  0  0  0  0  0  0  0
  146.2504  130.7076  152.5481 C   0  0  0  0  0  0  0  0  0  0  0  0
  146.1965  129.4995  151.6003 C   0  0  0  0  0  0  0  0  0  0  0  0
  146.8619  128.2734  152.2366 C   0  0  0  0  0  0  0  0  0  0  0  0
  148.2981  128.6122  152.6696 C   0  0  2  0  0  0  0  0  0  0  0  0
  148.9811  127.4085  153.3340 C   0  0  0  0  0  0  0  0  0  0  0  0
  148.3018  129.8462  153.5951 C   0  0  0  0  0  0  0  0  0  0  0  0
  150.3668  138.6150  154.2797 C   0  0  0  0  0  0  0  0  0  0  0  0
  150.7518  139.7912  154.8183 N   0  0  0  0  0  0  0  0  0  0  0  0
  151.8819  142.1027  158.3921 H   0  0  0  0  0  0  0  0  0  0  0  0
  152.2634  140.3906  158.5366 H   0  0  0  0  0  0  0  0  0  0  0  0
  150.5714  140.9382  158.5484 H   0  0  0  0  0  0  0  0  0  0  0  0
  151.3905  138.7080  157.9708 H   0  0  0  0  0  0  0  0  0  0  0  0
  150.6707  136.5533  156.9868 H   0  0  0  0  0  0  0  0  0  0  0  0
  149.6196  136.3749  153.3508 H   0  0  0  0  0  0  0  0  0  0  0  0
  149.0657  134.5232  152.9502 H   0  0  0  0  0  0  0  0  0  0  0  0
  149.8769  132.1555  153.3642 H   0  0  0  0  0  0  0  0  0  0  0  0
  149.4853  132.4656  155.0391 H   0  0  0  0  0  0  0  0  0  0  0  0
  147.1912  132.1360  154.6887 H   0  0  0  0  0  0  0  0  0  0  0  0
  147.2312  133.0627  153.2090 H   0  0  0  0  0  0  0  0  0  0  0  0
  145.6505  130.5152  153.4389 H   0  0  0  0  0  0  0  0  0  0  0  0
  145.8091  131.5705  152.0477 H   0  0  0  0  0  0  0  0  0  0  0  0
  145.1606  129.2707  151.3475 H   0  0  0  0  0  0  0  0  0  0  0  0
  146.6973  129.7450  150.6627 H   0  0  0  0  0  0  0  0  0  0  0  0
  146.2791  127.9460  153.0987 H   0  0  0  0  0  0  0  0  0  0  0  0
  146.8645  127.4442  151.5282 H   0  0  0  0  0  0  0  0  0  0  0  0
  148.8708  128.8615  151.7748 H   0  0  0  0  0  0  0  0  0  0  0  0
  148.4553  127.1037  154.2394 H   0  0  0  0  0  0  0  0  0  0  0  0
  150.0099  127.6425  153.6092 H   0  0  0  0  0  0  0  0  0  0  0  0
  149.0079  126.5513  152.6604 H   0  0  0  0  0  0  0  0  0  0  0  0
  149.3325  130.0880  153.8508 H   0  0  0  0  0  0  0  0  0  0  0  0
  147.7909  129.6172  154.5321 H   0  0  0  0  0  0  0  0  0  0  0  0
  150.0823  138.6449  153.2378 H   0  0  0  0  0  0  0  0  0  0  0  0
  148.1505  131.1962  152.0895 H   0  0  0  0  0  0  0  0  0  0  0  0
  1  2  1  0  0  0  0
  1 22  1  0  0  0  0
  1 23  1  0  0  0  0
  1 24  1  0  0  0  0
  2  3  1  0  0  0  0
  3 21  1  0  0  0  0
  3  4  2  0  0  0  0
  4  5  1  0  0  0  0
  4 25  1  0  0  0  0
  5  6  2  0  0  0  0
  5 26  1  0  0  0  0
  6  7  1  0  0  0  0
  6 20  1  0  0  0  0
  7  8  1  0  0  0  0
  7 27  1  0  0  0  0
  8  9  2  0  0  0  0
  8 10  1  0  0  0  0
 10 11  1  0  0  0  0
 10 28  1  0  0  0  0
 11 12  1  0  0  0  0
 11 29  1  0  0  0  0
 11 30  1  0  0  0  0
 12 13  1  0  0  0  0
 12 31  1  0  0  0  0
 12 32  1  0  0  0  0
 13 19  1  0  0  0  0
 13 14  1  0  0  0  0
 13 46  1  0  0  0  0
 14 15  1  0  0  0  0
 14 33  1  0  0  0  0
 14 34  1  0  0  0  0
 15 16  1  0  0  0  0
 15 35  1  0  0  0  0
 15 36  1  0  0  0  0
 16 17  1  0  0  0  0
 16 37  1  0  0  0  0
 16 38  1  0  0  0  0
 17 18  1  0  0  0  0
 17 19  1  0  0  0  0
 17 39  1  0  0  0  0
 18 40  1  0  0  0  0
 18 41  1  0  0  0  0
 18 42  1  0  0  0  0
 19 43  1  0  0  0  0
 19 44  1  0  0  0  0
 20 21  2  0  0  0  0
 20 45  1  0  0  0  0
M  CHG  1  13   1
M  END
> <s_m_source_file>
AV-unprocessed.smi

> <i_m_source_file_index>
1956

> <i_lp_mmshare_version>
43012

> <i_f3d_flags>
0

> <s_epik_input>
W0NIM11PYzFbY0hdW2NIXWMoW2NIXW4xKVtOSF1DKD1PKVtOSF1bQ0gyXVtDSDJdTjJbQ0gyXVtDSDJdW0NIMl1bQ0BASF0oW0NIM10pW0NIMl0y

> <s_epik_cmdline>
J2VwaWtfcHl0aG9uJywgJy1waCcsICc3LjAnLCAnLXRuJywgJzgnLCAnLW1hJywgJzIwMCcsICctbWV0YWxfYmluZGluZycsICctaW1hZScsICc8aW5maWxlLm1hZT4nLCAnLW9tYWUnLCAnPG91dGZpbGUubWFlPic=

> <r_lp_tautomer_probability>
1

> <r_epik_Ionization_Penalty>
0.00179545

> <r_epik_Ionization_Penalty_Charging>
0.00171832

> <r_epik_Ionization_Penalty_Neutral>
7.7124e-05

> <r_epik_State_Penalty>
0.0011618

> <r_epik_Charging_Adjusted_Penalty>
0.00288012

> <i_epik_Tot_Q>
1

> <i_epik_Tot_abs_Q>
1

> <r_epik_Metal_State_Penalty>
-0

> <b_epik_Metal_Only>
0

> <s_lp_Force_Field>
OPLS_2005

> <r_lp_Energy>
19.732

> <b_lp_Chiralities_Consistent>
1

> <s_lp_Variant>
AV-unprocessed.smi:1956-4

> <Gold.Version>
5.8.1

> <Gold.Id.Protein>
6NUR|6NUR_protein|mol2

> <Gold.PLP.Fitness>
45.9350

> <Gold.PLP.PLP>
-33.8897

> <Gold.PLP.part.hbond>
-4.9373

> <Gold.PLP.part.metal>
0.0000

> <Gold.PLP.part.buried>
-1.9518

> <Gold.PLP.part.nonpolar>
-27.1981

> <Gold.PLP.part.repulsive>
0.1912

> <Gold.PLP.ligand.clash>
0.0000

> <Gold.PLP.ligand.torsion>
0.5510

> <Gold.PLP.Chemscore.Hbond>
3.3584

> <Gold.PLP.Chemscore.CHOScore>
1.0000

> <Gold.PLP.Chemscore.Metal>
0.0000

> <Gold.Chemscore.Hbonds>
donor molecule, donor type, donor heavy atom, donor atom, acceptor molecule, acceptor atom, score
      L1  H     7    27       P1  7948  1.00
      L1  H    10    28       P1  7948  0.36
      L1  H    13    46       P1 10747  1.00
      P1  H  7989  7998       L1    21  1.00
      L1  C    20    45       P1  7957  1.00

> <Gold.PLP.Chemscore.Internal.Correction>
0.0722

> <Gold.Rescore>
     Score         DG    S(hbond)    S(metal)    S(lipo)     H(rot)  DE(clash)    DE(int)     intcor
     15.49     -17.18       1.97        0.00      81.23       1.71       0.05       1.64       ----

> <Gold.Chemscore.Fitness>
15.4935

> <Gold.Chemscore.DG>
-17.1820

> <Gold.Chemscore.ZeroCoef>
-5.4800

> <Gold.Chemscore.Hbond>
1.9695

> <Gold.Chemscore.Metal>
0.0000

> <Gold.Chemscore.Lipo>
81.2259

> <Gold.Chemscore.Internal_Hbond>
0.0000

> <Gold.Chemscore.DEClash>
0.0462

> <Gold.Chemscore.DEInternal>
1.6423

> <Gold.Chemscore.Rot>
1.7107

> <Gold.Chemscore.Internal.Correction>
   9.000000E+99

> <Gold.Chemscore.Hbonds>
donor molecule, donor type, donor heavy atom, donor atom, acceptor molecule, acceptor atom, score
      L1  H     7    27       P1  7948  0.39
      L1  H    10    28       P1  7948  0.01
      L1  H    13    46       P1 10747  0.95
      P1  H  7989  7998       L1    21  0.73

> <Gold.Chemscore.Hbond.Weighted>
-6.5780

> <Gold.Chemscore.Metal.Weighted>
-0.0000

> <Gold.Chemscore.Lipo.Weighted>
-9.5034

> <Gold.Chemscore.Internal_Hbond.Weighted>
0.0000

> <Gold.Chemscore.DEClash.Weighted>
0.0462

> <Gold.Chemscore.DEInternal.Weighted>
1.6423

> <Gold.Chemscore.Rot.Weighted>
4.3794

> <Gold.Chemscore.Internal.Correction.Weighted>
   9.000000E+99

> <Gold.Protein.RotatedTorsions>
[ 6907 6896 6895 6894 ] final   11.21 input  -60.11 | X-H torsion
[ 7974 7965 7964 7962 ] final   54.02 input  175.53 | X-H torsion
[ 8008 7997 7996 7995 ] final  -35.91 input   59.86 | X-H torsion
[ 10167 10162 10161 10158 ] final   39.51 input  -65.29 | X-H torsion
[ 10718 10713 10712 10709 ] final   35.25 input   66.30 | X-H torsion
[ 10763 10752 10751 10750 ] final  165.99 input  -60.55 | X-H torsion
[ 11005 11000 10999 10996 ] final  -92.87 input  -57.11 | X-H torsion

> <Gold.Protein.ActiveResidues>
 VAL166  LYS551  ARG553  GLY616  TRP617  ASP618  TYR619  PRO620  LYS621  CYS622 
 ASP623  PHE694  ASN695  SER759  ASP760  ASP761  ALA762  ILE779  LEU786  VAL792 
 PHE793  MET794  SER795  GLU796  ALA797  LYS798  CYS799  TRP800  GLU811  SER814 

> <Gold.Protein.RotatedAtoms>
  151.7507  135.0833  160.0330 H   0  0  0  0  0  0  0  0  0  0  0  0  # atno 6907 bound_to 6896
  152.3419  133.6072  159.5890 H   0  0  0  0  0  0  0  0  0  0  0  0  # atno 6908 bound_to 6896
  150.7484  133.9626  159.3562 H   0  0  0  0  0  0  0  0  0  0  0  0  # atno 6909 bound_to 6896
  145.9652  139.4096  143.0224 H   0  0  0  0  0  0  0  0  0  0  0  0  # atno 7974 bound_to 7965
  154.4084  140.1644  156.2288 H   0  0  0  0  0  0  0  0  0  0  0  0  # atno 8008 bound_to 7997
  155.9300  140.3415  155.6218 H   0  0  0  0  0  0  0  0  0  0  0  0  # atno 8009 bound_to 7997
  155.7118  140.0757  157.2358 H   0  0  0  0  0  0  0  0  0  0  0  0  # atno 8010 bound_to 7997
  140.3832  144.1951  150.6130 H   0  0  0  0  0  0  0  0  0  0  0  0  # atno 10167 bound_to 10162
  157.3203  130.7445  149.6781 H   0  0  0  0  0  0  0  0  0  0  0  0  # atno 10718 bound_to 10713
  154.3323  135.2754  155.2465 H   0  0  0  0  0  0  0  0  0  0  0  0  # atno 10763 bound_to 10752
  154.4772  135.5868  153.6366 H   0  0  0  0  0  0  0  0  0  0  0  0  # atno 10764 bound_to 10752
  152.9865  135.6102  154.3517 H   0  0  0  0  0  0  0  0  0  0  0  0  # atno 10765 bound_to 10752
  141.1511  133.7850  157.0080 H   0  0  0  0  0  0  0  0  0  0  0  0  # atno 11005 bound_to 11000
  145.7984  140.9782  143.1012 LP  0  0  0  0  0  0  0  0  0  0  0  0  # atno 17320 bound_to 7965
  144.6824  139.9770  143.7483 LP  0  0  0  0  0  0  0  0  0  0  0  0  # atno 17321 bound_to 7965
  140.4916  143.2346  151.8810 LP  0  0  0  0  0  0  0  0  0  0  0  0  # atno 17342 bound_to 10162
  139.4794  144.5160  151.8868 LP  0  0  0  0  0  0  0  0  0  0  0  0  # atno 17343 bound_to 10162
  155.9685  130.4225  150.4518 LP  0  0  0  0  0  0  0  0  0  0  0  0  # atno 17370 bound_to 10713
  157.2533  131.0551  151.2366 LP  0  0  0  0  0  0  0  0  0  0  0  0  # atno 17371 bound_to 10713
  140.0896  134.9600  157.1755 LP  0  0  0  0  0  0  0  0  0  0  0  0  # atno 17394 bound_to 11000
  140.3464  134.2647  155.7204 LP  0  0  0  0  0  0  0  0  0  0  0  0  # atno 17395 bound_to 11000

$$$$
