AV-unprocessed.smi:2928|AV-procd|sdf|11236|dock10
  -GOLD-   2272016133D 1   1.00000     0.00000
 Structure written by MMmdl.
 56 59  0  0  0  0  0  0  0  0  3 V2000
  149.8463  141.2943  155.2937 C   0  0  0  0  0  0  0  0  0  0  0  0
  148.4449  141.7749  155.3458 N   0  3  2  0  0  0  0  0  0  0  0  0
  147.5676  141.0382  156.2877 C   0  0  1  0  0  0  0  0  0  0  0  0
  146.3081  141.8908  156.5688 C   0  0  0  0  0  0  0  0  0  0  0  0
  145.5654  142.3437  155.2952 C   0  0  0  0  0  0  0  0  0  0  0  0
  146.5301  142.8040  154.1828 C   0  0  0  0  0  0  0  0  0  0  0  0
  147.7803  141.9063  154.0264 C   0  0  2  0  0  0  0  0  0  0  0  0
  147.5088  140.5187  153.3924 C   0  0  0  0  0  0  0  0  0  0  0  0
  146.7801  139.5187  154.3191 C   0  0  1  0  0  0  0  0  0  0  0  0
  146.9620  138.1646  153.7999 N   0  0  0  0  0  0  0  0  0  0  0  0
  146.0477  137.4753  153.1016 C   0  0  0  0  0  0  0  0  0  0  0  0
  144.9283  137.9089  152.8298 O   0  0  0  0  0  0  0  0  0  0  0  0
  146.5044  136.2579  152.7636 N   0  0  0  0  0  0  0  0  0  0  0  0
  145.8156  135.2410  152.0440 C   0  0  0  0  0  0  0  0  0  0  0  0
  144.8770  135.5706  151.0327 C   0  0  0  0  0  0  0  0  0  0  0  0
  144.2634  134.5493  150.2833 C   0  0  0  0  0  0  0  0  0  0  0  0
  144.6099  133.2127  150.5440 C   0  0  0  0  0  0  0  0  0  0  0  0
  145.5150  132.9319  151.5041 N   0  3  0  0  0  0  0  0  0  0  0  0
  146.1283  133.8690  152.2698 C   0  0  0  0  0  0  0  0  0  0  0  0
  147.0447  133.4252  153.2503 N   0  0  0  0  0  0  0  0  0  0  0  0
  148.4009  133.9600  153.2893 C   0  0  0  0  0  0  0  0  0  0  0  0
  149.1739  133.0112  154.2010 C   0  0  0  0  0  0  0  0  0  0  0  0
  148.5368  131.6611  153.8862 C   0  0  0  0  0  0  0  0  0  0  0  0
  147.0723  132.0077  153.5981 C   0  0  0  0  0  0  0  0  0  0  0  0
  147.2797  139.6019  155.7830 C   0  0  0  0  0  0  0  0  0  0  0  0
  149.9217  140.2772  154.9103 H   0  0  0  0  0  0  0  0  0  0  0  0
  150.2910  141.3130  156.2891 H   0  0  0  0  0  0  0  0  0  0  0  0
  150.4462  141.9414  154.6535 H   0  0  0  0  0  0  0  0  0  0  0  0
  148.0977  140.9496  157.2371 H   0  0  0  0  0  0  0  0  0  0  0  0
  145.6251  141.3567  157.2300 H   0  0  0  0  0  0  0  0  0  0  0  0
  146.6159  142.7822  157.1170 H   0  0  0  0  0  0  0  0  0  0  0  0
  144.9173  141.5506  154.9325 H   0  0  0  0  0  0  0  0  0  0  0  0
  144.8840  143.1578  155.5439 H   0  0  0  0  0  0  0  0  0  0  0  0
  145.9970  142.8849  153.2350 H   0  0  0  0  0  0  0  0  0  0  0  0
  146.8656  143.8141  154.4219 H   0  0  0  0  0  0  0  0  0  0  0  0
  148.4615  142.4394  153.3614 H   0  0  0  0  0  0  0  0  0  0  0  0
  146.9480  140.6371  152.4644 H   0  0  0  0  0  0  0  0  0  0  0  0
  148.4673  140.0919  153.0943 H   0  0  0  0  0  0  0  0  0  0  0  0
  145.7149  139.7348  154.2874 H   0  0  0  0  0  0  0  0  0  0  0  0
  147.8545  137.7266  153.9760 H   0  0  0  0  0  0  0  0  0  0  0  0
  147.4023  135.9940  153.1425 H   0  0  0  0  0  0  0  0  0  0  0  0
  144.6343  136.5976  150.8041 H   0  0  0  0  0  0  0  0  0  0  0  0
  143.5475  134.7902  149.5109 H   0  0  0  0  0  0  0  0  0  0  0  0
  144.1972  132.3652  150.0159 H   0  0  0  0  0  0  0  0  0  0  0  0
  148.8448  133.9525  152.2927 H   0  0  0  0  0  0  0  0  0  0  0  0
  148.4144  134.9833  153.6661 H   0  0  0  0  0  0  0  0  0  0  0  0
  150.2493  133.0300  154.0215 H   0  0  0  0  0  0  0  0  0  0  0  0
  148.9985  133.2709  155.2459 H   0  0  0  0  0  0  0  0  0  0  0  0
  148.9974  131.2396  152.9918 H   0  0  0  0  0  0  0  0  0  0  0  0
  148.6497  130.9378  154.6942 H   0  0  0  0  0  0  0  0  0  0  0  0
  146.4703  131.8541  154.4940 H   0  0  0  0  0  0  0  0  0  0  0  0
  146.6663  131.3804  152.8030 H   0  0  0  0  0  0  0  0  0  0  0  0
  148.1986  139.0211  155.8751 H   0  0  0  0  0  0  0  0  0  0  0  0
  146.5659  139.1133  156.4471 H   0  0  0  0  0  0  0  0  0  0  0  0
  148.5098  142.7142  155.7124 H   0  0  0  0  0  0  0  0  0  0  0  0
  145.7458  131.9521  151.6692 H   0  0  0  0  0  0  0  0  0  0  0  0
  1  2  1  0  0  0  0
  1 26  1  0  0  0  0
  1 27  1  0  0  0  0
  1 28  1  0  0  0  0
  2  7  1  0  0  0  0
  2  3  1  0  0  0  0
  2 55  1  0  0  0  0
  3 25  1  0  0  0  0
  3  4  1  0  0  0  0
  3 29  1  0  0  0  0
  4  5  1  0  0  0  0
  4 30  1  0  0  0  0
  4 31  1  0  0  0  0
  5  6  1  0  0  0  0
  5 32  1  0  0  0  0
  5 33  1  0  0  0  0
  6  7  1  0  0  0  0
  6 34  1  0  0  0  0
  6 35  1  0  0  0  0
  7  8  1  0  0  0  0
  7 36  1  0  0  0  0
  8  9  1  0  0  0  0
  8 37  1  0  0  0  0
  8 38  1  0  0  0  0
  9 10  1  0  0  0  0
  9 25  1  0  0  0  0
  9 39  1  0  0  0  0
 10 11  1  0  0  0  0
 10 40  1  0  0  0  0
 11 12  2  0  0  0  0
 11 13  1  0  0  0  0
 13 14  1  0  0  0  0
 13 41  1  0  0  0  0
 14 19  1  0  0  0  0
 14 15  2  0  0  0  0
 15 16  1  0  0  0  0
 15 42  1  0  0  0  0
 16 17  2  0  0  0  0
 16 43  1  0  0  0  0
 17 18  1  0  0  0  0
 17 44  1  0  0  0  0
 18 19  2  0  0  0  0
 18 56  1  0  0  0  0
 19 20  1  0  0  0  0
 20 24  1  0  0  0  0
 20 21  1  0  0  0  0
 21 22  1  0  0  0  0
 21 45  1  0  0  0  0
 21 46  1  0  0  0  0
 22 23  1  0  0  0  0
 22 47  1  0  0  0  0
 22 48  1  0  0  0  0
 23 24  1  0  0  0  0
 23 49  1  0  0  0  0
 23 50  1  0  0  0  0
 24 51  1  0  0  0  0
 24 52  1  0  0  0  0
 25 53  1  0  0  0  0
 25 54  1  0  0  0  0
M  CHG  1   2   1
M  CHG  1  18   1
M  END
> <s_m_source_file>
AV-unprocessed.smi

> <i_m_source_file_index>
2928

> <i_lp_mmshare_version>
43012

> <i_f3d_flags>
0

> <s_epik_input>
W0NIMl0xW0NIMl1bQ0gyXVtDQEhdKE4oW0NIM10pW0NIXTEyKVtDSDJdW0NASF0oW0NIMl0yKVtOSF1DKD1PKVtOSF1jM1tjSF1bY0hdW2NIXW5jM040W0NIMl1bQ0gyXVtDSDJdW0NIMl00

> <s_epik_cmdline>
J2VwaWtfcHl0aG9uJywgJy1waCcsICc3LjAnLCAnLXRuJywgJzgnLCAnLW1hJywgJzIwMCcsICctbWV0YWxfYmluZGluZycsICctaW1hZScsICc8aW5maWxlLm1hZT4nLCAnLW9tYWUnLCAnPG91dGZpbGUubWFlPic=

> <r_lp_tautomer_probability>
0.999994

> <r_epik_Ionization_Penalty>
1.2404

> <r_epik_Ionization_Penalty_Charging>
1.24038

> <r_epik_Ionization_Penalty_Neutral>
1.86539e-05

> <r_epik_State_Penalty>
1.30821

> <r_epik_Charging_Adjusted_Penalty>
2.54859

> <i_epik_Tot_Q>
2

> <i_epik_Tot_abs_Q>
2

> <r_epik_Metal_State_Penalty>
1.3782

> <b_epik_Metal_Only>
0

> <s_lp_Force_Field>
OPLS_2005

> <r_lp_Energy>
72.136

> <b_lp_Chiralities_Consistent>
1

> <s_lp_Variant>
AV-unprocessed.smi:2928-6

> <Gold.Version>
5.8.1

> <Gold.Id.Protein>
6NUR|6NUR_protein|mol2

> <Gold.PLP.Fitness>
41.0703

> <Gold.PLP.PLP>
-35.0583

> <Gold.PLP.part.hbond>
-2.0000

> <Gold.PLP.part.metal>
0.0000

> <Gold.PLP.part.buried>
-1.2947

> <Gold.PLP.part.nonpolar>
-32.8436

> <Gold.PLP.part.repulsive>
2.0796

> <Gold.PLP.ligand.clash>
0.0000

> <Gold.PLP.ligand.torsion>
0.6139

> <Gold.PLP.Chemscore.Hbond>
2.2880

> <Gold.PLP.Chemscore.CHOScore>
0.0000

> <Gold.PLP.Chemscore.Metal>
0.0000

> <Gold.Chemscore.Hbonds>
donor molecule, donor type, donor heavy atom, donor atom, acceptor molecule, acceptor atom, score
      L1  H     2    55       P1  8028  1.98
      L1  H    13    41       P1  7948  0.29

> <Gold.PLP.Chemscore.Internal.Correction>
0.3758

> <Gold.Rescore>
     Score         DG    S(hbond)    S(metal)    S(lipo)     H(rot)  DE(clash)    DE(int)     intcor
     12.04     -15.97       0.64        0.00      97.29       1.19       2.07       1.87       ----

> <Gold.Chemscore.Fitness>
12.0360

> <Gold.Chemscore.DG>
-15.9747

> <Gold.Chemscore.ZeroCoef>
-5.4800

> <Gold.Chemscore.Hbond>
0.6447

> <Gold.Chemscore.Metal>
0.0000

> <Gold.Chemscore.Lipo>
97.2858

> <Gold.Chemscore.Internal_Hbond>
0.0000

> <Gold.Chemscore.DEClash>
2.0683

> <Gold.Chemscore.DEInternal>
1.8703

> <Gold.Chemscore.Rot>
1.1879

> <Gold.Chemscore.Internal.Correction>
   9.000000E+99

> <Gold.Chemscore.Hbonds>
donor molecule, donor type, donor heavy atom, donor atom, acceptor molecule, acceptor atom, score
      L1  H     2    55       P1  8028  0.91
      L1  H    13    41       P1  7948  0.27

> <Gold.Chemscore.Hbond.Weighted>
-2.1533

> <Gold.Chemscore.Metal.Weighted>
-0.0000

> <Gold.Chemscore.Lipo.Weighted>
-11.3824

> <Gold.Chemscore.Internal_Hbond.Weighted>
0.0000

> <Gold.Chemscore.DEClash.Weighted>
2.0683

> <Gold.Chemscore.DEInternal.Weighted>
1.8703

> <Gold.Chemscore.Rot.Weighted>
3.0410

> <Gold.Chemscore.Internal.Correction.Weighted>
   9.000000E+99

> <Gold.Protein.RotatedTorsions>
[ 6907 6896 6895 6894 ] final -125.44 input  -60.11 | X-H torsion
[ 7974 7965 7964 7962 ] final   67.05 input  175.53 | X-H torsion
[ 8008 7997 7996 7995 ] final   60.32 input   59.86 | X-H torsion
[ 10167 10162 10161 10158 ] final -155.47 input  -65.29 | X-H torsion
[ 10718 10713 10712 10709 ] final   27.33 input   66.30 | X-H torsion
[ 10763 10752 10751 10750 ] final   64.45 input  -60.55 | X-H torsion
[ 11005 11000 10999 10996 ] final  -10.68 input  -57.11 | X-H torsion

> <Gold.Protein.ActiveResidues>
 VAL166  LYS551  ARG553  GLY616  TRP617  ASP618  TYR619  PRO620  LYS621  CYS622 
 ASP623  PHE694  ASN695  SER759  ASP760  ASP761  ALA762  ILE779  LEU786  VAL792 
 PHE793  MET794  SER795  GLU796  ALA797  LYS798  CYS799  TRP800  GLU811  SER814 

> <Gold.Protein.RotatedAtoms>
  150.8867  133.7298  159.2916 H   0  0  0  0  0  0  0  0  0  0  0  0  # atno 6907 bound_to 6896
  151.4861  135.1053  159.9800 H   0  0  0  0  0  0  0  0  0  0  0  0  # atno 6908 bound_to 6896
  152.4795  133.8172  159.7090 H   0  0  0  0  0  0  0  0  0  0  0  0  # atno 6909 bound_to 6896
  145.8192  139.3075  143.1053 H   0  0  0  0  0  0  0  0  0  0  0  0  # atno 7974 bound_to 7965
  155.5804  140.3491  155.4539 H   0  0  0  0  0  0  0  0  0  0  0  0  # atno 8008 bound_to 7997
  156.0378  140.1289  157.0214 H   0  0  0  0  0  0  0  0  0  0  0  0  # atno 8009 bound_to 7997
  154.4379  140.1030  156.6178 H   0  0  0  0  0  0  0  0  0  0  0  0  # atno 8010 bound_to 7997
  139.6929  143.9391  152.2393 H   0  0  0  0  0  0  0  0  0  0  0  0  # atno 10167 bound_to 10162
  157.2187  130.6968  149.6260 H   0  0  0  0  0  0  0  0  0  0  0  0  # atno 10718 bound_to 10713
  153.0056  135.5392  154.6512 H   0  0  0  0  0  0  0  0  0  0  0  0  # atno 10763 bound_to 10752
  154.5744  135.2844  155.0798 H   0  0  0  0  0  0  0  0  0  0  0  0  # atno 10764 bound_to 10752
  154.1951  135.6493  153.5123 H   0  0  0  0  0  0  0  0  0  0  0  0  # atno 10765 bound_to 10752
  140.7473  133.8621  155.9016 H   0  0  0  0  0  0  0  0  0  0  0  0  # atno 11005 bound_to 11000
  145.9693  140.8773  143.0171 LP  0  0  0  0  0  0  0  0  0  0  0  0  # atno 17320 bound_to 7965
  144.6749  140.1923  143.7395 LP  0  0  0  0  0  0  0  0  0  0  0  0  # atno 17321 bound_to 7965
  139.9212  144.6798  150.8460 LP  0  0  0  0  0  0  0  0  0  0  0  0  # atno 17342 bound_to 10162
  140.7688  143.3374  151.2281 LP  0  0  0  0  0  0  0  0  0  0  0  0  # atno 17343 bound_to 10162
  155.9684  130.4527  150.5783 LP  0  0  0  0  0  0  0  0  0  0  0  0  # atno 17370 bound_to 10713
  157.3598  131.0748  151.1646 LP  0  0  0  0  0  0  0  0  0  0  0  0  # atno 17371 bound_to 10713
  140.9782  134.1440  157.4517 LP  0  0  0  0  0  0  0  0  0  0  0  0  # atno 17394 bound_to 11000
  139.8794  135.0002  156.5995 LP  0  0  0  0  0  0  0  0  0  0  0  0  # atno 17395 bound_to 11000

$$$$
