AV-unprocessed.smi:2126|AV-procd|sdf|8675|dock4
  -GOLD-   2272011423D 1   1.00000     0.00000
 Structure written by MMmdl.
 40 42  0  0  0  0  0  0  0  0  1 V2000
  149.9181  134.1804  154.8628 C   0  0  0  0  0  0  0  0  0  0  0  0
  149.0840  135.2690  155.2313 O   0  0  0  0  0  0  0  0  0  0  0  0
  149.6163  136.5393  155.1804 C   0  0  0  0  0  0  0  0  0  0  0  0
  150.9362  136.8349  154.7596 C   0  0  0  0  0  0  0  0  0  0  0  0
  151.3966  138.1656  154.7411 C   0  0  0  0  0  0  0  0  0  0  0  0
  150.5605  139.2282  155.1368 C   0  0  0  0  0  0  0  0  0  0  0  0
  151.0932  140.4986  155.0860 O   0  0  0  0  0  0  0  0  0  0  0  0
  150.2811  141.5852  155.5114 C   0  0  0  0  0  0  0  0  0  0  0  0
  150.6053  141.9122  156.9765 C   0  0  2  0  0  0  0  0  0  0  0  0
  149.3978  141.8994  157.7125 O   0  0  0  0  0  0  0  0  0  0  0  0
  151.3021  143.2778  157.1361 C   0  0  0  0  0  0  0  0  0  0  0  0
  151.4011  143.6930  158.5241 N   0  0  0  0  0  0  0  0  0  0  0  0
  150.7573  144.7207  159.1102 C   0  0  0  0  0  0  0  0  0  0  0  0
  150.9936  144.9309  160.4020 N   0  0  0  0  0  0  0  0  0  0  0  0
  151.8958  143.9207  160.6892 C   0  0  0  0  0  0  0  0  0  0  0  0
  152.5455  143.5877  161.8993 C   0  0  0  0  0  0  0  0  0  0  0  0
  153.4412  142.4994  161.9532 C   0  0  0  0  0  0  0  0  0  0  0  0
  153.7014  141.7293  160.8011 C   0  0  0  0  0  0  0  0  0  0  0  0
  153.0661  142.0419  159.5840 C   0  0  0  0  0  0  0  0  0  0  0  0
  152.1722  143.1279  159.5345 C   0  0  0  0  0  0  0  0  0  0  0  0
  149.2406  138.9322  155.5575 C   0  0  0  0  0  0  0  0  0  0  0  0
  148.7803  137.6018  155.5765 C   0  0  0  0  0  0  0  0  0  0  0  0
  149.3593  133.2499  154.9621 H   0  0  0  0  0  0  0  0  0  0  0  0
  150.7925  134.1103  155.5112 H   0  0  0  0  0  0  0  0  0  0  0  0
  150.2428  134.2610  153.8245 H   0  0  0  0  0  0  0  0  0  0  0  0
  151.6167  136.0581  154.4459 H   0  0  0  0  0  0  0  0  0  0  0  0
  152.4065  138.3725  154.4185 H   0  0  0  0  0  0  0  0  0  0  0  0
  150.4509  142.4639  154.8866 H   0  0  0  0  0  0  0  0  0  0  0  0
  149.2300  141.3048  155.4226 H   0  0  0  0  0  0  0  0  0  0  0  0
  151.2444  141.1273  157.3828 H   0  0  0  0  0  0  0  0  0  0  0  0
  148.6792  142.0243  157.1112 H   0  0  0  0  0  0  0  0  0  0  0  0
  152.3096  143.2387  156.7199 H   0  0  0  0  0  0  0  0  0  0  0  0
  150.7676  144.0480  156.5787 H   0  0  0  0  0  0  0  0  0  0  0  0
  150.0782  145.3521  158.5557 H   0  0  0  0  0  0  0  0  0  0  0  0
  152.3555  144.1712  162.7879 H   0  0  0  0  0  0  0  0  0  0  0  0
  153.9321  142.2548  162.8836 H   0  0  0  0  0  0  0  0  0  0  0  0
  154.3903  140.8988  160.8525 H   0  0  0  0  0  0  0  0  0  0  0  0
  153.2649  141.4563  158.6987 H   0  0  0  0  0  0  0  0  0  0  0  0
  148.5595  139.7078  155.8723 H   0  0  0  0  0  0  0  0  0  0  0  0
  147.7710  137.3946  155.9007 H   0  0  0  0  0  0  0  0  0  0  0  0
  1  2  1  0  0  0  0
  1 23  1  0  0  0  0
  1 24  1  0  0  0  0
  1 25  1  0  0  0  0
  2  3  1  0  0  0  0
  3 22  1  0  0  0  0
  3  4  2  0  0  0  0
  4  5  1  0  0  0  0
  4 26  1  0  0  0  0
  5  6  2  0  0  0  0
  5 27  1  0  0  0  0
  6  7  1  0  0  0  0
  6 21  1  0  0  0  0
  7  8  1  0  0  0  0
  8  9  1  0  0  0  0
  8 28  1  0  0  0  0
  8 29  1  0  0  0  0
  9 10  1  0  0  0  0
  9 11  1  0  0  0  0
  9 30  1  0  0  0  0
 10 31  1  0  0  0  0
 11 12  1  0  0  0  0
 11 32  1  0  0  0  0
 11 33  1  0  0  0  0
 12 20  1  0  0  0  0
 12 13  1  0  0  0  0
 13 14  2  0  0  0  0
 13 34  1  0  0  0  0
 14 15  1  0  0  0  0
 15 20  2  0  0  0  0
 15 16  1  0  0  0  0
 16 17  2  0  0  0  0
 16 35  1  0  0  0  0
 17 18  1  0  0  0  0
 17 36  1  0  0  0  0
 18 19  2  0  0  0  0
 18 37  1  0  0  0  0
 19 20  1  0  0  0  0
 19 38  1  0  0  0  0
 21 22  2  0  0  0  0
 21 39  1  0  0  0  0
 22 40  1  0  0  0  0
M  END
> <s_m_source_file>
AV-unprocessed.smi

> <i_m_source_file_index>
2126

> <i_lp_mmshare_version>
43012

> <i_f3d_flags>
0

> <s_epik_input>
W0NIM11PYzFbY0hdW2NIXWMoW2NIXVtjSF0xKU9bQ0gyXVtDQEhdKFtPSF0pW0NIMl1uKFtjSF1uMiljKGMyMylbY0hdW2NIXVtjSF1bY0hdMw==

> <s_epik_cmdline>
J2VwaWtfcHl0aG9uJywgJy1waCcsICc3LjAnLCAnLXRuJywgJzgnLCAnLW1hJywgJzIwMCcsICctbWV0YWxfYmluZGluZycsICctaW1hZScsICc8aW5maWxlLm1hZT4nLCAnLW9tYWUnLCAnPG91dGZpbGUubWFlPic=

> <r_lp_tautomer_probability>
1

> <r_epik_Ionization_Penalty>
0.0608933

> <r_epik_Ionization_Penalty_Charging>
0

> <r_epik_Ionization_Penalty_Neutral>
0.0608933

> <r_epik_State_Penalty>
0.0528196

> <r_epik_Charging_Adjusted_Penalty>
0.0528196

> <i_epik_Tot_Q>
0

> <i_epik_Tot_abs_Q>
0

> <r_epik_Metal_State_Penalty>
5.52429e-05

> <b_epik_Metal_Only>
0

> <s_lp_Force_Field>
OPLS_2005

> <r_lp_Energy>
18.1491

> <b_lp_Chiralities_Consistent>
1

> <s_lp_Variant>
AV-unprocessed.smi:2126-1

> <Gold.Version>
5.8.1

> <Gold.Id.Protein>
6NUR|6NUR_protein|mol2

> <Gold.PLP.Fitness>
52.3470

> <Gold.PLP.PLP>
-48.5866

> <Gold.PLP.part.hbond>
-1.0000

> <Gold.PLP.part.metal>
0.0000

> <Gold.PLP.part.buried>
-5.3567

> <Gold.PLP.part.nonpolar>
-40.9452

> <Gold.PLP.part.repulsive>
0.3522

> <Gold.PLP.ligand.clash>
0.0000

> <Gold.PLP.ligand.torsion>
1.0919

> <Gold.PLP.Chemscore.Hbond>
0.9920

> <Gold.PLP.Chemscore.CHOScore>
0.9477

> <Gold.PLP.Chemscore.Metal>
0.0000

> <Gold.Chemscore.Hbonds>
donor molecule, donor type, donor heavy atom, donor atom, acceptor molecule, acceptor atom, score
      P1  H  7989  7998       L1     7  0.99
      L1  C    13    34       P1  8029  0.87

> <Gold.PLP.Chemscore.Internal.Correction>
0.1252

> <Gold.Rescore>
     Score         DG    S(hbond)    S(metal)    S(lipo)     H(rot)  DE(clash)    DE(int)     intcor
     15.01     -16.09       0.72        0.00     125.07       2.51       0.06       1.02       ----

> <Gold.Chemscore.Fitness>
15.0127

> <Gold.Chemscore.DG>
-16.0920

> <Gold.Chemscore.ZeroCoef>
-5.4800

> <Gold.Chemscore.Hbond>
0.7187

> <Gold.Chemscore.Metal>
0.0000

> <Gold.Chemscore.Lipo>
125.0671

> <Gold.Chemscore.Internal_Hbond>
0.0000

> <Gold.Chemscore.DEClash>
0.0562

> <Gold.Chemscore.DEInternal>
1.0231

> <Gold.Chemscore.Rot>
2.5083

> <Gold.Chemscore.Internal.Correction>
   9.000000E+99

> <Gold.Chemscore.Hbonds>
donor molecule, donor type, donor heavy atom, donor atom, acceptor molecule, acceptor atom, score
      P1  H  7989  7998       L1     7  0.47

> <Gold.Chemscore.Hbond.Weighted>
-2.4003

> <Gold.Chemscore.Metal.Weighted>
-0.0000

> <Gold.Chemscore.Lipo.Weighted>
-14.6329

> <Gold.Chemscore.Internal_Hbond.Weighted>
0.0000

> <Gold.Chemscore.DEClash.Weighted>
0.0562

> <Gold.Chemscore.DEInternal.Weighted>
1.0231

> <Gold.Chemscore.Rot.Weighted>
6.4212

> <Gold.Chemscore.Internal.Correction.Weighted>
   9.000000E+99

> <Gold.Protein.RotatedTorsions>
[ 6907 6896 6895 6894 ] final  139.59 input  -60.11 | X-H torsion
[ 7974 7965 7964 7962 ] final  -53.12 input  175.53 | X-H torsion
[ 8008 7997 7996 7995 ] final  -61.83 input   59.86 | X-H torsion
[ 10167 10162 10161 10158 ] final   23.33 input  -65.29 | X-H torsion
[ 10718 10713 10712 10709 ] final   65.89 input   66.30 | X-H torsion
[ 10763 10752 10751 10750 ] final  -46.18 input  -60.55 | X-H torsion
[ 11005 11000 10999 10996 ] final   36.94 input  -57.11 | X-H torsion

> <Gold.Protein.ActiveResidues>
 VAL166  LYS551  ARG553  GLY616  TRP617  ASP618  TYR619  PRO620  LYS621  CYS622 
 ASP623  PHE694  ASN695  SER759  ASP760  ASP761  ALA762  ILE779  LEU786  VAL792 
 PHE793  MET794  SER795  GLU796  ALA797  LYS798  CYS799  TRP800  GLU811  SER814 

> <Gold.Protein.RotatedAtoms>
  152.2531  133.5232  159.5336 H   0  0  0  0  0  0  0  0  0  0  0  0  # atno 6907 bound_to 6896
  150.7100  134.0932  159.3948 H   0  0  0  0  0  0  0  0  0  0  0  0  # atno 6908 bound_to 6896
  151.8852  135.0438  160.0543 H   0  0  0  0  0  0  0  0  0  0  0  0  # atno 6909 bound_to 6896
  145.9003  140.7999  142.9746 H   0  0  0  0  0  0  0  0  0  0  0  0  # atno 7974 bound_to 7965
  154.4468  140.1009  156.6492 H   0  0  0  0  0  0  0  0  0  0  0  0  # atno 8008 bound_to 7997
  155.5417  140.3483  155.4430 H   0  0  0  0  0  0  0  0  0  0  0  0  # atno 8009 bound_to 7997
  156.0592  140.1322  156.9949 H   0  0  0  0  0  0  0  0  0  0  0  0  # atno 8010 bound_to 7997
  140.5278  143.9894  150.6449 H   0  0  0  0  0  0  0  0  0  0  0  0  # atno 10167 bound_to 10162
  157.6135  130.9238  150.0037 H   0  0  0  0  0  0  0  0  0  0  0  0  # atno 10718 bound_to 10713
  154.0408  135.6644  153.4790 H   0  0  0  0  0  0  0  0  0  0  0  0  # atno 10763 bound_to 10752
  153.0502  135.5089  154.7844 H   0  0  0  0  0  0  0  0  0  0  0  0  # atno 10764 bound_to 10752
  154.6820  135.3046  154.9566 H   0  0  0  0  0  0  0  0  0  0  0  0  # atno 10765 bound_to 10752
  140.2275  134.3567  155.7978 H   0  0  0  0  0  0  0  0  0  0  0  0  # atno 11005 bound_to 11000
  144.6735  140.1667  143.7418 LP  0  0  0  0  0  0  0  0  0  0  0  0  # atno 17320 bound_to 7965
  145.8799  139.2317  143.1611 LP  0  0  0  0  0  0  0  0  0  0  0  0  # atno 17321 bound_to 7965
  140.3260  143.3107  152.0736 LP  0  0  0  0  0  0  0  0  0  0  0  0  # atno 17342 bound_to 10162
  139.4944  144.6541  151.6610 LP  0  0  0  0  0  0  0  0  0  0  0  0  # atno 17343 bound_to 10162
  156.1247  130.3645  149.9830 LP  0  0  0  0  0  0  0  0  0  0  0  0  # atno 17370 bound_to 10713
  156.7903  130.9253  151.3646 LP  0  0  0  0  0  0  0  0  0  0  0  0  # atno 17371 bound_to 10713
  141.2220  133.7227  156.8677 LP  0  0  0  0  0  0  0  0  0  0  0  0  # atno 17394 bound_to 11000
  140.1785  134.9050  157.2920 LP  0  0  0  0  0  0  0  0  0  0  0  0  # atno 17395 bound_to 11000

$$$$
