AV-unprocessed.smi:137|AV-procd|sdf|1175|dock1
  -GOLD-   2262018323D 1   1.00000     0.00000
 Structure written by MMmdl.
 51 54  0  0  0  0  0  0  0  0  1 V2000
  153.8383  142.0068  161.2344 C   0  0  0  0  0  0  0  0  0  0  0  0
  152.8012  142.0496  160.1011 C   0  0  2  0  0  0  0  0  0  0  0  0
  152.7014  140.6545  159.4499 C   0  0  0  0  0  0  0  0  0  0  0  0
  151.8536  140.5734  158.2562 N   0  0  0  0  0  0  0  0  0  0  0  0
  151.9496  139.4572  157.4754 C   0  0  0  0  0  0  0  0  0  0  0  0
  153.1859  139.0162  157.1140 N   0  0  0  0  0  0  0  0  0  0  0  0
  153.3336  137.9185  156.3685 C   0  0  0  0  0  0  0  0  0  0  0  0
  152.3925  137.1164  155.8727 N   0  0  0  0  0  0  0  0  0  0  0  0
  151.1462  137.5521  156.2110 C   0  0  0  0  0  0  0  0  0  0  0  0
  150.8350  138.6972  157.0022 C   0  0  0  0  0  0  0  0  0  0  0  0
  149.4535  138.8061  157.1281 N   0  0  0  0  0  0  0  0  0  0  0  0
  148.9815  137.7826  156.4718 C   0  0  0  0  0  0  0  0  0  0  0  0
  149.9287  136.9906  155.8666 N   0  0  0  0  0  0  0  0  0  0  0  0
  149.6926  135.7838  155.1296 C   0  0  0  0  0  0  0  0  0  0  0  0
  149.1347  134.5308  155.8090 C   0  0  0  0  0  0  0  0  0  0  0  0
  149.9353  133.6517  154.8228 C   0  0  0  0  0  0  0  0  0  0  0  0
  150.5962  132.4083  155.4402 C   0  0  0  0  0  0  0  0  0  0  0  0
  149.6289  131.5243  155.9696 O   0  0  0  0  0  0  0  0  0  0  0  0
  149.1751  133.2378  153.5462 C   0  0  0  0  0  0  0  0  0  0  0  0
  148.0268  134.0371  153.3488 O   0  0  0  0  0  0  0  0  0  0  0  0
  150.8489  134.8901  154.6752 C   0  0  0  0  0  0  0  0  0  0  0  0
  150.6431  141.3867  158.1511 C   0  0  0  0  0  0  0  0  0  0  0  0
  150.8933  142.6929  157.3773 C   0  0  0  0  0  0  0  0  0  0  0  0
  151.5906  144.0043  158.4927 S   0  0  1  0  0  0  0  0  0  0  0  0
  150.6331  144.1709  159.6746 O   0  0  0  0  0  0  0  0  0  0  0  0
  153.1427  143.1706  159.0926 C   0  0  0  0  0  0  0  0  0  0  0  0
  154.8386  141.8026  160.8508 H   0  0  0  0  0  0  0  0  0  0  0  0
  153.5953  141.2311  161.9612 H   0  0  0  0  0  0  0  0  0  0  0  0
  153.8743  142.9553  161.7715 H   0  0  0  0  0  0  0  0  0  0  0  0
  151.8515  142.2703  160.5865 H   0  0  0  0  0  0  0  0  0  0  0  0
  153.7091  140.3394  159.1735 H   0  0  0  0  0  0  0  0  0  0  0  0
  152.3403  139.9360  160.1872 H   0  0  0  0  0  0  0  0  0  0  0  0
  154.3521  137.6430  156.1378 H   0  0  0  0  0  0  0  0  0  0  0  0
  147.9221  137.5804  156.4082 H   0  0  0  0  0  0  0  0  0  0  0  0
  149.0709  136.0708  154.2801 H   0  0  0  0  0  0  0  0  0  0  0  0
  149.4739  134.4317  156.8420 H   0  0  0  0  0  0  0  0  0  0  0  0
  148.0513  134.4250  155.7427 H   0  0  0  0  0  0  0  0  0  0  0  0
  151.2046  131.8724  154.7113 H   0  0  0  0  0  0  0  0  0  0  0  0
  151.2688  132.6887  156.2511 H   0  0  0  0  0  0  0  0  0  0  0  0
  149.9364  131.2101  156.8061 H   0  0  0  0  0  0  0  0  0  0  0  0
  149.8084  133.3098  152.6619 H   0  0  0  0  0  0  0  0  0  0  0  0
  148.8501  132.1986  153.5987 H   0  0  0  0  0  0  0  0  0  0  0  0
  148.2782  134.8088  152.8644 H   0  0  0  0  0  0  0  0  0  0  0  0
  151.2000  135.0905  153.6623 H   0  0  0  0  0  0  0  0  0  0  0  0
  151.6808  134.8921  155.3821 H   0  0  0  0  0  0  0  0  0  0  0  0
  149.8567  140.8164  157.6567 H   0  0  0  0  0  0  0  0  0  0  0  0
  150.2422  141.5988  159.1421 H   0  0  0  0  0  0  0  0  0  0  0  0
  151.5616  142.5384  156.5304 H   0  0  0  0  0  0  0  0  0  0  0  0
  149.9516  143.0694  156.9781 H   0  0  0  0  0  0  0  0  0  0  0  0
  153.7357  143.9456  159.5792 H   0  0  0  0  0  0  0  0  0  0  0  0
  153.7341  142.8040  158.2528 H   0  0  0  0  0  0  0  0  0  0  0  0
  1  2  1  0  0  0  0
  1 27  1  0  0  0  0
  1 28  1  0  0  0  0
  1 29  1  0  0  0  0
  2 26  1  0  0  0  0
  2  3  1  0  0  0  0
  2 30  1  0  0  0  0
  3  4  1  0  0  0  0
  3 31  1  0  0  0  0
  3 32  1  0  0  0  0
  4  5  1  0  0  0  0
  4 22  1  0  0  0  0
  5 10  1  0  0  0  0
  5  6  2  0  0  0  0
  6  7  1  0  0  0  0
  7  8  2  0  0  0  0
  7 33  1  0  0  0  0
  8  9  1  0  0  0  0
  9 13  1  0  0  0  0
  9 10  2  0  0  0  0
 10 11  1  0  0  0  0
 11 12  2  0  0  0  0
 12 13  1  0  0  0  0
 12 34  1  0  0  0  0
 13 14  1  0  0  0  0
 14 21  1  0  0  0  0
 14 15  1  0  0  0  0
 14 35  1  0  0  0  0
 15 16  1  0  0  0  0
 15 36  1  0  0  0  0
 15 37  1  0  0  0  0
 16 17  1  0  0  0  0
 16 19  1  0  0  0  0
 16 21  1  0  0  0  0
 17 18  1  0  0  0  0
 17 38  1  0  0  0  0
 17 39  1  0  0  0  0
 18 40  1  0  0  0  0
 19 20  1  0  0  0  0
 19 41  1  0  0  0  0
 19 42  1  0  0  0  0
 20 43  1  0  0  0  0
 21 44  1  0  0  0  0
 21 45  1  0  0  0  0
 22 23  1  0  0  0  0
 22 46  1  0  0  0  0
 22 47  1  0  0  0  0
 23 24  1  0  0  0  0
 23 48  1  0  0  0  0
 23 49  1  0  0  0  0
 24 25  2  0  0  0  0
 24 26  1  0  0  0  0
 26 50  1  0  0  0  0
 26 51  1  0  0  0  0
M  END
> <s_m_source_file>
AV-unprocessed.smi

> <i_m_source_file_index>
137

> <i_lp_mmshare_version>
43012

> <i_f3d_flags>
0

> <s_epik_input>
Tz1bU0BAXShbQ0gyXTEpW0NIMl1bQ0gyXU4oW0NIMl1bQ0BIXTFbQ0gzXSljKG5bY0hdbjIpYyhjMjMpbltjSF1uM1tDSF0oW0NIMl00KVtDSDJdQzQoW0NIMl1bT0hdKVtDSDJdW09IXQ==

> <s_epik_cmdline>
J2VwaWtfcHl0aG9uJywgJy1waCcsICc3LjAnLCAnLXRuJywgJzgnLCAnLW1hJywgJzIwMCcsICctbWV0YWxfYmluZGluZycsICctaW1hZScsICc8aW5maWxlLm1hZT4nLCAnLW9tYWUnLCAnPG91dGZpbGUubWFlPic=

> <r_lp_tautomer_probability>
1

> <r_epik_Ionization_Penalty>
0.000811024

> <r_epik_Ionization_Penalty_Charging>
0

> <r_epik_Ionization_Penalty_Neutral>
0.000811024

> <r_epik_State_Penalty>
0.000429598

> <r_epik_Charging_Adjusted_Penalty>
0.000429598

> <i_epik_Tot_Q>
0

> <i_epik_Tot_abs_Q>
0

> <r_epik_Metal_State_Penalty>
-0

> <b_epik_Metal_Only>
0

> <s_lp_Force_Field>
OPLS_2005

> <r_lp_Energy>
41.7942

> <b_lp_Chiralities_Consistent>
1

> <s_lp_Variant>
AV-unprocessed.smi:137-1

> <Gold.Version>
5.8.1

> <Gold.Id.Protein>
6NUR|6NUR_protein|mol2

> <Gold.PLP.Fitness>
46.9912

> <Gold.PLP.PLP>
-40.9503

> <Gold.PLP.part.hbond>
-3.0000

> <Gold.PLP.part.metal>
0.0000

> <Gold.PLP.part.buried>
-5.0331

> <Gold.PLP.part.nonpolar>
-32.1157

> <Gold.PLP.part.repulsive>
0.1202

> <Gold.PLP.ligand.clash>
0.2709

> <Gold.PLP.ligand.torsion>
1.4318

> <Gold.PLP.Chemscore.Hbond>
2.8596

> <Gold.PLP.Chemscore.CHOScore>
0.0000

> <Gold.PLP.Chemscore.Metal>
0.0000

> <Gold.Chemscore.Hbonds>
donor molecule, donor type, donor heavy atom, donor atom, acceptor molecule, acceptor atom, score
      L1  H    20    43       P1  7948  1.00
      P1  H  7997  8009       L1     6  1.00
      P1  H 10752 10763       L1     8  0.83

> <Gold.PLP.Chemscore.Internal.Correction>
0.5967

> <Gold.Rescore>
     Score         DG    S(hbond)    S(metal)    S(lipo)     H(rot)  DE(clash)    DE(int)     intcor
     10.20     -15.05       1.99        0.00      87.75       2.87       0.15       4.70       ----

> <Gold.Chemscore.Fitness>
10.1970

> <Gold.Chemscore.DG>
-15.0467

> <Gold.Chemscore.ZeroCoef>
-5.4800

> <Gold.Chemscore.Hbond>
1.9921

> <Gold.Chemscore.Metal>
0.0000

> <Gold.Chemscore.Lipo>
87.7493

> <Gold.Chemscore.Internal_Hbond>
0.0000

> <Gold.Chemscore.DEClash>
0.1461

> <Gold.Chemscore.DEInternal>
4.7035

> <Gold.Chemscore.Rot>
2.8725

> <Gold.Chemscore.Internal.Correction>
   9.000000E+99

> <Gold.Chemscore.Hbonds>
donor molecule, donor type, donor heavy atom, donor atom, acceptor molecule, acceptor atom, score
      L1  H    20    43       P1  7948  0.65
      P1  H  7997  8009       L1     6  0.60
      P1  H 10752 10763       L1     8  0.72

> <Gold.Chemscore.Hbond.Weighted>
-6.6535

> <Gold.Chemscore.Metal.Weighted>
-0.0000

> <Gold.Chemscore.Lipo.Weighted>
-10.2667

> <Gold.Chemscore.Internal_Hbond.Weighted>
0.0000

> <Gold.Chemscore.DEClash.Weighted>
0.1461

> <Gold.Chemscore.DEInternal.Weighted>
4.7035

> <Gold.Chemscore.Rot.Weighted>
7.3535

> <Gold.Chemscore.Internal.Correction.Weighted>
   9.000000E+99

> <Gold.Protein.RotatedTorsions>
[ 6907 6896 6895 6894 ] final  -35.61 input  -60.11 | X-H torsion
[ 7974 7965 7964 7962 ] final   19.23 input  175.53 | X-H torsion
[ 8008 7997 7996 7995 ] final  177.00 input   59.86 | X-H torsion
[ 10167 10162 10161 10158 ] final  169.02 input  -65.29 | X-H torsion
[ 10718 10713 10712 10709 ] final  -13.46 input   66.30 | X-H torsion
[ 10763 10752 10751 10750 ] final   77.90 input  -60.55 | X-H torsion
[ 11005 11000 10999 10996 ] final  167.31 input  -57.11 | X-H torsion

> <Gold.Protein.ActiveResidues>
 VAL166  LYS551  ARG553  GLY616  TRP617  ASP618  TYR619  PRO620  LYS621  CYS622 
 ASP623  PHE694  ASN695  SER759  ASP760  ASP761  ALA762  ILE779  LEU786  VAL792 
 PHE793  MET794  SER795  GLU796  ALA797  LYS798  CYS799  TRP800  GLU811  SER814 

> <Gold.Protein.RotatedAtoms>
  151.0376  134.9584  159.8143 H   0  0  0  0  0  0  0  0  0  0  0  0  # atno 6907 bound_to 6896
  152.5358  134.2700  159.8978 H   0  0  0  0  0  0  0  0  0  0  0  0  # atno 6908 bound_to 6896
  151.2711  133.4212  159.2655 H   0  0  0  0  0  0  0  0  0  0  0  0  # atno 6909 bound_to 6896
  146.2157  139.8342  142.8654 H   0  0  0  0  0  0  0  0  0  0  0  0  # atno 7974 bound_to 7965
  156.0704  140.1369  156.9835 H   0  0  0  0  0  0  0  0  0  0  0  0  # atno 8008 bound_to 7997
  154.4529  140.0973  156.6722 H   0  0  0  0  0  0  0  0  0  0  0  0  # atno 8009 bound_to 7997
  155.5237  140.3457  155.4414 H   0  0  0  0  0  0  0  0  0  0  0  0  # atno 8010 bound_to 7997
  139.4982  144.3751  151.9683 H   0  0  0  0  0  0  0  0  0  0  0  0  # atno 10167 bound_to 10162
  156.6299  130.4899  149.6133 H   0  0  0  0  0  0  0  0  0  0  0  0  # atno 10718 bound_to 10713
  153.0833  135.4897  154.8547 H   0  0  0  0  0  0  0  0  0  0  0  0  # atno 10763 bound_to 10752
  154.7179  135.3033  154.9096 H   0  0  0  0  0  0  0  0  0  0  0  0  # atno 10764 bound_to 10752
  153.9770  135.6794  153.4802 H   0  0  0  0  0  0  0  0  0  0  0  0  # atno 10765 bound_to 10752
  140.2755  134.7793  157.3712 H   0  0  0  0  0  0  0  0  0  0  0  0  # atno 11005 bound_to 11000
  145.2965  141.0182  143.3633 LP  0  0  0  0  0  0  0  0  0  0  0  0  # atno 17320 bound_to 7965
  144.9038  139.4616  143.6620 LP  0  0  0  0  0  0  0  0  0  0  0  0  # atno 17321 bound_to 7965
  140.3187  144.3453  150.6015 LP  0  0  0  0  0  0  0  0  0  0  0  0  # atno 17342 bound_to 10162
  140.5740  143.2178  151.7548 LP  0  0  0  0  0  0  0  0  0  0  0  0  # atno 17343 bound_to 10162
  156.2243  130.6756  151.1400 LP  0  0  0  0  0  0  0  0  0  0  0  0  # atno 17370 bound_to 10713
  157.7203  131.0685  150.6163 LP  0  0  0  0  0  0  0  0  0  0  0  0  # atno 17371 bound_to 10713
  140.1333  134.5067  155.8088 LP  0  0  0  0  0  0  0  0  0  0  0  0  # atno 17394 bound_to 11000
  141.2171  133.6798  156.7079 LP  0  0  0  0  0  0  0  0  0  0  0  0  # atno 17395 bound_to 11000

$$$$
