AV-unprocessed.smi:290|AV-procd|sdf|2236|dock3
  -GOLD-   2262022103D 1   1.00000     0.00000
 Structure written by MMmdl.
 59 62  0  0  0  0  0  0  0  0  2 V2000
  151.2960  140.8757  157.6275 C   0  0  0  0  0  0  0  0  0  0  0  0
  151.2822  140.4992  156.1380 C   0  0  1  0  0  0  0  0  0  0  0  0
  152.4926  139.8469  155.7575 O   0  0  0  0  0  0  0  0  0  0  0  0
  152.2133  138.7130  154.9446 C   0  0  0  0  0  0  0  0  0  0  0  0
  150.7723  138.8932  154.4784 C   0  0  0  0  0  0  0  0  0  0  0  0
  150.1242  139.5909  155.6665 C   0  0  1  0  0  0  0  0  0  0  0  0
  149.8278  138.6169  156.6535 O   0  0  0  0  0  0  0  0  0  0  0  0
  148.7847  140.3102  155.3592 C   0  0  0  0  0  0  0  0  0  0  0  0
  147.8227  139.5228  154.6036 N   0  0  0  0  0  0  0  0  0  0  0  0
  147.5497  139.6210  153.2575 C   0  0  0  0  0  0  0  0  0  0  0  0
  146.6413  138.7970  152.8114 N   0  0  0  0  0  0  0  0  0  0  0  0
  146.2696  138.0647  153.9322 C   0  0  0  0  0  0  0  0  0  0  0  0
  145.3406  137.0134  154.1723 C   0  0  0  0  0  0  0  0  0  0  0  0
  144.5425  136.4578  153.2354 N   0  0  0  0  0  0  0  0  0  0  0  0
  145.0537  136.4746  151.8684 C   0  0  0  0  0  0  0  0  0  0  0  0
  144.6546  135.1347  151.2479 C   0  0  0  0  0  0  0  0  0  0  0  0
  144.6091  134.2026  152.4630 C   0  0  2  0  0  0  0  0  0  0  0  0
  143.8847  132.9116  152.2671 N   0  3  1  0  0  0  0  0  0  0  0  0
  142.6523  133.0634  151.4518 C   0  0  0  0  0  0  0  0  0  0  0  0
  144.7745  131.8401  151.7395 C   0  0  0  0  0  0  0  0  0  0  0  0
  145.9272  132.3775  150.8704 C   0  0  0  0  0  0  0  0  0  0  0  0
  146.4777  131.3403  150.0871 O   0  0  0  0  0  0  0  0  0  0  0  0
  144.0188  135.1311  153.5497 C   0  0  2  0  0  0  0  0  0  0  0  0
  142.4797  135.1864  153.5767 C   0  0  0  0  0  0  0  0  0  0  0  0
  145.2505  136.5168  155.4295 N   0  0  0  0  0  0  0  0  0  0  0  0
  146.0182  137.0185  156.4020 C   0  0  0  0  0  0  0  0  0  0  0  0
  146.9220  137.9983  156.3305 N   0  0  0  0  0  0  0  0  0  0  0  0
  147.0132  138.4992  155.0648 C   0  0  0  0  0  0  0  0  0  0  0  0
  145.6397  133.9620  152.7280 H   0  0  0  0  0  0  0  0  0  0  0  0
  144.3655  134.8099  154.5335 H   0  0  0  0  0  0  0  0  0  0  0  0
  150.3685  141.3711  157.9147 H   0  0  0  0  0  0  0  0  0  0  0  0
  152.1171  141.5590  157.8445 H   0  0  0  0  0  0  0  0  0  0  0  0
  151.4232  139.9999  158.2641 H   0  0  0  0  0  0  0  0  0  0  0  0
  151.2773  141.4194  155.5559 H   0  0  0  0  0  0  0  0  0  0  0  0
  152.9156  138.6349  154.1146 H   0  0  0  0  0  0  0  0  0  0  0  0
  152.3085  137.8133  155.5537 H   0  0  0  0  0  0  0  0  0  0  0  0
  150.7736  139.5377  153.6000 H   0  0  0  0  0  0  0  0  0  0  0  0
  150.2902  137.9545  154.2033 H   0  0  0  0  0  0  0  0  0  0  0  0
  149.3109  137.9330  156.2565 H   0  0  0  0  0  0  0  0  0  0  0  0
  148.3065  140.6179  156.2903 H   0  0  0  0  0  0  0  0  0  0  0  0
  148.9770  141.2284  154.8023 H   0  0  0  0  0  0  0  0  0  0  0  0
  148.0446  140.3338  152.6139 H   0  0  0  0  0  0  0  0  0  0  0  0
  144.6312  137.3104  151.3103 H   0  0  0  0  0  0  0  0  0  0  0  0
  146.1388  136.5871  151.8565 H   0  0  0  0  0  0  0  0  0  0  0  0
  143.6679  135.2173  150.7901 H   0  0  0  0  0  0  0  0  0  0  0  0
  145.3602  134.8129  150.4812 H   0  0  0  0  0  0  0  0  0  0  0  0
  142.8861  133.4640  150.4646 H   0  0  0  0  0  0  0  0  0  0  0  0
  141.9374  133.7315  151.9315 H   0  0  0  0  0  0  0  0  0  0  0  0
  142.1343  132.1158  151.3159 H   0  0  0  0  0  0  0  0  0  0  0  0
  145.1736  131.2625  152.5746 H   0  0  0  0  0  0  0  0  0  0  0  0
  144.2043  131.1345  151.1355 H   0  0  0  0  0  0  0  0  0  0  0  0
  145.6196  133.2003  150.2268 H   0  0  0  0  0  0  0  0  0  0  0  0
  146.7159  132.7687  151.5136 H   0  0  0  0  0  0  0  0  0  0  0  0
  147.4193  131.3647  150.1714 H   0  0  0  0  0  0  0  0  0  0  0  0
  142.0468  134.2285  153.8591 H   0  0  0  0  0  0  0  0  0  0  0  0
  142.0663  135.4688  152.6084 H   0  0  0  0  0  0  0  0  0  0  0  0
  142.1344  135.9195  154.3066 H   0  0  0  0  0  0  0  0  0  0  0  0
  145.8891  136.5726  157.3772 H   0  0  0  0  0  0  0  0  0  0  0  0
  143.5910  132.6120  153.1862 H   0  0  0  0  0  0  0  0  0  0  0  0
  1  2  1  0  0  0  0
  1 31  1  0  0  0  0
  1 32  1  0  0  0  0
  1 33  1  0  0  0  0
  2  6  1  0  0  0  0
  2  3  1  0  0  0  0
  2 34  1  0  0  0  0
  3  4  1  0  0  0  0
  4  5  1  0  0  0  0
  4 35  1  0  0  0  0
  4 36  1  0  0  0  0
  5  6  1  0  0  0  0
  5 37  1  0  0  0  0
  5 38  1  0  0  0  0
  6  7  1  0  0  0  0
  6  8  1  0  0  0  0
  7 39  1  0  0  0  0
  8  9  1  0  0  0  0
  8 40  1  0  0  0  0
  8 41  1  0  0  0  0
  9 28  1  0  0  0  0
  9 10  1  0  0  0  0
 10 11  2  0  0  0  0
 10 42  1  0  0  0  0
 11 12  1  0  0  0  0
 12 28  2  0  0  0  0
 12 13  1  0  0  0  0
 13 14  1  0  0  0  0
 13 25  2  0  0  0  0
 14 23  1  0  0  0  0
 14 15  1  0  0  0  0
 15 16  1  0  0  0  0
 15 43  1  0  0  0  0
 15 44  1  0  0  0  0
 16 17  1  0  0  0  0
 16 45  1  0  0  0  0
 16 46  1  0  0  0  0
 17 29  1  0  0  0  0
 17 18  1  0  0  0  0
 17 23  1  0  0  0  0
 18 19  1  0  0  0  0
 18 20  1  0  0  0  0
 18 59  1  0  0  0  0
 19 47  1  0  0  0  0
 19 48  1  0  0  0  0
 19 49  1  0  0  0  0
 20 21  1  0  0  0  0
 20 50  1  0  0  0  0
 20 51  1  0  0  0  0
 21 22  1  0  0  0  0
 21 52  1  0  0  0  0
 21 53  1  0  0  0  0
 22 54  1  0  0  0  0
 23 30  1  0  0  0  0
 23 24  1  0  0  0  0
 24 55  1  0  0  0  0
 24 56  1  0  0  0  0
 24 57  1  0  0  0  0
 25 26  1  0  0  0  0
 26 27  2  0  0  0  0
 26 58  1  0  0  0  0
 27 28  1  0  0  0  0
M  CHG  1  18   1
M  END
> <s_m_source_file>
AV-unprocessed.smi

> <i_m_source_file_index>
290

> <i_lp_mmshare_version>
43012

> <i_f3d_flags>
0

> <s_epik_input>
W0NIMl0xW0NIMl1PW0NAQEhdKFtDSDNdKVtDQEBdMShbT0hdKVtDSDJdbihbY0hdbjIpYyhjMjMpbltjSF1uYzNONFtDSDJdW0NIMl1bQ0BIXShbQ0BIXTRbQ0gzXSlOKFtDSDNdKVtDSDJdW0NIMl1bT0hd

> <s_epik_cmdline>
J2VwaWtfcHl0aG9uJywgJy1waCcsICc3LjAnLCAnLXRuJywgJzgnLCAnLW1hJywgJzIwMCcsICctbWV0YWxfYmluZGluZycsICctaW1hZScsICc8aW5maWxlLm1hZT4nLCAnLW9tYWUnLCAnPG91dGZpbGUubWFlPic=

> <r_lp_tautomer_probability>
1

> <r_epik_Ionization_Penalty>
0.0036983

> <r_epik_Ionization_Penalty_Charging>
0.0032725

> <r_epik_Ionization_Penalty_Neutral>
0.000425798

> <r_epik_State_Penalty>
-0

> <r_epik_Charging_Adjusted_Penalty>
0.0032725

> <i_epik_Tot_Q>
1

> <i_epik_Tot_abs_Q>
1

> <r_epik_Metal_State_Penalty>
-0

> <b_epik_Metal_Only>
0

> <s_lp_Force_Field>
OPLS_2005

> <r_lp_Energy>
67.6637

> <b_lp_Chiralities_Consistent>
1

> <s_lp_Variant>
AV-unprocessed.smi:290-22

> <Gold.Version>
5.8.1

> <Gold.Id.Protein>
6NUR|6NUR_protein|mol2

> <Gold.PLP.Fitness>
45.0221

> <Gold.PLP.PLP>
-33.9790

> <Gold.PLP.part.hbond>
-3.1344

> <Gold.PLP.part.metal>
0.0000

> <Gold.PLP.part.buried>
-2.6679

> <Gold.PLP.part.nonpolar>
-30.1948

> <Gold.PLP.part.repulsive>
0.3938

> <Gold.PLP.ligand.clash>
0.0000

> <Gold.PLP.ligand.torsion>
2.0678

> <Gold.PLP.Chemscore.Hbond>
3.9825

> <Gold.PLP.Chemscore.CHOScore>
0.9845

> <Gold.PLP.Chemscore.Metal>
0.0000

> <Gold.Chemscore.Hbonds>
donor molecule, donor type, donor heavy atom, donor atom, acceptor molecule, acceptor atom, score
      L1  H    18    59       P1 10957  2.00
      L1  H    22    54       P1 10747  1.00
      P1  H  7997  8008       L1     3  1.00
      L1  C    10    42       P1  7957  1.00

> <Gold.PLP.Chemscore.Internal.Correction>
0.2775

> <Gold.Rescore>
     Score         DG    S(hbond)    S(metal)    S(lipo)     H(rot)  DE(clash)    DE(int)     intcor
     10.30     -14.60       2.74        0.00      80.07       3.67       0.70       3.59       ----

> <Gold.Chemscore.Fitness>
10.3048

> <Gold.Chemscore.DG>
-14.6002

> <Gold.Chemscore.ZeroCoef>
-5.4800

> <Gold.Chemscore.Hbond>
2.7353

> <Gold.Chemscore.Metal>
0.0000

> <Gold.Chemscore.Lipo>
80.0746

> <Gold.Chemscore.Internal_Hbond>
0.0000

> <Gold.Chemscore.DEClash>
0.7018

> <Gold.Chemscore.DEInternal>
3.5936

> <Gold.Chemscore.Rot>
3.6658

> <Gold.Chemscore.Internal.Correction>
   9.000000E+99

> <Gold.Chemscore.Hbonds>
donor molecule, donor type, donor heavy atom, donor atom, acceptor molecule, acceptor atom, score
      L1  H    18    59       P1 10957  0.24
      L1  H    22    54       P1 10747  0.99
      P1  H  7997  8008       L1     3  0.95

> <Gold.Chemscore.Hbond.Weighted>
-9.1358

> <Gold.Chemscore.Metal.Weighted>
-0.0000

> <Gold.Chemscore.Lipo.Weighted>
-9.3687

> <Gold.Chemscore.Internal_Hbond.Weighted>
0.0000

> <Gold.Chemscore.DEClash.Weighted>
0.7018

> <Gold.Chemscore.DEInternal.Weighted>
3.5936

> <Gold.Chemscore.Rot.Weighted>
9.3844

> <Gold.Chemscore.Internal.Correction.Weighted>
   9.000000E+99

> <Gold.Protein.RotatedTorsions>
[ 6907 6896 6895 6894 ] final   34.92 input  -60.11 | X-H torsion
[ 7974 7965 7964 7962 ] final -147.66 input  175.53 | X-H torsion
[ 8008 7997 7996 7995 ] final  -40.91 input   59.86 | X-H torsion
[ 10167 10162 10161 10158 ] final  -96.68 input  -65.29 | X-H torsion
[ 10718 10713 10712 10709 ] final  -24.84 input   66.30 | X-H torsion
[ 10763 10752 10751 10750 ] final  163.26 input  -60.55 | X-H torsion
[ 11005 11000 10999 10996 ] final  155.79 input  -57.11 | X-H torsion

> <Gold.Protein.ActiveResidues>
 VAL166  LYS551  ARG553  GLY616  TRP617  ASP618  TYR619  PRO620  LYS621  CYS622 
 ASP623  PHE694  ASN695  SER759  ASP760  ASP761  ALA762  ILE779  LEU786  VAL792 
 PHE793  MET794  SER795  GLU796  ALA797  LYS798  CYS799  TRP800  GLU811  SER814 

> <Gold.Protein.RotatedAtoms>
  152.1090  134.9287  160.0567 H   0  0  0  0  0  0  0  0  0  0  0  0  # atno 6907 bound_to 6896
  152.0472  133.3998  159.4370 H   0  0  0  0  0  0  0  0  0  0  0  0  # atno 6908 bound_to 6896
  150.6842  134.3269  159.4854 H   0  0  0  0  0  0  0  0  0  0  0  0  # atno 6909 bound_to 6896
  144.8079  140.5298  143.5662 H   0  0  0  0  0  0  0  0  0  0  0  0  # atno 7974 bound_to 7965
  154.4008  140.1513  156.3104 H   0  0  0  0  0  0  0  0  0  0  0  0  # atno 8008 bound_to 7997
  155.8620  140.3453  155.5741 H   0  0  0  0  0  0  0  0  0  0  0  0  # atno 8009 bound_to 7997
  155.7869  140.0851  157.2020 H   0  0  0  0  0  0  0  0  0  0  0  0  # atno 8010 bound_to 7997
  140.2913  143.3220  152.0343 H   0  0  0  0  0  0  0  0  0  0  0  0  # atno 10167 bound_to 10162
  156.4723  130.4527  149.6862 H   0  0  0  0  0  0  0  0  0  0  0  0  # atno 10718 bound_to 10713
  154.2910  135.2761  155.2655 H   0  0  0  0  0  0  0  0  0  0  0  0  # atno 10763 bound_to 10752
  154.5134  135.5776  153.6626 H   0  0  0  0  0  0  0  0  0  0  0  0  # atno 10764 bound_to 10752
  152.9914  135.6186  154.3074 H   0  0  0  0  0  0  0  0  0  0  0  0  # atno 10765 bound_to 10752
  140.1614  134.8607  157.2579 H   0  0  0  0  0  0  0  0  0  0  0  0  # atno 11005 bound_to 11000
  145.5393  139.1475  143.3456 LP  0  0  0  0  0  0  0  0  0  0  0  0  # atno 17320 bound_to 7965
  146.2374  140.5533  142.8949 LP  0  0  0  0  0  0  0  0  0  0  0  0  # atno 17321 bound_to 7965
  139.4937  144.6523  151.6649 LP  0  0  0  0  0  0  0  0  0  0  0  0  # atno 17342 bound_to 10162
  140.5730  144.0077  150.6226 LP  0  0  0  0  0  0  0  0  0  0  0  0  # atno 17343 bound_to 10162
  156.3606  130.7479  151.2451 LP  0  0  0  0  0  0  0  0  0  0  0  0  # atno 17370 bound_to 10713
  157.7490  131.0351  150.4349 LP  0  0  0  0  0  0  0  0  0  0  0  0  # atno 17371 bound_to 10713
  140.2485  134.3711  155.7451 LP  0  0  0  0  0  0  0  0  0  0  0  0  # atno 17394 bound_to 11000
  141.2210  133.7304  156.8899 LP  0  0  0  0  0  0  0  0  0  0  0  0  # atno 17395 bound_to 11000

$$$$
