#       Name:                AV-unprocessed.smi:1823
#       Creating user name   scv26
#       Creation time:       Fri Mar 27 09:06:13 2020


#       File generated by GOLD software.
#

@<TRIPOS>MOLECULE
AV-unprocessed.smi:1823
    51    52     1
SMALL
NO_CHARGES


@<TRIPOS>ATOM
      1 ****        -2.4134   1.6645  -3.6587 C.3            1 S1                 0.0000
      2 ****        -1.8974   0.2778  -3.4821 C.2            1 S1                 0.0000
      3 ****        -0.6442  -0.0304  -3.7923 N.2            1 S1                 0.0000
      4 ****        -0.5588  -1.3934  -3.4747 O.3            1 S1                 0.0000
      5 ****        -1.7863  -1.7451  -3.0203 C.2            1 S1                 0.0000
      6 ****        -2.0027  -3.1411  -2.5304 C.3            1 S1                 0.0000
      7 ****        -1.7681  -3.3225  -1.0176 C.3            1 S1                 0.0000
      8 ****        -0.4261  -2.9182  -0.6031 N.am           1 S1                 0.0000
      9 ****        -0.0968  -1.7155  -0.1053 C.2            1 S1                 0.0000
     10 ****        -0.9170  -0.8178   0.0915 O.2            1 S1                 0.0000
     11 ****         1.3909  -1.4813   0.1994 C.3            1 S1                 0.0000
     12 ****         1.9835  -0.4056  -0.7322 C.3            1 S1                 0.0000
     13 ****         2.1878   0.7925   0.1802 C.2            1 S1                 0.0000
     14 ****         2.5378   1.8956  -0.2364 O.2            1 S1                 0.0000
     15 ****         1.9173   0.4762   1.4522 N.am           1 S1                 0.0000
     16 ****         1.9896   1.3647   2.6109 C.3            1 S1                 0.0000
     17 ****         0.6210   1.9793   2.9819 C.3            1 S1                 0.0000
     18 ****         0.0033   2.8223   1.8523 C.3            1 S1                 0.0000
     19 ****         0.7356   2.8082   4.2701 C.3            1 S1                 0.0000
     20 ****         1.6222  -0.9366   1.6245 C.3            1 S1                 0.0000
     21 ****        -2.6598  -0.7415  -2.9985 N.2            1 S1                 0.0000
     22 ****        -2.3516   1.9599  -4.7063 H              1 S1                 0.0000
     23 ****        -1.8256   2.3644  -3.0644 H              1 S1                 0.0000
     24 ****        -3.4545   1.7332  -3.3417 H              1 S1                 0.0000
     25 ****        -3.0202  -3.4417  -2.7819 H              1 S1                 0.0000
     26 ****        -1.3412  -3.8064  -3.0866 H              1 S1                 0.0000
     27 ****        -2.5241  -2.7711  -0.4562 H              1 S1                 0.0000
     28 ****        -1.9027  -4.3712  -0.7529 H              1 S1                 0.0000
     29 ****         0.3124  -3.5952  -0.7299 H              1 S1                 0.0000
     30 ****         1.9313  -2.4214   0.0759 H              1 S1                 0.0000
     31 ****         2.9450  -0.7221  -1.1370 H              1 S1                 0.0000
     32 ****         1.3347  -0.1434  -1.5696 H              1 S1                 0.0000
     33 ****         2.3781   0.7945   3.4559 H              1 S1                 0.0000
     34 ****         2.7174   2.1570   2.4266 H              1 S1                 0.0000
     35 ****        -0.0675   1.1587   3.1885 H              1 S1                 0.0000
     36 ****         0.6747   3.6241   1.5436 H              1 S1                 0.0000
     37 ****        -0.9344   3.2779   2.1714 H              1 S1                 0.0000
     38 ****        -0.2211   2.2158   0.9749 H              1 S1                 0.0000
     39 ****         1.4039   3.6595   4.1352 H              1 S1                 0.0000
     40 ****         1.1238   2.2066   5.0925 H              1 S1                 0.0000
     41 ****        -0.2369   3.1939   4.5780 H              1 S1                 0.0000
     42 ****         0.7625  -1.0779   2.2819 H              1 S1                 0.0000
     43 ****         2.4769  -1.4282   2.0914 H              1 S1                 0.0000
     44 ****         0.0677   0.5660  -4.1632 LP             1 S1                 0.0000
     45 ****         0.1308  -1.5431  -2.7661 LP             1 S1                 0.0000
     46 ****        -0.3227  -1.9260  -4.2874 LP             1 S1                 0.0000
     47 ****        -1.8825  -0.9671  -0.1219 LP             1 S1                 0.0000
     48 ****        -0.6173   0.0603   0.4646 LP             1 S1                 0.0000
     49 ****         2.7005   2.0325  -1.2136 LP             1 S1                 0.0000
     50 ****         2.6597   2.6556   0.4020 LP             1 S1                 0.0000
     51 ****        -3.6162  -0.7371  -2.7064 LP             1 S1                 0.0000
@<TRIPOS>BOND
    1    1    2 1     
    2    1   22 1     
    3    1   23 1     
    4    1   24 1     
    5    2   21 1     
    6    2    3 2     
    7    3    4 1     
    8    4    5 1     
    9    5    6 1     
   10    5   21 2     
   11    6    7 1     
   12    6   25 1     
   13    6   26 1     
   14    7    8 1     
   15    7   27 1     
   16    7   28 1     
   17    8    9 am    
   18    8   29 1     
   19    9   10 2     
   20    9   11 1     
   21   11   20 1     
   22   11   12 1     
   23   11   30 1     
   24   12   13 1     
   25   12   31 1     
   26   12   32 1     
   27   13   14 2     
   28   13   15 am    
   29   15   16 1     
   30   15   20 1     
   31   16   17 1     
   32   16   33 1     
   33   16   34 1     
   34   17   18 1     
   35   17   19 1     
   36   17   35 1     
   37   18   36 1     
   38   18   37 1     
   39   18   38 1     
   40   19   39 1     
   41   19   40 1     
   42   19   41 1     
   43   20   42 1     
   44   20   43 1     
   45    3   44 1     
   46    4   45 1     
   47    4   46 1     
   48   10   47 1     
   49   10   48 1     
   50   14   49 1     
   51   14   50 1     
   52   21   51 1     
@<TRIPOS>SUBSTRUCTURE
      1 S1             1
@<TRIPOS>SET
LONE_PAIRS      STATIC     ATOMS    <user>   **** ""
8 44 45 46 47 48 49 50 51
DONOR_HYDROGENS      STATIC     ATOMS    <user>   **** ""
1 29
ATOM$BLUE        STATIC     ATOMS    COLORGROUP SYSTEM
8 44 45 46 47 48 49 50 51
ATOM$RED        STATIC     ATOMS    COLORGROUP SYSTEM
1 29
