AV-unprocessed.smi:1875|AV-procd|sdf|7618|dock1
  -GOLD-   22720 9343D 1   1.00000     0.00000
 Structure written by MMmdl.
 48 50  0  0  0  0  0  0  0  0  2 V2000
  145.9032  133.0669  155.9507 C   0  0  0  0  0  0  0  0  0  0  0  0
  147.1733  133.2465  155.1452 C   0  0  0  0  0  0  0  0  0  0  0  0
  147.3471  132.4359  154.0964 N   0  0  0  0  0  0  0  0  0  0  0  0
  148.4814  132.5983  153.3806 C   0  0  0  0  0  0  0  0  0  0  0  0
  149.4396  133.5753  153.7191 C   0  0  0  0  0  0  0  0  0  0  0  0
  149.1454  134.3716  154.8463 C   0  0  0  0  0  0  0  0  0  0  0  0
  150.0974  135.4525  155.3171 C   0  0  0  0  0  0  0  0  0  0  0  0
  150.1593  136.5739  154.3850 N   0  0  0  0  0  0  0  0  0  0  0  0
  151.2554  137.4966  154.6670 C   0  0  0  0  0  0  0  0  0  0  0  0
  150.7309  138.8909  155.0471 C   0  0  2  0  0  0  0  0  0  0  0  0
  150.3755  139.5737  153.8606 O   0  0  0  0  0  0  0  0  0  0  0  0
  151.7989  139.7156  155.7923 C   0  0  0  0  0  0  0  0  0  0  0  0
  151.2708  140.9687  156.3486 N   0  0  0  0  0  0  0  0  0  0  0  0
  150.3757  141.8492  155.8239 C   0  0  0  0  0  0  0  0  0  0  0  0
  150.2126  142.8553  156.7270 N   0  3  0  0  0  0  0  0  0  0  0  0
  151.0163  142.6141  157.8433 C   0  0  0  0  0  0  0  0  0  0  0  0
  151.1966  143.3453  159.0115 C   0  0  0  0  0  0  0  0  0  0  0  0
  152.0965  142.8221  159.9673 C   0  0  0  0  0  0  0  0  0  0  0  0
  152.3196  143.5990  161.2540 C   0  0  0  0  0  0  0  0  0  0  0  0
  152.7792  141.5997  159.7355 C   0  0  0  0  0  0  0  0  0  0  0  0
  153.7437  141.0466  160.7711 C   0  0  0  0  0  0  0  0  0  0  0  0
  152.5816  140.8702  158.5411 C   0  0  0  0  0  0  0  0  0  0  0  0
  151.6950  141.4026  157.6085 C   0  0  0  0  0  0  0  0  0  0  0  0
  148.0089  134.2040  155.5585 N   0  0  0  0  0  0  0  0  0  0  0  0
  145.2787  132.2709  155.5429 H   0  0  0  0  0  0  0  0  0  0  0  0
  145.3211  133.9890  155.9498 H   0  0  0  0  0  0  0  0  0  0  0  0
  146.1431  132.8142  156.9840 H   0  0  0  0  0  0  0  0  0  0  0  0
  148.6255  131.9450  152.5329 H   0  0  0  0  0  0  0  0  0  0  0  0
  150.3460  133.7041  153.1463 H   0  0  0  0  0  0  0  0  0  0  0  0
  149.7705  135.7964  156.2991 H   0  0  0  0  0  0  0  0  0  0  0  0
  151.0905  135.0209  155.4519 H   0  0  0  0  0  0  0  0  0  0  0  0
  149.2794  137.0791  154.4116 H   0  0  0  0  0  0  0  0  0  0  0  0
  151.8419  137.1015  155.4977 H   0  0  0  0  0  0  0  0  0  0  0  0
  151.9346  137.5638  153.8157 H   0  0  0  0  0  0  0  0  0  0  0  0
  149.8455  138.7973  155.6778 H   0  0  0  0  0  0  0  0  0  0  0  0
  150.1473  138.9309  153.2058 H   0  0  0  0  0  0  0  0  0  0  0  0
  152.2458  139.1387  156.6028 H   0  0  0  0  0  0  0  0  0  0  0  0
  152.6139  139.9779  155.1160 H   0  0  0  0  0  0  0  0  0  0  0  0
  149.8822  141.7634  154.8663 H   0  0  0  0  0  0  0  0  0  0  0  0
  150.6724  144.2744  159.1815 H   0  0  0  0  0  0  0  0  0  0  0  0
  153.3657  143.8904  161.3487 H   0  0  0  0  0  0  0  0  0  0  0  0
  152.0487  142.9938  162.1191 H   0  0  0  0  0  0  0  0  0  0  0  0
  151.7171  144.5072  161.2816 H   0  0  0  0  0  0  0  0  0  0  0  0
  154.1809  140.1024  160.4455 H   0  0  0  0  0  0  0  0  0  0  0  0
  153.2308  140.8675  161.7163 H   0  0  0  0  0  0  0  0  0  0  0  0
  154.5597  141.7480  160.9466 H   0  0  0  0  0  0  0  0  0  0  0  0
  153.1003  139.9397  158.3633 H   0  0  0  0  0  0  0  0  0  0  0  0
  149.5965  143.6462  156.5888 H   0  0  0  0  0  0  0  0  0  0  0  0
  1  2  1  0  0  0  0
  1 25  1  0  0  0  0
  1 26  1  0  0  0  0
  1 27  1  0  0  0  0
  2 24  1  0  0  0  0
  2  3  2  0  0  0  0
  3  4  1  0  0  0  0
  4  5  2  0  0  0  0
  4 28  1  0  0  0  0
  5  6  1  0  0  0  0
  5 29  1  0  0  0  0
  6  7  1  0  0  0  0
  6 24  2  0  0  0  0
  7  8  1  0  0  0  0
  7 30  1  0  0  0  0
  7 31  1  0  0  0  0
  8  9  1  0  0  0  0
  8 32  1  0  0  0  0
  9 10  1  0  0  0  0
  9 33  1  0  0  0  0
  9 34  1  0  0  0  0
 10 11  1  0  0  0  0
 10 12  1  0  0  0  0
 10 35  1  0  0  0  0
 11 36  1  0  0  0  0
 12 13  1  0  0  0  0
 12 37  1  0  0  0  0
 12 38  1  0  0  0  0
 13 23  1  0  0  0  0
 13 14  1  0  0  0  0
 14 15  2  0  0  0  0
 14 39  1  0  0  0  0
 15 16  1  0  0  0  0
 15 48  1  0  0  0  0
 16 23  2  0  0  0  0
 16 17  1  0  0  0  0
 17 18  2  0  0  0  0
 17 40  1  0  0  0  0
 18 19  1  0  0  0  0
 18 20  1  0  0  0  0
 19 41  1  0  0  0  0
 19 42  1  0  0  0  0
 19 43  1  0  0  0  0
 20 21  1  0  0  0  0
 20 22  2  0  0  0  0
 21 44  1  0  0  0  0
 21 45  1  0  0  0  0
 21 46  1  0  0  0  0
 22 23  1  0  0  0  0
 22 47  1  0  0  0  0
M  CHG  1  15   1
M  END
> <s_m_source_file>
AV-unprocessed.smi

> <i_m_source_file_index>
1875

> <i_lp_mmshare_version>
43012

> <i_f3d_flags>
0

> <s_epik_input>
W0NIM11jMW5bY0hdW2NIXWMobjEpW0NIMl1bTkhdW0NIMl1bQ0BIXShbT0hdKVtDSDJdbihbY0hdbjIpYyhjMjMpW2NIXWMoW0NIM10pYyhbY0hdMylbQ0gzXQ==

> <s_epik_cmdline>
J2VwaWtfcHl0aG9uJywgJy1waCcsICc3LjAnLCAnLXRuJywgJzgnLCAnLW1hJywgJzIwMCcsICctbWV0YWxfYmluZGluZycsICctaW1hZScsICc8aW5maWxlLm1hZT4nLCAnLW9tYWUnLCAnPG91dGZpbGUubWFlPic=

> <r_epik_Ionization_Penalty>
2.02862

> <r_epik_Ionization_Penalty_Charging>
1.0004

> <r_epik_Ionization_Penalty_Neutral>
1.02823

> <r_epik_State_Penalty>
2.23022

> <r_epik_Charging_Adjusted_Penalty>
3.23062

> <i_epik_Tot_Q>
1

> <i_epik_Tot_abs_Q>
1

> <r_epik_Metal_State_Penalty>
2.31249

> <b_epik_Metal_Only>
0

> <s_epik_Chemistry_Notes>
This compound contains an electron-poor aromatic ring that is susceptible to covalent hydrolysis at low pH, typically resulting in measured values for nitrogen ring protonation that are around two units higher than predicted values.

> <s_lp_Force_Field>
OPLS_2005

> <r_lp_Energy>
18.1078

> <b_lp_Chiralities_Consistent>
1

> <s_lp_Variant>
AV-unprocessed.smi:1875-7

> <Gold.Version>
5.8.1

> <Gold.Id.Protein>
6NUR|6NUR_protein|mol2

> <Gold.PLP.Fitness>
60.3587

> <Gold.PLP.PLP>
-50.0663

> <Gold.PLP.part.hbond>
-4.7091

> <Gold.PLP.part.metal>
0.0000

> <Gold.PLP.part.buried>
-5.2636

> <Gold.PLP.part.nonpolar>
-39.8939

> <Gold.PLP.part.repulsive>
0.1194

> <Gold.PLP.ligand.clash>
0.0000

> <Gold.PLP.ligand.torsion>
0.9942

> <Gold.PLP.Chemscore.Hbond>
3.0187

> <Gold.PLP.Chemscore.CHOScore>
0.9988

> <Gold.PLP.Chemscore.Metal>
0.0000

> <Gold.Chemscore.Hbonds>
donor molecule, donor type, donor heavy atom, donor atom, acceptor molecule, acceptor atom, score
      L1  H    11    36       P1  7957  0.03
      L1  H    15    48       P1  8028  2.00
      P1  H  7989  7998       L1    11  1.00
      L1  C     4    28       P1 10747  1.00

> <Gold.PLP.Chemscore.Internal.Correction>
0.2281

> <Gold.Rescore>
     Score         DG    S(hbond)    S(metal)    S(lipo)     H(rot)  DE(clash)    DE(int)     intcor
     16.61     -18.64       1.94        0.00     118.38       2.80       0.01       2.01       ----

> <Gold.Chemscore.Fitness>
16.6133

> <Gold.Chemscore.DG>
-18.6359

> <Gold.Chemscore.ZeroCoef>
-5.4800

> <Gold.Chemscore.Hbond>
1.9405

> <Gold.Chemscore.Metal>
0.0000

> <Gold.Chemscore.Lipo>
118.3841

> <Gold.Chemscore.Internal_Hbond>
0.0000

> <Gold.Chemscore.DEClash>
0.0126

> <Gold.Chemscore.DEInternal>
2.0100

> <Gold.Chemscore.Rot>
2.8032

> <Gold.Chemscore.Internal.Correction>
   9.000000E+99

> <Gold.Chemscore.Hbonds>
donor molecule, donor type, donor heavy atom, donor atom, acceptor molecule, acceptor atom, score
      L1  H    11    36       P1  7957  0.03
      L1  H    15    48       P1  8028  0.95
      P1  H  7989  7998       L1    11  0.72

> <Gold.Chemscore.Hbond.Weighted>
-6.4811

> <Gold.Chemscore.Metal.Weighted>
-0.0000

> <Gold.Chemscore.Lipo.Weighted>
-13.8509

> <Gold.Chemscore.Internal_Hbond.Weighted>
0.0000

> <Gold.Chemscore.DEClash.Weighted>
0.0126

> <Gold.Chemscore.DEInternal.Weighted>
2.0100

> <Gold.Chemscore.Rot.Weighted>
7.1761

> <Gold.Chemscore.Internal.Correction.Weighted>
   9.000000E+99

> <Gold.Protein.RotatedTorsions>
[ 6907 6896 6895 6894 ] final  -11.09 input  -60.11 | X-H torsion
[ 7974 7965 7964 7962 ] final -102.34 input  175.53 | X-H torsion
[ 8008 7997 7996 7995 ] final -130.05 input   59.86 | X-H torsion
[ 10167 10162 10161 10158 ] final -141.35 input  -65.29 | X-H torsion
[ 10718 10713 10712 10709 ] final -167.94 input   66.30 | X-H torsion
[ 10763 10752 10751 10750 ] final  153.91 input  -60.55 | X-H torsion
[ 11005 11000 10999 10996 ] final  -51.32 input  -57.11 | X-H torsion

> <Gold.Protein.ActiveResidues>
 VAL166  LYS551  ARG553  GLY616  TRP617  ASP618  TYR619  PRO620  LYS621  CYS622 
 ASP623  PHE694  ASN695  SER759  ASP760  ASP761  ALA762  ILE779  LEU786  VAL792 
 PHE793  MET794  SER795  GLU796  ALA797  LYS798  CYS799  TRP800  GLU811  SER814 

> <Gold.Protein.RotatedAtoms>
  151.3916  135.0957  159.9527 H   0  0  0  0  0  0  0  0  0  0  0  0  # atno 6907 bound_to 6896
  152.5078  133.8974  159.7434 H   0  0  0  0  0  0  0  0  0  0  0  0  # atno 6908 bound_to 6896
  150.9429  133.6580  159.2816 H   0  0  0  0  0  0  0  0  0  0  0  0  # atno 6909 bound_to 6896
  145.2700  140.9296  143.2991 H   0  0  0  0  0  0  0  0  0  0  0  0  # atno 7974 bound_to 7965
  155.2893  140.0447  157.3022 H   0  0  0  0  0  0  0  0  0  0  0  0  # atno 8008 bound_to 7997
  154.5551  140.2329  155.8391 H   0  0  0  0  0  0  0  0  0  0  0  0  # atno 8009 bound_to 7997
  156.2000  140.3028  155.9514 H   0  0  0  0  0  0  0  0  0  0  0  0  # atno 8010 bound_to 7997
  139.8193  143.7596  152.2666 H   0  0  0  0  0  0  0  0  0  0  0  0  # atno 10167 bound_to 10162
  156.6897  130.9154  151.3067 H   0  0  0  0  0  0  0  0  0  0  0  0  # atno 10718 bound_to 10713
  154.1438  135.2819  155.3153 H   0  0  0  0  0  0  0  0  0  0  0  0  # atno 10763 bound_to 10752
  154.6267  135.5449  153.7638 H   0  0  0  0  0  0  0  0  0  0  0  0  # atno 10764 bound_to 10752
  153.0242  135.6452  154.1585 H   0  0  0  0  0  0  0  0  0  0  0  0  # atno 10765 bound_to 10752
  141.0865  133.6641  156.3860 H   0  0  0  0  0  0  0  0  0  0  0  0  # atno 11005 bound_to 11000
  144.9343  139.4262  143.6480 LP  0  0  0  0  0  0  0  0  0  0  0  0  # atno 17320 bound_to 7965
  146.3249  139.8270  142.8915 LP  0  0  0  0  0  0  0  0  0  0  0  0  # atno 17321 bound_to 7965
  139.7769  144.7458  151.0143 LP  0  0  0  0  0  0  0  0  0  0  0  0  # atno 17342 bound_to 10162
  140.7814  143.4584  151.0313 LP  0  0  0  0  0  0  0  0  0  0  0  0  # atno 17343 bound_to 10162
  157.7013  130.9336  150.0795 LP  0  0  0  0  0  0  0  0  0  0  0  0  # atno 17370 bound_to 10713
  156.1806  130.3650  149.9040 LP  0  0  0  0  0  0  0  0  0  0  0  0  # atno 17371 bound_to 10713
  140.5352  134.6174  157.5362 LP  0  0  0  0  0  0  0  0  0  0  0  0  # atno 17394 bound_to 11000
  139.9684  134.7335  156.0092 LP  0  0  0  0  0  0  0  0  0  0  0  0  # atno 17395 bound_to 11000

$$$$
