AV-unprocessed.smi:946|AV-procd|sdf|4236|dock1
  -GOLD-   22720 2143D 1   1.00000     0.00000
 Structure written by MMmdl.
 42 43  0  0  0  0  0  0  0  0  1 V2000
  151.5266  138.5371  154.4184 C   0  0  0  0  0  0  0  0  0  0  0  0
  150.9127  139.3245  155.5848 C   0  0  2  0  0  0  0  0  0  0  0  0
  150.3570  140.5194  155.0439 O   0  0  0  0  0  0  0  0  0  0  0  0
  149.1089  140.3670  154.3785 C   0  0  0  0  0  0  0  0  0  0  0  0
  148.1551  141.4610  154.8759 C   0  0  1  0  0  0  0  0  0  0  0  0
  146.9551  141.6574  153.9290 C   0  0  0  0  0  0  0  0  0  0  0  0
  145.9823  142.6948  154.5020 C   0  0  0  0  0  0  0  0  0  0  0  0
  145.5934  142.3050  155.9318 C   0  0  0  0  0  0  0  0  0  0  0  0
  146.8517  142.0581  156.7793 C   0  0  0  0  0  0  0  0  0  0  0  0
  147.6685  141.0705  156.1584 O   0  0  0  0  0  0  0  0  0  0  0  0
  151.9737  139.6633  156.6438 C   0  0  0  0  0  0  0  0  0  0  0  0
  153.1274  139.2570  156.5009 O   0  0  0  0  0  0  0  0  0  0  0  0
  151.5496  140.4154  157.6770 N   0  0  0  0  0  0  0  0  0  0  0  0
  152.2932  140.8697  158.7980 C   0  0  0  0  0  0  0  0  0  0  0  0
  151.9538  142.1606  159.2595 C   0  0  0  0  0  0  0  0  0  0  0  0
  152.6316  142.6989  160.3697 C   0  0  0  0  0  0  0  0  0  0  0  0
  153.6337  141.9330  160.9910 C   0  0  0  0  0  0  0  0  0  0  0  0
  153.9169  140.6527  160.4695 C   0  0  0  0  0  0  0  0  0  0  0  0
  154.9877  139.7597  161.0806 C   0  0  0  0  0  0  0  0  0  0  0  0
  155.4585  140.2640  162.2220 F   0  0  0  0  0  0  0  0  0  0  0  0
  154.4782  138.5536  161.3311 F   0  0  0  0  0  0  0  0  0  0  0  0
  156.0036  139.6286  160.2272 F   0  0  0  0  0  0  0  0  0  0  0  0
  153.2624  140.1401  159.4029 N   0  0  0  0  0  0  0  0  0  0  0  0
  151.9736  137.6035  154.7623 H   0  0  0  0  0  0  0  0  0  0  0  0
  152.3004  139.1120  153.9080 H   0  0  0  0  0  0  0  0  0  0  0  0
  150.7652  138.2848  153.6800 H   0  0  0  0  0  0  0  0  0  0  0  0
  150.1182  138.7209  156.0277 H   0  0  0  0  0  0  0  0  0  0  0  0
  149.2686  140.4761  153.3048 H   0  0  0  0  0  0  0  0  0  0  0  0
  148.6721  139.3817  154.5461 H   0  0  0  0  0  0  0  0  0  0  0  0
  148.7054  142.4000  154.9602 H   0  0  0  0  0  0  0  0  0  0  0  0
  147.2974  141.9742  152.9432 H   0  0  0  0  0  0  0  0  0  0  0  0
  146.4362  140.7079  153.7900 H   0  0  0  0  0  0  0  0  0  0  0  0
  146.4543  143.6782  154.5051 H   0  0  0  0  0  0  0  0  0  0  0  0
  145.0947  142.7745  153.8739 H   0  0  0  0  0  0  0  0  0  0  0  0
  144.9808  143.0859  156.3831 H   0  0  0  0  0  0  0  0  0  0  0  0
  144.9843  141.4004  155.9129 H   0  0  0  0  0  0  0  0  0  0  0  0
  147.4181  142.9807  156.9149 H   0  0  0  0  0  0  0  0  0  0  0  0
  146.5711  141.7083  157.7729 H   0  0  0  0  0  0  0  0  0  0  0  0
  150.5761  140.6817  157.6642 H   0  0  0  0  0  0  0  0  0  0  0  0
  151.1795  142.7356  158.7725 H   0  0  0  0  0  0  0  0  0  0  0  0
  152.3851  143.6836  160.7390 H   0  0  0  0  0  0  0  0  0  0  0  0
  154.1656  142.3254  161.8449 H   0  0  0  0  0  0  0  0  0  0  0  0
  1  2  1  0  0  0  0
  1 24  1  0  0  0  0
  1 25  1  0  0  0  0
  1 26  1  0  0  0  0
  2  3  1  0  0  0  0
  2 11  1  0  0  0  0
  2 27  1  0  0  0  0
  3  4  1  0  0  0  0
  4  5  1  0  0  0  0
  4 28  1  0  0  0  0
  4 29  1  0  0  0  0
  5 10  1  0  0  0  0
  5  6  1  0  0  0  0
  5 30  1  0  0  0  0
  6  7  1  0  0  0  0
  6 31  1  0  0  0  0
  6 32  1  0  0  0  0
  7  8  1  0  0  0  0
  7 33  1  0  0  0  0
  7 34  1  0  0  0  0
  8  9  1  0  0  0  0
  8 35  1  0  0  0  0
  8 36  1  0  0  0  0
  9 10  1  0  0  0  0
  9 37  1  0  0  0  0
  9 38  1  0  0  0  0
 11 12  2  0  0  0  0
 11 13  1  0  0  0  0
 13 14  1  0  0  0  0
 13 39  1  0  0  0  0
 14 23  1  0  0  0  0
 14 15  2  0  0  0  0
 15 16  1  0  0  0  0
 15 40  1  0  0  0  0
 16 17  2  0  0  0  0
 16 41  1  0  0  0  0
 17 18  1  0  0  0  0
 17 42  1  0  0  0  0
 18 19  1  0  0  0  0
 18 23  2  0  0  0  0
 19 20  1  0  0  0  0
 19 21  1  0  0  0  0
 19 22  1  0  0  0  0
M  END
> <s_m_source_file>
AV-unprocessed.smi

> <i_m_source_file_index>
946

> <i_lp_mmshare_version>
43012

> <i_f3d_flags>
0

> <s_epik_input>
TzFbQ0gyXVtDSDJdW0NIMl1bQ0gyXVtDQEhdMVtDSDJdT1tDQEBIXShbQ0gzXSlDKD1PKVtOSF1jMltjSF1bY0hdW2NIXWMobjIpQyhGKShGKUY=

> <s_epik_cmdline>
J2VwaWtfcHl0aG9uJywgJy1waCcsICc3LjAnLCAnLXRuJywgJzgnLCAnLW1hJywgJzIwMCcsICctbWV0YWxfYmluZGluZycsICctaW1hZScsICc8aW5maWxlLm1hZT4nLCAnLW9tYWUnLCAnPG91dGZpbGUubWFlPic=

> <r_lp_tautomer_probability>
1

> <r_epik_Ionization_Penalty>
1.32683e-06

> <r_epik_Ionization_Penalty_Charging>
0

> <r_epik_Ionization_Penalty_Neutral>
1.32683e-06

> <r_epik_State_Penalty>
-0

> <r_epik_Charging_Adjusted_Penalty>
0

> <i_epik_Tot_Q>
0

> <i_epik_Tot_abs_Q>
0

> <r_epik_Metal_State_Penalty>
-0

> <b_epik_Metal_Only>
0

> <s_lp_Force_Field>
OPLS_2005

> <r_lp_Energy>
15.6569

> <b_lp_Chiralities_Consistent>
1

> <s_lp_Variant>
AV-unprocessed.smi:946-3

> <Gold.Version>
5.8.1

> <Gold.Id.Protein>
6NUR|6NUR_protein|mol2

> <Gold.PLP.Fitness>
50.2269

> <Gold.PLP.PLP>
-46.3616

> <Gold.PLP.part.hbond>
-2.0000

> <Gold.PLP.part.metal>
0.0000

> <Gold.PLP.part.buried>
-4.9712

> <Gold.PLP.part.nonpolar>
-39.3728

> <Gold.PLP.part.repulsive>
0.2166

> <Gold.PLP.ligand.clash>
0.0000

> <Gold.PLP.ligand.torsion>
1.1061

> <Gold.PLP.Chemscore.Hbond>
1.9920

> <Gold.PLP.Chemscore.CHOScore>
0.0000

> <Gold.PLP.Chemscore.Metal>
0.0000

> <Gold.Chemscore.Hbonds>
donor molecule, donor type, donor heavy atom, donor atom, acceptor molecule, acceptor atom, score
      P1  H  7989  7998       L1     3  0.98
      P1  H  7997  8008       L1    12  0.91

> <Gold.PLP.Chemscore.Internal.Correction>
0.1015

> <Gold.Rescore>
     Score         DG    S(hbond)    S(metal)    S(lipo)     H(rot)  DE(clash)    DE(int)     intcor
     14.99     -17.14       1.55        0.00      93.95       1.76       0.17       1.98       ----

> <Gold.Chemscore.Fitness>
14.9911

> <Gold.Chemscore.DG>
-17.1412

> <Gold.Chemscore.ZeroCoef>
-5.4800

> <Gold.Chemscore.Hbond>
1.5459

> <Gold.Chemscore.Metal>
0.0000

> <Gold.Chemscore.Lipo>
93.9515

> <Gold.Chemscore.Internal_Hbond>
0.0000

> <Gold.Chemscore.DEClash>
0.1731

> <Gold.Chemscore.DEInternal>
1.9769

> <Gold.Chemscore.Rot>
1.7557

> <Gold.Chemscore.Internal.Correction>
   9.000000E+99

> <Gold.Chemscore.Hbonds>
donor molecule, donor type, donor heavy atom, donor atom, acceptor molecule, acceptor atom, score
      P1  H  7989  7998       L1     3  0.11
      P1  H  7997  8008       L1    12  0.88

> <Gold.Chemscore.Hbond.Weighted>
-5.1635

> <Gold.Chemscore.Metal.Weighted>
-0.0000

> <Gold.Chemscore.Lipo.Weighted>
-10.9923

> <Gold.Chemscore.Internal_Hbond.Weighted>
0.0000

> <Gold.Chemscore.DEClash.Weighted>
0.1731

> <Gold.Chemscore.DEInternal.Weighted>
1.9769

> <Gold.Chemscore.Rot.Weighted>
4.4946

> <Gold.Chemscore.Internal.Correction.Weighted>
   9.000000E+99

> <Gold.Protein.RotatedTorsions>
[ 6907 6896 6895 6894 ] final -121.28 input  -60.11 | X-H torsion
[ 7974 7965 7964 7962 ] final  -44.94 input  175.53 | X-H torsion
[ 8008 7997 7996 7995 ] final  -41.50 input   59.86 | X-H torsion
[ 10167 10162 10161 10158 ] final -155.81 input  -65.29 | X-H torsion
[ 10718 10713 10712 10709 ] final  136.58 input   66.30 | X-H torsion
[ 10763 10752 10751 10750 ] final  -92.97 input  -60.55 | X-H torsion
[ 11005 11000 10999 10996 ] final  -50.42 input  -57.11 | X-H torsion

> <Gold.Protein.ActiveResidues>
 VAL166  LYS551  ARG553  GLY616  TRP617  ASP618  TYR619  PRO620  LYS621  CYS622 
 ASP623  PHE694  ASN695  SER759  ASP760  ASP761  ALA762  ILE779  LEU786  VAL792 
 PHE793  MET794  SER795  GLU796  ALA797  LYS798  CYS799  TRP800  GLU811  SER814 

> <Gold.Protein.RotatedAtoms>
  150.8469  133.7847  159.3039 H   0  0  0  0  0  0  0  0  0  0  0  0  # atno 6907 bound_to 6896
  151.5531  135.1065  159.9964 H   0  0  0  0  0  0  0  0  0  0  0  0  # atno 6908 bound_to 6896
  152.4521  133.7607  159.6801 H   0  0  0  0  0  0  0  0  0  0  0  0  # atno 6909 bound_to 6896
  145.9870  140.7222  142.9335 H   0  0  0  0  0  0  0  0  0  0  0  0  # atno 7974 bound_to 7965
  154.4004  140.1497  156.3202 H   0  0  0  0  0  0  0  0  0  0  0  0  # atno 8008 bound_to 7997
  155.8537  140.3456  155.5688 H   0  0  0  0  0  0  0  0  0  0  0  0  # atno 8009 bound_to 7997
  155.7956  140.0863  157.1975 H   0  0  0  0  0  0  0  0  0  0  0  0  # atno 8010 bound_to 7997
  139.6901  143.9435  152.2380 H   0  0  0  0  0  0  0  0  0  0  0  0  # atno 10167 bound_to 10162
  157.4451  131.1061  151.0098 H   0  0  0  0  0  0  0  0  0  0  0  0  # atno 10718 bound_to 10713
  154.6914  135.5211  153.8397 H   0  0  0  0  0  0  0  0  0  0  0  0  # atno 10763 bound_to 10752
  153.0635  135.6576  154.0418 H   0  0  0  0  0  0  0  0  0  0  0  0  # atno 10764 bound_to 10752
  154.0291  135.2987  155.3350 H   0  0  0  0  0  0  0  0  0  0  0  0  # atno 10765 bound_to 10752
  141.0815  133.6652  156.3728 H   0  0  0  0  0  0  0  0  0  0  0  0  # atno 11005 bound_to 11000
  144.6877  140.3005  143.7264 LP  0  0  0  0  0  0  0  0  0  0  0  0  # atno 17320 bound_to 7965
  145.7686  139.1849  143.2225 LP  0  0  0  0  0  0  0  0  0  0  0  0  # atno 17321 bound_to 7965
  139.9249  144.6777  150.8423 LP  0  0  0  0  0  0  0  0  0  0  0  0  # atno 17342 bound_to 10162
  140.7680  143.3349  151.2331 LP  0  0  0  0  0  0  0  0  0  0  0  0  # atno 17343 bound_to 10162
  157.0948  130.5957  149.5447 LP  0  0  0  0  0  0  0  0  0  0  0  0  # atno 17370 bound_to 10713
  155.9964  130.5033  150.7496 LP  0  0  0  0  0  0  0  0  0  0  0  0  # atno 17371 bound_to 10713
  140.5458  134.6075  157.5393 LP  0  0  0  0  0  0  0  0  0  0  0  0  # atno 17394 bound_to 11000
  139.9629  134.7422  156.0199 LP  0  0  0  0  0  0  0  0  0  0  0  0  # atno 17395 bound_to 11000

$$$$
