#       Name:                AV-unprocessed.smi:101
#       Creating user name   scv26
#       Creation time:       Thu Mar 26 17:43:58 2020


#       File generated by GOLD software.
#

@<TRIPOS>MOLECULE
AV-unprocessed.smi:101
    56    58     1
SMALL
NO_CHARGES


@<TRIPOS>ATOM
      1 ****        -1.7710   3.3425  -3.1892 C.3            1 S1                 0.0000
      2 ****        -2.5609   2.5198  -2.1850 C.2            1 S1                 0.0000
      3 ****        -2.0881   1.3595  -1.6629 C.2            1 S1                 0.0000
      4 ****        -2.7873   0.5838  -0.7492 N.am           1 S1                 0.0000
      5 ****        -2.1946  -0.7010  -0.2117 C.3            1 S1                 0.0000
      6 ****        -0.8412  -0.4848   0.0454 O.3            1 S1                 0.0000
      7 ****        -0.1086  -1.6516  -0.3049 C.3            1 S1                 0.0000
      8 ****         1.3786  -1.3284  -0.5055 C.3            1 S1                 0.0000
      9 ****         1.9721  -1.0847   0.7590 O.3            1 S1                 0.0000
     10 ****         3.2735  -0.7476   0.8396 C.2            1 S1                 0.0000
     11 ****         4.0140  -0.6484  -0.1411 O.2            1 S1                 0.0000
     12 ****         3.7254  -0.5081   2.2406 C.ar           1 S1                 0.0000
     13 ****         5.0754  -0.1636   2.4838 C.ar           1 S1                 0.0000
     14 ****         5.5313   0.0690   3.7959 C.ar           1 S1                 0.0000
     15 ****         4.6424  -0.0396   4.8812 C.ar           1 S1                 0.0000
     16 ****         3.2965  -0.3802   4.6526 C.ar           1 S1                 0.0000
     17 ****         2.8388  -0.6135   3.3411 C.ar           1 S1                 0.0000
     18 ****        -0.8484  -2.1878  -1.5378 C.3            1 S1                 0.0000
     19 ****        -0.4116  -1.5342  -2.7183 O.3            1 S1                 0.0000
     20 ****        -2.3068  -1.8862  -1.1968 C.3            1 S1                 0.0000
     21 ****        -3.1228  -1.6688  -2.3364 O.3            1 S1                 0.0000
     22 ****        -4.0695   0.9958  -0.3298 C.2            1 S1                 0.0000
     23 ****        -4.7589   0.3512   0.4596 O.2            1 S1                 0.0000
     24 ****        -4.5531   2.1903  -0.8611 N.am           1 S1                 0.0000
     25 ****        -3.8817   3.0053  -1.7760 C.2            1 S1                 0.0000
     26 ****        -4.4144   4.0408  -2.1718 O.2            1 S1                 0.0000
     27 ****        -5.4699   2.4900  -0.5632 H              1 S1                 0.0000
     28 ****        -0.8114   2.8809  -3.4241 H              1 S1                 0.0000
     29 ****        -1.5751   4.3402  -2.7950 H              1 S1                 0.0000
     30 ****        -2.3291   3.4447  -4.1206 H              1 S1                 0.0000
     31 ****        -1.1136   1.0197  -1.9809 H              1 S1                 0.0000
     32 ****        -2.6781  -0.9094   0.7439 H              1 S1                 0.0000
     33 ****        -0.2206  -2.3761   0.5042 H              1 S1                 0.0000
     34 ****         1.8820  -2.1741  -0.9760 H              1 S1                 0.0000
     35 ****         1.5009  -0.4629  -1.1586 H              1 S1                 0.0000
     36 ****         5.7768  -0.0737   1.6667 H              1 S1                 0.0000
     37 ****         6.5646   0.3310   3.9691 H              1 S1                 0.0000
     38 ****         4.9924   0.1385   5.8873 H              1 S1                 0.0000
     39 ****         2.6128  -0.4628   5.4847 H              1 S1                 0.0000
     40 ****         1.7994  -0.8721   3.2011 H              1 S1                 0.0000
     41 ****        -0.6826  -3.2577  -1.6686 H              1 S1                 0.0000
     42 ****         0.5021  -1.7331  -2.8546 H              1 S1                 0.0000
     43 ****        -2.7204  -2.7271  -0.6384 H              1 S1                 0.0000
     44 ****        -3.0610  -2.4253  -2.8987 H              1 S1                 0.0000
     45 ****        -0.7123  -0.2878   1.0173 LP             1 S1                 0.0000
     46 ****        -0.5168   0.2898  -0.4976 LP             1 S1                 0.0000
     47 ****         3.6552  -0.8221  -1.0582 LP             1 S1                 0.0000
     48 ****         4.9735  -0.3943  -0.0195 LP             1 S1                 0.0000
     49 ****        -0.5297  -0.5462  -2.6192 LP             1 S1                 0.0000
     50 ****        -0.9463  -1.8571  -3.4992 LP             1 S1                 0.0000
     51 ****        -2.8068  -0.8570  -2.8274 LP             1 S1                 0.0000
     52 ****        -4.0722  -1.5373  -2.0512 LP             1 S1                 0.0000
     53 ****        -4.4157  -0.5094   0.8359 LP             1 S1                 0.0000
     54 ****        -5.6623   0.6879   0.7249 LP             1 S1                 0.0000
     55 ****        -3.9399   4.6282  -2.8274 LP             1 S1                 0.0000
     56 ****        -5.3220   4.2954  -1.8380 LP             1 S1                 0.0000
@<TRIPOS>BOND
    1    1    2 1     
    2    1   28 1     
    3    1   29 1     
    4    1   30 1     
    5    2   25 1     
    6    2    3 2     
    7    3    4 1     
    8    3   31 1     
    9    4    5 1     
   10    4   22 1     
   11    5   20 1     
   12    5    6 1     
   13    5   32 1     
   14    6    7 1     
   15    7    8 1     
   16    7   18 1     
   17    7   33 1     
   18    8    9 1     
   19    8   34 1     
   20    8   35 1     
   21    9   10 1     
   22   10   11 2     
   23   10   12 1     
   24   12   17 ar    
   25   12   13 ar    
   26   13   14 ar    
   27   13   36 1     
   28   14   15 ar    
   29   14   37 1     
   30   15   16 ar    
   31   15   38 1     
   32   16   17 ar    
   33   16   39 1     
   34   17   40 1     
   35   18   19 1     
   36   18   20 1     
   37   18   41 1     
   38   19   42 1     
   39   20   21 1     
   40   20   43 1     
   41   21   44 1     
   42   22   23 2     
   43   22   24 1     
   44   24   27 1     
   45   24   25 1     
   46   25   26 2     
   47    6   45 1     
   48    6   46 1     
   49   11   47 1     
   50   11   48 1     
   51   19   49 1     
   52   19   50 1     
   53   21   51 1     
   54   21   52 1     
   55   23   53 1     
   56   23   54 1     
   57   26   55 1     
   58   26   56 1     
@<TRIPOS>SUBSTRUCTURE
      1 S1             1
@<TRIPOS>SET
LONE_PAIRS      STATIC     ATOMS    <user>   **** ""
12 45 46 47 48 49 50 51 52 53 54 55 56
DONOR_HYDROGENS      STATIC     ATOMS    <user>   **** ""
3 42 44 27
ATOM$BLUE        STATIC     ATOMS    COLORGROUP SYSTEM
12 45 46 47 48 49 50 51 52 53 54 55 56
ATOM$RED        STATIC     ATOMS    COLORGROUP SYSTEM
3 42 44 27
