AV-unprocessed.smi:594|AV-procd|sdf|3014|dock7
  -GOLD-   2262023523D 1   1.00000     0.00000
 Structure written by MMmdl.
 40 41  0  0  0  0  0  0  0  0  3 V2000
  151.6873  145.5023  160.0024 C   0  0  0  0  0  0  0  0  0  0  0  0
  151.8800  144.0365  160.4314 C   0  0  2  0  0  0  0  0  0  0  0  0
  152.5628  143.9624  161.8125 C   0  0  0  0  0  0  0  0  0  0  0  0
  152.7642  142.5116  162.2750 C   0  0  0  0  0  0  0  0  0  0  0  0
  153.5633  141.7093  161.2394 C   0  0  0  0  0  0  0  0  0  0  0  0
  152.8863  141.7598  159.8624 C   0  0  0  0  0  0  0  0  0  0  0  0
  152.6718  143.2119  159.3857 C   0  0  1  0  0  0  0  0  0  0  0  0
  151.9725  143.2121  158.1026 N   0  0  0  0  0  0  0  0  0  0  0  0
  150.8569  142.5213  157.8236 C   0  0  0  0  0  0  0  0  0  0  0  0
  150.2749  141.8152  158.6482 O   0  0  0  0  0  0  0  0  0  0  0  0
  150.3126  142.6753  156.3964 C   0  0  0  0  0  0  0  0  0  0  0  0
  150.0397  141.3868  155.7376 N   0  0  0  0  0  0  0  0  0  0  0  0
  151.0672  140.4231  155.7636 C   0  0  0  0  0  0  0  0  0  0  0  0
  150.9288  139.2134  155.1868 C   0  0  0  0  0  0  0  0  0  0  0  0
  151.9964  138.2377  155.2189 N   0  3  0  0  0  0  0  0  0  0  0  0
  151.7764  137.1102  154.7883 O   0  0  0  0  0  0  0  0  0  0  0  0
  153.0881  138.5640  155.6754 O   0  5  0  0  0  0  0  0  0  0  0  0
  149.6712  138.9210  154.5266 C   0  0  0  0  0  0  0  0  0  0  0  0
  148.6858  139.8397  154.4953 C   0  0  0  0  0  0  0  0  0  0  0  0
  148.8401  141.1572  155.1204 C   0  0  0  0  0  0  0  0  0  0  0  0
  147.9457  142.0027  155.0913 O   0  0  0  0  0  0  0  0  0  0  0  0
  152.6464  145.9986  159.8513 H   0  0  0  0  0  0  0  0  0  0  0  0
  151.1399  146.0631  160.7604 H   0  0  0  0  0  0  0  0  0  0  0  0
  151.1223  145.5810  159.0734 H   0  0  0  0  0  0  0  0  0  0  0  0
  150.8882  143.5924  160.5315 H   0  0  0  0  0  0  0  0  0  0  0  0
  153.5293  144.4672  161.7730 H   0  0  0  0  0  0  0  0  0  0  0  0
  151.9668  144.4982  162.5522 H   0  0  0  0  0  0  0  0  0  0  0  0
  153.2802  142.4960  163.2355 H   0  0  0  0  0  0  0  0  0  0  0  0
  151.7943  142.0395  162.4362 H   0  0  0  0  0  0  0  0  0  0  0  0
  154.5750  142.1101  161.1651 H   0  0  0  0  0  0  0  0  0  0  0  0
  153.6630  140.6741  161.5669 H   0  0  0  0  0  0  0  0  0  0  0  0
  153.4933  141.2122  159.1402 H   0  0  0  0  0  0  0  0  0  0  0  0
  151.9273  141.2423  159.9132 H   0  0  0  0  0  0  0  0  0  0  0  0
  153.6489  143.6825  159.2583 H   0  0  0  0  0  0  0  0  0  0  0  0
  152.3780  143.7720  157.3665 H   0  0  0  0  0  0  0  0  0  0  0  0
  149.4071  143.2819  156.4426 H   0  0  0  0  0  0  0  0  0  0  0  0
  151.0161  143.2598  155.8002 H   0  0  0  0  0  0  0  0  0  0  0  0
  151.9659  140.7402  156.2730 H   0  0  0  0  0  0  0  0  0  0  0  0
  149.5107  137.9642  154.0517 H   0  0  0  0  0  0  0  0  0  0  0  0
  147.7574  139.6015  153.9974 H   0  0  0  0  0  0  0  0  0  0  0  0
  1  2  1  0  0  0  0
  1 22  1  0  0  0  0
  1 23  1  0  0  0  0
  1 24  1  0  0  0  0
  2  7  1  0  0  0  0
  2  3  1  0  0  0  0
  2 25  1  0  0  0  0
  3  4  1  0  0  0  0
  3 26  1  0  0  0  0
  3 27  1  0  0  0  0
  4  5  1  0  0  0  0
  4 28  1  0  0  0  0
  4 29  1  0  0  0  0
  5  6  1  0  0  0  0
  5 30  1  0  0  0  0
  5 31  1  0  0  0  0
  6  7  1  0  0  0  0
  6 32  1  0  0  0  0
  6 33  1  0  0  0  0
  7  8  1  0  0  0  0
  7 34  1  0  0  0  0
  8  9  1  0  0  0  0
  8 35  1  0  0  0  0
  9 10  2  0  0  0  0
  9 11  1  0  0  0  0
 11 12  1  0  0  0  0
 11 36  1  0  0  0  0
 11 37  1  0  0  0  0
 12 20  1  0  0  0  0
 12 13  1  0  0  0  0
 13 14  2  0  0  0  0
 13 38  1  0  0  0  0
 14 15  1  0  0  0  0
 14 18  1  0  0  0  0
 15 16  2  0  0  0  0
 15 17  1  0  0  0  0
 18 19  2  0  0  0  0
 18 39  1  0  0  0  0
 19 20  1  0  0  0  0
 19 40  1  0  0  0  0
 20 21  2  0  0  0  0
M  CHG  1  15   1
M  CHG  1  17  -1
M  END
> <s_m_source_file>
AV-unprocessed.smi

> <i_m_source_file_index>
594

> <i_lp_mmshare_version>
43012

> <i_f3d_flags>
0

> <s_epik_input>
W0NIM11bQ0BASF0xW0NIMl1bQ0gyXVtDSDJdW0NIMl1bQ0BIXTFbTkhdQyg9TylbQ0gyXW4yW2NIXWMoW04rXSg9TylbTy1dKVtjSF1bY0hdYzI9Tw==

> <s_epik_cmdline>
J2VwaWtfcHl0aG9uJywgJy1waCcsICc3LjAnLCAnLXRuJywgJzgnLCAnLW1hJywgJzIwMCcsICctbWV0YWxfYmluZGluZycsICctaW1hZScsICc8aW5maWxlLm1hZT4nLCAnLW9tYWUnLCAnPG91dGZpbGUubWFlPic=

> <r_lp_tautomer_probability>
1

> <r_epik_Ionization_Penalty>
1.91305e-08

> <r_epik_Ionization_Penalty_Charging>
8.35811e-11

> <r_epik_Ionization_Penalty_Neutral>
1.90469e-08

> <r_epik_State_Penalty>
-0

> <r_epik_Charging_Adjusted_Penalty>
8.35811e-11

> <i_epik_Tot_Q>
0

> <i_epik_Tot_abs_Q>
2

> <r_epik_Metal_State_Penalty>
-0

> <b_epik_Metal_Only>
0

> <s_lp_Force_Field>
OPLS_2005

> <r_lp_Energy>
21.501

> <b_lp_Chiralities_Consistent>
1

> <s_lp_Variant>
AV-unprocessed.smi:594-1

> <Gold.Version>
5.8.1

> <Gold.Id.Protein>
6NUR|6NUR_protein|mol2

> <Gold.PLP.Fitness>
56.9063

> <Gold.PLP.PLP>
-52.3151

> <Gold.PLP.part.hbond>
-2.0000

> <Gold.PLP.part.metal>
0.0000

> <Gold.PLP.part.buried>
-2.0939

> <Gold.PLP.part.nonpolar>
-48.5025

> <Gold.PLP.part.repulsive>
0.6434

> <Gold.PLP.ligand.clash>
0.0000

> <Gold.PLP.ligand.torsion>
0.3262

> <Gold.PLP.Chemscore.Hbond>
1.7440

> <Gold.PLP.Chemscore.CHOScore>
0.0000

> <Gold.PLP.Chemscore.Metal>
0.0000

> <Gold.Chemscore.Hbonds>
donor molecule, donor type, donor heavy atom, donor atom, acceptor molecule, acceptor atom, score
      P1  H  7997  8010       L1    17  0.88
      P1  H 10752 10765       L1    16  1.00

> <Gold.PLP.Chemscore.Internal.Correction>
0.0116

> <Gold.Rescore>
     Score         DG    S(hbond)    S(metal)    S(lipo)     H(rot)  DE(clash)    DE(int)     intcor
     18.13     -21.24       1.84        0.00     116.10       1.55       1.47       1.65       ----

> <Gold.Chemscore.Fitness>
18.1263

> <Gold.Chemscore.DG>
-21.2443

> <Gold.Chemscore.ZeroCoef>
-5.4800

> <Gold.Chemscore.Hbond>
1.8413

> <Gold.Chemscore.Metal>
0.0000

> <Gold.Chemscore.Lipo>
116.0984

> <Gold.Chemscore.Internal_Hbond>
0.0000

> <Gold.Chemscore.DEClash>
1.4696

> <Gold.Chemscore.DEInternal>
1.6484

> <Gold.Chemscore.Rot>
1.5505

> <Gold.Chemscore.Internal.Correction>
   9.000000E+99

> <Gold.Chemscore.Hbonds>
donor molecule, donor type, donor heavy atom, donor atom, acceptor molecule, acceptor atom, score
      P1  H  7997  8010       L1    17  0.82
      P1  H 10752 10765       L1    16  0.94

> <Gold.Chemscore.Hbond.Weighted>
-6.1499

> <Gold.Chemscore.Metal.Weighted>
-0.0000

> <Gold.Chemscore.Lipo.Weighted>
-13.5835

> <Gold.Chemscore.Internal_Hbond.Weighted>
0.0000

> <Gold.Chemscore.DEClash.Weighted>
1.4696

> <Gold.Chemscore.DEInternal.Weighted>
1.6484

> <Gold.Chemscore.Rot.Weighted>
3.9692

> <Gold.Chemscore.Internal.Correction.Weighted>
   9.000000E+99

> <Gold.Protein.RotatedTorsions>
[ 6907 6896 6895 6894 ] final   43.42 input  -60.11 | X-H torsion
[ 7974 7965 7964 7962 ] final  157.22 input  175.53 | X-H torsion
[ 8008 7997 7996 7995 ] final   92.05 input   59.86 | X-H torsion
[ 10167 10162 10161 10158 ] final -159.71 input  -65.29 | X-H torsion
[ 10718 10713 10712 10709 ] final -122.33 input   66.30 | X-H torsion
[ 10763 10752 10751 10750 ] final  161.30 input  -60.55 | X-H torsion
[ 11005 11000 10999 10996 ] final  -27.16 input  -57.11 | X-H torsion

> <Gold.Protein.ActiveResidues>
 VAL166  LYS551  ARG553  GLY616  TRP617  ASP618  TYR619  PRO620  LYS621  CYS622 
 ASP623  PHE694  ASN695  SER759  ASP760  ASP761  ALA762  ILE779  LEU786  VAL792 
 PHE793  MET794  SER795  GLU796  ALA797  LYS798  CYS799  TRP800  GLU811  SER814 

> <Gold.Protein.RotatedAtoms>
  152.2201  134.8421  160.0486 H   0  0  0  0  0  0  0  0  0  0  0  0  # atno 6907 bound_to 6896
  151.9208  133.3580  159.3904 H   0  0  0  0  0  0  0  0  0  0  0  0  # atno 6908 bound_to 6896
  150.6997  134.4562  159.5403 H   0  0  0  0  0  0  0  0  0  0  0  0  # atno 6909 bound_to 6896
  144.7916  139.7311  143.6219 H   0  0  0  0  0  0  0  0  0  0  0  0  # atno 7974 bound_to 7965
  156.0309  140.3330  155.7139 H   0  0  0  0  0  0  0  0  0  0  0  0  # atno 8008 bound_to 7997
  155.5886  140.0644  157.2782 H   0  0  0  0  0  0  0  0  0  0  0  0  # atno 8009 bound_to 7997
  154.4353  140.1831  156.1039 H   0  0  0  0  0  0  0  0  0  0  0  0  # atno 8010 bound_to 7997
  139.6594  143.9940  152.2215 H   0  0  0  0  0  0  0  0  0  0  0  0  # atno 10167 bound_to 10162
  156.1410  130.6466  150.9770 H   0  0  0  0  0  0  0  0  0  0  0  0  # atno 10718 bound_to 10713
  154.2608  135.2768  155.2778 H   0  0  0  0  0  0  0  0  0  0  0  0  # atno 10763 bound_to 10752
  154.5385  135.5709  153.6822 H   0  0  0  0  0  0  0  0  0  0  0  0  # atno 10764 bound_to 10752
  152.9962  135.6245  154.2759 H   0  0  0  0  0  0  0  0  0  0  0  0  # atno 10765 bound_to 10752
  140.9094  133.7471  156.0650 H   0  0  0  0  0  0  0  0  0  0  0  0  # atno 11005 bound_to 11000
  146.2170  139.5567  142.9643 LP  0  0  0  0  0  0  0  0  0  0  0  0  # atno 17320 bound_to 7965
  145.5779  141.0386  143.2138 LP  0  0  0  0  0  0  0  0  0  0  0  0  # atno 17321 bound_to 7965
  139.9675  144.6516  150.8021 LP  0  0  0  0  0  0  0  0  0  0  0  0  # atno 17342 bound_to 10162
  140.7573  143.3084  151.2905 LP  0  0  0  0  0  0  0  0  0  0  0  0  # atno 17343 bound_to 10162
  157.6575  131.0887  150.7913 LP  0  0  0  0  0  0  0  0  0  0  0  0  # atno 17370 bound_to 10713
  156.7989  130.4914  149.5373 LP  0  0  0  0  0  0  0  0  0  0  0  0  # atno 17371 bound_to 10713
  140.8129  134.3378  157.5406 LP  0  0  0  0  0  0  0  0  0  0  0  0  # atno 17394 bound_to 11000
  139.8755  134.9264  156.3400 LP  0  0  0  0  0  0  0  0  0  0  0  0  # atno 17395 bound_to 11000

$$$$
