#       Name:                AV-unprocessed.smi:35
#       Creating user name   scv26
#       Creation time:       Thu Mar 26 16:02:59 2020


#       File generated by GOLD software.
#

@<TRIPOS>MOLECULE
AV-unprocessed.smi:35
    41    42     1
SMALL
NO_CHARGES


@<TRIPOS>ATOM
      1 ****        -4.2115   2.5253  -2.0397 O.2            1 S1                 0.0000
      2 ****        -3.2915   2.0895  -1.3500 C.2            1 S1                 0.0000
      3 ****        -3.4305   1.8052  -0.0232 N.pl3          1 S1                -1.0000
      4 ****        -2.4086   1.3116   0.7360 C.2            1 S1                 0.0000
      5 ****        -2.5223   1.0692   1.9378 O.2            1 S1                 0.0000
      6 ****        -1.1492   1.0608   0.1225 N.am           1 S1                 0.0000
      7 ****        -0.0179   0.5168   0.9788 C.3            1 S1                 0.0000
      8 ****         1.1660   0.4991   0.2341 O.3            1 S1                 0.0000
      9 ****         1.3730  -0.8023  -0.3068 C.3            1 S1                 0.0000
     10 ****         2.8265  -0.9906  -0.7745 C.3            1 S1                 0.0000
     11 ****         2.9867  -0.4702  -2.0773 O.3            1 S1                 0.0000
     12 ****         0.9242  -1.6972   0.8524 C.3            1 S1                 0.0000
     13 ****         1.9597  -1.8230   1.8142 O.3            1 S1                 0.0000
     14 ****        -0.2933  -0.9465   1.3914 C.3            1 S1                 0.0000
     15 ****        -0.4638  -1.1150   2.7864 O.3            1 S1                 0.0000
     16 ****        -0.9725   1.3682  -1.2184 C.2            1 S1                 0.0000
     17 ****        -1.9846   1.8621  -1.9597 C.2            1 S1                 0.0000
     18 ****        -1.5880   2.2484  -3.8624 Br             1 S1                 0.0000
     19 ****         0.0782   1.2174   1.8102 H              1 S1                 0.0000
     20 ****         0.6895  -0.9643  -1.1424 H              1 S1                 0.0000
     21 ****         3.5308  -0.5178  -0.0893 H              1 S1                 0.0000
     22 ****         3.0728  -2.0519  -0.8150 H              1 S1                 0.0000
     23 ****         3.8852  -0.5955  -2.3418 H              1 S1                 0.0000
     24 ****         0.6567  -2.6975   0.5107 H              1 S1                 0.0000
     25 ****         1.5938  -2.2226   2.5888 H              1 S1                 0.0000
     26 ****        -1.1874  -1.3047   0.8786 H              1 S1                 0.0000
     27 ****        -1.2062  -0.5938   3.0551 H              1 S1                 0.0000
     28 ****        -0.0170   1.2205  -1.6975 H              1 S1                 0.0000
     29 ****        -4.0607   2.7205  -3.0088 LP             1 S1                 0.0000
     30 ****        -5.1104   2.6844  -1.6315 LP             1 S1                 0.0000
     31 ****        -4.3169   1.9647   0.4112 LP             1 S1                 0.0000
     32 ****        -3.3933   1.2333   2.4008 LP             1 S1                 0.0000
     33 ****        -1.7436   0.7081   2.4510 LP             1 S1                 0.0000
     34 ****         1.9351   0.7391   0.8265 LP             1 S1                 0.0000
     35 ****         1.0999   1.1623  -0.5113 LP             1 S1                 0.0000
     36 ****         2.7672   0.5053  -2.0802 LP             1 S1                 0.0000
     37 ****         2.3789  -0.9506  -2.7095 LP             1 S1                 0.0000
     38 ****         2.3251  -0.9198   2.0391 LP             1 S1                 0.0000
     39 ****         2.6926  -2.3978   1.4502 LP             1 S1                 0.0000
     40 ****         0.3576  -0.8095   3.2681 LP             1 S1                 0.0000
     41 ****        -0.6327  -2.0786   2.9938 LP             1 S1                 0.0000
@<TRIPOS>BOND
    1    1    2 2     
    2    2   17 1     
    3    2    3 1     
    4    3    4 1     
    5    4    5 2     
    6    4    6 am    
    7    6    7 1     
    8    6   16 1     
    9    7   14 1     
   10    7    8 1     
   11    7   19 1     
   12    8    9 1     
   13    9   10 1     
   14    9   12 1     
   15    9   20 1     
   16   10   11 1     
   17   10   21 1     
   18   10   22 1     
   19   11   23 1     
   20   12   13 1     
   21   12   14 1     
   22   12   24 1     
   23   13   25 1     
   24   14   15 1     
   25   14   26 1     
   26   15   27 1     
   27   16   17 2     
   28   16   28 1     
   29   17   18 1     
   30    1   29 1     
   31    1   30 1     
   32    3   31 1     
   33    5   32 1     
   34    5   33 1     
   35    8   34 1     
   36    8   35 1     
   37   11   36 1     
   38   11   37 1     
   39   13   38 1     
   40   13   39 1     
   41   15   40 1     
   42   15   41 1     
@<TRIPOS>SUBSTRUCTURE
      1 S1             1
@<TRIPOS>SET
LONE_PAIRS      STATIC     ATOMS    <user>   **** ""
13 29 30 31 32 33 34 35 36 37 38 39 40 41
DONOR_HYDROGENS      STATIC     ATOMS    <user>   **** ""
3 23 25 27
ATOM$BLUE        STATIC     ATOMS    COLORGROUP SYSTEM
13 29 30 31 32 33 34 35 36 37 38 39 40 41
ATOM$RED        STATIC     ATOMS    COLORGROUP SYSTEM
3 23 25 27
