AV-unprocessed.smi:2613|AV-procd|sdf|10213|dock4
  -GOLD-   2272014223D 1   1.00000     0.00000
 Structure written by MMmdl.
 28 29  0  0  0  0  0  0  0  0  3 V2000
  146.4816  139.2405  152.0052 C   0  0  0  0  0  0  0  0  0  0  0  0
  147.6517  139.3712  152.9209 C   0  0  0  0  0  0  0  0  0  0  0  0
  148.5743  138.4046  153.1890 N   0  3  0  0  0  0  0  0  0  0  0  0
  149.5175  138.8910  154.0956 C   0  0  0  0  0  0  0  0  0  0  0  0
  150.6325  138.2835  154.6617 C   0  0  0  0  0  0  0  0  0  0  0  0
  151.4011  139.0545  155.5673 C   0  0  0  0  0  0  0  0  0  0  0  0
  152.6173  138.4509  156.2161 C   0  0  0  0  0  0  0  0  0  0  0  0
  152.9382  137.2773  155.9256 O   0  0  0  0  0  0  0  0  0  0  0  0
  153.2723  139.1432  157.0267 O   0  5  0  0  0  0  0  0  0  0  0  0
  151.0267  140.3879  155.8639 C   0  0  0  0  0  0  0  0  0  0  0  0
  149.8938  140.9940  155.2823 C   0  0  0  0  0  0  0  0  0  0  0  0
  149.1527  140.2178  154.3950 C   0  0  0  0  0  0  0  0  0  0  0  0
  147.9985  140.4722  153.6465 N   0  0  0  0  0  0  0  0  0  0  0  0
  147.3573  141.7897  153.7386 C   0  0  0  0  0  0  0  0  0  0  0  0
  146.4231  141.8873  154.9525 C   0  0  0  0  0  0  0  0  0  0  0  0
  145.3365  141.0042  154.7837 O   0  0  0  0  0  0  0  0  0  0  0  0
  146.4082  138.2234  151.6195 H   0  0  0  0  0  0  0  0  0  0  0  0
  146.5856  139.9250  151.1633 H   0  0  0  0  0  0  0  0  0  0  0  0
  145.5598  139.4783  152.5365 H   0  0  0  0  0  0  0  0  0  0  0  0
  150.8984  137.2644  154.4203 H   0  0  0  0  0  0  0  0  0  0  0  0
  151.6172  140.9713  156.5558 H   0  0  0  0  0  0  0  0  0  0  0  0
  149.6251  142.0115  155.5238 H   0  0  0  0  0  0  0  0  0  0  0  0
  148.1315  142.5572  153.7705 H   0  0  0  0  0  0  0  0  0  0  0  0
  146.7978  141.9521  152.8166 H   0  0  0  0  0  0  0  0  0  0  0  0
  146.9540  141.6263  155.8686 H   0  0  0  0  0  0  0  0  0  0  0  0
  146.0416  142.9017  155.0718 H   0  0  0  0  0  0  0  0  0  0  0  0
  144.9969  141.1065  153.9076 H   0  0  0  0  0  0  0  0  0  0  0  0
  148.5587  137.4783  152.7821 H   0  0  0  0  0  0  0  0  0  0  0  0
  1  2  1  0  0  0  0
  1 17  1  0  0  0  0
  1 18  1  0  0  0  0
  1 19  1  0  0  0  0
  2 13  1  0  0  0  0
  2  3  2  0  0  0  0
  3  4  1  0  0  0  0
  3 28  1  0  0  0  0
  4 12  2  0  0  0  0
  4  5  1  0  0  0  0
  5  6  2  0  0  0  0
  5 20  1  0  0  0  0
  6  7  1  0  0  0  0
  6 10  1  0  0  0  0
  7  8  2  0  0  0  0
  7  9  1  0  0  0  0
 10 11  2  0  0  0  0
 10 21  1  0  0  0  0
 11 12  1  0  0  0  0
 11 22  1  0  0  0  0
 12 13  1  0  0  0  0
 13 14  1  0  0  0  0
 14 15  1  0  0  0  0
 14 23  1  0  0  0  0
 14 24  1  0  0  0  0
 15 16  1  0  0  0  0
 15 25  1  0  0  0  0
 15 26  1  0  0  0  0
 16 27  1  0  0  0  0
M  CHG  1   3   1
M  CHG  1   9  -1
M  END
> <s_m_source_file>
AV-unprocessed.smi

> <i_m_source_file_index>
2613

> <i_lp_mmshare_version>
43012

> <i_f3d_flags>
0

> <s_epik_input>
W09IXVtDSDJdW0NIMl1uKGMobjEpW0NIM10pYyhjMTIpW2NIXVtjSF1jKFtjSF0yKUMoPU8pW09IXQ==

> <s_epik_cmdline>
J2VwaWtfcHl0aG9uJywgJy1waCcsICc3LjAnLCAnLXRuJywgJzgnLCAnLW1hJywgJzIwMCcsICctbWV0YWxfYmluZGluZycsICctaW1hZScsICc8aW5maWxlLm1hZT4nLCAnLW9tYWUnLCAnPG91dGZpbGUubWFlPic=

> <r_epik_Ionization_Penalty>
0.929425

> <r_epik_Ionization_Penalty_Charging>
0.929425

> <r_epik_Ionization_Penalty_Neutral>
5.76694e-08

> <r_epik_State_Penalty>
0.971794

> <r_epik_Charging_Adjusted_Penalty>
1.90122

> <i_epik_Tot_Q>
0

> <i_epik_Tot_abs_Q>
2

> <r_epik_Metal_State_Penalty>
4.93694

> <b_epik_Metal_Only>
0

> <s_lp_Force_Field>
OPLS_2005

> <r_lp_Energy>
5.88702

> <b_lp_Chiralities_Consistent>
1

> <s_lp_Variant>
AV-unprocessed.smi:2613-2

> <Gold.Version>
5.8.1

> <Gold.Id.Protein>
6NUR|6NUR_protein|mol2

> <Gold.PLP.Fitness>
50.1428

> <Gold.PLP.PLP>
-32.2081

> <Gold.PLP.part.hbond>
-4.9710

> <Gold.PLP.part.metal>
0.0000

> <Gold.PLP.part.buried>
2.5160

> <Gold.PLP.part.nonpolar>
-30.5076

> <Gold.PLP.part.repulsive>
0.0596

> <Gold.PLP.ligand.clash>
0.0000

> <Gold.PLP.ligand.torsion>
0.3453

> <Gold.PLP.Chemscore.Hbond>
6.2080

> <Gold.PLP.Chemscore.CHOScore>
0.0000

> <Gold.PLP.Chemscore.Metal>
0.0000

> <Gold.Chemscore.Hbonds>
donor molecule, donor type, donor heavy atom, donor atom, acceptor molecule, acceptor atom, score
      L1  H     3    28       P1  7948  2.00
      L1  H    16    27       P1 10175  0.96
      P1  H  7997  8008       L1     9  1.89
      P1  H 10752 10765       L1     8  1.18

> <Gold.PLP.Chemscore.Internal.Correction>
0.0014

> <Gold.Rescore>
     Score         DG    S(hbond)    S(metal)    S(lipo)     H(rot)  DE(clash)    DE(int)     intcor
     19.08     -19.77       3.76        0.00      55.35       1.86       0.31       0.37       ----

> <Gold.Chemscore.Fitness>
19.0843

> <Gold.Chemscore.DG>
-19.7682

> <Gold.Chemscore.ZeroCoef>
-5.4800

> <Gold.Chemscore.Hbond>
3.7631

> <Gold.Chemscore.Metal>
0.0000

> <Gold.Chemscore.Lipo>
55.3460

> <Gold.Chemscore.Internal_Hbond>
0.0000

> <Gold.Chemscore.DEClash>
0.3133

> <Gold.Chemscore.DEInternal>
0.3707

> <Gold.Chemscore.Rot>
1.8579

> <Gold.Chemscore.Internal.Correction>
   9.000000E+99

> <Gold.Chemscore.Hbonds>
donor molecule, donor type, donor heavy atom, donor atom, acceptor molecule, acceptor atom, score
      L1  H     3    28       P1  7948  0.97
      L1  H    16    27       P1 10175  0.64
      P1  H  7997  8008       L1     9  0.89
      P1  H 10752 10765       L1     8  0.58

> <Gold.Chemscore.Hbond.Weighted>
-12.5689

> <Gold.Chemscore.Metal.Weighted>
-0.0000

> <Gold.Chemscore.Lipo.Weighted>
-6.4755

> <Gold.Chemscore.Internal_Hbond.Weighted>
0.0000

> <Gold.Chemscore.DEClash.Weighted>
0.3133

> <Gold.Chemscore.DEInternal.Weighted>
0.3707

> <Gold.Chemscore.Rot.Weighted>
4.7561

> <Gold.Chemscore.Internal.Correction.Weighted>
   9.000000E+99

> <Gold.Protein.RotatedTorsions>
[ 6907 6896 6895 6894 ] final   -1.65 input  -60.11 | X-H torsion
[ 7974 7965 7964 7962 ] final    6.03 input  175.53 | X-H torsion
[ 8008 7997 7996 7995 ] final  -55.83 input   59.86 | X-H torsion
[ 10167 10162 10161 10158 ] final -136.69 input  -65.29 | X-H torsion
[ 10718 10713 10712 10709 ] final   74.61 input   66.30 | X-H torsion
[ 10763 10752 10751 10750 ] final -145.12 input  -60.55 | X-H torsion
[ 11005 11000 10999 10996 ] final    3.12 input  -57.11 | X-H torsion

> <Gold.Protein.ActiveResidues>
 VAL166  LYS551  ARG553  GLY616  TRP617  ASP618  TYR619  PRO620  LYS621  CYS622 
 ASP623  PHE694  ASN695  SER759  ASP760  ASP761  ALA762  ILE779  LEU786  VAL792 
 PHE793  MET794  SER795  GLU796  ALA797  LYS798  CYS799  TRP800  GLU811  SER814 

> <Gold.Protein.RotatedAtoms>
  151.5426  135.1068  159.9929 H   0  0  0  0  0  0  0  0  0  0  0  0  # atno 6907 bound_to 6896
  152.4528  133.7659  159.6783 H   0  0  0  0  0  0  0  0  0  0  0  0  # atno 6908 bound_to 6896
  150.8462  133.7792  159.3067 H   0  0  0  0  0  0  0  0  0  0  0  0  # atno 6909 bound_to 6896
  146.2437  140.0295  142.8391 H   0  0  0  0  0  0  0  0  0  0  0  0  # atno 7974 bound_to 7965
  154.4208  140.1144  156.5540 H   0  0  0  0  0  0  0  0  0  0  0  0  # atno 8008 bound_to 7997
  155.6380  140.3496  155.4686 H   0  0  0  0  0  0  0  0  0  0  0  0  # atno 8009 bound_to 7997
  155.9894  140.1176  157.0642 H   0  0  0  0  0  0  0  0  0  0  0  0  # atno 8010 bound_to 7997
  139.8653  143.7026  152.2646 H   0  0  0  0  0  0  0  0  0  0  0  0  # atno 10167 bound_to 10162
  157.6599  130.9686  150.1235 H   0  0  0  0  0  0  0  0  0  0  0  0  # atno 10718 bound_to 10713
  154.8398  135.3421  154.6454 H   0  0  0  0  0  0  0  0  0  0  0  0  # atno 10763 bound_to 10752
  153.7066  135.6966  153.5053 H   0  0  0  0  0  0  0  0  0  0  0  0  # atno 10764 bound_to 10752
  153.2483  135.4362  155.0724 H   0  0  0  0  0  0  0  0  0  0  0  0  # atno 10765 bound_to 10752
  140.5967  133.9873  155.8113 H   0  0  0  0  0  0  0  0  0  0  0  0  # atno 11005 bound_to 11000
  145.1167  140.9438  143.4624 LP  0  0  0  0  0  0  0  0  0  0  0  0  # atno 17320 bound_to 7965
  145.0521  139.3173  143.5923 LP  0  0  0  0  0  0  0  0  0  0  0  0  # atno 17321 bound_to 7965
  139.7335  144.7577  151.0764 LP  0  0  0  0  0  0  0  0  0  0  0  0  # atno 17342 bound_to 10162
  140.7769  143.5059  150.9713 LP  0  0  0  0  0  0  0  0  0  0  0  0  # atno 17343 bound_to 10162
  156.2100  130.3666  149.8681 LP  0  0  0  0  0  0  0  0  0  0  0  0  # atno 17370 bound_to 10713
  156.6563  130.8764  151.3540 LP  0  0  0  0  0  0  0  0  0  0  0  0  # atno 17371 bound_to 10713
  141.0899  133.9933  157.3254 LP  0  0  0  0  0  0  0  0  0  0  0  0  # atno 17394 bound_to 11000
  139.9250  135.0201  156.8202 LP  0  0  0  0  0  0  0  0  0  0  0  0  # atno 17395 bound_to 11000

$$$$
