AV-unprocessed.smi:342|AV-procd|sdf|2384|dock8
  -GOLD-   2262022313D 1   1.00000     0.00000
 Structure written by MMmdl.
 41 43  0  0  0  0  0  0  0  0  1 V2000
  152.3944  140.2790  155.8017 O   0  0  0  0  0  0  0  0  0  0  0  0
  151.0346  139.9587  156.0081 C   0  0  2  0  0  0  0  0  0  0  0  0
  150.1690  141.0745  155.3826 C   0  0  0  0  0  0  0  0  0  0  0  0
  148.8408  140.6601  154.9292 N   0  0  0  0  0  0  0  0  0  0  0  0
  148.1582  141.6997  154.1593 C   0  0  0  0  0  0  0  0  0  0  0  0
  146.7804  141.2324  153.6578 C   0  0  0  0  0  0  0  0  0  0  0  0
  146.9267  140.0439  152.8882 O   0  0  0  0  0  0  0  0  0  0  0  0
  147.5455  138.9909  153.6193 C   0  0  0  0  0  0  0  0  0  0  0  0
  148.9268  139.4527  154.1138 C   0  0  0  0  0  0  0  0  0  0  0  0
  150.8181  139.7868  157.5257 C   0  0  0  0  0  0  0  0  0  0  0  0
  151.7227  140.6068  158.3228 N   0  0  0  0  0  0  0  0  0  0  0  0
  152.7560  140.2107  159.1128 C   0  0  0  0  0  0  0  0  0  0  0  0
  153.1258  138.7643  159.2964 C   0  0  0  0  0  0  0  0  0  0  0  0
  153.6275  138.2540  158.1707 F   0  0  0  0  0  0  0  0  0  0  0  0
  154.0494  138.6336  160.2489 F   0  0  0  0  0  0  0  0  0  0  0  0
  152.0586  138.0384  159.6282 F   0  0  0  0  0  0  0  0  0  0  0  0
  153.4184  141.1938  159.7271 N   0  0  0  0  0  0  0  0  0  0  0  0
  152.7499  142.3260  159.3083 C   0  0  0  0  0  0  0  0  0  0  0  0
  152.9720  143.6880  159.6132 C   0  0  0  0  0  0  0  0  0  0  0  0
  152.1424  144.6868  159.0632 C   0  0  0  0  0  0  0  0  0  0  0  0
  151.0788  144.3383  158.2060 C   0  0  0  0  0  0  0  0  0  0  0  0
  150.8408  142.9870  157.8900 C   0  0  0  0  0  0  0  0  0  0  0  0
  151.6763  141.9935  158.4358 C   0  0  0  0  0  0  0  0  0  0  0  0
  152.4761  140.6944  154.9564 H   0  0  0  0  0  0  0  0  0  0  0  0
  150.8418  139.0036  155.5240 H   0  0  0  0  0  0  0  0  0  0  0  0
  150.0499  141.8921  156.0944 H   0  0  0  0  0  0  0  0  0  0  0  0
  150.7227  141.4960  154.5424 H   0  0  0  0  0  0  0  0  0  0  0  0
  148.0175  142.5951  154.7627 H   0  0  0  0  0  0  0  0  0  0  0  0
  148.7718  141.9919  153.3055 H   0  0  0  0  0  0  0  0  0  0  0  0
  146.1063  141.0503  154.4963 H   0  0  0  0  0  0  0  0  0  0  0  0
  146.3208  142.0031  153.0390 H   0  0  0  0  0  0  0  0  0  0  0  0
  146.9122  138.6980  154.4581 H   0  0  0  0  0  0  0  0  0  0  0  0
  147.6459  138.1188  152.9731 H   0  0  0  0  0  0  0  0  0  0  0  0
  149.5746  139.6316  153.2540 H   0  0  0  0  0  0  0  0  0  0  0  0
  149.3880  138.6494  154.6893 H   0  0  0  0  0  0  0  0  0  0  0  0
  149.7965  140.0635  157.7898 H   0  0  0  0  0  0  0  0  0  0  0  0
  150.9278  138.7393  157.8025 H   0  0  0  0  0  0  0  0  0  0  0  0
  153.7815  143.9645  160.2724 H   0  0  0  0  0  0  0  0  0  0  0  0
  152.3212  145.7250  159.3024 H   0  0  0  0  0  0  0  0  0  0  0  0
  150.4455  145.1091  157.7916 H   0  0  0  0  0  0  0  0  0  0  0  0
  150.0243  142.7197  157.2361 H   0  0  0  0  0  0  0  0  0  0  0  0
  1  2  1  0  0  0  0
  1 24  1  0  0  0  0
  2  3  1  0  0  0  0
  2 10  1  0  0  0  0
  2 25  1  0  0  0  0
  3  4  1  0  0  0  0
  3 26  1  0  0  0  0
  3 27  1  0  0  0  0
  4  9  1  0  0  0  0
  4  5  1  0  0  0  0
  5  6  1  0  0  0  0
  5 28  1  0  0  0  0
  5 29  1  0  0  0  0
  6  7  1  0  0  0  0
  6 30  1  0  0  0  0
  6 31  1  0  0  0  0
  7  8  1  0  0  0  0
  8  9  1  0  0  0  0
  8 32  1  0  0  0  0
  8 33  1  0  0  0  0
  9 34  1  0  0  0  0
  9 35  1  0  0  0  0
 10 11  1  0  0  0  0
 10 36  1  0  0  0  0
 10 37  1  0  0  0  0
 11 23  1  0  0  0  0
 11 12  1  0  0  0  0
 12 13  1  0  0  0  0
 12 17  2  0  0  0  0
 13 14  1  0  0  0  0
 13 15  1  0  0  0  0
 13 16  1  0  0  0  0
 17 18  1  0  0  0  0
 18 23  2  0  0  0  0
 18 19  1  0  0  0  0
 19 20  2  0  0  0  0
 19 38  1  0  0  0  0
 20 21  1  0  0  0  0
 20 39  1  0  0  0  0
 21 22  2  0  0  0  0
 21 40  1  0  0  0  0
 22 23  1  0  0  0  0
 22 41  1  0  0  0  0
M  END
> <s_m_source_file>
AV-unprocessed.smi

> <i_m_source_file_index>
342

> <i_lp_mmshare_version>
43012

> <i_f3d_flags>
0

> <s_epik_input>
W2NIXTFbY0hdW2NIXVtjSF1jKGMxMiluKGMobjIpQyhGKShGKUYpW0NIMl1bQ0BIXShbT0hdKVtDSDJdTjNbQ0gyXVtDSDJdT1tDSDJdW0NIMl0z

> <s_epik_cmdline>
J2VwaWtfcHl0aG9uJywgJy1waCcsICc3LjAnLCAnLXRuJywgJzgnLCAnLW1hJywgJzIwMCcsICctbWV0YWxfYmluZGluZycsICctaW1hZScsICc8aW5maWxlLm1hZT4nLCAnLW9tYWUnLCAnPG91dGZpbGUubWFlPic=

> <r_epik_Ionization_Penalty>
0.263195

> <r_epik_Ionization_Penalty_Charging>
0

> <r_epik_Ionization_Penalty_Neutral>
0.263195

> <r_epik_State_Penalty>
0.254683

> <r_epik_Charging_Adjusted_Penalty>
0.254683

> <i_epik_Tot_Q>
0

> <i_epik_Tot_abs_Q>
0

> <r_epik_Metal_State_Penalty>
0.254691

> <b_epik_Metal_Only>
0

> <s_lp_Force_Field>
OPLS_2005

> <r_lp_Energy>
34.5918

> <b_lp_Chiralities_Consistent>
1

> <s_lp_Variant>
AV-unprocessed.smi:342-1

> <Gold.Version>
5.8.1

> <Gold.Id.Protein>
6NUR|6NUR_protein|mol2

> <Gold.PLP.Fitness>
45.3854

> <Gold.PLP.PLP>
-44.4380

> <Gold.PLP.part.hbond>
-1.2604

> <Gold.PLP.part.metal>
0.0000

> <Gold.PLP.part.buried>
-2.3405

> <Gold.PLP.part.nonpolar>
-40.7453

> <Gold.PLP.part.repulsive>
0.5142

> <Gold.PLP.ligand.clash>
0.0000

> <Gold.PLP.ligand.torsion>
1.0656

> <Gold.PLP.Chemscore.Hbond>
1.0000

> <Gold.PLP.Chemscore.CHOScore>
0.0000

> <Gold.PLP.Chemscore.Metal>
0.0000

> <Gold.Chemscore.Hbonds>
donor molecule, donor type, donor heavy atom, donor atom, acceptor molecule, acceptor atom, score
      P1  H  7997  8009       L1     1  0.98

> <Gold.PLP.Chemscore.Internal.Correction>
0.0786

> <Gold.Rescore>
     Score         DG    S(hbond)    S(metal)    S(lipo)     H(rot)  DE(clash)    DE(int)     intcor
     12.29     -14.10       0.15        0.00     118.29       2.24       0.94       0.87       ----

> <Gold.Chemscore.Fitness>
12.2907

> <Gold.Chemscore.DG>
-14.0951

> <Gold.Chemscore.ZeroCoef>
-5.4800

> <Gold.Chemscore.Hbond>
0.1542

> <Gold.Chemscore.Metal>
0.0000

> <Gold.Chemscore.Lipo>
118.2915

> <Gold.Chemscore.Internal_Hbond>
0.0000

> <Gold.Chemscore.DEClash>
0.9350

> <Gold.Chemscore.DEInternal>
0.8694

> <Gold.Chemscore.Rot>
2.2421

> <Gold.Chemscore.Internal.Correction>
   9.000000E+99

> <Gold.Chemscore.Hbonds>
donor molecule, donor type, donor heavy atom, donor atom, acceptor molecule, acceptor atom, score
      P1  H  7997  8009       L1     1  0.30

> <Gold.Chemscore.Hbond.Weighted>
-0.5149

> <Gold.Chemscore.Metal.Weighted>
-0.0000

> <Gold.Chemscore.Lipo.Weighted>
-13.8401

> <Gold.Chemscore.Internal_Hbond.Weighted>
0.0000

> <Gold.Chemscore.DEClash.Weighted>
0.9350

> <Gold.Chemscore.DEInternal.Weighted>
0.8694

> <Gold.Chemscore.Rot.Weighted>
5.7399

> <Gold.Chemscore.Internal.Correction.Weighted>
   9.000000E+99

> <Gold.Protein.RotatedTorsions>
[ 6907 6896 6895 6894 ] final -143.55 input  -60.11 | X-H torsion
[ 7974 7965 7964 7962 ] final   82.88 input  175.53 | X-H torsion
[ 8008 7997 7996 7995 ] final -166.60 input   59.86 | X-H torsion
[ 10167 10162 10161 10158 ] final  -83.21 input  -65.29 | X-H torsion
[ 10718 10713 10712 10709 ] final -116.48 input   66.30 | X-H torsion
[ 10763 10752 10751 10750 ] final  -41.07 input  -60.55 | X-H torsion
[ 11005 11000 10999 10996 ] final  -76.77 input  -57.11 | X-H torsion

> <Gold.Protein.ActiveResidues>
 VAL166  LYS551  ARG553  GLY616  TRP617  ASP618  TYR619  PRO620  LYS621  CYS622 
 ASP623  PHE694  ASN695  SER759  ASP760  ASP761  ALA762  ILE779  LEU786  VAL792 
 PHE793  MET794  SER795  GLU796  ALA797  LYS798  CYS799  TRP800  GLU811  SER814 

> <Gold.Protein.RotatedAtoms>
  151.1020  133.5236  159.2609 H   0  0  0  0  0  0  0  0  0  0  0  0  # atno 6907 bound_to 6896
  151.2064  135.0463  159.8903 H   0  0  0  0  0  0  0  0  0  0  0  0  # atno 6908 bound_to 6896
  152.5443  134.0841  159.8302 H   0  0  0  0  0  0  0  0  0  0  0  0  # atno 6909 bound_to 6896
  145.6192  139.2382  143.2148 H   0  0  0  0  0  0  0  0  0  0  0  0  # atno 7974 bound_to 7965
  155.8660  140.0986  157.1582 H   0  0  0  0  0  0  0  0  0  0  0  0  # atno 8008 bound_to 7997
  154.3993  140.1356  156.4082 H   0  0  0  0  0  0  0  0  0  0  0  0  # atno 8009 bound_to 7997
  155.7803  140.3458  155.5296 H   0  0  0  0  0  0  0  0  0  0  0  0  # atno 8010 bound_to 7997
  140.4248  143.2571  151.8841 H   0  0  0  0  0  0  0  0  0  0  0  0  # atno 10167 bound_to 10162
  156.0966  130.6138  150.9041 H   0  0  0  0  0  0  0  0  0  0  0  0  # atno 10718 bound_to 10713
  153.9564  135.6744  153.4744 H   0  0  0  0  0  0  0  0  0  0  0  0  # atno 10763 bound_to 10752
  153.0859  135.4899  154.8593 H   0  0  0  0  0  0  0  0  0  0  0  0  # atno 10764 bound_to 10752
  154.7297  135.3135  154.8872 H   0  0  0  0  0  0  0  0  0  0  0  0  # atno 10765 bound_to 10752
  141.1656  133.6996  156.7720 H   0  0  0  0  0  0  0  0  0  0  0  0  # atno 11005 bound_to 11000
  146.1444  140.7013  142.9351 LP  0  0  0  0  0  0  0  0  0  0  0  0  # atno 17320 bound_to 7965
  144.7238  140.4459  143.6988 LP  0  0  0  0  0  0  0  0  0  0  0  0  # atno 17321 bound_to 7965
  139.4783  144.5399  151.8544 LP  0  0  0  0  0  0  0  0  0  0  0  0  # atno 17342 bound_to 10162
  140.4493  144.1877  150.5896 LP  0  0  0  0  0  0  0  0  0  0  0  0  # atno 17343 bound_to 10162
  157.6129  131.0935  150.8763 LP  0  0  0  0  0  0  0  0  0  0  0  0  # atno 17370 bound_to 10713
  156.8900  130.5209  149.5286 LP  0  0  0  0  0  0  0  0  0  0  0  0  # atno 17371 bound_to 10713
  140.2457  134.8579  157.3618 LP  0  0  0  0  0  0  0  0  0  0  0  0  # atno 17394 bound_to 11000
  140.1751  134.4559  155.7806 LP  0  0  0  0  0  0  0  0  0  0  0  0  # atno 17395 bound_to 11000

$$$$
