AV-unprocessed.smi:1412|AV-procd|sdf|5746|dock3
  -GOLD-   22720 5383D 1   1.00000     0.00000
 Structure written by MMmdl.
 41 42  0  0  0  0  0  0  0  0  3 V2000
  153.0799  140.2345  159.2449 C   0  0  0  0  0  0  0  0  0  0  0  0
  151.9049  139.2408  159.2606 C   0  0  0  0  0  0  0  0  0  0  0  0
  151.6275  138.4772  157.9298 C   0  0  1  0  0  0  0  0  0  0  0  0
  152.9717  137.9802  157.3332 C   0  0  0  0  0  0  0  0  0  0  0  0
  150.7567  137.2131  158.2017 C   0  0  0  0  0  0  0  0  0  0  0  0
  149.6078  137.5063  159.0607 N   0  0  0  0  0  0  0  0  0  0  0  0
  148.7821  136.6154  159.6280 C   0  0  0  0  0  0  0  0  0  0  0  0
  148.8781  135.4181  159.3525 O   0  0  0  0  0  0  0  0  0  0  0  0
  147.9166  137.1651  160.5072 N   0  5  0  0  0  0  0  0  0  0  0  0
  147.0493  136.3811  161.1684 C   0  0  0  0  0  0  0  0  0  0  0  0
  145.7841  136.2045  160.7538 N   0  0  0  0  0  0  0  0  0  0  0  0
  145.0531  135.3606  161.5784 N   0  0  0  0  0  0  0  0  0  0  0  0
  145.7919  134.9134  162.5935 C   0  0  0  0  0  0  0  0  0  0  0  0
  147.4475  135.4828  162.6346 S   0  0  0  0  0  0  0  0  0  0  0  0
  150.9052  139.3634  156.9434 N   0  3  0  0  0  0  0  0  0  0  0  0
  151.5013  140.7117  156.7337 C   0  0  0  0  0  0  0  0  0  0  0  0
  150.5221  141.6040  155.9580 C   0  0  0  0  0  0  0  0  0  0  0  0
  150.2526  141.0033  154.6983 O   0  0  0  0  0  0  0  0  0  0  0  0
  149.6358  139.7304  154.8413 C   0  0  0  0  0  0  0  0  0  0  0  0
  150.5564  138.7733  155.6212 C   0  0  0  0  0  0  0  0  0  0  0  0
  153.2083  140.6834  160.2300 H   0  0  0  0  0  0  0  0  0  0  0  0
  152.9153  141.0508  158.5424 H   0  0  0  0  0  0  0  0  0  0  0  0
  154.0210  139.7487  158.9887 H   0  0  0  0  0  0  0  0  0  0  0  0
  152.1048  138.5298  160.0623 H   0  0  0  0  0  0  0  0  0  0  0  0
  151.0091  139.7852  159.5605 H   0  0  0  0  0  0  0  0  0  0  0  0
  153.4069  137.1786  157.9303 H   0  0  0  0  0  0  0  0  0  0  0  0
  153.7175  138.7746  157.2887 H   0  0  0  0  0  0  0  0  0  0  0  0
  152.8454  137.5823  156.3256 H   0  0  0  0  0  0  0  0  0  0  0  0
  150.3571  136.8188  157.2676 H   0  0  0  0  0  0  0  0  0  0  0  0
  151.3544  136.4008  158.6158 H   0  0  0  0  0  0  0  0  0  0  0  0
  149.4675  138.4758  159.3065 H   0  0  0  0  0  0  0  0  0  0  0  0
  145.3599  134.2434  163.3217 H   0  0  0  0  0  0  0  0  0  0  0  0
  151.7501  141.1901  157.6788 H   0  0  0  0  0  0  0  0  0  0  0  0
  152.4301  140.6300  156.1679 H   0  0  0  0  0  0  0  0  0  0  0  0
  149.5970  141.7540  156.5177 H   0  0  0  0  0  0  0  0  0  0  0  0
  150.9599  142.5884  155.7929 H   0  0  0  0  0  0  0  0  0  0  0  0
  148.6744  139.8382  155.3466 H   0  0  0  0  0  0  0  0  0  0  0  0
  149.4287  139.3268  153.8501 H   0  0  0  0  0  0  0  0  0  0  0  0
  151.4645  138.5718  155.0518 H   0  0  0  0  0  0  0  0  0  0  0  0
  150.0216  137.8308  155.7217 H   0  0  0  0  0  0  0  0  0  0  0  0
  150.0128  139.5351  157.3866 H   0  0  0  0  0  0  0  0  0  0  0  0
  1  2  1  0  0  0  0
  1 21  1  0  0  0  0
  1 22  1  0  0  0  0
  1 23  1  0  0  0  0
  2  3  1  0  0  0  0
  2 24  1  0  0  0  0
  2 25  1  0  0  0  0
  3  4  1  0  0  0  0
  3  5  1  0  0  0  0
  3 15  1  0  0  0  0
  4 26  1  0  0  0  0
  4 27  1  0  0  0  0
  4 28  1  0  0  0  0
  5  6  1  0  0  0  0
  5 29  1  0  0  0  0
  5 30  1  0  0  0  0
  6  7  1  0  0  0  0
  6 31  1  0  0  0  0
  7  8  2  0  0  0  0
  7  9  1  0  0  0  0
  9 10  1  0  0  0  0
 10 14  1  0  0  0  0
 10 11  2  0  0  0  0
 11 12  1  0  0  0  0
 12 13  2  0  0  0  0
 13 14  1  0  0  0  0
 13 32  1  0  0  0  0
 15 20  1  0  0  0  0
 15 16  1  0  0  0  0
 15 41  1  0  0  0  0
 16 17  1  0  0  0  0
 16 33  1  0  0  0  0
 16 34  1  0  0  0  0
 17 18  1  0  0  0  0
 17 35  1  0  0  0  0
 17 36  1  0  0  0  0
 18 19  1  0  0  0  0
 19 20  1  0  0  0  0
 19 37  1  0  0  0  0
 19 38  1  0  0  0  0
 20 39  1  0  0  0  0
 20 40  1  0  0  0  0
M  CHG  1   9  -1
M  CHG  1  15   1
M  END
> <s_m_source_file>
AV-unprocessed.smi

> <i_m_source_file_index>
1412

> <i_lp_mmshare_version>
43012

> <i_f3d_flags>
0

> <s_epik_input>
W0NIMl0xW0NIMl1PW0NIMl1bQ0gyXU4xW0NAQF0oW0NIM10pKFtDSDJdW0NIM10pW0NIMl1bTkhdQyg9TylbTkhdYzJubltjSF1zMg==

> <s_epik_cmdline>
J2VwaWtfcHl0aG9uJywgJy1waCcsICc3LjAnLCAnLXRuJywgJzgnLCAnLW1hJywgJzIwMCcsICctbWV0YWxfYmluZGluZycsICctaW1hZScsICc8aW5maWxlLm1hZT4nLCAnLW9tYWUnLCAnPG91dGZpbGUubWFlPic=

> <r_lp_tautomer_probability>
1

> <r_epik_Ionization_Penalty>
4.35651

> <r_epik_Ionization_Penalty_Charging>
4.3235

> <r_epik_Ionization_Penalty_Neutral>
0.0330098

> <r_epik_State_Penalty>
4.4846

> <r_epik_Charging_Adjusted_Penalty>
8.8081

> <i_epik_Tot_Q>
0

> <i_epik_Tot_abs_Q>
2

> <r_epik_Metal_State_Penalty>
1.11611

> <b_epik_Metal_Only>
1

> <s_lp_Force_Field>
OPLS_2005

> <r_lp_Energy>
23.2339

> <b_lp_Chiralities_Consistent>
1

> <s_lp_Variant>
AV-unprocessed.smi:1412-7

> <Gold.Version>
5.8.1

> <Gold.Id.Protein>
6NUR|6NUR_protein|mol2

> <Gold.PLP.Fitness>
42.9437

> <Gold.PLP.PLP>
-30.5766

> <Gold.PLP.part.hbond>
-4.0000

> <Gold.PLP.part.metal>
0.0000

> <Gold.PLP.part.buried>
-4.6741

> <Gold.PLP.part.nonpolar>
-22.5623

> <Gold.PLP.part.repulsive>
0.3669

> <Gold.PLP.ligand.clash>
0.0000

> <Gold.PLP.ligand.torsion>
1.2290

> <Gold.PLP.Chemscore.Hbond>
4.8400

> <Gold.PLP.Chemscore.CHOScore>
0.0000

> <Gold.PLP.Chemscore.Metal>
0.0000

> <Gold.Chemscore.Hbonds>
donor molecule, donor type, donor heavy atom, donor atom, acceptor molecule, acceptor atom, score
      P1  H  6896  6909       L1     8  1.00
      P1  H  6931  6943       L1     9  1.32
      P1  H  6934  6947       L1     9  1.62
      P1  H  7989  7998       L1    18  0.67

> <Gold.PLP.Chemscore.Internal.Correction>
0.3051

> <Gold.Rescore>
     Score         DG    S(hbond)    S(metal)    S(lipo)     H(rot)  DE(clash)    DE(int)     intcor
     15.18     -16.86       2.47        0.00      67.86       1.88       0.04       1.64       ----

> <Gold.Chemscore.Fitness>
15.1768

> <Gold.Chemscore.DG>
-16.8596

> <Gold.Chemscore.ZeroCoef>
-5.4800

> <Gold.Chemscore.Hbond>
2.4694

> <Gold.Chemscore.Metal>
0.0000

> <Gold.Chemscore.Lipo>
67.8555

> <Gold.Chemscore.Internal_Hbond>
0.0000

> <Gold.Chemscore.DEClash>
0.0402

> <Gold.Chemscore.DEInternal>
1.6426

> <Gold.Chemscore.Rot>
1.8779

> <Gold.Chemscore.Internal.Correction>
   9.000000E+99

> <Gold.Chemscore.Hbonds>
donor molecule, donor type, donor heavy atom, donor atom, acceptor molecule, acceptor atom, score
      P1  H  6896  6909       L1     8  0.93
      P1  H  6931  6943       L1     9  0.28
      P1  H  6934  6947       L1     9  0.26
      P1  H  7989  7998       L1    18  0.48

> <Gold.Chemscore.Hbond.Weighted>
-8.2479

> <Gold.Chemscore.Metal.Weighted>
-0.0000

> <Gold.Chemscore.Lipo.Weighted>
-7.9391

> <Gold.Chemscore.Internal_Hbond.Weighted>
0.0000

> <Gold.Chemscore.DEClash.Weighted>
0.0402

> <Gold.Chemscore.DEInternal.Weighted>
1.6426

> <Gold.Chemscore.Rot.Weighted>
4.8074

> <Gold.Chemscore.Internal.Correction.Weighted>
   9.000000E+99

> <Gold.Protein.RotatedTorsions>
[ 6907 6896 6895 6894 ] final   41.71 input  -60.11 | X-H torsion
[ 7974 7965 7964 7962 ] final  136.47 input  175.53 | X-H torsion
[ 8008 7997 7996 7995 ] final -158.49 input   59.86 | X-H torsion
[ 10167 10162 10161 10158 ] final -148.21 input  -65.29 | X-H torsion
[ 10718 10713 10712 10709 ] final -173.91 input   66.30 | X-H torsion
[ 10763 10752 10751 10750 ] final -104.40 input  -60.55 | X-H torsion
[ 11005 11000 10999 10996 ] final -131.38 input  -57.11 | X-H torsion

> <Gold.Protein.ActiveResidues>
 VAL166  LYS551  ARG553  GLY616  TRP617  ASP618  TYR619  PRO620  LYS621  CYS622 
 ASP623  PHE694  ASN695  SER759  ASP760  ASP761  ALA762  ILE779  LEU786  VAL792 
 PHE793  MET794  SER795  GLU796  ALA797  LYS798  CYS799  TRP800  GLU811  SER814 

> <Gold.Protein.RotatedAtoms>
  152.1986  134.8608  160.0509 H   0  0  0  0  0  0  0  0  0  0  0  0  # atno 6907 bound_to 6896
  151.9469  133.3649  159.3994 H   0  0  0  0  0  0  0  0  0  0  0  0  # atno 6908 bound_to 6896
  150.6950  134.4304  159.5290 H   0  0  0  0  0  0  0  0  0  0  0  0  # atno 6909 bound_to 6896
  144.9562  139.4762  143.5502 H   0  0  0  0  0  0  0  0  0  0  0  0  # atno 7974 bound_to 7965
  155.7484  140.0823  157.2213 H   0  0  0  0  0  0  0  0  0  0  0  0  # atno 8008 bound_to 7997
  154.4014  140.1565  156.2751 H   0  0  0  0  0  0  0  0  0  0  0  0  # atno 8009 bound_to 7997
  155.8954  140.3413  155.5990 H   0  0  0  0  0  0  0  0  0  0  0  0  # atno 8010 bound_to 7997
  139.7552  143.8459  152.2595 H   0  0  0  0  0  0  0  0  0  0  0  0  # atno 10167 bound_to 10162
  156.7772  130.9470  151.3120 H   0  0  0  0  0  0  0  0  0  0  0  0  # atno 10718 bound_to 10713
  154.7875  135.4787  153.9979 H   0  0  0  0  0  0  0  0  0  0  0  0  # atno 10763 bound_to 10752
  153.1582  135.6804  153.8788 H   0  0  0  0  0  0  0  0  0  0  0  0  # atno 10764 bound_to 10752
  153.8411  135.3179  155.3404 H   0  0  0  0  0  0  0  0  0  0  0  0  # atno 10765 bound_to 10752
  140.9264  134.1377  157.4272 H   0  0  0  0  0  0  0  0  0  0  0  0  # atno 11005 bound_to 11000
  146.3338  139.8681  142.8845 LP  0  0  0  0  0  0  0  0  0  0  0  0  # atno 17320 bound_to 7965
  145.2769  141.0126  143.3740 LP  0  0  0  0  0  0  0  0  0  0  0  0  # atno 17321 bound_to 7965
  139.8449  144.7192  150.9286 LP  0  0  0  0  0  0  0  0  0  0  0  0  # atno 17342 bound_to 10162
  140.7802  143.3951  151.1244 LP  0  0  0  0  0  0  0  0  0  0  0  0  # atno 17343 bound_to 10162
  157.6663  130.9011  149.9940 LP  0  0  0  0  0  0  0  0  0  0  0  0  # atno 17370 bound_to 10713
  156.1240  130.3645  149.9839 LP  0  0  0  0  0  0  0  0  0  0  0  0  # atno 17371 bound_to 10713
  139.8786  134.9990  156.5929 LP  0  0  0  0  0  0  0  0  0  0  0  0  # atno 17394 bound_to 11000
  140.7920  133.8574  155.8654 LP  0  0  0  0  0  0  0  0  0  0  0  0  # atno 17395 bound_to 11000

$$$$
