AV-unprocessed.smi:767|AV-procd|sdf|3670|dock2
  -GOLD-   22720 1 83D 1   1.00000     0.00000
 Structure written by MMmdl.
 48 50  0  0  0  0  0  0  0  0  2 V2000
  151.3755  143.9334  158.7740 C   0  0  0  0  0  0  0  0  0  0  0  0
  151.4873  142.7181  157.8780 C   0  0  0  0  0  0  0  0  0  0  0  0
  152.3989  141.6739  158.1414 C   0  0  0  0  0  0  0  0  0  0  0  0
  152.4496  140.5681  157.2680 C   0  0  0  0  0  0  0  0  0  0  0  0
  151.5864  140.5256  156.1511 C   0  0  0  0  0  0  0  0  0  0  0  0
  151.5989  139.3314  155.2110 C   0  0  0  0  0  0  0  0  0  0  0  0
  150.2255  139.0213  154.5787 C   0  0  0  0  0  0  0  0  0  0  0  0
  150.0596  137.6169  154.2145 N   0  0  0  0  0  0  0  0  0  0  0  0
  150.5816  136.5761  154.8774 C   0  0  0  0  0  0  0  0  0  0  0  0
  151.2873  136.6777  155.8805 O   0  0  0  0  0  0  0  0  0  0  0  0
  150.2155  135.4115  154.3283 N   0  0  0  0  0  0  0  0  0  0  0  0
  150.5916  134.0876  154.8274 C   0  0  1  0  0  0  0  0  0  0  0  0
  150.1214  133.8159  156.2775 C   0  0  1  0  0  0  0  0  0  0  0  0
  149.6032  134.8963  157.1942 C   0  0  0  0  0  0  0  0  0  0  0  0
  148.0860  134.8099  157.0051 C   0  0  0  0  0  0  0  0  0  0  0  0
  147.9076  134.1185  155.7701 O   0  0  0  0  0  0  0  0  0  0  0  0
  148.9135  133.1106  155.6835 C   0  0  1  0  0  0  0  0  0  0  0  0
  149.6364  132.9716  154.3273 C   0  0  0  0  0  0  0  0  0  0  0  0
  148.7900  133.2286  153.0730 C   0  0  0  0  0  0  0  0  0  0  0  0
  150.3128  131.6133  154.1168 C   0  0  0  0  0  0  0  0  0  0  0  0
  150.7014  141.6033  155.9331 C   0  0  0  0  0  0  0  0  0  0  0  0
  150.6835  142.6453  156.7930 N   0  3  0  0  0  0  0  0  0  0  0  0
  151.7163  143.7021  159.7837 H   0  0  0  0  0  0  0  0  0  0  0  0
  150.3423  144.2768  158.8370 H   0  0  0  0  0  0  0  0  0  0  0  0
  151.9865  144.7478  158.3839 H   0  0  0  0  0  0  0  0  0  0  0  0
  153.0492  141.7141  159.0033 H   0  0  0  0  0  0  0  0  0  0  0  0
  153.1355  139.7566  157.4641 H   0  0  0  0  0  0  0  0  0  0  0  0
  152.3334  139.5092  154.4250 H   0  0  0  0  0  0  0  0  0  0  0  0
  151.9525  138.4552  155.7562 H   0  0  0  0  0  0  0  0  0  0  0  0
  149.4387  139.2556  155.2959 H   0  0  0  0  0  0  0  0  0  0  0  0
  150.0503  139.6602  153.7120 H   0  0  0  0  0  0  0  0  0  0  0  0
  149.4976  137.4230  153.3986 H   0  0  0  0  0  0  0  0  0  0  0  0
  149.6260  135.4334  153.5090 H   0  0  0  0  0  0  0  0  0  0  0  0
  151.6438  133.8428  154.6699 H   0  0  0  0  0  0  0  0  0  0  0  0
  150.7860  133.1057  156.7717 H   0  0  0  0  0  0  0  0  0  0  0  0
  149.8786  134.7200  158.2343 H   0  0  0  0  0  0  0  0  0  0  0  0
  149.9829  135.8788  156.9226 H   0  0  0  0  0  0  0  0  0  0  0  0
  147.6339  134.2245  157.8070 H   0  0  0  0  0  0  0  0  0  0  0  0
  147.6092  135.7902  156.9870 H   0  0  0  0  0  0  0  0  0  0  0  0
  148.6461  132.1802  156.1866 H   0  0  0  0  0  0  0  0  0  0  0  0
  148.1011  132.4055  152.8807 H   0  0  0  0  0  0  0  0  0  0  0  0
  149.4156  133.3468  152.1878 H   0  0  0  0  0  0  0  0  0  0  0  0
  148.1821  134.1289  153.1618 H   0  0  0  0  0  0  0  0  0  0  0  0
  149.5796  130.8140  154.0035 H   0  0  0  0  0  0  0  0  0  0  0  0
  150.9506  131.3444  154.9595 H   0  0  0  0  0  0  0  0  0  0  0  0
  150.9417  131.6133  153.2260 H   0  0  0  0  0  0  0  0  0  0  0  0
  150.0055  141.6583  155.1086 H   0  0  0  0  0  0  0  0  0  0  0  0
  150.0313  143.4101  156.6179 H   0  0  0  0  0  0  0  0  0  0  0  0
  1  2  1  0  0  0  0
  1 23  1  0  0  0  0
  1 24  1  0  0  0  0
  1 25  1  0  0  0  0
  2 22  1  0  0  0  0
  2  3  2  0  0  0  0
  3  4  1  0  0  0  0
  3 26  1  0  0  0  0
  4  5  2  0  0  0  0
  4 27  1  0  0  0  0
  5  6  1  0  0  0  0
  5 21  1  0  0  0  0
  6  7  1  0  0  0  0
  6 28  1  0  0  0  0
  6 29  1  0  0  0  0
  7  8  1  0  0  0  0
  7 30  1  0  0  0  0
  7 31  1  0  0  0  0
  8  9  1  0  0  0  0
  8 32  1  0  0  0  0
  9 10  2  0  0  0  0
  9 11  1  0  0  0  0
 11 12  1  0  0  0  0
 11 33  1  0  0  0  0
 12 18  1  0  0  0  0
 12 13  1  0  0  0  0
 12 34  1  0  0  0  0
 13 17  1  0  0  0  0
 13 14  1  0  0  0  0
 13 35  1  0  0  0  0
 14 15  1  0  0  0  0
 14 36  1  0  0  0  0
 14 37  1  0  0  0  0
 15 16  1  0  0  0  0
 15 38  1  0  0  0  0
 15 39  1  0  0  0  0
 16 17  1  0  0  0  0
 17 18  1  0  0  0  0
 17 40  1  0  0  0  0
 18 19  1  0  0  0  0
 18 20  1  0  0  0  0
 19 41  1  0  0  0  0
 19 42  1  0  0  0  0
 19 43  1  0  0  0  0
 20 44  1  0  0  0  0
 20 45  1  0  0  0  0
 20 46  1  0  0  0  0
 21 22  2  0  0  0  0
 21 47  1  0  0  0  0
 22 48  1  0  0  0  0
M  CHG  1  22   1
M  END
> <s_m_source_file>
AV-unprocessed.smi

> <i_m_source_file_index>
767

> <i_lp_mmshare_version>
43012

> <i_f3d_flags>
0

> <s_epik_input>
W0NIM11jMVtjSF1bY0hdYyhbY0hdbjEpW0NIMl1bQ0gyXVtOSF1DKD1PKVtOSF1bQ0BIXTJDKFtDSDNdKShbQ0gzXSlbQ0BIXShbQ0BASF0yMylPW0NIMl1bQ0gyXTM=

> <s_epik_cmdline>
J2VwaWtfcHl0aG9uJywgJy1waCcsICc3LjAnLCAnLXRuJywgJzgnLCAnLW1hJywgJzIwMCcsICctbWV0YWxfYmluZGluZycsICctaW1hZScsICc8aW5maWxlLm1hZT4nLCAnLW9tYWUnLCAnPG91dGZpbGUubWFlPic=

> <r_epik_Ionization_Penalty>
1.41853

> <r_epik_Ionization_Penalty_Charging>
1.41848

> <r_epik_Ionization_Penalty_Neutral>
5.17407e-05

> <r_epik_State_Penalty>
1.50205

> <r_epik_Charging_Adjusted_Penalty>
2.92053

> <i_epik_Tot_Q>
1

> <i_epik_Tot_abs_Q>
1

> <r_epik_Metal_State_Penalty>
1.5544

> <b_epik_Metal_Only>
0

> <s_lp_Force_Field>
OPLS_2005

> <r_lp_Energy>
40.9756

> <b_lp_Chiralities_Consistent>
1

> <s_lp_Variant>
AV-unprocessed.smi:767-14

> <Gold.Version>
5.8.1

> <Gold.Id.Protein>
6NUR|6NUR_protein|mol2

> <Gold.PLP.Fitness>
47.3890

> <Gold.PLP.PLP>
-36.9008

> <Gold.PLP.part.hbond>
-3.2298

> <Gold.PLP.part.metal>
0.0000

> <Gold.PLP.part.buried>
-4.3744

> <Gold.PLP.part.nonpolar>
-28.1103

> <Gold.PLP.part.repulsive>
0.1940

> <Gold.PLP.ligand.clash>
0.0000

> <Gold.PLP.ligand.torsion>
0.8588

> <Gold.PLP.Chemscore.Hbond>
4.0000

> <Gold.PLP.Chemscore.CHOScore>
0.0000

> <Gold.PLP.Chemscore.Metal>
0.0000

> <Gold.Chemscore.Hbonds>
donor molecule, donor type, donor heavy atom, donor atom, acceptor molecule, acceptor atom, score
      L1  H     8    32       P1  7948  1.00
      L1  H    11    33       P1  7948  0.65
      L1  H    22    48       P1  8028  2.00

> <Gold.PLP.Chemscore.Internal.Correction>
0.2058

> <Gold.Rescore>
     Score         DG    S(hbond)    S(metal)    S(lipo)     H(rot)  DE(clash)    DE(int)     intcor
     18.71     -20.99       2.53        0.00      93.66       1.52       0.04       2.24       ----

> <Gold.Chemscore.Fitness>
18.7119

> <Gold.Chemscore.DG>
-20.9904

> <Gold.Chemscore.ZeroCoef>
-5.4800

> <Gold.Chemscore.Hbond>
2.5303

> <Gold.Chemscore.Metal>
0.0000

> <Gold.Chemscore.Lipo>
93.6627

> <Gold.Chemscore.Internal_Hbond>
0.0000

> <Gold.Chemscore.DEClash>
0.0398

> <Gold.Chemscore.DEInternal>
2.2387

> <Gold.Chemscore.Rot>
1.5233

> <Gold.Chemscore.Internal.Correction>
   9.000000E+99

> <Gold.Chemscore.Hbonds>
donor molecule, donor type, donor heavy atom, donor atom, acceptor molecule, acceptor atom, score
      L1  H     8    32       P1  7948  0.84
      L1  H    11    33       P1  7948  0.05
      L1  H    22    48       P1  8028  0.97

> <Gold.Chemscore.Hbond.Weighted>
-8.4514

> <Gold.Chemscore.Metal.Weighted>
-0.0000

> <Gold.Chemscore.Lipo.Weighted>
-10.9585

> <Gold.Chemscore.Internal_Hbond.Weighted>
0.0000

> <Gold.Chemscore.DEClash.Weighted>
0.0398

> <Gold.Chemscore.DEInternal.Weighted>
2.2387

> <Gold.Chemscore.Rot.Weighted>
3.8995

> <Gold.Chemscore.Internal.Correction.Weighted>
   9.000000E+99

> <Gold.Protein.RotatedTorsions>
[ 6907 6896 6895 6894 ] final    5.09 input  -60.11 | X-H torsion
[ 7974 7965 7964 7962 ] final -161.01 input  175.53 | X-H torsion
[ 8008 7997 7996 7995 ] final  -75.97 input   59.86 | X-H torsion
[ 10167 10162 10161 10158 ] final  -46.97 input  -65.29 | X-H torsion
[ 10718 10713 10712 10709 ] final -166.91 input   66.30 | X-H torsion
[ 10763 10752 10751 10750 ] final  -80.80 input  -60.55 | X-H torsion
[ 11005 11000 10999 10996 ] final -134.00 input  -57.11 | X-H torsion

> <Gold.Protein.ActiveResidues>
 VAL166  LYS551  ARG553  GLY616  TRP617  ASP618  TYR619  PRO620  LYS621  CYS622 
 ASP623  PHE694  ASN695  SER759  ASP760  ASP761  ALA762  ILE779  LEU786  VAL792 
 PHE793  MET794  SER795  GLU796  ALA797  LYS798  CYS799  TRP800  GLU811  SER814 

> <Gold.Protein.RotatedAtoms>
  151.6519  135.1000  160.0162 H   0  0  0  0  0  0  0  0  0  0  0  0  # atno 6907 bound_to 6896
  152.3996  133.6794  159.6314 H   0  0  0  0  0  0  0  0  0  0  0  0  # atno 6908 bound_to 6896
  150.7898  133.8731  159.3305 H   0  0  0  0  0  0  0  0  0  0  0  0  # atno 6909 bound_to 6896
  144.7406  140.3459  143.6125 H   0  0  0  0  0  0  0  0  0  0  0  0  # atno 7974 bound_to 7965
  154.5464  140.0735  156.8595 H   0  0  0  0  0  0  0  0  0  0  0  0  # atno 8008 bound_to 7997
  155.3080  140.3388  155.4227 H   0  0  0  0  0  0  0  0  0  0  0  0  # atno 8009 bound_to 7997
  156.1921  140.1690  156.8057 H   0  0  0  0  0  0  0  0  0  0  0  0  # atno 8010 bound_to 7997
  140.6795  143.2806  151.3860 H   0  0  0  0  0  0  0  0  0  0  0  0  # atno 10167 bound_to 10162
  156.6747  130.9098  151.3049 H   0  0  0  0  0  0  0  0  0  0  0  0  # atno 10718 bound_to 10713
  154.5556  135.5648  153.6961 H   0  0  0  0  0  0  0  0  0  0  0  0  # atno 10763 bound_to 10752
  153.0002  135.6261  154.2314 H   0  0  0  0  0  0  0  0  0  0  0  0  # atno 10764 bound_to 10752
  154.2250  135.2868  155.2890 H   0  0  0  0  0  0  0  0  0  0  0  0  # atno 10765 bound_to 10752
  140.9030  134.1666  157.4446 H   0  0  0  0  0  0  0  0  0  0  0  0  # atno 11005 bound_to 11000
  145.7326  139.1740  143.2422 LP  0  0  0  0  0  0  0  0  0  0  0  0  # atno 17320 bound_to 7965
  146.1195  140.7327  142.9464 LP  0  0  0  0  0  0  0  0  0  0  0  0  # atno 17321 bound_to 7965
  139.6108  144.1103  152.2296 LP  0  0  0  0  0  0  0  0  0  0  0  0  # atno 17342 bound_to 10162
  140.0516  144.5928  150.7331 LP  0  0  0  0  0  0  0  0  0  0  0  0  # atno 17343 bound_to 10162
  157.7065  130.9390  150.0947 LP  0  0  0  0  0  0  0  0  0  0  0  0  # atno 17370 bound_to 10713
  156.1912  130.3655  149.8908 LP  0  0  0  0  0  0  0  0  0  0  0  0  # atno 17371 bound_to 10713
  139.8745  134.9906  156.5508 LP  0  0  0  0  0  0  0  0  0  0  0  0  # atno 17394 bound_to 11000
  140.8206  133.8357  155.8892 LP  0  0  0  0  0  0  0  0  0  0  0  0  # atno 17395 bound_to 11000

$$$$
