AV-unprocessed.smi:3131|AV-procd|sdf|11928|dock3
  -GOLD-   2272017313D 1   1.00000     0.00000
 Structure written by MMmdl.
 43 43  0  0  0  0  0  0  0  0  2 V2000
  151.9069  145.4009  159.4151 C   0  0  0  0  0  0  0  0  0  0  0  0
  151.1819  144.1466  159.9256 C   0  0  0  0  0  0  0  0  0  0  0  0
  151.5806  142.8368  159.2048 C   0  0  0  0  0  0  0  0  0  0  0  0
  153.0667  142.4878  159.4674 C   0  0  0  0  0  0  0  0  0  0  0  0
  153.3983  142.2103  160.9412 C   0  0  0  0  0  0  0  0  0  0  0  0
  151.2949  142.9243  157.6887 C   0  0  0  0  0  0  0  0  0  0  0  0
  149.8892  142.5966  157.3785 N   0  3  0  0  0  0  0  0  0  0  0  0
  149.6345  141.1613  157.1336 C   0  0  0  0  0  0  0  0  0  0  0  0
  149.4389  140.8648  155.6309 C   0  0  2  0  0  0  0  0  0  0  0  0
  149.4864  139.3501  155.3690 C   0  0  0  0  0  0  0  0  0  0  0  0
  150.5481  141.4145  154.9432 O   0  0  0  0  0  0  0  0  0  0  0  0
  148.1266  141.4334  155.1335 C   0  0  0  0  0  0  0  0  0  0  0  0
  147.6334  141.4403  153.7954 C   0  0  0  0  0  0  0  0  0  0  0  0
  146.4401  141.9983  153.6850 N   0  0  0  0  0  0  0  0  0  0  0  0
  146.1303  142.3776  154.9407 N   0  0  0  0  0  0  0  0  0  0  0  0
  144.8692  143.0406  155.1944 C   0  0  0  0  0  0  0  0  0  0  0  0
  147.1274  142.0523  155.8344 C   0  0  0  0  0  0  0  0  0  0  0  0
  151.5071  146.2945  159.8949 H   0  0  0  0  0  0  0  0  0  0  0  0
  151.7793  145.5202  158.3389 H   0  0  0  0  0  0  0  0  0  0  0  0
  152.9748  145.3741  159.6289 H   0  0  0  0  0  0  0  0  0  0  0  0
  151.3426  144.0431  160.9994 H   0  0  0  0  0  0  0  0  0  0  0  0
  150.1147  144.3248  159.8019 H   0  0  0  0  0  0  0  0  0  0  0  0
  150.9692  142.0300  159.6128 H   0  0  0  0  0  0  0  0  0  0  0  0
  153.3446  141.5956  158.9062 H   0  0  0  0  0  0  0  0  0  0  0  0
  153.7083  143.2852  159.0902 H   0  0  0  0  0  0  0  0  0  0  0  0
  154.4348  141.8891  161.0469 H   0  0  0  0  0  0  0  0  0  0  0  0
  152.7665  141.4186  161.3450 H   0  0  0  0  0  0  0  0  0  0  0  0
  153.2707  143.0943  161.5650 H   0  0  0  0  0  0  0  0  0  0  0  0
  151.4829  143.9310  157.3174 H   0  0  0  0  0  0  0  0  0  0  0  0
  151.9575  142.2534  157.1401 H   0  0  0  0  0  0  0  0  0  0  0  0
  149.3173  142.8882  158.1584 H   0  0  0  0  0  0  0  0  0  0  0  0
  150.4594  140.5738  157.5396 H   0  0  0  0  0  0  0  0  0  0  0  0
  148.7397  140.8687  157.6852 H   0  0  0  0  0  0  0  0  0  0  0  0
  148.6786  138.8314  155.8865 H   0  0  0  0  0  0  0  0  0  0  0  0
  150.4256  138.9139  155.7116 H   0  0  0  0  0  0  0  0  0  0  0  0
  149.3890  139.1284  154.3053 H   0  0  0  0  0  0  0  0  0  0  0  0
  150.4179  142.3465  154.8528 H   0  0  0  0  0  0  0  0  0  0  0  0
  148.1050  141.0498  152.9056 H   0  0  0  0  0  0  0  0  0  0  0  0
  144.7541  143.2308  156.2618 H   0  0  0  0  0  0  0  0  0  0  0  0
  144.0456  142.4113  154.8558 H   0  0  0  0  0  0  0  0  0  0  0  0
  144.8381  143.9905  154.6597 H   0  0  0  0  0  0  0  0  0  0  0  0
  147.0434  142.2827  156.8865 H   0  0  0  0  0  0  0  0  0  0  0  0
  149.6032  143.1160  156.5607 H   0  0  0  0  0  0  0  0  0  0  0  0
  1  2  1  0  0  0  0
  1 18  1  0  0  0  0
  1 19  1  0  0  0  0
  1 20  1  0  0  0  0
  2  3  1  0  0  0  0
  2 21  1  0  0  0  0
  2 22  1  0  0  0  0
  3  4  1  0  0  0  0
  3  6  1  0  0  0  0
  3 23  1  0  0  0  0
  4  5  1  0  0  0  0
  4 24  1  0  0  0  0
  4 25  1  0  0  0  0
  5 26  1  0  0  0  0
  5 27  1  0  0  0  0
  5 28  1  0  0  0  0
  6  7  1  0  0  0  0
  6 29  1  0  0  0  0
  6 30  1  0  0  0  0
  7  8  1  0  0  0  0
  7 31  1  0  0  0  0
  7 43  1  0  0  0  0
  8  9  1  0  0  0  0
  8 32  1  0  0  0  0
  8 33  1  0  0  0  0
  9 10  1  0  0  0  0
  9 11  1  0  0  0  0
  9 12  1  0  0  0  0
 10 34  1  0  0  0  0
 10 35  1  0  0  0  0
 10 36  1  0  0  0  0
 11 37  1  0  0  0  0
 12 17  2  0  0  0  0
 12 13  1  0  0  0  0
 13 14  2  0  0  0  0
 13 38  1  0  0  0  0
 14 15  1  0  0  0  0
 15 16  1  0  0  0  0
 15 17  1  0  0  0  0
 16 39  1  0  0  0  0
 16 40  1  0  0  0  0
 16 41  1  0  0  0  0
 17 42  1  0  0  0  0
M  CHG  1   7   1
M  END
> <s_m_source_file>
AV-unprocessed.smi

> <i_m_source_file_index>
3131

> <i_lp_mmshare_version>
43012

> <i_f3d_flags>
0

> <s_epik_input>
W0NIM11bQ0gyXVtDSF0oW0NIMl1bQ0gzXSlbQ0gyXVtOSF1bQ0gyXVtDQEBdKFtDSDNdKShbT0hdKWMxW2NIXW5uKFtDSDNdKVtjSF0x

> <s_epik_cmdline>
J2VwaWtfcHl0aG9uJywgJy1waCcsICc3LjAnLCAnLXRuJywgJzgnLCAnLW1hJywgJzIwMCcsICctbWV0YWxfYmluZGluZycsICctaW1hZScsICc8aW5maWxlLm1hZT4nLCAnLW9tYWUnLCAnPG91dGZpbGUubWFlPic=

> <r_lp_tautomer_probability>
1

> <r_epik_Ionization_Penalty>
0.00304809

> <r_epik_Ionization_Penalty_Charging>
0.00302982

> <r_epik_Ionization_Penalty_Neutral>
1.82731e-05

> <r_epik_State_Penalty>
0.00212874

> <r_epik_Charging_Adjusted_Penalty>
0.00515857

> <i_epik_Tot_Q>
1

> <i_epik_Tot_abs_Q>
1

> <r_epik_Metal_State_Penalty>
-0

> <b_epik_Metal_Only>
0

> <s_lp_Force_Field>
OPLS_2005

> <r_lp_Energy>
9.85369

> <b_lp_Chiralities_Consistent>
1

> <s_lp_Variant>
AV-unprocessed.smi:3131-2

> <Gold.Version>
5.8.1

> <Gold.Id.Protein>
6NUR|6NUR_protein|mol2

> <Gold.PLP.Fitness>
43.9478

> <Gold.PLP.PLP>
-35.0967

> <Gold.PLP.part.hbond>
-2.0000

> <Gold.PLP.part.metal>
0.0000

> <Gold.PLP.part.buried>
-2.2445

> <Gold.PLP.part.nonpolar>
-31.3019

> <Gold.PLP.part.repulsive>
0.2274

> <Gold.PLP.ligand.clash>
0.0000

> <Gold.PLP.ligand.torsion>
0.9367

> <Gold.PLP.Chemscore.Hbond>
2.4800

> <Gold.PLP.Chemscore.CHOScore>
1.0000

> <Gold.PLP.Chemscore.Metal>
0.0000

> <Gold.Chemscore.Hbonds>
donor molecule, donor type, donor heavy atom, donor atom, acceptor molecule, acceptor atom, score
      L1  H     7    43       P1  8028  2.00
      P1  H  7989  7998       L1    11  0.46
      L1  C    13    38       P1  7957  1.00

> <Gold.PLP.Chemscore.Internal.Correction>
0.2846

> <Gold.Rescore>
     Score         DG    S(hbond)    S(metal)    S(lipo)     H(rot)  DE(clash)    DE(int)     intcor
     13.19     -15.97       1.29        0.00     104.05       2.34       1.75       1.03       ----

> <Gold.Chemscore.Fitness>
13.1865

> <Gold.Chemscore.DG>
-15.9738

> <Gold.Chemscore.ZeroCoef>
-5.4800

> <Gold.Chemscore.Hbond>
1.2924

> <Gold.Chemscore.Metal>
0.0000

> <Gold.Chemscore.Lipo>
104.0539

> <Gold.Chemscore.Internal_Hbond>
0.0000

> <Gold.Chemscore.DEClash>
1.7543

> <Gold.Chemscore.DEInternal>
1.0329

> <Gold.Chemscore.Rot>
2.3426

> <Gold.Chemscore.Internal.Correction>
   9.000000E+99

> <Gold.Chemscore.Hbonds>
donor molecule, donor type, donor heavy atom, donor atom, acceptor molecule, acceptor atom, score
      L1  H     7    43       P1  8028  0.94
      P1  H  7989  7998       L1    11  0.23

> <Gold.Chemscore.Hbond.Weighted>
-4.3166

> <Gold.Chemscore.Metal.Weighted>
-0.0000

> <Gold.Chemscore.Lipo.Weighted>
-12.1743

> <Gold.Chemscore.Internal_Hbond.Weighted>
0.0000

> <Gold.Chemscore.DEClash.Weighted>
1.7543

> <Gold.Chemscore.DEInternal.Weighted>
1.0329

> <Gold.Chemscore.Rot.Weighted>
5.9972

> <Gold.Chemscore.Internal.Correction.Weighted>
   9.000000E+99

> <Gold.Protein.RotatedTorsions>
[ 6907 6896 6895 6894 ] final  -43.46 input  -60.11 | X-H torsion
[ 7974 7965 7964 7962 ] final   37.83 input  175.53 | X-H torsion
[ 8008 7997 7996 7995 ] final  119.63 input   59.86 | X-H torsion
[ 10167 10162 10161 10158 ] final   82.49 input  -65.29 | X-H torsion
[ 10718 10713 10712 10709 ] final  -72.38 input   66.30 | X-H torsion
[ 10763 10752 10751 10750 ] final  157.31 input  -60.55 | X-H torsion
[ 11005 11000 10999 10996 ] final -167.23 input  -57.11 | X-H torsion

> <Gold.Protein.ActiveResidues>
 VAL166  LYS551  ARG553  GLY616  TRP617  ASP618  TYR619  PRO620  LYS621  CYS622 
 ASP623  PHE694  ASN695  SER759  ASP760  ASP761  ALA762  ILE779  LEU786  VAL792 
 PHE793  MET794  SER795  GLU796  ALA797  LYS798  CYS799  TRP800  GLU811  SER814 

> <Gold.Protein.RotatedAtoms>
  150.9437  134.8843  159.7627 H   0  0  0  0  0  0  0  0  0  0  0  0  # atno 6907 bound_to 6896
  152.5091  134.3906  159.9392 H   0  0  0  0  0  0  0  0  0  0  0  0  # atno 6908 bound_to 6896
  151.3925  133.3744  159.2757 H   0  0  0  0  0  0  0  0  0  0  0  0  # atno 6909 bound_to 6896
  146.1108  139.5846  142.9354 H   0  0  0  0  0  0  0  0  0  0  0  0  # atno 7974 bound_to 7965
  156.2605  140.2848  156.1022 H   0  0  0  0  0  0  0  0  0  0  0  0  # atno 8008 bound_to 7997
  155.1348  140.0394  157.2801 H   0  0  0  0  0  0  0  0  0  0  0  0  # atno 8009 bound_to 7997
  154.6573  140.2558  155.7153 H   0  0  0  0  0  0  0  0  0  0  0  0  # atno 8010 bound_to 7997
  139.9282  144.6169  150.8371 H   0  0  0  0  0  0  0  0  0  0  0  0  # atno 10167 bound_to 10162
  156.0323  130.4371  150.2584 H   0  0  0  0  0  0  0  0  0  0  0  0  # atno 10718 bound_to 10713
  154.1982  135.2791  155.2999 H   0  0  0  0  0  0  0  0  0  0  0  0  # atno 10763 bound_to 10752
  154.5875  135.5570  153.7249 H   0  0  0  0  0  0  0  0  0  0  0  0  # atno 10764 bound_to 10752
  153.0094  135.6360  154.2121 H   0  0  0  0  0  0  0  0  0  0  0  0  # atno 10765 bound_to 10752
  140.5556  134.5384  157.5132 H   0  0  0  0  0  0  0  0  0  0  0  0  # atno 11005 bound_to 11000
  145.5668  141.0398  143.2196 LP  0  0  0  0  0  0  0  0  0  0  0  0  # atno 17320 bound_to 7965
  144.7509  139.7195  143.7273 LP  0  0  0  0  0  0  0  0  0  0  0  0  # atno 17321 bound_to 7965
  140.7644  143.3249  151.2539 LP  0  0  0  0  0  0  0  0  0  0  0  0  # atno 17342 bound_to 10162
  139.6804  143.9864  152.2805 LP  0  0  0  0  0  0  0  0  0  0  0  0  # atno 17343 bound_to 10162
  157.0685  131.0110  151.3198 LP  0  0  0  0  0  0  0  0  0  0  0  0  # atno 17370 bound_to 10713
  157.5017  130.7884  149.7611 LP  0  0  0  0  0  0  0  0  0  0  0  0  # atno 17371 bound_to 10713
  139.9433  134.7747  156.0624 LP  0  0  0  0  0  0  0  0  0  0  0  0  # atno 17394 bound_to 11000
  141.1145  133.6632  156.3060 LP  0  0  0  0  0  0  0  0  0  0  0  0  # atno 17395 bound_to 11000

$$$$
