AV-unprocessed.smi:3199|AV-procd|sdf|12232|dock4
  -GOLD-   2272018 63D 1   1.00000     0.00000
 Structure written by MMmdl.
 35 36  0  0  0  0  0  0  0  0  1 V2000
  144.7966  131.4924  150.9417 C   0  0  0  0  0  0  0  0  0  0  0  0
  146.0379  131.7808  151.7599 C   0  0  0  0  0  0  0  0  0  0  0  0
  146.6309  130.7772  152.5547 C   0  0  0  0  0  0  0  0  0  0  0  0
  147.7853  131.1012  153.2929 C   0  0  0  0  0  0  0  0  0  0  0  0
  148.3005  132.4109  153.2090 C   0  0  0  0  0  0  0  0  0  0  0  0
  149.5459  132.8077  153.9768 C   0  0  0  0  0  0  0  0  0  0  0  0
  149.2745  133.9511  154.9635 C   0  0  0  0  0  0  0  0  0  0  0  0
  149.7251  135.2215  154.4134 N   0  0  0  0  0  0  0  0  0  0  0  0
  150.4980  136.0999  155.0682 C   0  0  0  0  0  0  0  0  0  0  0  0
  150.9136  135.9098  156.2120 O   0  0  0  0  0  0  0  0  0  0  0  0
  150.8662  137.3784  154.3066 C   0  0  1  0  0  0  0  0  0  0  0  0
  150.5169  138.6860  155.0442 C   0  0  0  0  0  0  0  0  0  0  0  0
  151.8673  139.3210  155.3204 C   0  0  0  0  0  0  0  0  0  0  0  0
  152.7280  138.7433  154.2059 C   0  0  0  0  0  0  0  0  0  0  0  0
  152.2806  137.4001  154.1312 O   0  0  0  0  0  0  0  0  0  0  0  0
  147.6318  133.3404  152.3846 C   0  0  0  0  0  0  0  0  0  0  0  0
  146.5240  133.0387  151.6735 N   0  0  0  0  0  0  0  0  0  0  0  0
  144.4902  130.4506  151.0409 H   0  0  0  0  0  0  0  0  0  0  0  0
  144.9832  131.6924  149.8861 H   0  0  0  0  0  0  0  0  0  0  0  0
  143.9706  132.1233  151.2713 H   0  0  0  0  0  0  0  0  0  0  0  0
  146.2144  129.7815  152.5990 H   0  0  0  0  0  0  0  0  0  0  0  0
  148.2661  130.3559  153.9093 H   0  0  0  0  0  0  0  0  0  0  0  0
  149.9267  131.9349  154.5093 H   0  0  0  0  0  0  0  0  0  0  0  0
  150.3221  133.0996  153.2680 H   0  0  0  0  0  0  0  0  0  0  0  0
  148.2072  134.0147  155.1817 H   0  0  0  0  0  0  0  0  0  0  0  0
  149.7874  133.7587  155.9075 H   0  0  0  0  0  0  0  0  0  0  0  0
  149.4327  135.4482  153.4737 H   0  0  0  0  0  0  0  0  0  0  0  0
  150.3917  137.3793  153.3236 H   0  0  0  0  0  0  0  0  0  0  0  0
  149.9285  139.3298  154.3893 H   0  0  0  0  0  0  0  0  0  0  0  0
  149.9413  138.5463  155.9604 H   0  0  0  0  0  0  0  0  0  0  0  0
  151.8373  140.4109  155.3159 H   0  0  0  0  0  0  0  0  0  0  0  0
  152.2443  138.9914  156.2895 H   0  0  0  0  0  0  0  0  0  0  0  0
  152.5351  139.2495  153.2585 H   0  0  0  0  0  0  0  0  0  0  0  0
  153.7950  138.8014  154.4213 H   0  0  0  0  0  0  0  0  0  0  0  0
  147.9962  134.3529  152.2898 H   0  0  0  0  0  0  0  0  0  0  0  0
  1  2  1  0  0  0  0
  1 18  1  0  0  0  0
  1 19  1  0  0  0  0
  1 20  1  0  0  0  0
  2 17  1  0  0  0  0
  2  3  2  0  0  0  0
  3  4  1  0  0  0  0
  3 21  1  0  0  0  0
  4  5  2  0  0  0  0
  4 22  1  0  0  0  0
  5  6  1  0  0  0  0
  5 16  1  0  0  0  0
  6  7  1  0  0  0  0
  6 23  1  0  0  0  0
  6 24  1  0  0  0  0
  7  8  1  0  0  0  0
  7 25  1  0  0  0  0
  7 26  1  0  0  0  0
  8  9  1  0  0  0  0
  8 27  1  0  0  0  0
  9 10  2  0  0  0  0
  9 11  1  0  0  0  0
 11 15  1  0  0  0  0
 11 12  1  0  0  0  0
 11 28  1  0  0  0  0
 12 13  1  0  0  0  0
 12 29  1  0  0  0  0
 12 30  1  0  0  0  0
 13 14  1  0  0  0  0
 13 31  1  0  0  0  0
 13 32  1  0  0  0  0
 14 15  1  0  0  0  0
 14 33  1  0  0  0  0
 14 34  1  0  0  0  0
 16 17  2  0  0  0  0
 16 35  1  0  0  0  0
M  END
> <s_m_source_file>
AV-unprocessed.smi

> <i_m_source_file_index>
3199

> <i_lp_mmshare_version>
43012

> <i_f3d_flags>
0

> <s_epik_input>
W0NIM11jMVtjSF1bY0hdYyhbY0hdbjEpW0NIMl1bQ0gyXVtOSF1DKD1PKVtDQEBIXTJbQ0gyXVtDSDJdW0NIMl1PMg==

> <s_epik_cmdline>
J2VwaWtfcHl0aG9uJywgJy1waCcsICc3LjAnLCAnLXRuJywgJzgnLCAnLW1hJywgJzIwMCcsICctbWV0YWxfYmluZGluZycsICctaW1hZScsICc8aW5maWxlLm1hZT4nLCAnLW9tYWUnLCAnPG91dGZpbGUubWFlPic=

> <r_epik_Ionization_Penalty>
0.0519155

> <r_epik_Ionization_Penalty_Charging>
0

> <r_epik_Ionization_Penalty_Neutral>
0.0519155

> <r_epik_State_Penalty>
0.0445047

> <r_epik_Charging_Adjusted_Penalty>
0.0445047

> <i_epik_Tot_Q>
0

> <i_epik_Tot_abs_Q>
0

> <r_epik_Metal_State_Penalty>
0.0408967

> <b_epik_Metal_Only>
0

> <s_lp_Force_Field>
OPLS_2005

> <r_lp_Energy>
16.9644

> <b_lp_Chiralities_Consistent>
1

> <s_lp_Variant>
AV-unprocessed.smi:3199-2

> <Gold.Version>
5.8.1

> <Gold.Id.Protein>
6NUR|6NUR_protein|mol2

> <Gold.PLP.Fitness>
41.6099

> <Gold.PLP.PLP>
-33.8425

> <Gold.PLP.part.hbond>
-2.0000

> <Gold.PLP.part.metal>
0.0000

> <Gold.PLP.part.buried>
-4.3092

> <Gold.PLP.part.nonpolar>
-27.8174

> <Gold.PLP.part.repulsive>
0.3439

> <Gold.PLP.ligand.clash>
0.0000

> <Gold.PLP.ligand.torsion>
0.3725

> <Gold.PLP.Chemscore.Hbond>
1.8320

> <Gold.PLP.Chemscore.CHOScore>
1.0000

> <Gold.PLP.Chemscore.Metal>
0.0000

> <Gold.Chemscore.Hbonds>
donor molecule, donor type, donor heavy atom, donor atom, acceptor molecule, acceptor atom, score
      L1  H     8    27       P1  7948  0.85
      P1  H 10752 10765       L1    15  0.80
      L1  C    16    35       P1  7948  0.96

> <Gold.PLP.Chemscore.Internal.Correction>
0.0163

> <Gold.Rescore>
     Score         DG    S(hbond)    S(metal)    S(lipo)     H(rot)  DE(clash)    DE(int)     intcor
     15.00     -15.42       1.33        0.00      79.51       1.49       0.00       0.41       ----

> <Gold.Chemscore.Fitness>
15.0046

> <Gold.Chemscore.DG>
-15.4157

> <Gold.Chemscore.ZeroCoef>
-5.4800

> <Gold.Chemscore.Hbond>
1.3283

> <Gold.Chemscore.Metal>
0.0000

> <Gold.Chemscore.Lipo>
79.5126

> <Gold.Chemscore.Internal_Hbond>
0.0000

> <Gold.Chemscore.DEClash>
0.0000

> <Gold.Chemscore.DEInternal>
0.4110

> <Gold.Chemscore.Rot>
1.4859

> <Gold.Chemscore.Internal.Correction>
   9.000000E+99

> <Gold.Chemscore.Hbonds>
donor molecule, donor type, donor heavy atom, donor atom, acceptor molecule, acceptor atom, score
      L1  H     8    27       P1  7948  0.15
      P1  H 10752 10765       L1    15  0.62

> <Gold.Chemscore.Hbond.Weighted>
-4.4366

> <Gold.Chemscore.Metal.Weighted>
-0.0000

> <Gold.Chemscore.Lipo.Weighted>
-9.3030

> <Gold.Chemscore.Internal_Hbond.Weighted>
0.0000

> <Gold.Chemscore.DEClash.Weighted>
0.0000

> <Gold.Chemscore.DEInternal.Weighted>
0.4110

> <Gold.Chemscore.Rot.Weighted>
3.8039

> <Gold.Chemscore.Internal.Correction.Weighted>
   9.000000E+99

> <Gold.Protein.RotatedTorsions>
[ 6907 6896 6895 6894 ] final   14.83 input  -60.11 | X-H torsion
[ 7974 7965 7964 7962 ] final  -99.13 input  175.53 | X-H torsion
[ 8008 7997 7996 7995 ] final  -82.83 input   59.86 | X-H torsion
[ 10167 10162 10161 10158 ] final -164.24 input  -65.29 | X-H torsion
[ 10718 10713 10712 10709 ] final -123.01 input   66.30 | X-H torsion
[ 10763 10752 10751 10750 ] final  158.92 input  -60.55 | X-H torsion
[ 11005 11000 10999 10996 ] final  167.96 input  -57.11 | X-H torsion

> <Gold.Protein.ActiveResidues>
 VAL166  LYS551  ARG553  GLY616  TRP617  ASP618  TYR619  PRO620  LYS621  CYS622 
 ASP623  PHE694  ASN695  SER759  ASP760  ASP761  ALA762  ILE779  LEU786  VAL792 
 PHE793  MET794  SER795  GLU796  ALA797  LYS798  CYS799  TRP800  GLU811  SER814 

> <Gold.Protein.RotatedAtoms>
  151.8084  135.0688  160.0409 H   0  0  0  0  0  0  0  0  0  0  0  0  # atno 6907 bound_to 6896
  152.3038  133.5678  159.5644 H   0  0  0  0  0  0  0  0  0  0  0  0  # atno 6908 bound_to 6896
  150.7286  134.0168  159.3730 H   0  0  0  0  0  0  0  0  0  0  0  0  # atno 6909 bound_to 6896
  145.3116  140.9401  143.2766 H   0  0  0  0  0  0  0  0  0  0  0  0  # atno 7974 bound_to 7965
  154.6127  140.0627  156.9515 H   0  0  0  0  0  0  0  0  0  0  0  0  # atno 8008 bound_to 7997
  155.1946  140.3310  155.4334 H   0  0  0  0  0  0  0  0  0  0  0  0  # atno 8009 bound_to 7997
  156.2386  140.1875  156.7033 H   0  0  0  0  0  0  0  0  0  0  0  0  # atno 8010 bound_to 7997
  139.6264  144.0524  152.1978 H   0  0  0  0  0  0  0  0  0  0  0  0  # atno 10167 bound_to 10162
  156.1466  130.6505  150.9852 H   0  0  0  0  0  0  0  0  0  0  0  0  # atno 10718 bound_to 10713
  154.2237  135.2781  155.2915 H   0  0  0  0  0  0  0  0  0  0  0  0  # atno 10763 bound_to 10752
  154.5681  135.5627  153.7072 H   0  0  0  0  0  0  0  0  0  0  0  0  # atno 10764 bound_to 10752
  153.0036  135.6314  154.2377 H   0  0  0  0  0  0  0  0  0  0  0  0  # atno 10765 bound_to 10752
  140.2822  134.7741  157.3768 H   0  0  0  0  0  0  0  0  0  0  0  0  # atno 11005 bound_to 11000
  144.9011  139.4648  143.6632 LP  0  0  0  0  0  0  0  0  0  0  0  0  # atno 17320 bound_to 7965
  146.3116  139.7766  142.9015 LP  0  0  0  0  0  0  0  0  0  0  0  0  # atno 17321 bound_to 7965
  140.0178  144.6175  150.7592 LP  0  0  0  0  0  0  0  0  0  0  0  0  # atno 17342 bound_to 10162
  140.7413  143.2817  151.3580 LP  0  0  0  0  0  0  0  0  0  0  0  0  # atno 17343 bound_to 10162
  157.6622  131.0878  150.7812 LP  0  0  0  0  0  0  0  0  0  0  0  0  # atno 17370 bound_to 10713
  156.7883  130.4882  149.5389 LP  0  0  0  0  0  0  0  0  0  0  0  0  # atno 17371 bound_to 10713
  140.1272  134.5142  155.8135 LP  0  0  0  0  0  0  0  0  0  0  0  0  # atno 17394 bound_to 11000
  141.2161  133.6777  156.6974 LP  0  0  0  0  0  0  0  0  0  0  0  0  # atno 17395 bound_to 11000

$$$$
