AV-unprocessed.smi:3338|AV-procd|sdf|12876|dock4
  -GOLD-   2272019283D 1   1.00000     0.00000
 Structure written by MMmdl.
 44 45  0  0  0  0  0  0  0  0  2 V2000
  144.9536  135.1182  150.7935 C   0  0  0  0  0  0  0  0  0  0  0  0
  144.9890  136.2725  151.8049 C   0  0  1  0  0  0  0  0  0  0  0  0
  145.3568  135.7749  153.2127 C   0  0  0  0  0  0  0  0  0  0  0  0
  145.4112  136.9517  154.1951 C   0  0  0  0  0  0  0  0  0  0  0  0
  146.3669  138.0452  153.6921 C   0  0  0  0  0  0  0  0  0  0  0  0
  145.9844  138.5090  152.3332 N   0  3  1  0  0  0  0  0  0  0  0  0
  146.8088  139.6590  151.8820 C   0  0  0  0  0  0  0  0  0  0  0  0
  146.8682  140.7854  152.9266 C   0  0  0  0  0  0  0  0  0  0  0  0
  148.1958  140.8657  153.5189 N   0  0  0  0  0  0  0  0  0  0  0  0
  148.4293  141.1128  154.8170 C   0  0  0  0  0  0  0  0  0  0  0  0
  147.5253  141.3178  155.6280 O   0  0  0  0  0  0  0  0  0  0  0  0
  149.9047  141.1359  155.2542 C   0  0  1  0  0  0  0  0  0  0  0  0
  150.0930  141.5693  156.7221 C   0  0  0  0  0  0  0  0  0  0  0  0
  150.5448  139.8528  154.9854 N   0  0  0  0  0  0  0  0  0  0  0  0
  151.8349  139.4674  155.2884 C   0  0  0  0  0  0  0  0  0  0  0  0
  152.0009  138.1922  154.8298 C   0  0  0  0  0  0  0  0  0  0  0  0
  150.7422  137.8754  154.2482 C   0  0  0  0  0  0  0  0  0  0  0  0
  149.8759  138.8712  154.3365 N   0  0  0  0  0  0  0  0  0  0  0  0
  145.9613  137.3835  151.3600 C   0  0  0  0  0  0  0  0  0  0  0  0
  145.9312  134.6444  150.6979 H   0  0  0  0  0  0  0  0  0  0  0  0
  144.6563  135.4700  149.8053 H   0  0  0  0  0  0  0  0  0  0  0  0
  144.2405  134.3512  151.0970 H   0  0  0  0  0  0  0  0  0  0  0  0
  143.9861  136.7005  151.8486 H   0  0  0  0  0  0  0  0  0  0  0  0
  144.6297  135.0382  153.5566 H   0  0  0  0  0  0  0  0  0  0  0  0
  146.3241  135.2710  153.1895 H   0  0  0  0  0  0  0  0  0  0  0  0
  144.4115  137.3685  154.3246 H   0  0  0  0  0  0  0  0  0  0  0  0
  145.7297  136.6015  155.1774 H   0  0  0  0  0  0  0  0  0  0  0  0
  146.3451  138.8836  154.3895 H   0  0  0  0  0  0  0  0  0  0  0  0
  147.3921  137.6716  153.6755 H   0  0  0  0  0  0  0  0  0  0  0  0
  147.8290  139.3181  151.6987 H   0  0  0  0  0  0  0  0  0  0  0  0
  146.4325  140.0319  150.9279 H   0  0  0  0  0  0  0  0  0  0  0  0
  146.6318  141.7507  152.4789 H   0  0  0  0  0  0  0  0  0  0  0  0
  146.1336  140.6046  153.7130 H   0  0  0  0  0  0  0  0  0  0  0  0
  148.9874  140.7088  152.9117 H   0  0  0  0  0  0  0  0  0  0  0  0
  150.4043  141.8805  154.6323 H   0  0  0  0  0  0  0  0  0  0  0  0
  149.6703  142.5591  156.8991 H   0  0  0  0  0  0  0  0  0  0  0  0
  151.1514  141.6171  156.9795 H   0  0  0  0  0  0  0  0  0  0  0  0
  149.6164  140.8766  157.4169 H   0  0  0  0  0  0  0  0  0  0  0  0
  152.5208  140.1258  155.8010 H   0  0  0  0  0  0  0  0  0  0  0  0
  152.8866  137.5783  154.8994 H   0  0  0  0  0  0  0  0  0  0  0  0
  150.4352  136.9591  153.7657 H   0  0  0  0  0  0  0  0  0  0  0  0
  146.9694  136.9805  151.2477 H   0  0  0  0  0  0  0  0  0  0  0  0
  145.6565  137.7427  150.3778 H   0  0  0  0  0  0  0  0  0  0  0  0
  145.0370  138.8508  152.4111 H   0  0  0  0  0  0  0  0  0  0  0  0
  1  2  1  0  0  0  0
  1 20  1  0  0  0  0
  1 21  1  0  0  0  0
  1 22  1  0  0  0  0
  2 19  1  0  0  0  0
  2  3  1  0  0  0  0
  2 23  1  0  0  0  0
  3  4  1  0  0  0  0
  3 24  1  0  0  0  0
  3 25  1  0  0  0  0
  4  5  1  0  0  0  0
  4 26  1  0  0  0  0
  4 27  1  0  0  0  0
  5  6  1  0  0  0  0
  5 28  1  0  0  0  0
  5 29  1  0  0  0  0
  6  7  1  0  0  0  0
  6 19  1  0  0  0  0
  6 44  1  0  0  0  0
  7  8  1  0  0  0  0
  7 30  1  0  0  0  0
  7 31  1  0  0  0  0
  8  9  1  0  0  0  0
  8 32  1  0  0  0  0
  8 33  1  0  0  0  0
  9 10  1  0  0  0  0
  9 34  1  0  0  0  0
 10 11  2  0  0  0  0
 10 12  1  0  0  0  0
 12 13  1  0  0  0  0
 12 14  1  0  0  0  0
 12 35  1  0  0  0  0
 13 36  1  0  0  0  0
 13 37  1  0  0  0  0
 13 38  1  0  0  0  0
 14 18  1  0  0  0  0
 14 15  1  0  0  0  0
 15 16  2  0  0  0  0
 15 39  1  0  0  0  0
 16 17  1  0  0  0  0
 16 40  1  0  0  0  0
 17 18  2  0  0  0  0
 17 41  1  0  0  0  0
 19 42  1  0  0  0  0
 19 43  1  0  0  0  0
M  CHG  1   6   1
M  END
> <s_m_source_file>
AV-unprocessed.smi

> <i_m_source_file_index>
3338

> <i_lp_mmshare_version>
43012

> <i_f3d_flags>
0

> <s_epik_input>
W0NIM11bQ0BASF0xW0NIMl1bQ0gyXVtDSDJdTihbQ0gyXTEpW0NIMl1bQ0gyXVtOSF1DKD1PKVtDQEhdKFtDSDNdKW4yW2NIXVtjSF1bY0hdbjI=

> <s_epik_cmdline>
J2VwaWtfcHl0aG9uJywgJy1waCcsICc3LjAnLCAnLXRuJywgJzgnLCAnLW1hJywgJzIwMCcsICctbWV0YWxfYmluZGluZycsICctaW1hZScsICc8aW5maWxlLm1hZT4nLCAnLW9tYWUnLCAnPG91dGZpbGUubWFlPic=

> <r_lp_tautomer_probability>
1

> <r_epik_Ionization_Penalty>
0.00225707

> <r_epik_Ionization_Penalty_Charging>
0.00223709

> <r_epik_Ionization_Penalty_Neutral>
1.99775e-05

> <r_epik_State_Penalty>
0.00153978

> <r_epik_Charging_Adjusted_Penalty>
0.00377687

> <i_epik_Tot_Q>
1

> <i_epik_Tot_abs_Q>
1

> <r_epik_Metal_State_Penalty>
-0

> <b_epik_Metal_Only>
0

> <s_lp_Force_Field>
OPLS_2005

> <r_lp_Energy>
20.7823

> <b_lp_Chiralities_Consistent>
1

> <s_lp_Variant>
AV-unprocessed.smi:3338-8

> <Gold.Version>
5.8.1

> <Gold.Id.Protein>
6NUR|6NUR_protein|mol2

> <Gold.PLP.Fitness>
43.8498

> <Gold.PLP.PLP>
-33.0448

> <Gold.PLP.part.hbond>
-2.3094

> <Gold.PLP.part.metal>
0.0000

> <Gold.PLP.part.buried>
3.4543

> <Gold.PLP.part.nonpolar>
-35.1221

> <Gold.PLP.part.repulsive>
0.4681

> <Gold.PLP.ligand.clash>
0.0000

> <Gold.PLP.ligand.torsion>
0.6829

> <Gold.PLP.Chemscore.Hbond>
2.9280

> <Gold.PLP.Chemscore.CHOScore>
1.0773

> <Gold.PLP.Chemscore.Metal>
0.0000

> <Gold.Chemscore.Hbonds>
donor molecule, donor type, donor heavy atom, donor atom, acceptor molecule, acceptor atom, score
      L1  H     6    44       P1 10175  1.62
      L1  H     9    34       P1  7957  0.93
      L1  C    17    41       P1  7948  0.69
      L1  C    17    41       P1  7949  0.39

> <Gold.PLP.Chemscore.Internal.Correction>
0.1548

> <Gold.Rescore>
     Score         DG    S(hbond)    S(metal)    S(lipo)     H(rot)  DE(clash)    DE(int)     intcor
     12.58     -16.51       1.79        0.00      81.61       1.76       1.77       2.16       ----

> <Gold.Chemscore.Fitness>
12.5765

> <Gold.Chemscore.DG>
-16.5069

> <Gold.Chemscore.ZeroCoef>
-5.4800

> <Gold.Chemscore.Hbond>
1.7895

> <Gold.Chemscore.Metal>
0.0000

> <Gold.Chemscore.Lipo>
81.6050

> <Gold.Chemscore.Internal_Hbond>
0.0000

> <Gold.Chemscore.DEClash>
1.7679

> <Gold.Chemscore.DEInternal>
2.1624

> <Gold.Chemscore.Rot>
1.7570

> <Gold.Chemscore.Internal.Correction>
   9.000000E+99

> <Gold.Chemscore.Hbonds>
donor molecule, donor type, donor heavy atom, donor atom, acceptor molecule, acceptor atom, score
      L1  H     6    44       P1 10175  0.76
      L1  H     9    34       P1  7957  0.88

> <Gold.Chemscore.Hbond.Weighted>
-5.9770

> <Gold.Chemscore.Metal.Weighted>
-0.0000

> <Gold.Chemscore.Lipo.Weighted>
-9.5478

> <Gold.Chemscore.Internal_Hbond.Weighted>
0.0000

> <Gold.Chemscore.DEClash.Weighted>
1.7679

> <Gold.Chemscore.DEInternal.Weighted>
2.1624

> <Gold.Chemscore.Rot.Weighted>
4.4979

> <Gold.Chemscore.Internal.Correction.Weighted>
   9.000000E+99

> <Gold.Protein.RotatedTorsions>
[ 6907 6896 6895 6894 ] final -117.73 input  -60.11 | X-H torsion
[ 7974 7965 7964 7962 ] final -142.61 input  175.53 | X-H torsion
[ 8008 7997 7996 7995 ] final -130.85 input   59.86 | X-H torsion
[ 10167 10162 10161 10158 ] final -155.98 input  -65.29 | X-H torsion
[ 10718 10713 10712 10709 ] final -132.86 input   66.30 | X-H torsion
[ 10763 10752 10751 10750 ] final   81.96 input  -60.55 | X-H torsion
[ 11005 11000 10999 10996 ] final  115.68 input  -57.11 | X-H torsion

> <Gold.Protein.ActiveResidues>
 VAL166  LYS551  ARG553  GLY616  TRP617  ASP618  TYR619  PRO620  LYS621  CYS622 
 ASP623  PHE694  ASN695  SER759  ASP760  ASP761  ALA762  ILE779  LEU786  VAL792 
 PHE793  MET794  SER795  GLU796  ALA797  LYS798  CYS799  TRP800  GLU811  SER814 

> <Gold.Protein.RotatedAtoms>
  150.8161  133.8335  159.3159 H   0  0  0  0  0  0  0  0  0  0  0  0  # atno 6907 bound_to 6896
  151.6107  135.1038  160.0090 H   0  0  0  0  0  0  0  0  0  0  0  0  # atno 6908 bound_to 6896
  152.4252  133.7142  159.6553 H   0  0  0  0  0  0  0  0  0  0  0  0  # atno 6909 bound_to 6896
  144.8430  140.5936  143.5439 H   0  0  0  0  0  0  0  0  0  0  0  0  # atno 7974 bound_to 7965
  155.3026  140.0453  157.3030 H   0  0  0  0  0  0  0  0  0  0  0  0  # atno 8008 bound_to 7997
  154.5478  140.2308  155.8502 H   0  0  0  0  0  0  0  0  0  0  0  0  # atno 8009 bound_to 7997
  156.1940  140.3043  155.9395 H   0  0  0  0  0  0  0  0  0  0  0  0  # atno 8010 bound_to 7997
  139.6887  143.9457  152.2374 H   0  0  0  0  0  0  0  0  0  0  0  0  # atno 10167 bound_to 10162
  156.2389  130.7084  151.0936 H   0  0  0  0  0  0  0  0  0  0  0  0  # atno 10718 bound_to 10713
  153.1162  135.4746  154.9118 H   0  0  0  0  0  0  0  0  0  0  0  0  # atno 10763 bound_to 10752
  154.7530  135.3111  154.8524 H   0  0  0  0  0  0  0  0  0  0  0  0  # atno 10764 bound_to 10752
  153.9101  135.6866  153.4805 H   0  0  0  0  0  0  0  0  0  0  0  0  # atno 10765 bound_to 10752
  139.9017  134.9587  156.7082 H   0  0  0  0  0  0  0  0  0  0  0  0  # atno 11005 bound_to 11000
  145.4654  139.1508  143.3843 LP  0  0  0  0  0  0  0  0  0  0  0  0  # atno 17320 bound_to 7965
  146.2720  140.4785  142.8811 LP  0  0  0  0  0  0  0  0  0  0  0  0  # atno 17321 bound_to 7965
  139.9267  144.6766  150.8405 LP  0  0  0  0  0  0  0  0  0  0  0  0  # atno 17342 bound_to 10162
  140.7676  143.3337  151.2355 LP  0  0  0  0  0  0  0  0  0  0  0  0  # atno 17343 bound_to 10162
  157.7167  131.0706  150.6300 LP  0  0  0  0  0  0  0  0  0  0  0  0  # atno 17370 bound_to 10713
  156.6372  130.4448  149.5765 LP  0  0  0  0  0  0  0  0  0  0  0  0  # atno 17371 bound_to 10713
  140.7097  133.9234  155.8076 LP  0  0  0  0  0  0  0  0  0  0  0  0  # atno 17394 bound_to 11000
  141.0310  134.0756  157.4014 LP  0  0  0  0  0  0  0  0  0  0  0  0  # atno 17395 bound_to 11000

$$$$
