#       Name:                AV-unprocessed.smi:862
#       Creating user name   scv26
#       Creation time:       Fri Mar 27 01:45:57 2020


#       File generated by GOLD software.
#

@<TRIPOS>MOLECULE
AV-unprocessed.smi:862
    47    49     1
SMALL
NO_CHARGES


@<TRIPOS>ATOM
      1 ****        -4.7335  -2.9855   1.1040 N.am           1 S1                 0.0000
      2 ****        -4.3662  -2.3921  -0.0359 C.2            1 S1                 0.0000
      3 ****        -4.5701  -2.9283  -1.1235 O.2            1 S1                 0.0000
      4 ****        -3.8104  -1.1623   0.1050 N.am           1 S1                 0.0000
      5 ****        -3.2699  -0.5932   1.3503 C.3            1 S1                 0.0000
      6 ****        -1.7323  -0.6397   1.2868 C.3            1 S1                 0.0000
      7 ****        -1.1985   0.1097   0.0474 C.3            1 S1                 0.0000
      8 ****         0.2689  -0.0655  -0.0490 N.4            1 S1                 1.0000
      9 ****         0.9870   0.8795  -0.9387 C.3            1 S1                 0.0000
     10 ****         0.9997   2.3244  -0.4275 C.3            1 S1                 0.0000
     11 ****         2.1940   2.9848  -1.1299 C.3            1 S1                 0.0000
     12 ****         3.0777   1.8453  -1.6675 C.3            1 S1                 0.0000
     13 ****         2.4738   0.5309  -1.1441 C.3            1 S1                 0.0000
     14 ****         3.1554   0.0564   0.0797 N.pl3          1 S1                 0.0000
     15 ****         3.5592   0.7831   1.1748 C.2            1 S1                 0.0000
     16 ****         4.1258  -0.1049   2.0520 C.2            1 S1                 0.0000
     17 ****         4.0421  -1.3370   1.4633 N.pl3          1 S1                 1.0000
     18 ****         3.4506  -1.2381   0.2686 C.2            1 S1                 0.0000
     19 ****        -1.9195  -0.3682  -1.2349 C.3            1 S1                 0.0000
     20 ****        -3.4482  -0.3399  -1.0553 C.3            1 S1                 0.0000
     21 ****        -5.1655  -3.8977   1.0742 H              1 S1                 0.0000
     22 ****        -4.5906  -2.5184   1.9872 H              1 S1                 0.0000
     23 ****        -3.6087   0.4392   1.4492 H              1 S1                 0.0000
     24 ****        -3.6158  -1.0982   2.2522 H              1 S1                 0.0000
     25 ****        -1.3123  -0.2060   2.1951 H              1 S1                 0.0000
     26 ****        -1.4065  -1.6809   1.2619 H              1 S1                 0.0000
     27 ****        -1.4163   1.1683   0.1933 H              1 S1                 0.0000
     28 ****         0.6550   0.0361   0.8786 H              1 S1                 0.0000
     29 ****         0.5174   0.8675  -1.9227 H              1 S1                 0.0000
     30 ****         0.0661   2.8483  -0.6357 H              1 S1                 0.0000
     31 ****         1.1494   2.3444   0.6526 H              1 S1                 0.0000
     32 ****         1.8552   3.6138  -1.9542 H              1 S1                 0.0000
     33 ****         2.7433   3.6270  -0.4404 H              1 S1                 0.0000
     34 ****         3.0379   1.8503  -2.7577 H              1 S1                 0.0000
     35 ****         4.1261   1.9696  -1.3928 H              1 S1                 0.0000
     36 ****         2.5793  -0.2526  -1.8969 H              1 S1                 0.0000
     37 ****         3.4275   1.8526   1.2509 H              1 S1                 0.0000
     38 ****         4.5719   0.0441   3.0249 H              1 S1                 0.0000
     39 ****         3.2555  -2.0485  -0.4115 H              1 S1                 0.0000
     40 ****        -1.6505   0.2572  -2.0858 H              1 S1                 0.0000
     41 ****        -1.6043  -1.3829  -1.4830 H              1 S1                 0.0000
     42 ****        -3.9388  -0.6708  -1.9720 H              1 S1                 0.0000
     43 ****        -3.7890   0.6836  -0.8932 H              1 S1                 0.0000
     44 ****         0.4449  -1.0077  -0.3670 H              1 S1                 0.0000
     45 ****         4.3853  -2.1992   1.8689 H              1 S1                 0.0000
     46 ****        -5.0171  -3.8219  -1.1645 LP             1 S1                 0.0000
     47 ****        -4.2891  -2.4707  -1.9671 LP             1 S1                 0.0000
@<TRIPOS>BOND
    1    1    2 am    
    2    1   21 1     
    3    1   22 1     
    4    2    3 2     
    5    2    4 am    
    6    4   20 1     
    7    4    5 1     
    8    5    6 1     
    9    5   23 1     
   10    5   24 1     
   11    6    7 1     
   12    6   25 1     
   13    6   26 1     
   14    7    8 1     
   15    7   19 1     
   16    7   27 1     
   17    8    9 1     
   18    8   28 1     
   19    8   44 1     
   20    9   13 1     
   21    9   10 1     
   22    9   29 1     
   23   10   11 1     
   24   10   30 1     
   25   10   31 1     
   26   11   12 1     
   27   11   32 1     
   28   11   33 1     
   29   12   13 1     
   30   12   34 1     
   31   12   35 1     
   32   13   14 1     
   33   13   36 1     
   34   14   18 1     
   35   14   15 1     
   36   15   16 2     
   37   15   37 1     
   38   16   17 1     
   39   16   38 1     
   40   17   18 2     
   41   17   45 1     
   42   18   39 1     
   43   19   20 1     
   44   19   40 1     
   45   19   41 1     
   46   20   42 1     
   47   20   43 1     
   48    3   46 1     
   49    3   47 1     
@<TRIPOS>SUBSTRUCTURE
      1 S1             1
@<TRIPOS>SET
LONE_PAIRS      STATIC     ATOMS    <user>   **** ""
2 46 47
DONOR_HYDROGENS      STATIC     ATOMS    <user>   **** ""
5 21 22 28 44 45
ATOM$BLUE        STATIC     ATOMS    COLORGROUP SYSTEM
2 46 47
ATOM$RED        STATIC     ATOMS    COLORGROUP SYSTEM
5 21 22 28 44 45
