#       Name:                AV-unprocessed.smi:10
#       Creating user name   scv26
#       Creation time:       Thu Mar 26 15:17:13 2020


#       File generated by GOLD software.
#

@<TRIPOS>MOLECULE
AV-unprocessed.smi:10
    40    42     1
SMALL
NO_CHARGES


@<TRIPOS>ATOM
      1 ****        -2.5511   4.6266   1.1535 C.3            1 S1                 0.0000
      2 ****        -2.1895   3.8414  -0.0087 N.pl3          1 S1                 0.0000
      3 ****        -2.2092   4.2316  -1.2972 C.2            1 S1                 0.0000
      4 ****        -1.8227   3.3066  -2.1739 N.2            1 S1                 0.0000
      5 ****        -1.5303   2.2233  -1.3531 C.2            1 S1                 0.0000
      6 ****        -1.0417   0.8657  -1.6866 C.2            1 S1                 0.0000
      7 ****        -0.8079   0.5150  -2.8434 O.2            1 S1                 0.0000
      8 ****        -0.8803   0.0703  -0.5878 N.am           1 S1                 0.0000
      9 ****        -0.3939  -1.3108  -0.7252 C.3            1 S1                 0.0000
     10 ****         1.1487  -1.3854  -0.6564 C.3            1 S1                 0.0000
     11 ****         1.6654  -1.3298  -1.9705 O.3            1 S1                 0.0000
     12 ****         1.6455  -2.6939  -0.0432 C.3            1 S1                 0.0000
     13 ****         1.3342  -3.0123   1.4283 C.3            1 S1                 0.0000
     14 ****         2.7013  -3.6935   1.5256 C.3            1 S1                 0.0000
     15 ****         3.1305  -2.8504   0.3227 C.3            1 S1                 0.0000
     16 ****        -1.1393   0.5276   0.7401 C.2            1 S1                 0.0000
     17 ****        -1.5669   1.7199   1.0650 N.2            1 S1                 0.0000
     18 ****        -1.7450   2.5253  -0.0372 C.2            1 S1                 0.0000
     19 ****        -2.9693   5.5858   0.8464 H              1 S1                 0.0000
     20 ****        -1.6664   4.8037   1.7653 H              1 S1                 0.0000
     21 ****        -3.2932   4.0891   1.7444 H              1 S1                 0.0000
     22 ****        -2.5147   5.2220  -1.6015 H              1 S1                 0.0000
     23 ****        -0.8289  -1.9181   0.0705 H              1 S1                 0.0000
     24 ****        -0.7672  -1.7765  -1.6398 H              1 S1                 0.0000
     25 ****         1.5472  -0.5427  -0.0892 H              1 S1                 0.0000
     26 ****         1.3637  -0.5329  -2.3802 H              1 S1                 0.0000
     27 ****         1.3400  -3.5498  -0.6496 H              1 S1                 0.0000
     28 ****         1.2641  -2.1175   2.0490 H              1 S1                 0.0000
     29 ****         0.4820  -3.6749   1.5815 H              1 S1                 0.0000
     30 ****         3.2492  -3.4906   2.4462 H              1 S1                 0.0000
     31 ****         2.6607  -4.7607   1.3019 H              1 S1                 0.0000
     32 ****         3.7278  -3.3813  -0.4189 H              1 S1                 0.0000
     33 ****         3.5979  -1.9085   0.6148 H              1 S1                 0.0000
     34 ****        -0.9409  -0.2227   1.5075 H              1 S1                 0.0000
     35 ****        -1.7590   3.3741  -3.1696 LP             1 S1                 0.0000
     36 ****        -0.9470   1.1562  -3.5981 LP             1 S1                 0.0000
     37 ****        -0.4789  -0.4111  -3.0283 LP             1 S1                 0.0000
     38 ****         1.3436  -2.1197  -2.4926 LP             1 S1                 0.0000
     39 ****         2.6649  -1.3353  -1.9399 LP             1 S1                 0.0000
     40 ****        -1.7439   2.0125   2.0047 LP             1 S1                 0.0000
@<TRIPOS>BOND
    1    1    2 1     
    2    1   19 1     
    3    1   20 1     
    4    1   21 1     
    5    2   18 1     
    6    2    3 1     
    7    3    4 2     
    8    3   22 1     
    9    4    5 1     
   10    5   18 2     
   11    5    6 1     
   12    6    7 2     
   13    6    8 am    
   14    8    9 1     
   15    8   16 1     
   16    9   10 1     
   17    9   23 1     
   18    9   24 1     
   19   10   11 1     
   20   10   12 1     
   21   10   25 1     
   22   11   26 1     
   23   12   15 1     
   24   12   13 1     
   25   12   27 1     
   26   13   14 1     
   27   13   28 1     
   28   13   29 1     
   29   14   15 1     
   30   14   30 1     
   31   14   31 1     
   32   15   32 1     
   33   15   33 1     
   34   16   17 2     
   35   16   34 1     
   36   17   18 1     
   37    4   35 1     
   38    7   36 1     
   39    7   37 1     
   40   11   38 1     
   41   11   39 1     
   42   17   40 1     
@<TRIPOS>SUBSTRUCTURE
      1 S1             1
@<TRIPOS>SET
LONE_PAIRS      STATIC     ATOMS    <user>   **** ""
6 35 36 37 38 39 40
DONOR_HYDROGENS      STATIC     ATOMS    <user>   **** ""
1 26
ATOM$BLUE        STATIC     ATOMS    COLORGROUP SYSTEM
6 35 36 37 38 39 40
ATOM$RED        STATIC     ATOMS    COLORGROUP SYSTEM
1 26
