#       Name:                AV-unprocessed.smi:1976
#       Creating user name   scv26
#       Creation time:       Fri Mar 27 10:17:09 2020


#       File generated by GOLD software.
#

@<TRIPOS>MOLECULE
AV-unprocessed.smi:1976
    49    51     1
SMALL
NO_CHARGES


@<TRIPOS>ATOM
      1 ****        -0.5014   1.7467   0.5944 O.2            1 S1                 0.0000
      2 ****         0.2832   0.9577   1.1229 C.2            1 S1                 0.0000
      3 ****         1.7703   1.3026   1.2874 C.3            1 S1                 0.0000
      4 ****         2.1533   2.5756   0.6538 N.am           1 S1                 0.0000
      5 ****         2.6162   2.5109  -0.6751 C.2            1 S1                 0.0000
      6 ****         3.0048   3.5972  -1.3697 C.2            1 S1                 0.0000
      7 ****         3.4417   3.5023  -2.8233 C.3            1 S1                 0.0000
      8 ****         3.1711   4.6303  -3.4807 F              1 S1                 0.0000
      9 ****         4.7553   3.2888  -2.8882 F              1 S1                 0.0000
     10 ****         2.8267   2.4963  -3.4467 F              1 S1                 0.0000
     11 ****         2.8943   4.8720  -0.6881 C.2            1 S1                 0.0000
     12 ****         2.4406   4.9530   0.5782 C.2            1 S1                 0.0000
     13 ****         2.0382   3.7598   1.3264 C.2            1 S1                 0.0000
     14 ****         1.6209   3.8209   2.4831 O.2            1 S1                 0.0000
     15 ****        -0.0887  -0.2492   1.5763 N.am           1 S1                 0.0000
     16 ****        -1.4473  -0.7868   1.5286 C.3            1 S1                 0.0000
     17 ****        -1.7187  -1.8328   2.6267 C.3            1 S1                 0.0000
     18 ****        -2.5567  -2.9126   1.9345 C.3            1 S1                 0.0000
     19 ****        -2.0328  -2.9045   0.5638 N.4            1 S1                 1.0000
     20 ****        -2.7642  -3.6534  -0.4779 C.3            1 S1                 0.0000
     21 ****        -1.9167  -3.6456  -1.7685 C.3            1 S1                 0.0000
     22 ****        -1.4972  -2.2174  -2.1848 C.3            1 S1                 0.0000
     23 ****        -0.8561  -1.4427  -1.0128 C.3            1 S1                 0.0000
     24 ****        -1.8040  -1.4954   0.1993 C.3            1 S1                 0.0000
     25 ****         2.0120   1.3123   2.3517 H              1 S1                 0.0000
     26 ****         2.3634   0.4875   0.8697 H              1 S1                 0.0000
     27 ****         2.6259   1.5168  -1.0983 H              1 S1                 0.0000
     28 ****         3.1829   5.7783  -1.1999 H              1 S1                 0.0000
     29 ****         2.3730   5.9199   1.0552 H              1 S1                 0.0000
     30 ****         0.6200  -0.8333   1.9964 H              1 S1                 0.0000
     31 ****        -2.1513   0.0351   1.6749 H              1 S1                 0.0000
     32 ****        -0.7812  -2.2730   2.9705 H              1 S1                 0.0000
     33 ****        -2.2212  -1.4088   3.4968 H              1 S1                 0.0000
     34 ****        -2.4554  -3.8910   2.4053 H              1 S1                 0.0000
     35 ****        -3.6124  -2.6361   1.9289 H              1 S1                 0.0000
     36 ****        -2.9341  -4.6780  -0.1452 H              1 S1                 0.0000
     37 ****        -3.7422  -3.2015  -0.6500 H              1 S1                 0.0000
     38 ****        -1.0199  -4.2459  -1.6094 H              1 S1                 0.0000
     39 ****        -2.4651  -4.1258  -2.5793 H              1 S1                 0.0000
     40 ****        -0.8077  -2.2595  -3.0283 H              1 S1                 0.0000
     41 ****        -2.3759  -1.6744  -2.5354 H              1 S1                 0.0000
     42 ****         0.1116  -1.8780  -0.7598 H              1 S1                 0.0000
     43 ****        -0.6733  -0.4110  -1.3145 H              1 S1                 0.0000
     44 ****        -2.7645  -1.0804  -0.1144 H              1 S1                 0.0000
     45 ****        -1.1175  -3.3270   0.6270 H              1 S1                 0.0000
     46 ****        -0.1735   2.6313   0.2628 LP             1 S1                 0.0000
     47 ****        -1.4662   1.5026   0.4969 LP             1 S1                 0.0000
     48 ****         1.3523   2.9854   2.9625 LP             1 S1                 0.0000
     49 ****         1.5505   4.7060   2.9431 LP             1 S1                 0.0000
@<TRIPOS>BOND
    1    1    2 2     
    2    2    3 1     
    3    2   15 am    
    4    3    4 1     
    5    3   25 1     
    6    3   26 1     
    7    4   13 am    
    8    4    5 1     
    9    5    6 2     
   10    5   27 1     
   11    6    7 1     
   12    6   11 1     
   13    7    8 1     
   14    7    9 1     
   15    7   10 1     
   16   11   12 2     
   17   11   28 1     
   18   12   13 1     
   19   12   29 1     
   20   13   14 2     
   21   15   16 1     
   22   15   30 1     
   23   16   24 1     
   24   16   17 1     
   25   16   31 1     
   26   17   18 1     
   27   17   32 1     
   28   17   33 1     
   29   18   19 1     
   30   18   34 1     
   31   18   35 1     
   32   19   24 1     
   33   19   20 1     
   34   19   45 1     
   35   20   21 1     
   36   20   36 1     
   37   20   37 1     
   38   21   22 1     
   39   21   38 1     
   40   21   39 1     
   41   22   23 1     
   42   22   40 1     
   43   22   41 1     
   44   23   24 1     
   45   23   42 1     
   46   23   43 1     
   47   24   44 1     
   48    1   46 1     
   49    1   47 1     
   50   14   48 1     
   51   14   49 1     
@<TRIPOS>SUBSTRUCTURE
      1 S1             1
@<TRIPOS>SET
LONE_PAIRS      STATIC     ATOMS    <user>   **** ""
4 46 47 48 49
DONOR_HYDROGENS      STATIC     ATOMS    <user>   **** ""
2 30 45
ATOM$BLUE        STATIC     ATOMS    COLORGROUP SYSTEM
4 46 47 48 49
ATOM$RED        STATIC     ATOMS    COLORGROUP SYSTEM
2 30 45
