#       Name:                AV-unprocessed.smi:2219
#       Creating user name   scv26
#       Creation time:       Fri Mar 27 12:19:16 2020


#       File generated by GOLD software.
#

@<TRIPOS>MOLECULE
AV-unprocessed.smi:2219
    42    43     1
SMALL
NO_CHARGES


@<TRIPOS>ATOM
      1 ****        -0.2198   1.6845   1.1033 O.2            1 S1                 0.0000
      2 ****        -0.8002   0.6078   1.2443 C.2            1 S1                 0.0000
      3 ****        -0.1647  -0.5677   1.3581 N.am           1 S1                 0.0000
      4 ****         1.2847  -0.7615   1.3447 C.3            1 S1                 0.0000
      5 ****         1.8198  -1.2884  -0.0103 C.3            1 S1                 0.0000
      6 ****         1.3518  -2.6189  -0.1439 O.3            1 S1                 0.0000
      7 ****         1.3404  -0.4529  -1.2251 C.3            1 S1                 0.0000
      8 ****         1.9855  -0.8912  -2.5523 C.3            1 S1                 0.0000
      9 ****         3.5172  -0.8932  -2.4605 C.3            1 S1                 0.0000
     10 ****         3.9940  -1.7816  -1.3037 C.3            1 S1                 0.0000
     11 ****         3.3662  -1.3424   0.0312 C.3            1 S1                 0.0000
     12 ****        -2.1338   0.4445   1.2988 N.am           1 S1                 0.0000
     13 ****        -3.1452   1.4385   1.2159 C.ar           1 S1                 0.0000
     14 ****        -4.4693   0.9549   1.3216 C.ar           1 S1                 0.0000
     15 ****        -5.5460   1.8607   1.2528 C.ar           1 S1                 0.0000
     16 ****        -5.2684   3.2280   1.0785 C.ar           1 S1                 0.0000
     17 ****        -6.2703   4.1360   1.0058 F              1 S1                 0.0000
     18 ****        -3.9229   3.6276   0.9810 C.ar           1 S1                 0.0000
     19 ****        -2.8901   2.7605   1.0477 N.ar           1 S1                 0.0000
     20 ****        -0.7251  -1.4011   1.4592 H              1 S1                 0.0000
     21 ****         1.7857   0.1739   1.5994 H              1 S1                 0.0000
     22 ****         1.5403  -1.4563   2.1458 H              1 S1                 0.0000
     23 ****         1.6999  -2.9778  -0.9458 H              1 S1                 0.0000
     24 ****         0.2560  -0.5064  -1.3262 H              1 S1                 0.0000
     25 ****         1.5773   0.5976  -1.0506 H              1 S1                 0.0000
     26 ****         1.6341  -1.8877  -2.8224 H              1 S1                 0.0000
     27 ****         1.6650  -0.2262  -3.3546 H              1 S1                 0.0000
     28 ****         3.9466  -1.2420  -3.4002 H              1 S1                 0.0000
     29 ****         3.8776   0.1258  -2.3138 H              1 S1                 0.0000
     30 ****         3.7403  -2.8220  -1.5101 H              1 S1                 0.0000
     31 ****         5.0812  -1.7411  -1.2313 H              1 S1                 0.0000
     32 ****         3.7522  -0.3537   0.2833 H              1 S1                 0.0000
     33 ****         3.7007  -2.0067   0.8292 H              1 S1                 0.0000
     34 ****        -2.4636  -0.5019   1.4169 H              1 S1                 0.0000
     35 ****        -4.6634  -0.0995   1.4550 H              1 S1                 0.0000
     36 ****        -6.5649   1.5117   1.3323 H              1 S1                 0.0000
     37 ****        -3.6683   4.6682   0.8459 H              1 S1                 0.0000
     38 ****         0.7792   1.7132   1.0684 LP             1 S1                 0.0000
     39 ****        -0.7474   2.5303   1.0237 LP             1 S1                 0.0000
     40 ****         0.3524  -2.6238  -0.1774 LP             1 S1                 0.0000
     41 ****         1.6619  -3.1659   0.6337 LP             1 S1                 0.0000
     42 ****        -1.9484   3.0887   0.9740 LP             1 S1                 0.0000
@<TRIPOS>BOND
    1    1    2 2     
    2    2    3 am    
    3    2   12 am    
    4    3    4 1     
    5    3   20 1     
    6    4    5 1     
    7    4   21 1     
    8    4   22 1     
    9    5   11 1     
   10    5    6 1     
   11    5    7 1     
   12    6   23 1     
   13    7    8 1     
   14    7   24 1     
   15    7   25 1     
   16    8    9 1     
   17    8   26 1     
   18    8   27 1     
   19    9   10 1     
   20    9   28 1     
   21    9   29 1     
   22   10   11 1     
   23   10   30 1     
   24   10   31 1     
   25   11   32 1     
   26   11   33 1     
   27   12   13 1     
   28   12   34 1     
   29   13   19 ar    
   30   13   14 ar    
   31   14   15 ar    
   32   14   35 1     
   33   15   16 ar    
   34   15   36 1     
   35   16   17 1     
   36   16   18 ar    
   37   18   19 ar    
   38   18   37 1     
   39    1   38 1     
   40    1   39 1     
   41    6   40 1     
   42    6   41 1     
   43   19   42 1     
@<TRIPOS>SUBSTRUCTURE
      1 S1             1
@<TRIPOS>SET
LONE_PAIRS      STATIC     ATOMS    <user>   **** ""
5 38 39 40 41 42
DONOR_HYDROGENS      STATIC     ATOMS    <user>   **** ""
3 20 23 34
ATOM$BLUE        STATIC     ATOMS    COLORGROUP SYSTEM
5 38 39 40 41 42
ATOM$RED        STATIC     ATOMS    COLORGROUP SYSTEM
3 20 23 34
