AV-unprocessed.smi:3303|AV-procd|sdf|12683|dock5
  -GOLD-   2272019 23D 1   1.00000     0.00000
 Structure written by MMmdl.
 44 45  0  0  0  0  0  0  0  0  2 V2000
  152.2731  138.4079  155.8353 C   0  0  0  0  0  0  0  0  0  0  0  0
  150.8970  139.0794  155.6810 C   0  0  2  0  0  0  0  0  0  0  0  0
  150.4593  139.0418  154.1986 C   0  0  0  0  0  0  0  0  0  0  0  0
  149.1534  139.7116  153.9700 N   0  3  1  0  0  0  0  0  0  0  0  0
  148.0004  138.9098  154.4525 C   0  0  0  0  0  0  0  0  0  0  0  0
  149.1837  141.1316  154.4231 C   0  0  1  0  0  0  0  0  0  0  0  0
  147.8908  141.8956  154.0885 C   0  0  0  0  0  0  0  0  0  0  0  0
  149.5582  141.2327  155.9146 C   0  0  0  0  0  0  0  0  0  0  0  0
  150.8989  140.5336  156.2104 C   0  0  1  0  0  0  0  0  0  0  0  0
  151.0823  140.5263  157.6569 N   0  0  0  0  0  0  0  0  0  0  0  0
  152.4922  140.4923  158.0132 C   0  0  0  0  0  0  0  0  0  0  0  0
  152.6969  141.1823  159.3688 C   0  0  0  0  0  0  0  0  0  0  0  0
  152.2456  142.6304  159.3494 C   0  0  0  0  0  0  0  0  0  0  0  0
  152.3216  143.4247  160.5134 C   0  0  0  0  0  0  0  0  0  0  0  0
  151.8891  144.7631  160.4419 C   0  0  0  0  0  0  0  0  0  0  0  0
  151.3979  145.2527  159.2165 C   0  0  0  0  0  0  0  0  0  0  0  0
  151.3617  144.3785  158.1118 C   0  0  0  0  0  0  0  0  0  0  0  0
  151.7748  143.0938  158.1694 N   0  0  0  0  0  0  0  0  0  0  0  0
  153.0449  138.9573  155.2953 H   0  0  0  0  0  0  0  0  0  0  0  0
  152.2577  137.3889  155.4476 H   0  0  0  0  0  0  0  0  0  0  0  0
  152.5769  138.3503  156.8808 H   0  0  0  0  0  0  0  0  0  0  0  0
  150.1807  138.4972  156.2624 H   0  0  0  0  0  0  0  0  0  0  0  0
  151.2100  139.5400  153.5832 H   0  0  0  0  0  0  0  0  0  0  0  0
  150.4111  138.0127  153.8403 H   0  0  0  0  0  0  0  0  0  0  0  0
  147.9595  138.8621  155.5405 H   0  0  0  0  0  0  0  0  0  0  0  0
  148.0640  137.8883  154.0765 H   0  0  0  0  0  0  0  0  0  0  0  0
  147.0559  139.3177  154.0936 H   0  0  0  0  0  0  0  0  0  0  0  0
  149.9799  141.6141  153.8536 H   0  0  0  0  0  0  0  0  0  0  0  0
  148.0104  142.9604  154.2901 H   0  0  0  0  0  0  0  0  0  0  0  0
  147.0452  141.5501  154.6833 H   0  0  0  0  0  0  0  0  0  0  0  0
  147.6304  141.7894  153.0349 H   0  0  0  0  0  0  0  0  0  0  0  0
  149.6250  142.2827  156.2035 H   0  0  0  0  0  0  0  0  0  0  0  0
  148.7633  140.8029  156.5259 H   0  0  0  0  0  0  0  0  0  0  0  0
  151.6992  141.0878  155.7162 H   0  0  0  0  0  0  0  0  0  0  0  0
  150.6477  141.3416  158.0651 H   0  0  0  0  0  0  0  0  0  0  0  0
  152.8319  139.4570  158.0656 H   0  0  0  0  0  0  0  0  0  0  0  0
  153.0782  140.9941  157.2422 H   0  0  0  0  0  0  0  0  0  0  0  0
  152.1509  140.6481  160.1476 H   0  0  0  0  0  0  0  0  0  0  0  0
  153.7499  141.1467  159.6529 H   0  0  0  0  0  0  0  0  0  0  0  0
  152.7023  143.0206  161.4400 H   0  0  0  0  0  0  0  0  0  0  0  0
  151.9336  145.4023  161.3111 H   0  0  0  0  0  0  0  0  0  0  0  0
  151.0572  146.2735  159.1254 H   0  0  0  0  0  0  0  0  0  0  0  0
  150.9913  144.7200  157.1566 H   0  0  0  0  0  0  0  0  0  0  0  0
  149.0420  139.7468  152.9666 H   0  0  0  0  0  0  0  0  0  0  0  0
  1  2  1  0  0  0  0
  1 19  1  0  0  0  0
  1 20  1  0  0  0  0
  1 21  1  0  0  0  0
  2  9  1  0  0  0  0
  2  3  1  0  0  0  0
  2 22  1  0  0  0  0
  3  4  1  0  0  0  0
  3 23  1  0  0  0  0
  3 24  1  0  0  0  0
  4  5  1  0  0  0  0
  4  6  1  0  0  0  0
  4 44  1  0  0  0  0
  5 25  1  0  0  0  0
  5 26  1  0  0  0  0
  5 27  1  0  0  0  0
  6  7  1  0  0  0  0
  6  8  1  0  0  0  0
  6 28  1  0  0  0  0
  7 29  1  0  0  0  0
  7 30  1  0  0  0  0
  7 31  1  0  0  0  0
  8  9  1  0  0  0  0
  8 32  1  0  0  0  0
  8 33  1  0  0  0  0
  9 10  1  0  0  0  0
  9 34  1  0  0  0  0
 10 11  1  0  0  0  0
 10 35  1  0  0  0  0
 11 12  1  0  0  0  0
 11 36  1  0  0  0  0
 11 37  1  0  0  0  0
 12 13  1  0  0  0  0
 12 38  1  0  0  0  0
 12 39  1  0  0  0  0
 13 18  1  0  0  0  0
 13 14  2  0  0  0  0
 14 15  1  0  0  0  0
 14 40  1  0  0  0  0
 15 16  2  0  0  0  0
 15 41  1  0  0  0  0
 16 17  1  0  0  0  0
 16 42  1  0  0  0  0
 17 18  2  0  0  0  0
 17 43  1  0  0  0  0
M  CHG  1   4   1
M  END
> <s_m_source_file>
AV-unprocessed.smi

> <i_m_source_file_index>
3303

> <i_lp_mmshare_version>
43012

> <i_f3d_flags>
0

> <s_epik_input>
W0NIM11bQ0BASF0xW0NIMl1OKFtDSDNdKVtDQEBIXShbQ0gzXSlbQ0gyXVtDQEhdMVtOSF1bQ0gyXVtDSDJdYzJbY0hdW2NIXVtjSF1bY0hdbjI=

> <s_epik_cmdline>
J2VwaWtfcHl0aG9uJywgJy1waCcsICc3LjAnLCAnLXRuJywgJzgnLCAnLW1hJywgJzIwMCcsICctbWV0YWxfYmluZGluZycsICctaW1hZScsICc8aW5maWxlLm1hZT4nLCAnLW9tYWUnLCAnPG91dGZpbGUubWFlPic=

> <r_epik_Ionization_Penalty>
2.31085

> <r_epik_Ionization_Penalty_Charging>
0.000313057

> <r_epik_Ionization_Penalty_Neutral>
2.31054

> <r_epik_State_Penalty>
2.4087

> <r_epik_Charging_Adjusted_Penalty>
2.40902

> <i_epik_Tot_Q>
1

> <i_epik_Tot_abs_Q>
1

> <r_epik_Metal_State_Penalty>
2.30979

> <b_epik_Metal_Only>
0

> <s_lp_Force_Field>
OPLS_2005

> <r_lp_Energy>
25.8109

> <b_lp_Chiralities_Consistent>
1

> <s_lp_Variant>
AV-unprocessed.smi:3303-27

> <Gold.Version>
5.8.1

> <Gold.Id.Protein>
6NUR|6NUR_protein|mol2

> <Gold.PLP.Fitness>
47.7777

> <Gold.PLP.PLP>
-42.7390

> <Gold.PLP.part.hbond>
-1.0000

> <Gold.PLP.part.metal>
0.0000

> <Gold.PLP.part.buried>
-4.6033

> <Gold.PLP.part.nonpolar>
-37.6600

> <Gold.PLP.part.repulsive>
0.1640

> <Gold.PLP.ligand.clash>
0.0000

> <Gold.PLP.ligand.torsion>
0.4869

> <Gold.PLP.Chemscore.Hbond>
1.0000

> <Gold.PLP.Chemscore.CHOScore>
1.0000

> <Gold.PLP.Chemscore.Metal>
0.0000

> <Gold.Chemscore.Hbonds>
donor molecule, donor type, donor heavy atom, donor atom, acceptor molecule, acceptor atom, score
      L1  H     4    44       P1  7957  1.00
      L1  C    17    43       P1  8028  0.97

> <Gold.PLP.Chemscore.Internal.Correction>
0.0124

> <Gold.Rescore>
     Score         DG    S(hbond)    S(metal)    S(lipo)     H(rot)  DE(clash)    DE(int)     intcor
     20.10     -20.78       1.00        0.00     131.39       1.33       0.02       0.66       ----

> <Gold.Chemscore.Fitness>
20.1029

> <Gold.Chemscore.DG>
-20.7848

> <Gold.Chemscore.ZeroCoef>
-5.4800

> <Gold.Chemscore.Hbond>
0.9968

> <Gold.Chemscore.Metal>
0.0000

> <Gold.Chemscore.Lipo>
131.3936

> <Gold.Chemscore.Internal_Hbond>
0.0000

> <Gold.Chemscore.DEClash>
0.0174

> <Gold.Chemscore.DEInternal>
0.6645

> <Gold.Chemscore.Rot>
1.3272

> <Gold.Chemscore.Internal.Correction>
   9.000000E+99

> <Gold.Chemscore.Hbonds>
donor molecule, donor type, donor heavy atom, donor atom, acceptor molecule, acceptor atom, score
      L1  H     4    44       P1  7957  0.98

> <Gold.Chemscore.Hbond.Weighted>
-3.3294

> <Gold.Chemscore.Metal.Weighted>
-0.0000

> <Gold.Chemscore.Lipo.Weighted>
-15.3731

> <Gold.Chemscore.Internal_Hbond.Weighted>
0.0000

> <Gold.Chemscore.DEClash.Weighted>
0.0174

> <Gold.Chemscore.DEInternal.Weighted>
0.6645

> <Gold.Chemscore.Rot.Weighted>
3.3976

> <Gold.Chemscore.Internal.Correction.Weighted>
   9.000000E+99

> <Gold.Protein.RotatedTorsions>
[ 6907 6896 6895 6894 ] final  -19.41 input  -60.11 | X-H torsion
[ 7974 7965 7964 7962 ] final   83.18 input  175.53 | X-H torsion
[ 8008 7997 7996 7995 ] final   71.22 input   59.86 | X-H torsion
[ 10167 10162 10161 10158 ] final  -34.79 input  -65.29 | X-H torsion
[ 10718 10713 10712 10709 ] final -104.77 input   66.30 | X-H torsion
[ 10763 10752 10751 10750 ] final -165.98 input  -60.55 | X-H torsion
[ 11005 11000 10999 10996 ] final  -58.96 input  -57.11 | X-H torsion

> <Gold.Protein.ActiveResidues>
 VAL166  LYS551  ARG553  GLY616  TRP617  ASP618  TYR619  PRO620  LYS621  CYS622 
 ASP623  PHE694  ASN695  SER759  ASP760  ASP761  ALA762  ILE779  LEU786  VAL792 
 PHE793  MET794  SER795  GLU796  ALA797  LYS798  CYS799  TRP800  GLU811  SER814 

> <Gold.Protein.RotatedAtoms>
  151.2636  135.0662  159.9107 H   0  0  0  0  0  0  0  0  0  0  0  0  # atno 6907 bound_to 6896
  152.5362  134.0205  159.7989 H   0  0  0  0  0  0  0  0  0  0  0  0  # atno 6908 bound_to 6896
  151.0432  133.5638  159.2680 H   0  0  0  0  0  0  0  0  0  0  0  0  # atno 6909 bound_to 6896
  145.6153  139.2375  143.2169 H   0  0  0  0  0  0  0  0  0  0  0  0  # atno 7974 bound_to 7965
  155.7505  140.3488  155.5148 H   0  0  0  0  0  0  0  0  0  0  0  0  # atno 8008 bound_to 7997
  155.9009  140.1034  157.1372 H   0  0  0  0  0  0  0  0  0  0  0  0  # atno 8009 bound_to 7997
  154.4044  140.1286  156.4421 H   0  0  0  0  0  0  0  0  0  0  0  0  # atno 8010 bound_to 7997
  140.7178  143.3523  151.2130 H   0  0  0  0  0  0  0  0  0  0  0  0  # atno 10167 bound_to 10162
  156.0318  130.5531  150.7444 H   0  0  0  0  0  0  0  0  0  0  0  0  # atno 10718 bound_to 10713
  154.6878  135.2965  154.9523 H   0  0  0  0  0  0  0  0  0  0  0  0  # atno 10763 bound_to 10752
  154.0496  135.6646  153.4803 H   0  0  0  0  0  0  0  0  0  0  0  0  # atno 10764 bound_to 10752
  153.0591  135.5126  154.7954 H   0  0  0  0  0  0  0  0  0  0  0  0  # atno 10765 bound_to 10752
  141.1229  133.6614  156.5000 H   0  0  0  0  0  0  0  0  0  0  0  0  # atno 11005 bound_to 11000
  146.1473  140.6974  142.9338 LP  0  0  0  0  0  0  0  0  0  0  0  0  # atno 17320 bound_to 7965
  144.7253  140.4505  143.6977 LP  0  0  0  0  0  0  0  0  0  0  0  0  # atno 17321 bound_to 7965
  139.7057  143.9460  152.2925 LP  0  0  0  0  0  0  0  0  0  0  0  0  # atno 17342 bound_to 10162
  139.9168  144.6824  150.8504 LP  0  0  0  0  0  0  0  0  0  0  0  0  # atno 17343 bound_to 10162
  157.5004  131.0918  151.0320 LP  0  0  0  0  0  0  0  0  0  0  0  0  # atno 17370 bound_to 10713
  157.0703  130.5861  149.5401 LP  0  0  0  0  0  0  0  0  0  0  0  0  # atno 17371 bound_to 10713
  140.4454  134.6977  157.5013 LP  0  0  0  0  0  0  0  0  0  0  0  0  # atno 17394 bound_to 11000
  140.0201  134.6560  155.9252 LP  0  0  0  0  0  0  0  0  0  0  0  0  # atno 17395 bound_to 11000

$$$$
