#       Name:                AV-unprocessed.smi:1292
#       Creating user name   scv26
#       Creation time:       Fri Mar 27 04:55:28 2020


#       File generated by GOLD software.
#

@<TRIPOS>MOLECULE
AV-unprocessed.smi:1292
    41    42     1
SMALL
NO_CHARGES


@<TRIPOS>ATOM
      1 ****        -2.1133   1.8132  -1.9359 C.3            1 S1                 0.0000
      2 ****        -1.9066   1.0302  -0.6322 C.3            1 S1                 0.0000
      3 ****        -2.5553   1.7467   0.5626 C.3            1 S1                 0.0000
      4 ****        -2.3150   0.9547   1.8538 C.3            1 S1                 0.0000
      5 ****        -2.7844  -0.5051   1.7284 C.3            1 S1                 0.0000
      6 ****        -2.2660  -1.1566   0.5074 N.pl3          1 S1                 0.0000
      7 ****        -1.1054  -2.4504   0.5804 S.o2           1 S1                 0.0000
      8 ****        -1.1189  -3.0470   1.9251 O.2            1 S1                 0.0000
      9 ****        -1.2832  -3.2801  -0.6208 O.2            1 S1                 0.0000
     10 ****         0.3623  -1.5645   0.3766 N.pl3          1 S1                 0.0000
     11 ****         0.9353  -0.7342   1.4373 C.3            1 S1                 0.0000
     12 ****         2.4687  -0.8326   1.4334 C.3            1 S1                 0.0000
     13 ****         3.0861  -0.3071   0.1488 C.ar           1 S1                 0.0000
     14 ****         3.5409  -1.1951  -0.8497 C.ar           1 S1                 0.0000
     15 ****         4.0813  -0.6550  -2.0325 C.ar           1 S1                 0.0000
     16 ****         4.1461   0.7448  -2.1711 C.ar           1 S1                 0.0000
     17 ****         3.6674   1.5456  -1.1152 C.ar           1 S1                 0.0000
     18 ****         3.1471   1.0380   0.0231 N.ar           1 S1                 0.0000
     19 ****        -2.4534  -0.4058  -0.7482 C.3            1 S1                 0.0000
     20 ****        -3.1722   1.9090  -2.1777 H              1 S1                 0.0000
     21 ****        -1.6235   1.3158  -2.7735 H              1 S1                 0.0000
     22 ****        -1.6962   2.8178  -1.8605 H              1 S1                 0.0000
     23 ****        -0.8322   0.9747  -0.4564 H              1 S1                 0.0000
     24 ****        -2.1490   2.7532   0.6676 H              1 S1                 0.0000
     25 ****        -3.6272   1.8580   0.3933 H              1 S1                 0.0000
     26 ****        -1.2607   0.9869   2.1171 H              1 S1                 0.0000
     27 ****        -2.8392   1.4351   2.6802 H              1 S1                 0.0000
     28 ****        -2.4997  -1.0692   2.6157 H              1 S1                 0.0000
     29 ****        -3.8737  -0.5300   1.6868 H              1 S1                 0.0000
     30 ****         0.5329  -1.2394  -0.5748 H              1 S1                 0.0000
     31 ****         0.6340   0.3002   1.2869 H              1 S1                 0.0000
     32 ****         0.5456  -1.0530   2.4039 H              1 S1                 0.0000
     33 ****         2.8730  -0.2653   2.2728 H              1 S1                 0.0000
     34 ****         2.7776  -1.8669   1.5914 H              1 S1                 0.0000
     35 ****         3.4702  -2.2648  -0.7169 H              1 S1                 0.0000
     36 ****         4.4363  -1.3030  -2.8203 H              1 S1                 0.0000
     37 ****         4.5519   1.1939  -3.0655 H              1 S1                 0.0000
     38 ****         3.7009   2.6225  -1.1878 H              1 S1                 0.0000
     39 ****        -3.5183  -0.3841  -0.9827 H              1 S1                 0.0000
     40 ****        -1.9657  -0.9309  -1.5698 H              1 S1                 0.0000
     41 ****         2.8169   1.6388   0.7511 LP             1 S1                 0.0000
@<TRIPOS>BOND
    1    1    2 1     
    2    1   20 1     
    3    1   21 1     
    4    1   22 1     
    5    2   19 1     
    6    2    3 1     
    7    2   23 1     
    8    3    4 1     
    9    3   24 1     
   10    3   25 1     
   11    4    5 1     
   12    4   26 1     
   13    4   27 1     
   14    5    6 1     
   15    5   28 1     
   16    5   29 1     
   17    6    7 1     
   18    6   19 1     
   19    7    8 2     
   20    7    9 2     
   21    7   10 1     
   22   10   11 1     
   23   10   30 1     
   24   11   12 1     
   25   11   31 1     
   26   11   32 1     
   27   12   13 1     
   28   12   33 1     
   29   12   34 1     
   30   13   18 ar    
   31   13   14 ar    
   32   14   15 ar    
   33   14   35 1     
   34   15   16 ar    
   35   15   36 1     
   36   16   17 ar    
   37   16   37 1     
   38   17   18 ar    
   39   17   38 1     
   40   19   39 1     
   41   19   40 1     
   42   18   41 1     
@<TRIPOS>SUBSTRUCTURE
      1 S1             1
@<TRIPOS>SET
LONE_PAIRS      STATIC     ATOMS    <user>   **** ""
3 8 9 41
DONOR_HYDROGENS      STATIC     ATOMS    <user>   **** ""
1 30
ATOM$BLUE        STATIC     ATOMS    COLORGROUP SYSTEM
3 8 9 41
ATOM$RED        STATIC     ATOMS    COLORGROUP SYSTEM
1 30
