#       Name:                AV-unprocessed.smi:618
#       Creating user name   scv26
#       Creation time:       Fri Mar 27 00:00:41 2020


#       File generated by GOLD software.
#

@<TRIPOS>MOLECULE
AV-unprocessed.smi:618
    46    48     1
SMALL
NO_CHARGES


@<TRIPOS>ATOM
      1 ****        -1.1772   1.3063   1.7863 O.2            1 S1                 0.0000
      2 ****        -1.6446   0.1692   1.7290 C.2            1 S1                 0.0000
      3 ****        -0.8927  -0.9392   1.6751 N.am           1 S1                 0.0000
      4 ****         0.5660  -0.9654   1.6446 C.3            1 S1                 0.0000
      5 ****         1.1007  -0.9769   0.2027 C.3            1 S1                 0.0000
      6 ****         2.6316  -1.1892   0.1596 C.3            1 S1                 0.0000
      7 ****         3.1056  -1.0848  -1.2069 N.3            1 S1                 0.0000
      8 ****         4.5312  -1.1855  -1.4148 C.3            1 S1                 0.0000
      9 ****         4.7467  -0.6341  -2.8353 C.3            1 S1                 0.0000
     10 ****         3.4834   0.2094  -3.1176 C.3            1 S1                 0.0000
     11 ****         2.7579   0.1914  -1.7711 C.3            1 S1                 0.0000
     12 ****         1.2351   0.3857  -1.7770 C.3            1 S1                 0.0000
     13 ****         0.7736   0.2676  -0.4294 O.3            1 S1                 0.0000
     14 ****        -2.9537  -0.1321   1.6890 N.am           1 S1                 0.0000
     15 ****        -4.0648   0.7534   1.7122 C.ar           1 S1                 0.0000
     16 ****        -5.2969   0.2821   1.2138 C.ar           1 S1                 0.0000
     17 ****        -6.4186   1.1321   1.2408 C.ar           1 S1                 0.0000
     18 ****        -6.2656   2.4254   1.7762 C.ar           1 S1                 0.0000
     19 ****        -5.0983   2.8879   2.2712 N.ar           1 S1                 0.0000
     20 ****        -4.0256   2.0675   2.2412 C.ar           1 S1                 0.0000
     21 ****        -1.3632  -1.8308   1.6280 H              1 S1                 0.0000
     22 ****         0.9863  -0.1283   2.2049 H              1 S1                 0.0000
     23 ****         0.8867  -1.8713   2.1597 H              1 S1                 0.0000
     24 ****         0.6157  -1.7839  -0.3498 H              1 S1                 0.0000
     25 ****         3.1269  -0.4435   0.7835 H              1 S1                 0.0000
     26 ****         2.8889  -2.1671   0.5676 H              1 S1                 0.0000
     27 ****         5.0624  -0.5651  -0.6911 H              1 S1                 0.0000
     28 ****         4.8834  -2.2114  -1.3039 H              1 S1                 0.0000
     29 ****         5.6580  -0.0382  -2.8907 H              1 S1                 0.0000
     30 ****         4.8312  -1.4448  -3.5599 H              1 S1                 0.0000
     31 ****         3.7177   1.2227  -3.4448 H              1 S1                 0.0000
     32 ****         2.8780  -0.2669  -3.8900 H              1 S1                 0.0000
     33 ****         3.1927   0.9795  -1.1523 H              1 S1                 0.0000
     34 ****         0.9717   1.3699  -2.1644 H              1 S1                 0.0000
     35 ****         0.7424  -0.3571  -2.4062 H              1 S1                 0.0000
     36 ****        -3.1800  -1.1073   1.5608 H              1 S1                 0.0000
     37 ****        -5.3839  -0.7165   0.8108 H              1 S1                 0.0000
     38 ****        -7.3735   0.8007   0.8605 H              1 S1                 0.0000
     39 ****        -7.1045   3.1044   1.8128 H              1 S1                 0.0000
     40 ****        -3.1298   2.4834   2.6748 H              1 S1                 0.0000
     41 ****        -0.1862   1.4397   1.7945 LP             1 S1                 0.0000
     42 ****        -1.7885   2.0968   1.8246 LP             1 S1                 0.0000
     43 ****         2.6635  -1.8726  -1.6358 LP             1 S1                 0.0000
     44 ****         1.1811   1.0070   0.1065 LP             1 S1                 0.0000
     45 ****        -0.2216   0.3658  -0.4301 LP             1 S1                 0.0000
     46 ****        -5.0295   3.8112   2.6492 LP             1 S1                 0.0000
@<TRIPOS>BOND
    1    1    2 2     
    2    2    3 am    
    3    2   14 am    
    4    3    4 1     
    5    3   21 1     
    6    4    5 1     
    7    4   22 1     
    8    4   23 1     
    9    5   13 1     
   10    5    6 1     
   11    5   24 1     
   12    6    7 1     
   13    6   25 1     
   14    6   26 1     
   15    7   11 1     
   16    7    8 1     
   17    8    9 1     
   18    8   27 1     
   19    8   28 1     
   20    9   10 1     
   21    9   29 1     
   22    9   30 1     
   23   10   11 1     
   24   10   31 1     
   25   10   32 1     
   26   11   12 1     
   27   11   33 1     
   28   12   13 1     
   29   12   34 1     
   30   12   35 1     
   31   14   15 1     
   32   14   36 1     
   33   15   20 ar    
   34   15   16 ar    
   35   16   17 ar    
   36   16   37 1     
   37   17   18 ar    
   38   17   38 1     
   39   18   19 ar    
   40   18   39 1     
   41   19   20 ar    
   42   20   40 1     
   43    1   41 1     
   44    1   42 1     
   45    7   43 1     
   46   13   44 1     
   47   13   45 1     
   48   19   46 1     
@<TRIPOS>SUBSTRUCTURE
      1 S1             1
@<TRIPOS>SET
LONE_PAIRS      STATIC     ATOMS    <user>   **** ""
6 41 42 43 44 45 46
DONOR_HYDROGENS      STATIC     ATOMS    <user>   **** ""
2 21 36
ATOM$BLUE        STATIC     ATOMS    COLORGROUP SYSTEM
6 41 42 43 44 45 46
ATOM$RED        STATIC     ATOMS    COLORGROUP SYSTEM
2 21 36
