#       Name:                AV-unprocessed.smi:323
#       Creating user name   scv26
#       Creation time:       Thu Mar 26 22:25:10 2020


#       File generated by GOLD software.
#

@<TRIPOS>MOLECULE
AV-unprocessed.smi:323
    46    47     1
SMALL
NO_CHARGES


@<TRIPOS>ATOM
      1 ****        -0.8132   0.0015   2.7091 C.3            1 S1                 0.0000
      2 ****        -0.8051  -0.9136   1.4743 C.3            1 S1                 0.0000
      3 ****        -2.2161  -1.0337   0.8810 C.3            1 S1                 0.0000
      4 ****        -0.2066  -2.3078   1.7741 C.3            1 S1                 0.0000
      5 ****         1.2970  -2.3176   2.1237 C.3            1 S1                 0.0000
      6 ****         2.1007  -1.7109   1.0688 N.am           1 S1                 0.0000
      7 ****         2.5050  -2.3300  -0.0516 C.2            1 S1                 0.0000
      8 ****         2.3692  -3.5372  -0.2491 O.2            1 S1                 0.0000
      9 ****         3.1126  -1.4379  -1.1364 C.3            1 S1                 0.0000
     10 ****         2.0042  -0.7761  -1.9035 C.2            1 S1                 0.0000
     11 ****         1.4816  -1.1738  -3.1097 C.2            1 S1                 0.0000
     12 ****         0.1305  -0.1847  -3.5937 S.3            1 S1                 0.0000
     13 ****         0.3330   0.7576  -2.1140 C.2            1 S1                 0.0000
     14 ****        -0.4907   1.8358  -1.6731 N.am           1 S1                 0.0000
     15 ****        -0.1673   2.6152  -0.4812 C.3            1 S1                 0.0000
     16 ****        -1.4041   3.4708  -0.1911 C.3            1 S1                 0.0000
     17 ****        -2.2333   3.4269  -1.4724 C.3            1 S1                 0.0000
     18 ****        -1.6264   2.2693  -2.2480 C.2            1 S1                 0.0000
     19 ****        -2.1587   1.8281  -3.2653 O.2            1 S1                 0.0000
     20 ****         1.3680   0.3513  -1.3729 N.2            1 S1                 0.0000
     21 ****        -1.3893  -0.4374   3.5239 H              1 S1                 0.0000
     22 ****        -1.2548   0.9705   2.4742 H              1 S1                 0.0000
     23 ****         0.1956   0.1895   3.0748 H              1 S1                 0.0000
     24 ****        -0.1949  -0.4324   0.7131 H              1 S1                 0.0000
     25 ****        -2.9041  -1.5050   1.5834 H              1 S1                 0.0000
     26 ****        -2.2082  -1.6303  -0.0316 H              1 S1                 0.0000
     27 ****        -2.6182  -0.0530   0.6242 H              1 S1                 0.0000
     28 ****        -0.7653  -2.7754   2.5856 H              1 S1                 0.0000
     29 ****        -0.3574  -2.9507   0.9057 H              1 S1                 0.0000
     30 ****         1.4759  -1.7709   3.0490 H              1 S1                 0.0000
     31 ****         1.6306  -3.3396   2.3096 H              1 S1                 0.0000
     32 ****         2.2637  -0.7167   1.1401 H              1 S1                 0.0000
     33 ****         3.7701  -0.6968  -0.6794 H              1 S1                 0.0000
     34 ****         3.7351  -2.0429  -1.7970 H              1 S1                 0.0000
     35 ****         1.7901  -2.0047  -3.7265 H              1 S1                 0.0000
     36 ****         0.0778   1.9812   0.3713 H              1 S1                 0.0000
     37 ****         0.6977   3.2449  -0.6935 H              1 S1                 0.0000
     38 ****        -1.9730   3.0377   0.6328 H              1 S1                 0.0000
     39 ****        -1.1365   4.4891   0.0920 H              1 S1                 0.0000
     40 ****        -3.2925   3.2627  -1.2715 H              1 S1                 0.0000
     41 ****        -2.1236   4.3459  -2.0490 H              1 S1                 0.0000
     42 ****         1.9376  -4.1121   0.4460 LP             1 S1                 0.0000
     43 ****         2.6905  -3.9431  -1.1047 LP             1 S1                 0.0000
     44 ****        -1.7414   1.0636  -3.7566 LP             1 S1                 0.0000
     45 ****        -3.0087   2.2340  -3.6011 LP             1 S1                 0.0000
     46 ****         1.6568   0.8045  -0.5295 LP             1 S1                 0.0000
@<TRIPOS>BOND
    1    1    2 1     
    2    1   21 1     
    3    1   22 1     
    4    1   23 1     
    5    2    3 1     
    6    2    4 1     
    7    2   24 1     
    8    3   25 1     
    9    3   26 1     
   10    3   27 1     
   11    4    5 1     
   12    4   28 1     
   13    4   29 1     
   14    5    6 1     
   15    5   30 1     
   16    5   31 1     
   17    6    7 am    
   18    6   32 1     
   19    7    8 2     
   20    7    9 1     
   21    9   10 1     
   22    9   33 1     
   23    9   34 1     
   24   10   20 1     
   25   10   11 2     
   26   11   12 1     
   27   11   35 1     
   28   12   13 1     
   29   13   14 1     
   30   13   20 2     
   31   14   18 am    
   32   14   15 1     
   33   15   16 1     
   34   15   36 1     
   35   15   37 1     
   36   16   17 1     
   37   16   38 1     
   38   16   39 1     
   39   17   18 1     
   40   17   40 1     
   41   17   41 1     
   42   18   19 2     
   43    8   42 1     
   44    8   43 1     
   45   19   44 1     
   46   19   45 1     
   47   20   46 1     
@<TRIPOS>SUBSTRUCTURE
      1 S1             1
@<TRIPOS>SET
LONE_PAIRS      STATIC     ATOMS    <user>   **** ""
5 42 43 44 45 46
DONOR_HYDROGENS      STATIC     ATOMS    <user>   **** ""
1 32
ATOM$BLUE        STATIC     ATOMS    COLORGROUP SYSTEM
5 42 43 44 45 46
ATOM$RED        STATIC     ATOMS    COLORGROUP SYSTEM
1 32
