AV-unprocessed.smi:101|AV-procd|sdf|935|dock2
  -GOLD-   2262017453D 1   1.00000     0.00000
 Structure written by MMmdl.
 43 45  0  0  0  0  0  0  0  0  2 V2000
  147.9424  135.7575  157.0993 C   0  0  0  0  0  0  0  0  0  0  0  0
  149.1467  136.2857  156.3393 C   0  0  0  0  0  0  0  0  0  0  0  0
  149.1138  137.4495  155.6533 C   0  0  0  0  0  0  0  0  0  0  0  0
  150.2097  137.9295  154.9523 N   0  0  0  0  0  0  0  0  0  0  0  0
  150.1554  139.2623  154.2157 C   0  0  2  0  0  0  0  0  0  0  0  0
  151.1643  140.1077  154.7001 O   0  0  0  0  0  0  0  0  0  0  0  0
  150.6323  141.0666  155.6092 C   0  0  2  0  0  0  0  0  0  0  0  0
  150.6302  140.5045  157.0458 C   0  0  0  0  0  0  0  0  0  0  0  0
  151.0340  141.5100  157.9612 O   0  0  0  0  0  0  0  0  0  0  0  0
  152.1947  141.3855  158.6327 C   0  0  0  0  0  0  0  0  0  0  0  0
  153.0720  140.5717  158.3362 O   0  0  0  0  0  0  0  0  0  0  0  0
  152.3082  142.3415  159.7718 C   0  0  0  0  0  0  0  0  0  0  0  0
  152.9144  141.9164  160.9771 C   0  0  0  0  0  0  0  0  0  0  0  0
  153.0341  142.7974  162.0695 C   0  0  0  0  0  0  0  0  0  0  0  0
  152.5487  144.1144  161.9703 C   0  0  0  0  0  0  0  0  0  0  0  0
  151.9424  144.5490  160.7772 C   0  0  0  0  0  0  0  0  0  0  0  0
  151.8220  143.6695  159.6836 C   0  0  0  0  0  0  0  0  0  0  0  0
  149.2578  141.3609  155.0023 C   0  0  2  0  0  0  0  0  0  0  0  0
  148.3304  141.8640  155.9451 O   0  0  0  0  0  0  0  0  0  0  0  0
  148.8173  140.0146  154.4376 C   0  0  1  0  0  0  0  0  0  0  0  0
  148.1259  140.2238  153.2217 O   0  0  0  0  0  0  0  0  0  0  0  0
  151.4500  137.2427  155.0666 C   0  0  0  0  0  0  0  0  0  0  0  0
  152.4485  137.7564  154.5636 O   0  0  0  0  0  0  0  0  0  0  0  0
  151.4884  136.0554  155.7358 N   0  5  0  0  0  0  0  0  0  0  0  0
  150.3984  135.5218  156.3565 C   0  0  0  0  0  0  0  0  0  0  0  0
  150.4382  134.4339  156.9302 O   0  0  0  0  0  0  0  0  0  0  0  0
  147.0892  136.4306  157.0094 H   0  0  0  0  0  0  0  0  0  0  0  0
  148.1783  135.6499  158.1586 H   0  0  0  0  0  0  0  0  0  0  0  0
  147.6454  134.7828  156.7109 H   0  0  0  0  0  0  0  0  0  0  0  0
  148.1962  138.0163  155.6713 H   0  0  0  0  0  0  0  0  0  0  0  0
  150.3565  139.0016  153.1751 H   0  0  0  0  0  0  0  0  0  0  0  0
  151.2656  141.9543  155.5807 H   0  0  0  0  0  0  0  0  0  0  0  0
  149.6477  140.1128  157.3137 H   0  0  0  0  0  0  0  0  0  0  0  0
  151.3426  139.6822  157.1149 H   0  0  0  0  0  0  0  0  0  0  0  0
  153.2950  140.9098  161.0768 H   0  0  0  0  0  0  0  0  0  0  0  0
  153.4990  142.4613  162.9846 H   0  0  0  0  0  0  0  0  0  0  0  0
  152.6400  144.7900  162.8080 H   0  0  0  0  0  0  0  0  0  0  0  0
  151.5683  145.5594  160.7005 H   0  0  0  0  0  0  0  0  0  0  0  0
  151.3492  144.0351  158.7838 H   0  0  0  0  0  0  0  0  0  0  0  0
  149.3836  142.0887  154.1989 H   0  0  0  0  0  0  0  0  0  0  0  0
  148.3729  142.8077  155.9339 H   0  0  0  0  0  0  0  0  0  0  0  0
  148.1920  139.4798  155.1544 H   0  0  0  0  0  0  0  0  0  0  0  0
  148.7307  140.0962  152.5075 H   0  0  0  0  0  0  0  0  0  0  0  0
  1  2  1  0  0  0  0
  1 27  1  0  0  0  0
  1 28  1  0  0  0  0
  1 29  1  0  0  0  0
  2 25  1  0  0  0  0
  2  3  2  0  0  0  0
  3  4  1  0  0  0  0
  3 30  1  0  0  0  0
  4  5  1  0  0  0  0
  4 22  1  0  0  0  0
  5 20  1  0  0  0  0
  5  6  1  0  0  0  0
  5 31  1  0  0  0  0
  6  7  1  0  0  0  0
  7  8  1  0  0  0  0
  7 18  1  0  0  0  0
  7 32  1  0  0  0  0
  8  9  1  0  0  0  0
  8 33  1  0  0  0  0
  8 34  1  0  0  0  0
  9 10  1  0  0  0  0
 10 11  2  0  0  0  0
 10 12  1  0  0  0  0
 12 17  1  0  0  0  0
 12 13  2  0  0  0  0
 13 14  1  0  0  0  0
 13 35  1  0  0  0  0
 14 15  2  0  0  0  0
 14 36  1  0  0  0  0
 15 16  1  0  0  0  0
 15 37  1  0  0  0  0
 16 17  2  0  0  0  0
 16 38  1  0  0  0  0
 17 39  1  0  0  0  0
 18 19  1  0  0  0  0
 18 20  1  0  0  0  0
 18 40  1  0  0  0  0
 19 41  1  0  0  0  0
 20 21  1  0  0  0  0
 20 42  1  0  0  0  0
 21 43  1  0  0  0  0
 22 23  2  0  0  0  0
 22 24  1  0  0  0  0
 24 25  1  0  0  0  0
 25 26  2  0  0  0  0
M  CHG  1  24  -1
M  END
> <s_m_source_file>
AV-unprocessed.smi

> <i_m_source_file_index>
101

> <i_lp_mmshare_version>
43012

> <i_f3d_flags>
0

> <s_epik_input>
Tz1jMVtuSF1jKD1PKW4oW2NIXWMxW0NIM10pW0NAQEhdMk9bQ0BIXShbQ0BASF0oW09IXSlbQ0BIXTJbT0hdKVtDSDJdT0MoPU8pYzNbY0hdW2NIXVtjSF1bY0hdW2NIXTM=

> <s_epik_cmdline>
J2VwaWtfcHl0aG9uJywgJy1waCcsICc3LjAnLCAnLXRuJywgJzgnLCAnLW1hJywgJzIwMCcsICctbWV0YWxfYmluZGluZycsICctaW1hZScsICc8aW5maWxlLm1hZT4nLCAnLW9tYWUnLCAnPG91dGZpbGUubWFlPic=

> <r_lp_tautomer_probability>
0.999537

> <r_epik_Ionization_Penalty>
3.21006

> <r_epik_Ionization_Penalty_Charging>
5.75142e-08

> <r_epik_Ionization_Penalty_Neutral>
3.21006

> <r_epik_State_Penalty>
3.20925

> <r_epik_Charging_Adjusted_Penalty>
3.20925

> <i_epik_Tot_Q>
-1

> <i_epik_Tot_abs_Q>
1

> <r_epik_Metal_State_Penalty>
0.119957

> <b_epik_Metal_Only>
1

> <s_epik_Chemistry_Notes>
This compound has an ester and may undergo hydrolysis at high or low pH. This compound contains an acetal/aminal-like group ( X-CH(R)-Y where X, Y are N, S, or O) that may be acid/base labile, releasing an aldehyde.

> <s_lp_Force_Field>
OPLS_2005

> <r_lp_Energy>
44.0889

> <b_lp_Chiralities_Consistent>
1

> <s_lp_Variant>
AV-unprocessed.smi:101-23

> <Gold.Version>
5.8.1

> <Gold.Id.Protein>
6NUR|6NUR_protein|mol2

> <Gold.PLP.Fitness>
62.0360

> <Gold.PLP.PLP>
-48.7828

> <Gold.PLP.part.hbond>
-6.3189

> <Gold.PLP.part.metal>
0.0000

> <Gold.PLP.part.buried>
-4.7420

> <Gold.PLP.part.nonpolar>
-37.0231

> <Gold.PLP.part.repulsive>
0.2410

> <Gold.PLP.ligand.clash>
0.0000

> <Gold.PLP.ligand.torsion>
1.8444

> <Gold.PLP.Chemscore.Hbond>
5.6089

> <Gold.PLP.Chemscore.CHOScore>
0.0000

> <Gold.PLP.Chemscore.Metal>
0.0000

> <Gold.Chemscore.Hbonds>
donor molecule, donor type, donor heavy atom, donor atom, acceptor molecule, acceptor atom, score
      L1  H    19    41       P1  8028  1.00
      L1  H    21    43       P1  7957  1.00
      P1  H  7989  7998       L1     6  0.91
      P1  H  7997  8010       L1    11  0.70
      P1  H 10752 10763       L1    24  1.80

> <Gold.PLP.Chemscore.Internal.Correction>
0.1153

> <Gold.Rescore>
     Score         DG    S(hbond)    S(metal)    S(lipo)     H(rot)  DE(clash)    DE(int)     intcor
     16.28     -19.79       3.36        0.00      97.74       3.27       0.16       3.35       ----

> <Gold.Chemscore.Fitness>
16.2781

> <Gold.Chemscore.DG>
-19.7896

> <Gold.Chemscore.ZeroCoef>
-5.4800

> <Gold.Chemscore.Hbond>
3.3635

> <Gold.Chemscore.Metal>
0.0000

> <Gold.Chemscore.Lipo>
97.7385

> <Gold.Chemscore.Internal_Hbond>
0.0000

> <Gold.Chemscore.DEClash>
0.1566

> <Gold.Chemscore.DEInternal>
3.3549

> <Gold.Chemscore.Rot>
3.2656

> <Gold.Chemscore.Internal.Correction>
   9.000000E+99

> <Gold.Chemscore.Hbonds>
donor molecule, donor type, donor heavy atom, donor atom, acceptor molecule, acceptor atom, score
      L1  H    19    41       P1  8028  0.93
      L1  H    21    43       P1  7957  0.99
      P1  H  6896  6908       L1    26  0.04
      P1  H  7989  7998       L1     6  0.27
      P1  H  7997  8010       L1    11  0.66
      P1  H 10752 10763       L1    24  0.17

> <Gold.Chemscore.Hbond.Weighted>
-11.2340

> <Gold.Chemscore.Metal.Weighted>
-0.0000

> <Gold.Chemscore.Lipo.Weighted>
-11.4354

> <Gold.Chemscore.Internal_Hbond.Weighted>
0.0000

> <Gold.Chemscore.DEClash.Weighted>
0.1566

> <Gold.Chemscore.DEInternal.Weighted>
3.3549

> <Gold.Chemscore.Rot.Weighted>
8.3598

> <Gold.Chemscore.Internal.Correction.Weighted>
   9.000000E+99

> <Gold.Protein.RotatedTorsions>
[ 6907 6896 6895 6894 ] final  113.53 input  -60.11 | X-H torsion
[ 7974 7965 7964 7962 ] final  161.22 input  175.53 | X-H torsion
[ 8008 7997 7996 7995 ] final   38.17 input   59.86 | X-H torsion
[ 10167 10162 10161 10158 ] final  163.60 input  -65.29 | X-H torsion
[ 10718 10713 10712 10709 ] final  109.02 input   66.30 | X-H torsion
[ 10763 10752 10751 10750 ] final   96.77 input  -60.55 | X-H torsion
[ 11005 11000 10999 10996 ] final  -42.59 input  -57.11 | X-H torsion

> <Gold.Protein.ActiveResidues>
 VAL166  LYS551  ARG553  GLY616  TRP617  ASP618  TYR619  PRO620  LYS621  CYS622 
 ASP623  PHE694  ASN695  SER759  ASP760  ASP761  ALA762  ILE779  LEU786  VAL792 
 PHE793  MET794  SER795  GLU796  ALA797  LYS798  CYS799  TRP800  GLU811  SER814 

> <Gold.Protein.RotatedAtoms>
  152.4855  133.8362  159.7128 H   0  0  0  0  0  0  0  0  0  0  0  0  # atno 6907 bound_to 6896
  150.8938  133.7198  159.2904 H   0  0  0  0  0  0  0  0  0  0  0  0  # atno 6908 bound_to 6896
  151.4662  135.1046  159.9791 H   0  0  0  0  0  0  0  0  0  0  0  0  # atno 6909 bound_to 6896
  144.7697  139.7867  143.6302 H   0  0  0  0  0  0  0  0  0  0  0  0  # atno 7974 bound_to 7965
  155.2158  140.3327  155.4322 H   0  0  0  0  0  0  0  0  0  0  0  0  # atno 8008 bound_to 7997
  156.2352  140.1869  156.7185 H   0  0  0  0  0  0  0  0  0  0  0  0  # atno 8009 bound_to 7997
  154.6048  140.0618  156.9401 H   0  0  0  0  0  0  0  0  0  0  0  0  # atno 8010 bound_to 7997
  139.4876  144.4320  151.9058 H   0  0  0  0  0  0  0  0  0  0  0  0  # atno 10167 bound_to 10162
  157.6560  131.0905  150.6391 H   0  0  0  0  0  0  0  0  0  0  0  0  # atno 10718 bound_to 10713
  153.2689  135.4206  155.0968 H   0  0  0  0  0  0  0  0  0  0  0  0  # atno 10763 bound_to 10752
  154.8449  135.3467  154.6271 H   0  0  0  0  0  0  0  0  0  0  0  0  # atno 10764 bound_to 10752
  153.6691  135.7044  153.5210 H   0  0  0  0  0  0  0  0  0  0  0  0  # atno 10765 bound_to 10752
  141.0326  133.6813  156.2615 H   0  0  0  0  0  0  0  0  0  0  0  0  # atno 11005 bound_to 11000
  146.1833  139.5036  142.9852 LP  0  0  0  0  0  0  0  0  0  0  0  0  # atno 17320 bound_to 7965
  145.6362  141.0294  143.1836 LP  0  0  0  0  0  0  0  0  0  0  0  0  # atno 17321 bound_to 7965
  140.3768  144.2786  150.5913 LP  0  0  0  0  0  0  0  0  0  0  0  0  # atno 17342 bound_to 10162
  140.5269  143.2252  151.8300 LP  0  0  0  0  0  0  0  0  0  0  0  0  # atno 17343 bound_to 10162
  156.6698  130.4536  149.5661 LP  0  0  0  0  0  0  0  0  0  0  0  0  # atno 17370 bound_to 10713
  156.2006  130.6617  151.1163 LP  0  0  0  0  0  0  0  0  0  0  0  0  # atno 17371 bound_to 10713
  140.6380  134.5196  157.5566 LP  0  0  0  0  0  0  0  0  0  0  0  0  # atno 17394 bound_to 11000
  139.9218  134.8133  156.1188 LP  0  0  0  0  0  0  0  0  0  0  0  0  # atno 17395 bound_to 11000

$$$$
