AV-unprocessed.smi:54|AV-procd|sdf|550|dock5
  -GOLD-   2262016443D 1   1.00000     0.00000
 Structure written by MMmdl.
 43 45  0  0  0  0  0  0  0  0  2 V2000
  152.7874  144.1433  158.2123 C   0  0  0  0  0  0  0  0  0  0  0  0
  152.1936  143.1492  159.2244 C   0  0  0  0  0  0  0  0  0  0  0  0
  152.8688  143.2833  160.5992 C   0  0  0  0  0  0  0  0  0  0  0  0
  152.3042  141.7100  158.7013 C   0  0  0  0  0  0  0  0  0  0  0  0
  153.0133  140.9035  159.3082 O   0  0  0  0  0  0  0  0  0  0  0  0
  151.5945  141.4447  157.5815 N   0  0  0  0  0  0  0  0  0  0  0  0
  151.4954  140.2476  156.8625 C   0  0  0  0  0  0  0  0  0  0  0  0
  150.3302  139.8373  156.4128 N   0  0  0  0  0  0  0  0  0  0  0  0
  150.4214  138.6402  155.7310 C   0  0  0  0  0  0  0  0  0  0  0  0
  151.5409  137.8923  155.4938 C   0  0  0  0  0  0  0  0  0  0  0  0
  151.2384  136.7413  154.7762 N   0  0  0  0  0  0  0  0  0  0  0  0
  149.9204  136.8525  154.6123 C   0  0  0  0  0  0  0  0  0  0  0  0
  149.3594  137.9527  155.1570 N   0  0  0  0  0  0  0  0  0  0  0  0
  147.9198  138.3757  155.1463 C   0  0  1  0  0  0  0  0  0  0  0  0
  147.7985  139.5709  155.8588 O   0  0  0  0  0  0  0  0  0  0  0  0
  147.6961  140.6618  154.9509 C   0  0  2  0  0  0  0  0  0  0  0  0
  147.1048  141.9070  155.6343 C   0  0  0  0  0  0  0  0  0  0  0  0
  146.8782  142.9225  154.6803 O   0  0  0  0  0  0  0  0  0  0  0  0
  146.8496  140.0620  153.8215 C   0  0  2  0  0  0  0  0  0  0  0  0
  145.4780  140.0505  154.1729 O   0  0  0  0  0  0  0  0  0  0  0  0
  147.3838  138.6382  153.7168 C   0  0  1  0  0  0  0  0  0  0  0  0
  148.3720  138.5723  152.7029 O   0  0  0  0  0  0  0  0  0  0  0  0
  152.8206  138.4197  156.0247 C   0  0  0  0  0  0  0  0  0  0  0  0
  153.8555  137.7837  155.8349 O   0  0  0  0  0  0  0  0  0  0  0  0
  152.7332  139.6056  156.7006 N   0  5  0  0  0  0  0  0  0  0  0  0
  147.3983  137.5725  155.6683 H   0  0  0  0  0  0  0  0  0  0  0  0
  148.6858  140.8896  154.5506 H   0  0  0  0  0  0  0  0  0  0  0  0
  146.9552  140.6226  152.8915 H   0  0  0  0  0  0  0  0  0  0  0  0
  146.5999  137.9174  153.4801 H   0  0  0  0  0  0  0  0  0  0  0  0
  152.3226  144.0359  157.2313 H   0  0  0  0  0  0  0  0  0  0  0  0
  153.8614  143.9987  158.0898 H   0  0  0  0  0  0  0  0  0  0  0  0
  152.6282  145.1714  158.5380 H   0  0  0  0  0  0  0  0  0  0  0  0
  151.1363  143.3905  159.3474 H   0  0  0  0  0  0  0  0  0  0  0  0
  152.4528  142.5744  161.3161 H   0  0  0  0  0  0  0  0  0  0  0  0
  152.7228  144.2834  161.0077 H   0  0  0  0  0  0  0  0  0  0  0  0
  153.9433  143.1056  160.5389 H   0  0  0  0  0  0  0  0  0  0  0  0
  151.0798  142.2277  157.2066 H   0  0  0  0  0  0  0  0  0  0  0  0
  149.3498  136.1079  154.0774 H   0  0  0  0  0  0  0  0  0  0  0  0
  146.1431  141.6647  156.0877 H   0  0  0  0  0  0  0  0  0  0  0  0
  147.7564  142.2740  156.4279 H   0  0  0  0  0  0  0  0  0  0  0  0
  147.6259  143.5002  154.6733 H   0  0  0  0  0  0  0  0  0  0  0  0
  144.9770  140.3114  153.4151 H   0  0  0  0  0  0  0  0  0  0  0  0
  148.6278  137.6681  152.5944 H   0  0  0  0  0  0  0  0  0  0  0  0
  1  2  1  0  0  0  0
  1 30  1  0  0  0  0
  1 31  1  0  0  0  0
  1 32  1  0  0  0  0
  2  3  1  0  0  0  0
  2  4  1  0  0  0  0
  2 33  1  0  0  0  0
  3 34  1  0  0  0  0
  3 35  1  0  0  0  0
  3 36  1  0  0  0  0
  4  5  2  0  0  0  0
  4  6  1  0  0  0  0
  6 37  1  0  0  0  0
  6  7  1  0  0  0  0
  7 25  1  0  0  0  0
  7  8  2  0  0  0  0
  8  9  1  0  0  0  0
  9 13  1  0  0  0  0
  9 10  2  0  0  0  0
 10 11  1  0  0  0  0
 10 23  1  0  0  0  0
 11 12  2  0  0  0  0
 12 13  1  0  0  0  0
 12 38  1  0  0  0  0
 13 14  1  0  0  0  0
 14 26  1  0  0  0  0
 14 21  1  0  0  0  0
 14 15  1  0  0  0  0
 15 16  1  0  0  0  0
 16 27  1  0  0  0  0
 16 17  1  0  0  0  0
 16 19  1  0  0  0  0
 17 18  1  0  0  0  0
 17 39  1  0  0  0  0
 17 40  1  0  0  0  0
 18 41  1  0  0  0  0
 19 28  1  0  0  0  0
 19 20  1  0  0  0  0
 19 21  1  0  0  0  0
 20 42  1  0  0  0  0
 21 29  1  0  0  0  0
 21 22  1  0  0  0  0
 22 43  1  0  0  0  0
 23 24  2  0  0  0  0
 23 25  1  0  0  0  0
M  CHG  1  25  -1
M  END
> <s_m_source_file>
AV-unprocessed.smi

> <i_m_source_file_index>
54

> <i_lp_mmshare_version>
43012

> <i_f3d_flags>
0

> <s_epik_input>
W0NIM11bQ0hdKFtDSDNdKUMoPU8pW05IXWMobjEpW25IXWMoPU8pYyhjMTIpbltjSF1uMltDQEBIXTNPW0NASF0oW0NIMl1bT0hdKVtDQEBIXShbT0hdKVtDQEhdM1tPSF0=

> <s_epik_cmdline>
J2VwaWtfcHl0aG9uJywgJy1waCcsICc3LjAnLCAnLXRuJywgJzgnLCAnLW1hJywgJzIwMCcsICctbWV0YWxfYmluZGluZycsICctaW1hZScsICc8aW5maWxlLm1hZT4nLCAnLW9tYWUnLCAnPG91dGZpbGUubWFlPic=

> <r_lp_tautomer_probability>
0.85571

> <r_epik_Ionization_Penalty>
1.75936

> <r_epik_Ionization_Penalty_Charging>
4.55893e-11

> <r_epik_Ionization_Penalty_Neutral>
1.75936

> <r_epik_State_Penalty>
1.72072

> <r_epik_Charging_Adjusted_Penalty>
1.72072

> <i_epik_Tot_Q>
-1

> <i_epik_Tot_abs_Q>
1

> <r_epik_Metal_State_Penalty>
0.400338

> <b_epik_Metal_Only>
1

> <s_epik_Chemistry_Notes>
This compound contains an acetal/aminal-like group ( X-CH(R)-Y where X, Y are N, S, or O) that may be acid/base labile, releasing an aldehyde.

> <s_lp_Force_Field>
OPLS_2005

> <r_lp_Energy>
59.3573

> <b_lp_Chiralities_Consistent>
1

> <s_lp_Variant>
AV-unprocessed.smi:54-22

> <Gold.Version>
5.8.1

> <Gold.Id.Protein>
6NUR|6NUR_protein|mol2

> <Gold.PLP.Fitness>
53.6943

> <Gold.PLP.PLP>
-34.0630

> <Gold.PLP.part.hbond>
-7.0723

> <Gold.PLP.part.metal>
0.0000

> <Gold.PLP.part.buried>
-3.0359

> <Gold.PLP.part.nonpolar>
-24.9827

> <Gold.PLP.part.repulsive>
0.2437

> <Gold.PLP.ligand.clash>
0.0000

> <Gold.PLP.ligand.torsion>
0.4568

> <Gold.PLP.Chemscore.Hbond>
5.9000

> <Gold.PLP.Chemscore.CHOScore>
0.9093

> <Gold.PLP.Chemscore.Metal>
0.0000

> <Gold.Chemscore.Hbonds>
donor molecule, donor type, donor heavy atom, donor atom, acceptor molecule, acceptor atom, score
      L1  H    18    41       P1  8028  0.99
      L1  H    20    42       P1 10175  1.00
      L1  H    22    43       P1  7948  1.00
      P1  H  7997  8010       L1    25  1.80
      P1  H 10752 10765       L1    11  0.96
      L1  C    12    38       P1  7948  0.85

> <Gold.PLP.Chemscore.Internal.Correction>
0.1171

> <Gold.Rescore>
     Score         DG    S(hbond)    S(metal)    S(lipo)     H(rot)  DE(clash)    DE(int)     intcor
      9.95     -14.39       3.54        0.00      63.06       4.02       0.20       4.24       ----

> <Gold.Chemscore.Fitness>
9.9509

> <Gold.Chemscore.DG>
-14.3878

> <Gold.Chemscore.ZeroCoef>
-5.4800

> <Gold.Chemscore.Hbond>
3.5388

> <Gold.Chemscore.Metal>
0.0000

> <Gold.Chemscore.Lipo>
63.0566

> <Gold.Chemscore.Internal_Hbond>
0.0000

> <Gold.Chemscore.DEClash>
0.1977

> <Gold.Chemscore.DEInternal>
4.2391

> <Gold.Chemscore.Rot>
4.0192

> <Gold.Chemscore.Internal.Correction>
   9.000000E+99

> <Gold.Chemscore.Hbonds>
donor molecule, donor type, donor heavy atom, donor atom, acceptor molecule, acceptor atom, score
      L1  H    18    41       P1  8028  0.32
      L1  H    20    42       P1 10175  0.98
      L1  H    22    43       P1  7948  0.99
      P1  H  7997  8010       L1    25  0.18
      P1  H 10752 10765       L1    11  0.67

> <Gold.Chemscore.Hbond.Weighted>
-11.8194

> <Gold.Chemscore.Metal.Weighted>
-0.0000

> <Gold.Chemscore.Lipo.Weighted>
-7.3776

> <Gold.Chemscore.Internal_Hbond.Weighted>
0.0000

> <Gold.Chemscore.DEClash.Weighted>
0.1977

> <Gold.Chemscore.DEInternal.Weighted>
4.2391

> <Gold.Chemscore.Rot.Weighted>
10.2893

> <Gold.Chemscore.Internal.Correction.Weighted>
   9.000000E+99

> <Gold.Protein.RotatedTorsions>
[ 6907 6896 6895 6894 ] final   26.24 input  -60.11 | X-H torsion
[ 7974 7965 7964 7962 ] final   53.43 input  175.53 | X-H torsion
[ 8008 7997 7996 7995 ] final   66.58 input   59.86 | X-H torsion
[ 10167 10162 10161 10158 ] final -141.36 input  -65.29 | X-H torsion
[ 10718 10713 10712 10709 ] final  -63.94 input   66.30 | X-H torsion
[ 10763 10752 10751 10750 ] final  177.04 input  -60.55 | X-H torsion
[ 11005 11000 10999 10996 ] final  172.90 input  -57.11 | X-H torsion

> <Gold.Protein.ActiveResidues>
 VAL166  LYS551  ARG553  GLY616  TRP617  ASP618  TYR619  PRO620  LYS621  CYS622 
 ASP623  PHE694  ASN695  SER759  ASP760  ASP761  ALA762  ILE779  LEU786  VAL792 
 PHE793  MET794  SER795  GLU796  ALA797  LYS798  CYS799  TRP800  GLU811  SER814 

> <Gold.Protein.RotatedAtoms>
  151.9845  135.0011  160.0558 H   0  0  0  0  0  0  0  0  0  0  0  0  # atno 6907 bound_to 6896
  152.1665  133.4611  159.4896 H   0  0  0  0  0  0  0  0  0  0  0  0  # atno 6908 bound_to 6896
  150.6895  134.1924  159.4333 H   0  0  0  0  0  0  0  0  0  0  0  0  # atno 6909 bound_to 6896
  145.9712  139.4151  143.0189 H   0  0  0  0  0  0  0  0  0  0  0  0  # atno 7974 bound_to 7965
  155.6796  140.3496  155.4850 H   0  0  0  0  0  0  0  0  0  0  0  0  # atno 8008 bound_to 7997
  155.9618  140.1139  157.0912 H   0  0  0  0  0  0  0  0  0  0  0  0  # atno 8009 bound_to 7997
  154.4145  140.1174  156.5175 H   0  0  0  0  0  0  0  0  0  0  0  0  # atno 8010 bound_to 7997
  139.8193  143.7596  152.2666 H   0  0  0  0  0  0  0  0  0  0  0  0  # atno 10167 bound_to 10162
  156.0760  130.4227  150.1348 H   0  0  0  0  0  0  0  0  0  0  0  0  # atno 10718 bound_to 10713
  154.4891  135.2778  155.1510 H   0  0  0  0  0  0  0  0  0  0  0  0  # atno 10763 bound_to 10752
  154.3189  135.6213  153.5502 H   0  0  0  0  0  0  0  0  0  0  0  0  # atno 10764 bound_to 10752
  152.9885  135.5738  154.5309 H   0  0  0  0  0  0  0  0  0  0  0  0  # atno 10765 bound_to 10752
  140.3347  134.7328  157.4159 H   0  0  0  0  0  0  0  0  0  0  0  0  # atno 11005 bound_to 11000
  145.7903  140.9817  143.1052 LP  0  0  0  0  0  0  0  0  0  0  0  0  # atno 17320 bound_to 7965
  144.6837  139.9674  143.7481 LP  0  0  0  0  0  0  0  0  0  0  0  0  # atno 17321 bound_to 7965
  139.7769  144.7458  151.0143 LP  0  0  0  0  0  0  0  0  0  0  0  0  # atno 17342 bound_to 10162
  140.7814  143.4584  151.0313 LP  0  0  0  0  0  0  0  0  0  0  0  0  # atno 17343 bound_to 10162
  156.9389  130.9738  151.3519 LP  0  0  0  0  0  0  0  0  0  0  0  0  # atno 17370 bound_to 10713
  157.5855  130.8407  149.8584 LP  0  0  0  0  0  0  0  0  0  0  0  0  # atno 17371 bound_to 10713
  140.0831  134.5703  155.8520 LP  0  0  0  0  0  0  0  0  0  0  0  0  # atno 17394 bound_to 11000
  141.2054  133.6647  156.6180 LP  0  0  0  0  0  0  0  0  0  0  0  0  # atno 17395 bound_to 11000

$$$$
