#       Name:                AV-unprocessed.smi:2094
#       Creating user name   scv26
#       Creation time:       Fri Mar 27 11:27:39 2020


#       File generated by GOLD software.
#

@<TRIPOS>MOLECULE
AV-unprocessed.smi:2094
    39    40     1
SMALL
NO_CHARGES


@<TRIPOS>ATOM
      1 ****        -1.9617   2.6119  -0.0257 O.2            1 S1                 0.0000
      2 ****        -2.4971   1.5144  -0.1985 C.2            1 S1                 0.0000
      3 ****        -1.7478   0.4045  -0.2197 N.am           1 S1                 0.0000
      4 ****        -0.3014   0.3705  -0.0565 C.3            1 S1                 0.0000
      5 ****         0.2184  -1.0699  -0.1814 C.3            1 S1                 0.0000
      6 ****         1.6970  -1.1451  -0.0738 N.4            1 S1                 1.0000
      7 ****         2.2476  -2.3613  -0.7274 C.3            1 S1                 0.0000
      8 ****         3.7859  -2.3465  -0.7277 C.3            1 S1                 0.0000
      9 ****         4.3353  -2.1987   0.6972 C.3            1 S1                 0.0000
     10 ****         3.7287  -0.9581   1.3651 C.3            1 S1                 0.0000
     11 ****         2.1918  -1.0039   1.3223 C.3            1 S1                 0.0000
     12 ****        -3.8166   1.2826  -0.3784 N.pl3          1 S1                -1.0000
     13 ****        -4.6828   2.3090  -0.3877 C.2            1 S1                 0.0000
     14 ****        -5.1507   2.8581  -1.5145 N.2            1 S1                 0.0000
     15 ****        -6.0421   3.9091  -1.2914 C.2            1 S1                 0.0000
     16 ****        -6.2650   4.1602   0.0364 C.2            1 S1                 0.0000
     17 ****        -5.3562   3.0778   1.0523 S.3            1 S1                 0.0000
     18 ****        -2.2213  -0.4753  -0.3640 H              1 S1                 0.0000
     19 ****         0.1626   1.0027  -0.8153 H              1 S1                 0.0000
     20 ****        -0.0537   0.7957   0.9160 H              1 S1                 0.0000
     21 ****        -0.2423  -1.7171   0.5668 H              1 S1                 0.0000
     22 ****        -0.0915  -1.4547  -1.1545 H              1 S1                 0.0000
     23 ****         1.8785  -3.2505  -0.2138 H              1 S1                 0.0000
     24 ****         1.8933  -2.4196  -1.7574 H              1 S1                 0.0000
     25 ****         4.1680  -3.2619  -1.1808 H              1 S1                 0.0000
     26 ****         4.1440  -1.5222  -1.3460 H              1 S1                 0.0000
     27 ****         4.0933  -3.0879   1.2810 H              1 S1                 0.0000
     28 ****         5.4230  -2.1237   0.6771 H              1 S1                 0.0000
     29 ****         4.0711  -0.8865   2.3979 H              1 S1                 0.0000
     30 ****         4.0824  -0.0586   0.8594 H              1 S1                 0.0000
     31 ****         1.8017  -0.0929   1.7744 H              1 S1                 0.0000
     32 ****         1.8251  -1.8365   1.9251 H              1 S1                 0.0000
     33 ****        -6.4719   4.4231  -2.1381 H              1 S1                 0.0000
     34 ****        -6.9040   4.9102   0.4769 H              1 S1                 0.0000
     35 ****         2.0578  -0.3589  -0.5953 H              1 S1                 0.0000
     36 ****        -0.9711   2.6711   0.0980 LP             1 S1                 0.0000
     37 ****        -2.5181   3.4426  -0.0093 LP             1 S1                 0.0000
     38 ****        -4.1476   0.3474  -0.5045 LP             1 S1                 0.0000
     39 ****        -4.8876   2.5461  -2.4274 LP             1 S1                 0.0000
@<TRIPOS>BOND
    1    1    2 2     
    2    2    3 am    
    3    2   12 1     
    4    3    4 1     
    5    3   18 1     
    6    4    5 1     
    7    4   19 1     
    8    4   20 1     
    9    5    6 1     
   10    5   21 1     
   11    5   22 1     
   12    6   11 1     
   13    6    7 1     
   14    6   35 1     
   15    7    8 1     
   16    7   23 1     
   17    7   24 1     
   18    8    9 1     
   19    8   25 1     
   20    8   26 1     
   21    9   10 1     
   22    9   27 1     
   23    9   28 1     
   24   10   11 1     
   25   10   29 1     
   26   10   30 1     
   27   11   31 1     
   28   11   32 1     
   29   12   13 1     
   30   13   17 1     
   31   13   14 2     
   32   14   15 1     
   33   15   16 2     
   34   15   33 1     
   35   16   17 1     
   36   16   34 1     
   37    1   36 1     
   38    1   37 1     
   39   12   38 1     
   40   14   39 1     
@<TRIPOS>SUBSTRUCTURE
      1 S1             1
@<TRIPOS>SET
LONE_PAIRS      STATIC     ATOMS    <user>   **** ""
4 36 37 38 39
DONOR_HYDROGENS      STATIC     ATOMS    <user>   **** ""
2 18 35
ATOM$BLUE        STATIC     ATOMS    COLORGROUP SYSTEM
4 36 37 38 39
ATOM$RED        STATIC     ATOMS    COLORGROUP SYSTEM
2 18 35
