#       Name:                AV-unprocessed.smi:329
#       Creating user name   scv26
#       Creation time:       Thu Mar 26 22:26:02 2020


#       File generated by GOLD software.
#

@<TRIPOS>MOLECULE
AV-unprocessed.smi:329
    21    21     1
SMALL
NO_CHARGES


@<TRIPOS>ATOM
      1 ****        -3.3649   1.1044   0.3396 N.am           1 S1                 0.0000
      2 ****        -2.0389   1.0024   0.2229 C.2            1 S1                 0.0000
      3 ****        -1.3259   1.9864   0.0298 O.2            1 S1                 0.0000
      4 ****        -1.4518  -0.4108   0.3367 C.3            1 S1                 0.0000
      5 ****         0.0016  -0.4263   0.2898 N.pl3          1 S1                 0.0000
      6 ****         0.8239  -0.3736  -0.8172 C.2            1 S1                 0.0000
      7 ****         2.1125  -0.4096  -0.3671 C.2            1 S1                 0.0000
      8 ****         3.2793  -0.3731  -1.1533 N.pl3          1 S1                 0.0000
      9 ****         1.9760  -0.4886   1.0473 C.2            1 S1                 0.0000
     10 ****         0.7115  -0.5002   1.4375 N.2            1 S1                 0.0000
     11 ****        -3.8037   2.0115   0.2745 H              1 S1                 0.0000
     12 ****        -3.9242   0.2780   0.4940 H              1 S1                 0.0000
     13 ****        -1.7864  -0.8723   1.2673 H              1 S1                 0.0000
     14 ****        -1.8295  -1.0258  -0.4811 H              1 S1                 0.0000
     15 ****         0.4258  -0.3107  -1.8193 H              1 S1                 0.0000
     16 ****         3.2411  -0.3145  -2.1608 H              1 S1                 0.0000
     17 ****         4.1992  -0.4693  -0.7475 H              1 S1                 0.0000
     18 ****         2.7522  -0.5379   1.7967 H              1 S1                 0.0000
     19 ****        -1.7370   2.8950  -0.0440 LP             1 S1                 0.0000
     20 ****        -0.3354   1.8775  -0.0533 LP             1 S1                 0.0000
     21 ****         0.3599  -0.5521   2.3723 LP             1 S1                 0.0000
@<TRIPOS>BOND
    1    1    2 am    
    2    1   11 1     
    3    1   12 1     
    4    2    3 2     
    5    2    4 1     
    6    4    5 1     
    7    4   13 1     
    8    4   14 1     
    9    5   10 1     
   10    5    6 1     
   11    6    7 2     
   12    6   15 1     
   13    7    8 1     
   14    7    9 1     
   15    8   16 1     
   16    8   17 1     
   17    9   10 2     
   18    9   18 1     
   19    3   19 1     
   20    3   20 1     
   21   10   21 1     
@<TRIPOS>SUBSTRUCTURE
      1 S1             1
@<TRIPOS>SET
LONE_PAIRS      STATIC     ATOMS    <user>   **** ""
3 19 20 21
DONOR_HYDROGENS      STATIC     ATOMS    <user>   **** ""
4 11 12 16 17
ATOM$BLUE        STATIC     ATOMS    COLORGROUP SYSTEM
3 19 20 21
ATOM$RED        STATIC     ATOMS    COLORGROUP SYSTEM
4 11 12 16 17
