AV-unprocessed.smi:2693|AV-procd|sdf|10404|dock1
  -GOLD-   2272014433D 1   1.00000     0.00000
 Structure written by MMmdl.
 45 47  0  0  0  0  0  0  0  0  1 V2000
  149.8907  128.1060  154.5197 C   0  0  0  0  0  0  0  0  0  0  0  0
  149.0538  128.9592  153.6811 N   0  0  0  0  0  0  0  0  0  0  0  0
  148.1472  128.3035  152.7428 C   0  0  0  0  0  0  0  0  0  0  0  0
  149.1098  130.3526  153.7804 C   0  0  0  0  0  0  0  0  0  0  0  0
  149.9767  130.8737  154.6586 N   0  0  0  0  0  0  0  0  0  0  0  0
  150.0365  132.2183  154.7626 C   0  0  0  0  0  0  0  0  0  0  0  0
  149.2132  133.0610  153.9783 C   0  0  0  0  0  0  0  0  0  0  0  0
  149.2291  134.4809  154.0115 N   0  0  0  0  0  0  0  0  0  0  0  0
  149.3742  135.2870  155.0766 C   0  0  0  0  0  0  0  0  0  0  0  0
  149.4839  134.9126  156.2437 O   0  0  0  0  0  0  0  0  0  0  0  0
  149.3576  136.5759  154.7140 N   0  0  0  0  0  0  0  0  0  0  0  0
  149.4603  137.7029  155.6470 C   0  0  1  0  0  0  0  0  0  0  0  0
  150.8840  138.2544  155.7518 C   0  0  1  0  0  0  0  0  0  0  0  0
  152.2444  137.7624  155.4133 C   0  0  0  0  0  0  0  0  0  0  0  0
  152.7862  139.0907  154.8188 C   0  0  0  0  0  0  0  0  0  0  0  0
  151.6385  139.9690  154.6898 O   0  0  0  0  0  0  0  0  0  0  0  0
  150.5478  139.0839  154.5298 C   0  0  2  0  0  0  0  0  0  0  0  0
  149.0913  139.1170  155.0452 C   0  0  0  0  0  0  0  0  0  0  0  0
  148.0094  139.1523  153.9597 C   0  0  0  0  0  0  0  0  0  0  0  0
  148.7235  140.2330  156.0395 C   0  0  0  0  0  0  0  0  0  0  0  0
  148.3474  132.4069  153.0796 C   0  0  0  0  0  0  0  0  0  0  0  0
  148.2959  131.0614  152.9867 N   0  0  0  0  0  0  0  0  0  0  0  0
  149.6016  128.2042  155.5664 H   0  0  0  0  0  0  0  0  0  0  0  0
  150.9403  128.3852  154.4239 H   0  0  0  0  0  0  0  0  0  0  0  0
  149.8037  127.0549  154.2446 H   0  0  0  0  0  0  0  0  0  0  0  0
  147.1229  128.6430  152.9001 H   0  0  0  0  0  0  0  0  0  0  0  0
  148.1562  127.2196  152.8585 H   0  0  0  0  0  0  0  0  0  0  0  0
  148.4327  128.5343  151.7160 H   0  0  0  0  0  0  0  0  0  0  0  0
  150.7632  132.5976  155.4636 H   0  0  0  0  0  0  0  0  0  0  0  0
  149.0673  134.9376  153.1258 H   0  0  0  0  0  0  0  0  0  0  0  0
  149.2581  136.7985  153.7345 H   0  0  0  0  0  0  0  0  0  0  0  0
  149.0084  137.5154  156.6226 H   0  0  0  0  0  0  0  0  0  0  0  0
  150.9506  138.8525  156.6641 H   0  0  0  0  0  0  0  0  0  0  0  0
  152.8072  137.4317  156.2866 H   0  0  0  0  0  0  0  0  0  0  0  0
  152.2226  136.9612  154.6735 H   0  0  0  0  0  0  0  0  0  0  0  0
  153.5293  139.5543  155.4680 H   0  0  0  0  0  0  0  0  0  0  0  0
  153.2465  138.9200  153.8448 H   0  0  0  0  0  0  0  0  0  0  0  0
  150.6358  138.5406  153.5832 H   0  0  0  0  0  0  0  0  0  0  0  0
  147.8992  140.1502  153.5341 H   0  0  0  0  0  0  0  0  0  0  0  0
  147.0386  138.8536  154.3567 H   0  0  0  0  0  0  0  0  0  0  0  0
  148.2388  138.4826  153.1307 H   0  0  0  0  0  0  0  0  0  0  0  0
  148.7653  141.2137  155.5644 H   0  0  0  0  0  0  0  0  0  0  0  0
  149.3799  140.2779  156.9066 H   0  0  0  0  0  0  0  0  0  0  0  0
  147.7116  140.1011  156.4240 H   0  0  0  0  0  0  0  0  0  0  0  0
  147.6873  132.9642  152.4311 H   0  0  0  0  0  0  0  0  0  0  0  0
  1  2  1  0  0  0  0
  1 23  1  0  0  0  0
  1 24  1  0  0  0  0
  1 25  1  0  0  0  0
  2  3  1  0  0  0  0
  2  4  1  0  0  0  0
  3 26  1  0  0  0  0
  3 27  1  0  0  0  0
  3 28  1  0  0  0  0
  4 22  1  0  0  0  0
  4  5  2  0  0  0  0
  5  6  1  0  0  0  0
  6  7  2  0  0  0  0
  6 29  1  0  0  0  0
  7  8  1  0  0  0  0
  7 21  1  0  0  0  0
  8  9  1  0  0  0  0
  8 30  1  0  0  0  0
  9 10  2  0  0  0  0
  9 11  1  0  0  0  0
 11 12  1  0  0  0  0
 11 31  1  0  0  0  0
 12 18  1  0  0  0  0
 12 13  1  0  0  0  0
 12 32  1  0  0  0  0
 13 17  1  0  0  0  0
 13 14  1  0  0  0  0
 13 33  1  0  0  0  0
 14 15  1  0  0  0  0
 14 34  1  0  0  0  0
 14 35  1  0  0  0  0
 15 16  1  0  0  0  0
 15 36  1  0  0  0  0
 15 37  1  0  0  0  0
 16 17  1  0  0  0  0
 17 18  1  0  0  0  0
 17 38  1  0  0  0  0
 18 19  1  0  0  0  0
 18 20  1  0  0  0  0
 19 39  1  0  0  0  0
 19 40  1  0  0  0  0
 19 41  1  0  0  0  0
 20 42  1  0  0  0  0
 20 43  1  0  0  0  0
 20 44  1  0  0  0  0
 21 22  2  0  0  0  0
 21 45  1  0  0  0  0
M  END
> <s_m_source_file>
AV-unprocessed.smi

> <i_m_source_file_index>
2693

> <i_lp_mmshare_version>
43012

> <i_f3d_flags>
0

> <s_epik_input>
W0NIM11OKFtDSDNdKWMxbltjSF1jKFtjSF1uMSlbTkhdQyg9TylbTkhdW0NASF0yQyhbQ0gzXSkoW0NIM10pW0NAQEhdKFtDQEhdMjMpT1tDSDJdW0NIMl0z

> <s_epik_cmdline>
J2VwaWtfcHl0aG9uJywgJy1waCcsICc3LjAnLCAnLXRuJywgJzgnLCAnLW1hJywgJzIwMCcsICctbWV0YWxfYmluZGluZycsICctaW1hZScsICc8aW5maWxlLm1hZT4nLCAnLW9tYWUnLCAnPG91dGZpbGUubWFlPic=

> <r_lp_tautomer_probability>
1

> <r_epik_Ionization_Penalty>
0.00031779

> <r_epik_Ionization_Penalty_Charging>
0

> <r_epik_Ionization_Penalty_Neutral>
0.00031779

> <r_epik_State_Penalty>
-0

> <r_epik_Charging_Adjusted_Penalty>
0

> <i_epik_Tot_Q>
0

> <i_epik_Tot_abs_Q>
0

> <r_epik_Metal_State_Penalty>
-0

> <b_epik_Metal_Only>
0

> <s_lp_Force_Field>
OPLS_2005

> <r_lp_Energy>
57.3202

> <b_lp_Chiralities_Consistent>
1

> <s_lp_Variant>
AV-unprocessed.smi:2693-8

> <Gold.Version>
5.8.1

> <Gold.Id.Protein>
6NUR|6NUR_protein|mol2

> <Gold.PLP.Fitness>
38.6716

> <Gold.PLP.PLP>
-30.5952

> <Gold.PLP.part.hbond>
-2.8239

> <Gold.PLP.part.metal>
0.0000

> <Gold.PLP.part.buried>
-4.5867

> <Gold.PLP.part.nonpolar>
-25.2603

> <Gold.PLP.part.repulsive>
1.0744

> <Gold.PLP.ligand.clash>
0.0000

> <Gold.PLP.ligand.torsion>
0.5189

> <Gold.PLP.Chemscore.Hbond>
2.9500

> <Gold.PLP.Chemscore.CHOScore>
0.0000

> <Gold.PLP.Chemscore.Metal>
0.0000

> <Gold.Chemscore.Hbonds>
donor molecule, donor type, donor heavy atom, donor atom, acceptor molecule, acceptor atom, score
      L1  H     8    30       P1  7948  0.75
      L1  H    11    31       P1  7948  1.00
      P1  H  7989  7998       L1    16  0.89

> <Gold.PLP.Chemscore.Internal.Correction>
0.2642

> <Gold.Rescore>
     Score         DG    S(hbond)    S(metal)    S(lipo)     H(rot)  DE(clash)    DE(int)     intcor
     17.38     -18.55       2.17        0.00      71.72       1.00       0.59       0.57       ----

> <Gold.Chemscore.Fitness>
17.3821

> <Gold.Chemscore.DG>
-18.5452

> <Gold.Chemscore.ZeroCoef>
-5.4800

> <Gold.Chemscore.Hbond>
2.1659

> <Gold.Chemscore.Metal>
0.0000

> <Gold.Chemscore.Lipo>
71.7177

> <Gold.Chemscore.Internal_Hbond>
0.0000

> <Gold.Chemscore.DEClash>
0.5898

> <Gold.Chemscore.DEInternal>
0.5733

> <Gold.Chemscore.Rot>
1.0000

> <Gold.Chemscore.Internal.Correction>
   9.000000E+99

> <Gold.Chemscore.Hbonds>
donor molecule, donor type, donor heavy atom, donor atom, acceptor molecule, acceptor atom, score
      L1  H     8    30       P1  7948  0.09
      L1  H    11    31       P1  7948  0.92
      P1  H  7989  7998       L1    16  0.46

> <Gold.Chemscore.Hbond.Weighted>
-7.2342

> <Gold.Chemscore.Metal.Weighted>
-0.0000

> <Gold.Chemscore.Lipo.Weighted>
-8.3910

> <Gold.Chemscore.Internal_Hbond.Weighted>
0.0000

> <Gold.Chemscore.DEClash.Weighted>
0.5898

> <Gold.Chemscore.DEInternal.Weighted>
0.5733

> <Gold.Chemscore.Rot.Weighted>
2.5600

> <Gold.Chemscore.Internal.Correction.Weighted>
   9.000000E+99

> <Gold.Protein.RotatedTorsions>
[ 6907 6896 6895 6894 ] final   -5.57 input  -60.11 | X-H torsion
[ 7974 7965 7964 7962 ] final  156.01 input  175.53 | X-H torsion
[ 8008 7997 7996 7995 ] final -150.98 input   59.86 | X-H torsion
[ 10167 10162 10161 10158 ] final  138.64 input  -65.29 | X-H torsion
[ 10718 10713 10712 10709 ] final -168.58 input   66.30 | X-H torsion
[ 10763 10752 10751 10750 ] final  -36.41 input  -60.55 | X-H torsion
[ 11005 11000 10999 10996 ] final -175.83 input  -57.11 | X-H torsion

> <Gold.Protein.ActiveResidues>
 VAL166  LYS551  ARG553  GLY616  TRP617  ASP618  TYR619  PRO620  LYS621  CYS622 
 ASP623  PHE694  ASN695  SER759  ASP760  ASP761  ALA762  ILE779  LEU786  VAL792 
 PHE793  MET794  SER795  GLU796  ALA797  LYS798  CYS799  TRP800  GLU811  SER814 

> <Gold.Protein.RotatedAtoms>
  151.4795  135.1051  159.9773 H   0  0  0  0  0  0  0  0  0  0  0  0  # atno 6907 bound_to 6896
  152.4785  133.8192  159.7055 H   0  0  0  0  0  0  0  0  0  0  0  0  # atno 6908 bound_to 6896
  150.8839  133.7273  159.2950 H   0  0  0  0  0  0  0  0  0  0  0  0  # atno 6909 bound_to 6896
  144.7989  139.7146  143.6190 H   0  0  0  0  0  0  0  0  0  0  0  0  # atno 7974 bound_to 7965
  155.6321  140.0692  157.2645 H   0  0  0  0  0  0  0  0  0  0  0  0  # atno 8008 bound_to 7997
  154.4203  140.1765  156.1532 H   0  0  0  0  0  0  0  0  0  0  0  0  # atno 8009 bound_to 7997
  155.9924  140.3344  155.6769 H   0  0  0  0  0  0  0  0  0  0  0  0  # atno 8010 bound_to 7997
  139.5104  144.6342  151.5741 H   0  0  0  0  0  0  0  0  0  0  0  0  # atno 10167 bound_to 10162
  156.6990  130.9189  151.3077 H   0  0  0  0  0  0  0  0  0  0  0  0  # atno 10718 bound_to 10713
  153.8793  135.6823  153.4768 H   0  0  0  0  0  0  0  0  0  0  0  0  # atno 10763 bound_to 10752
  153.1243  135.4726  154.9244 H   0  0  0  0  0  0  0  0  0  0  0  0  # atno 10764 bound_to 10752
  154.7677  135.3229  154.8205 H   0  0  0  0  0  0  0  0  0  0  0  0  # atno 10765 bound_to 10752
  140.4589  134.6274  157.4834 H   0  0  0  0  0  0  0  0  0  0  0  0  # atno 11005 bound_to 11000
  146.2265  139.5733  142.9584 LP  0  0  0  0  0  0  0  0  0  0  0  0  # atno 17320 bound_to 7965
  145.5603  141.0405  143.2230 LP  0  0  0  0  0  0  0  0  0  0  0  0  # atno 17321 bound_to 7965
  140.6085  143.9480  150.6436 LP  0  0  0  0  0  0  0  0  0  0  0  0  # atno 17342 bound_to 10162
  140.2715  143.3452  152.1233 LP  0  0  0  0  0  0  0  0  0  0  0  0  # atno 17343 bound_to 10162
  157.6980  130.9303  150.0701 LP  0  0  0  0  0  0  0  0  0  0  0  0  # atno 17370 bound_to 10713
  156.1742  130.3647  149.9123 LP  0  0  0  0  0  0  0  0  0  0  0  0  # atno 17371 bound_to 10713
  139.9958  134.6913  155.9611 LP  0  0  0  0  0  0  0  0  0  0  0  0  # atno 17394 bound_to 11000
  141.1630  133.6538  156.4384 LP  0  0  0  0  0  0  0  0  0  0  0  0  # atno 17395 bound_to 11000

$$$$
