AV-unprocessed.smi:1917|AV-procd|sdf|7768|dock1
  -GOLD-   22720 9513D 1   1.00000     0.00000
 Structure written by MMmdl.
 44 45  0  0  0  0  0  0  0  0  1 V2000
  150.9908  141.1831  156.6077 C   0  0  0  0  0  0  0  0  0  0  0  0
  151.3374  139.9175  155.8181 C   0  0  0  0  0  0  0  0  0  0  0  0
  152.4417  139.4037  156.0018 O   0  0  0  0  0  0  0  0  0  0  0  0
  150.4315  139.4037  154.9504 N   0  0  0  0  0  0  0  0  0  0  0  0
  149.1239  140.0495  154.7999 C   0  0  0  0  0  0  0  0  0  0  0  0
  150.6524  138.1958  154.1395 C   0  0  0  0  0  0  0  0  0  0  0  0
  150.8607  136.9395  154.9954 C   0  0  0  0  0  0  0  0  0  0  0  0
  151.6519  136.9418  155.9391 O   0  0  0  0  0  0  0  0  0  0  0  0
  150.1355  135.8647  154.6502 N   0  0  0  0  0  0  0  0  0  0  0  0
  150.1356  134.5909  155.3639 C   0  0  0  0  0  0  0  0  0  0  0  0
  149.4288  133.4453  154.6461 C   0  0  0  0  0  0  0  0  0  0  0  0
  149.8121  132.1187  154.9215 C   0  0  0  0  0  0  0  0  0  0  0  0
  149.1509  131.0747  154.2499 C   0  0  0  0  0  0  0  0  0  0  0  0
  148.1635  131.2796  153.3541 N   0  0  0  0  0  0  0  0  0  0  0  0
  147.7810  132.5490  153.0751 C   0  0  0  0  0  0  0  0  0  0  0  0
  146.7256  132.7025  152.1483 N   0  0  0  0  0  0  0  0  0  0  0  0
  145.8070  131.5867  151.9368 C   0  0  0  0  0  0  0  0  0  0  0  0
  144.9678  131.8114  150.6680 C   0  0  0  0  0  0  0  0  0  0  0  0
  144.3085  133.0705  150.7443 O   0  0  0  0  0  0  0  0  0  0  0  0
  145.2371  134.1473  150.8152 C   0  0  0  0  0  0  0  0  0  0  0  0
  146.0914  134.0185  152.0881 C   0  0  0  0  0  0  0  0  0  0  0  0
  148.4021  133.6612  153.6977 C   0  0  0  0  0  0  0  0  0  0  0  0
  150.6880  141.9918  155.9426 H   0  0  0  0  0  0  0  0  0  0  0  0
  151.8557  141.5290  157.1748 H   0  0  0  0  0  0  0  0  0  0  0  0
  150.1857  140.9869  157.3160 H   0  0  0  0  0  0  0  0  0  0  0  0
  149.2368  141.0569  154.3969 H   0  0  0  0  0  0  0  0  0  0  0  0
  148.6144  140.1197  155.7624 H   0  0  0  0  0  0  0  0  0  0  0  0
  148.4662  139.4967  154.1283 H   0  0  0  0  0  0  0  0  0  0  0  0
  149.7914  138.0464  153.4860 H   0  0  0  0  0  0  0  0  0  0  0  0
  151.4991  138.3038  153.4619 H   0  0  0  0  0  0  0  0  0  0  0  0
  149.5147  135.9435  153.8578 H   0  0  0  0  0  0  0  0  0  0  0  0
  151.1724  134.2989  155.5313 H   0  0  0  0  0  0  0  0  0  0  0  0
  149.6907  134.7267  156.3513 H   0  0  0  0  0  0  0  0  0  0  0  0
  150.5952  131.9025  155.6334 H   0  0  0  0  0  0  0  0  0  0  0  0
  149.4204  130.0461  154.4387 H   0  0  0  0  0  0  0  0  0  0  0  0
  146.3621  130.6542  151.8301 H   0  0  0  0  0  0  0  0  0  0  0  0
  145.1544  131.4868  152.8051 H   0  0  0  0  0  0  0  0  0  0  0  0
  145.5940  131.7691  149.7753 H   0  0  0  0  0  0  0  0  0  0  0  0
  144.2209  131.0236  150.5690 H   0  0  0  0  0  0  0  0  0  0  0  0
  145.8673  134.1576  149.9242 H   0  0  0  0  0  0  0  0  0  0  0  0
  144.6884  135.0891  150.8266 H   0  0  0  0  0  0  0  0  0  0  0  0
  145.4661  134.1468  152.9726 H   0  0  0  0  0  0  0  0  0  0  0  0
  146.8279  134.8220  152.0990 H   0  0  0  0  0  0  0  0  0  0  0  0
  148.1037  134.6692  153.4567 H   0  0  0  0  0  0  0  0  0  0  0  0
  1  2  1  0  0  0  0
  1 23  1  0  0  0  0
  1 24  1  0  0  0  0
  1 25  1  0  0  0  0
  2  3  2  0  0  0  0
  2  4  1  0  0  0  0
  4  5  1  0  0  0  0
  4  6  1  0  0  0  0
  5 26  1  0  0  0  0
  5 27  1  0  0  0  0
  5 28  1  0  0  0  0
  6  7  1  0  0  0  0
  6 29  1  0  0  0  0
  6 30  1  0  0  0  0
  7  8  2  0  0  0  0
  7  9  1  0  0  0  0
  9 10  1  0  0  0  0
  9 31  1  0  0  0  0
 10 11  1  0  0  0  0
 10 32  1  0  0  0  0
 10 33  1  0  0  0  0
 11 22  1  0  0  0  0
 11 12  2  0  0  0  0
 12 13  1  0  0  0  0
 12 34  1  0  0  0  0
 13 14  2  0  0  0  0
 13 35  1  0  0  0  0
 14 15  1  0  0  0  0
 15 16  1  0  0  0  0
 15 22  2  0  0  0  0
 16 21  1  0  0  0  0
 16 17  1  0  0  0  0
 17 18  1  0  0  0  0
 17 36  1  0  0  0  0
 17 37  1  0  0  0  0
 18 19  1  0  0  0  0
 18 38  1  0  0  0  0
 18 39  1  0  0  0  0
 19 20  1  0  0  0  0
 20 21  1  0  0  0  0
 20 40  1  0  0  0  0
 20 41  1  0  0  0  0
 21 42  1  0  0  0  0
 21 43  1  0  0  0  0
 22 44  1  0  0  0  0
M  END
> <s_m_source_file>
AV-unprocessed.smi

> <i_m_source_file_index>
1917

> <i_lp_mmshare_version>
43012

> <i_f3d_flags>
0

> <s_epik_input>
W0NIM11DKD1PKU4oW0NIM10pW0NIMl1DKD1PKVtOSF1bQ0gyXWMxW2NIXVtjSF1uYyhbY0hdMSlOMltDSDJdW0NIMl1PW0NIMl1bQ0gyXTI=

> <s_epik_cmdline>
J2VwaWtfcHl0aG9uJywgJy1waCcsICc3LjAnLCAnLXRuJywgJzgnLCAnLW1hJywgJzIwMCcsICctbWV0YWxfYmluZGluZycsICctaW1hZScsICc8aW5maWxlLm1hZT4nLCAnLW9tYWUnLCAnPG91dGZpbGUubWFlPic=

> <r_lp_tautomer_probability>
1

> <r_epik_Ionization_Penalty>
0.00469141

> <r_epik_Ionization_Penalty_Charging>
0

> <r_epik_Ionization_Penalty_Neutral>
0.00469141

> <r_epik_State_Penalty>
0.00339539

> <r_epik_Charging_Adjusted_Penalty>
0.00339539

> <i_epik_Tot_Q>
0

> <i_epik_Tot_abs_Q>
0

> <r_epik_Metal_State_Penalty>
-0

> <b_epik_Metal_Only>
0

> <s_lp_Force_Field>
OPLS_2005

> <r_lp_Energy>
17.0747

> <b_lp_Chiralities_Consistent>
1

> <s_lp_Variant>
AV-unprocessed.smi:1917-1

> <Gold.Version>
5.8.1

> <Gold.Id.Protein>
6NUR|6NUR_protein|mol2

> <Gold.PLP.Fitness>
50.6593

> <Gold.PLP.PLP>
-43.2036

> <Gold.PLP.part.hbond>
-3.8688

> <Gold.PLP.part.metal>
0.0000

> <Gold.PLP.part.buried>
-4.1584

> <Gold.PLP.part.nonpolar>
-35.7141

> <Gold.PLP.part.repulsive>
1.1816

> <Gold.PLP.ligand.clash>
0.0000

> <Gold.PLP.ligand.torsion>
1.0351

> <Gold.PLP.Chemscore.Hbond>
3.0000

> <Gold.PLP.Chemscore.CHOScore>
0.0000

> <Gold.PLP.Chemscore.Metal>
0.0000

> <Gold.Chemscore.Hbonds>
donor molecule, donor type, donor heavy atom, donor atom, acceptor molecule, acceptor atom, score
      L1  H     9    31       P1  7948  0.93
      P1  H  7997  8009       L1     3  0.64
      P1  H 10752 10764       L1     8  0.35

> <Gold.PLP.Chemscore.Internal.Correction>
0.5258

> <Gold.Rescore>
     Score         DG    S(hbond)    S(metal)    S(lipo)     H(rot)  DE(clash)    DE(int)     intcor
     13.05     -15.26       1.97        0.00      71.17       2.00       0.00       2.21       ----

> <Gold.Chemscore.Fitness>
13.0498

> <Gold.Chemscore.DG>
-15.2637

> <Gold.Chemscore.ZeroCoef>
-5.4800

> <Gold.Chemscore.Hbond>
1.9657

> <Gold.Chemscore.Metal>
0.0000

> <Gold.Chemscore.Lipo>
71.1695

> <Gold.Chemscore.Internal_Hbond>
0.0000

> <Gold.Chemscore.DEClash>
0.0004

> <Gold.Chemscore.DEInternal>
2.2135

> <Gold.Chemscore.Rot>
1.9956

> <Gold.Chemscore.Internal.Correction>
   9.000000E+99

> <Gold.Chemscore.Hbonds>
donor molecule, donor type, donor heavy atom, donor atom, acceptor molecule, acceptor atom, score
      L1  H     9    31       P1  7948  0.44
      P1  H  7997  8009       L1     3  0.63
      P1  H 10752 10764       L1     8  0.05

> <Gold.Chemscore.Hbond.Weighted>
-6.5655

> <Gold.Chemscore.Metal.Weighted>
-0.0000

> <Gold.Chemscore.Lipo.Weighted>
-8.3268

> <Gold.Chemscore.Internal_Hbond.Weighted>
0.0000

> <Gold.Chemscore.DEClash.Weighted>
0.0004

> <Gold.Chemscore.DEInternal.Weighted>
2.2135

> <Gold.Chemscore.Rot.Weighted>
5.1087

> <Gold.Chemscore.Internal.Correction.Weighted>
   9.000000E+99

> <Gold.Protein.RotatedTorsions>
[ 6907 6896 6895 6894 ] final  -54.92 input  -60.11 | X-H torsion
[ 7974 7965 7964 7962 ] final  163.47 input  175.53 | X-H torsion
[ 8008 7997 7996 7995 ] final -135.01 input   59.86 | X-H torsion
[ 10167 10162 10161 10158 ] final -176.37 input  -65.29 | X-H torsion
[ 10718 10713 10712 10709 ] final   17.54 input   66.30 | X-H torsion
[ 10763 10752 10751 10750 ] final  -32.72 input  -60.55 | X-H torsion
[ 11005 11000 10999 10996 ] final -112.86 input  -57.11 | X-H torsion

> <Gold.Protein.ActiveResidues>
 VAL166  LYS551  ARG553  GLY616  TRP617  ASP618  TYR619  PRO620  LYS621  CYS622 
 ASP623  PHE694  ASN695  SER759  ASP760  ASP761  ALA762  ILE779  LEU786  VAL792 
 PHE793  MET794  SER795  GLU796  ALA797  LYS798  CYS799  TRP800  GLU811  SER814 

> <Gold.Protein.RotatedAtoms>
  150.8296  134.7543  159.6841 H   0  0  0  0  0  0  0  0  0  0  0  0  # atno 6907 bound_to 6896
  152.4402  134.5603  159.9902 H   0  0  0  0  0  0  0  0  0  0  0  0  # atno 6908 bound_to 6896
  151.5767  133.3345  159.3036 H   0  0  0  0  0  0  0  0  0  0  0  0  # atno 6909 bound_to 6896
  144.7588  139.8188  143.6340 H   0  0  0  0  0  0  0  0  0  0  0  0  # atno 7974 bound_to 7965
  155.3716  140.0488  157.3045 H   0  0  0  0  0  0  0  0  0  0  0  0  # atno 8008 bound_to 7997
  154.5127  140.2197  155.9088 H   0  0  0  0  0  0  0  0  0  0  0  0  # atno 8009 bound_to 7997
  156.1601  140.3118  155.8798 H   0  0  0  0  0  0  0  0  0  0  0  0  # atno 8010 bound_to 7997
  139.5533  144.2053  152.1115 H   0  0  0  0  0  0  0  0  0  0  0  0  # atno 10167 bound_to 10162
  157.0836  130.6398  149.5832 H   0  0  0  0  0  0  0  0  0  0  0  0  # atno 10718 bound_to 10713
  153.8184  135.6876  153.4830 H   0  0  0  0  0  0  0  0  0  0  0  0  # atno 10763 bound_to 10752
  153.1584  135.4589  154.9736 H   0  0  0  0  0  0  0  0  0  0  0  0  # atno 10764 bound_to 10752
  154.7938  135.3311  154.7658 H   0  0  0  0  0  0  0  0  0  0  0  0  # atno 10765 bound_to 10752
  141.0649  133.9475  157.2597 H   0  0  0  0  0  0  0  0  0  0  0  0  # atno 11005 bound_to 11000
  146.1629  139.4749  142.9977 LP  0  0  0  0  0  0  0  0  0  0  0  0  # atno 17320 bound_to 7965
  145.6688  141.0222  143.1669 LP  0  0  0  0  0  0  0  0  0  0  0  0  # atno 17321 bound_to 7965
  140.1552  144.5077  150.6664 LP  0  0  0  0  0  0  0  0  0  0  0  0  # atno 17342 bound_to 10162
  140.6801  143.2322  151.5407 LP  0  0  0  0  0  0  0  0  0  0  0  0  # atno 17343 bound_to 10162
  155.9917  130.4972  150.7308 LP  0  0  0  0  0  0  0  0  0  0  0  0  # atno 17370 bound_to 10713
  157.4779  131.0899  151.0569 LP  0  0  0  0  0  0  0  0  0  0  0  0  # atno 17371 bound_to 10713
  139.9467  135.0183  156.8873 LP  0  0  0  0  0  0  0  0  0  0  0  0  # atno 17394 bound_to 11000
  140.5793  134.0368  155.7458 LP  0  0  0  0  0  0  0  0  0  0  0  0  # atno 17395 bound_to 11000

$$$$
