AV-unprocessed.smi:119|AV-procd|sdf|1133|dock2
  -GOLD-   2262018263D 1   1.00000     0.00000
 Structure written by MMmdl.
 51 54  0  0  0  0  0  0  0  0  1 V2000
  146.2784  134.8534  155.9039 C   0  0  0  0  0  0  0  0  0  0  0  0
  146.6040  135.4684  157.2713 C   0  0  2  0  0  0  0  0  0  0  0  0
  147.1720  136.8937  157.1136 C   0  0  0  0  0  0  0  0  0  0  0  0
  147.3027  137.6825  158.4298 C   0  0  0  0  0  0  0  0  0  0  0  0
  148.3732  137.1585  159.2839 N   0  0  0  0  0  0  0  0  0  0  0  0
  149.6652  137.5220  159.0803 C   0  0  0  0  0  0  0  0  0  0  0  0
  150.5929  137.0247  159.7224 O   0  0  0  0  0  0  0  0  0  0  0  0
  149.9959  138.5945  158.0163 C   0  0  0  0  0  0  0  0  0  0  0  0
  150.9355  139.6203  158.5188 N   0  0  0  0  0  0  0  0  0  0  0  0
  152.2590  139.2420  158.8536 C   0  0  0  0  0  0  0  0  0  0  0  0
  152.6420  138.0776  158.7320 O   0  0  0  0  0  0  0  0  0  0  0  0
  153.1139  140.3165  159.3461 C   0  0  0  0  0  0  0  0  0  0  0  0
  154.3950  140.0577  159.6593 F   0  0  0  0  0  0  0  0  0  0  0  0
  152.6395  141.5713  159.4902 C   0  0  0  0  0  0  0  0  0  0  0  0
  151.3349  141.9176  159.1989 N   0  0  0  0  0  0  0  0  0  0  0  0
  150.8935  143.3530  159.3670 C   0  0  2  0  0  0  0  0  0  0  0  0
  151.6120  144.3320  158.4184 C   0  0  0  0  0  0  0  0  0  0  0  0
  152.2740  145.3100  159.3751 C   0  0  0  0  0  0  0  0  0  0  0  0
  151.4574  145.1407  160.6516 C   0  0  0  0  0  0  0  0  0  0  0  0
  151.1662  143.7519  160.6750 O   0  0  0  0  0  0  0  0  0  0  0  0
  150.4557  140.9436  158.6737 C   0  0  0  0  0  0  0  0  0  0  0  0
  149.2995  141.2339  158.3610 O   0  0  0  0  0  0  0  0  0  0  0  0
  147.9973  136.1962  160.2553 C   0  0  0  0  0  0  0  0  0  0  0  0
  147.9552  136.5636  161.6181 C   0  0  0  0  0  0  0  0  0  0  0  0
  147.5928  135.6163  162.5944 C   0  0  0  0  0  0  0  0  0  0  0  0
  147.2712  134.2998  162.2130 C   0  0  0  0  0  0  0  0  0  0  0  0
  147.3092  133.9298  160.8548 C   0  0  0  0  0  0  0  0  0  0  0  0
  147.6654  134.8749  159.8723 C   0  0  0  0  0  0  0  0  0  0  0  0
  147.7264  134.3640  158.1804 S   0  0  0  0  0  0  0  0  0  0  0  0
  145.5577  135.4630  155.3581 H   0  0  0  0  0  0  0  0  0  0  0  0
  145.8486  133.8576  156.0144 H   0  0  0  0  0  0  0  0  0  0  0  0
  147.1737  134.7633  155.2880 H   0  0  0  0  0  0  0  0  0  0  0  0
  145.6753  135.5215  157.8407 H   0  0  0  0  0  0  0  0  0  0  0  0
  148.1321  136.8586  156.5967 H   0  0  0  0  0  0  0  0  0  0  0  0
  146.5066  137.4577  156.4591 H   0  0  0  0  0  0  0  0  0  0  0  0
  147.4742  138.7380  158.2124 H   0  0  0  0  0  0  0  0  0  0  0  0
  146.3552  137.6551  158.9702 H   0  0  0  0  0  0  0  0  0  0  0  0
  150.3791  138.0832  157.1325 H   0  0  0  0  0  0  0  0  0  0  0  0
  149.0971  139.1002  157.6618 H   0  0  0  0  0  0  0  0  0  0  0  0
  153.3153  142.3309  159.8554 H   0  0  0  0  0  0  0  0  0  0  0  0
  149.8143  143.3565  159.2080 H   0  0  0  0  0  0  0  0  0  0  0  0
  152.3230  143.8327  157.7591 H   0  0  0  0  0  0  0  0  0  0  0  0
  150.8631  144.8313  157.8030 H   0  0  0  0  0  0  0  0  0  0  0  0
  153.3098  145.0199  159.5541 H   0  0  0  0  0  0  0  0  0  0  0  0
  152.2716  146.3353  159.0043 H   0  0  0  0  0  0  0  0  0  0  0  0
  151.9999  145.4533  161.5441 H   0  0  0  0  0  0  0  0  0  0  0  0
  150.5267  145.7074  160.5961 H   0  0  0  0  0  0  0  0  0  0  0  0
  148.2036  137.5718  161.9167 H   0  0  0  0  0  0  0  0  0  0  0  0
  147.5635  135.8990  163.6364 H   0  0  0  0  0  0  0  0  0  0  0  0
  146.9966  133.5726  162.9626 H   0  0  0  0  0  0  0  0  0  0  0  0
  147.0640  132.9172  160.5692 H   0  0  0  0  0  0  0  0  0  0  0  0
  1  2  1  0  0  0  0
  1 30  1  0  0  0  0
  1 31  1  0  0  0  0
  1 32  1  0  0  0  0
  2 29  1  0  0  0  0
  2  3  1  0  0  0  0
  2 33  1  0  0  0  0
  3  4  1  0  0  0  0
  3 34  1  0  0  0  0
  3 35  1  0  0  0  0
  4  5  1  0  0  0  0
  4 36  1  0  0  0  0
  4 37  1  0  0  0  0
  5  6  1  0  0  0  0
  5 23  1  0  0  0  0
  6  7  2  0  0  0  0
  6  8  1  0  0  0  0
  8  9  1  0  0  0  0
  8 38  1  0  0  0  0
  8 39  1  0  0  0  0
  9 21  1  0  0  0  0
  9 10  1  0  0  0  0
 10 11  2  0  0  0  0
 10 12  1  0  0  0  0
 12 13  1  0  0  0  0
 12 14  2  0  0  0  0
 14 15  1  0  0  0  0
 14 40  1  0  0  0  0
 15 16  1  0  0  0  0
 15 21  1  0  0  0  0
 16 20  1  0  0  0  0
 16 17  1  0  0  0  0
 16 41  1  0  0  0  0
 17 18  1  0  0  0  0
 17 42  1  0  0  0  0
 17 43  1  0  0  0  0
 18 19  1  0  0  0  0
 18 44  1  0  0  0  0
 18 45  1  0  0  0  0
 19 20  1  0  0  0  0
 19 46  1  0  0  0  0
 19 47  1  0  0  0  0
 21 22  2  0  0  0  0
 23 28  2  0  0  0  0
 23 24  1  0  0  0  0
 24 25  2  0  0  0  0
 24 48  1  0  0  0  0
 25 26  1  0  0  0  0
 25 49  1  0  0  0  0
 26 27  2  0  0  0  0
 26 50  1  0  0  0  0
 27 28  1  0  0  0  0
 27 51  1  0  0  0  0
 28 29  1  0  0  0  0
M  END
> <s_m_source_file>
AV-unprocessed.smi

> <i_m_source_file_index>
119

> <i_lp_mmshare_version>
43012

> <i_f3d_flags>
0

> <s_epik_input>
W2NIXTFbY0hdW2NIXVtjSF1jKGMxMilTW0NASF0oW0NIM10pW0NIMl1bQ0gyXU4yQyg9TylbQ0gyXW4zYyg9TyljKEYpW2NIXW4oYzM9TylbQ0BASF00W0NIMl1bQ0gyXVtDSDJdTzQ=

> <s_epik_cmdline>
J2VwaWtfcHl0aG9uJywgJy1waCcsICc3LjAnLCAnLXRuJywgJzgnLCAnLW1hJywgJzIwMCcsICctbWV0YWxfYmluZGluZycsICctaW1hZScsICc8aW5maWxlLm1hZT4nLCAnLW9tYWUnLCAnPG91dGZpbGUubWFlPic=

> <r_lp_tautomer_probability>
1

> <r_epik_Ionization_Penalty>
1.68882e-06

> <r_epik_Ionization_Penalty_Charging>
3.67303e-09

> <r_epik_Ionization_Penalty_Neutral>
1.68515e-06

> <r_epik_State_Penalty>
-0

> <r_epik_Charging_Adjusted_Penalty>
3.67303e-09

> <i_epik_Tot_Q>
0

> <i_epik_Tot_abs_Q>
0

> <r_epik_Metal_State_Penalty>
-0

> <b_epik_Metal_Only>
0

> <s_epik_Chemistry_Notes>
This compound contains an acetal/aminal-like group ( X-CH(R)-Y where X, Y are N, S, or O) that may be acid/base labile, releasing an aldehyde.

> <s_lp_Force_Field>
OPLS_2005

> <r_lp_Energy>
42.8221

> <b_lp_Chiralities_Consistent>
1

> <s_lp_Variant>
AV-unprocessed.smi:119-1

> <Gold.Version>
5.8.1

> <Gold.Id.Protein>
6NUR|6NUR_protein|mol2

> <Gold.PLP.Fitness>
54.8333

> <Gold.PLP.PLP>
-52.3668

> <Gold.PLP.part.hbond>
-1.4759

> <Gold.PLP.part.metal>
0.0000

> <Gold.PLP.part.buried>
-5.6123

> <Gold.PLP.part.nonpolar>
-46.4609

> <Gold.PLP.part.repulsive>
0.1155

> <Gold.PLP.ligand.clash>
0.0000

> <Gold.PLP.ligand.torsion>
0.2822

> <Gold.PLP.Chemscore.Hbond>
1.0000

> <Gold.PLP.Chemscore.CHOScore>
0.0000

> <Gold.PLP.Chemscore.Metal>
0.0000

> <Gold.Chemscore.Hbonds>
donor molecule, donor type, donor heavy atom, donor atom, acceptor molecule, acceptor atom, score
      P1  H  6896  6908       L1     7  1.00

> <Gold.PLP.Chemscore.Internal.Correction>
0.0310

> <Gold.Rescore>
     Score         DG    S(hbond)    S(metal)    S(lipo)     H(rot)  DE(clash)    DE(int)     intcor
     15.62     -16.82       0.97        0.00     102.62       1.53       0.61       0.59       ----

> <Gold.Chemscore.Fitness>
15.6232

> <Gold.Chemscore.DG>
-16.8237

> <Gold.Chemscore.ZeroCoef>
-5.4800

> <Gold.Chemscore.Hbond>
0.9718

> <Gold.Chemscore.Metal>
0.0000

> <Gold.Chemscore.Lipo>
102.6154

> <Gold.Chemscore.Internal_Hbond>
0.0000

> <Gold.Chemscore.DEClash>
0.6120

> <Gold.Chemscore.DEInternal>
0.5885

> <Gold.Chemscore.Rot>
1.5266

> <Gold.Chemscore.Internal.Correction>
   9.000000E+99

> <Gold.Chemscore.Hbonds>
donor molecule, donor type, donor heavy atom, donor atom, acceptor molecule, acceptor atom, score
      P1  H  6896  6908       L1     7  0.94

> <Gold.Chemscore.Hbond.Weighted>
-3.2458

> <Gold.Chemscore.Metal.Weighted>
-0.0000

> <Gold.Chemscore.Lipo.Weighted>
-12.0060

> <Gold.Chemscore.Internal_Hbond.Weighted>
0.0000

> <Gold.Chemscore.DEClash.Weighted>
0.6120

> <Gold.Chemscore.DEInternal.Weighted>
0.5885

> <Gold.Chemscore.Rot.Weighted>
3.9081

> <Gold.Chemscore.Internal.Correction.Weighted>
   9.000000E+99

> <Gold.Protein.RotatedTorsions>
[ 6907 6896 6895 6894 ] final -135.83 input  -60.11 | X-H torsion
[ 7974 7965 7964 7962 ] final   93.37 input  175.53 | X-H torsion
[ 8008 7997 7996 7995 ] final  -51.40 input   59.86 | X-H torsion
[ 10167 10162 10161 10158 ] final  150.45 input  -65.29 | X-H torsion
[ 10718 10713 10712 10709 ] final -141.21 input   66.30 | X-H torsion
[ 10763 10752 10751 10750 ] final  -19.74 input  -60.55 | X-H torsion
[ 11005 11000 10999 10996 ] final  -49.41 input  -57.11 | X-H torsion

> <Gold.Protein.ActiveResidues>
 VAL166  LYS551  ARG553  GLY616  TRP617  ASP618  TYR619  PRO620  LYS621  CYS622 
 ASP623  PHE694  ASN695  SER759  ASP760  ASP761  ALA762  ILE779  LEU786  VAL792 
 PHE793  MET794  SER795  GLU796  ALA797  LYS798  CYS799  TRP800  GLU811  SER814 

> <Gold.Protein.RotatedAtoms>
  151.0027  133.6041  159.2692 H   0  0  0  0  0  0  0  0  0  0  0  0  # atno 6907 bound_to 6896
  151.3221  135.0820  159.9319 H   0  0  0  0  0  0  0  0  0  0  0  0  # atno 6908 bound_to 6896
  152.5278  133.9672  159.7799 H   0  0  0  0  0  0  0  0  0  0  0  0  # atno 6909 bound_to 6896
  145.4798  139.2279  143.2888 H   0  0  0  0  0  0  0  0  0  0  0  0  # atno 7974 bound_to 7965
  154.4082  140.1249  156.4822 H   0  0  0  0  0  0  0  0  0  0  0  0  # atno 8008 bound_to 7997
  155.7074  140.3494  155.4939 H   0  0  0  0  0  0  0  0  0  0  0  0  # atno 8009 bound_to 7997
  155.9331  140.1073  157.1106 H   0  0  0  0  0  0  0  0  0  0  0  0  # atno 8010 bound_to 7997
  139.4850  144.5521  151.7383 H   0  0  0  0  0  0  0  0  0  0  0  0  # atno 10167 bound_to 10162
  156.3314  130.7588  151.1707 H   0  0  0  0  0  0  0  0  0  0  0  0  # atno 10718 bound_to 10713
  153.6095  135.6996  153.5352 H   0  0  0  0  0  0  0  0  0  0  0  0  # atno 10763 bound_to 10752
  153.3029  135.4123  155.1268 H   0  0  0  0  0  0  0  0  0  0  0  0  # atno 10764 bound_to 10752
  154.8566  135.3653  154.5633 H   0  0  0  0  0  0  0  0  0  0  0  0  # atno 10765 bound_to 10752
  141.0757  133.6666  156.3581 H   0  0  0  0  0  0  0  0  0  0  0  0  # atno 11005 bound_to 11000
  146.2347  140.5584  142.8960 LP  0  0  0  0  0  0  0  0  0  0  0  0  # atno 17320 bound_to 7965
  144.7895  140.6004  143.6551 LP  0  0  0  0  0  0  0  0  0  0  0  0  # atno 17321 bound_to 7965
  140.5076  144.1074  150.5986 LP  0  0  0  0  0  0  0  0  0  0  0  0  # atno 17342 bound_to 10162
  140.3988  143.2714  151.9972 LP  0  0  0  0  0  0  0  0  0  0  0  0  # atno 17343 bound_to 10162
  157.7431  131.0480  150.4973 LP  0  0  0  0  0  0  0  0  0  0  0  0  # atno 17370 bound_to 10713
  156.5140  130.4146  149.6286 LP  0  0  0  0  0  0  0  0  0  0  0  0  # atno 17371 bound_to 10713
  140.5577  134.5965  157.5425 LP  0  0  0  0  0  0  0  0  0  0  0  0  # atno 17394 bound_to 11000
  139.9570  134.7518  156.0320 LP  0  0  0  0  0  0  0  0  0  0  0  0  # atno 17395 bound_to 11000

$$$$
