AV-unprocessed.smi:3275|AV-procd|sdf|12533|dock10
  -GOLD-   2272018453D 1   1.00000     0.00000
 Structure written by MMmdl.
 34 35  0  0  0  0  0  0  0  0  1 V2000
  146.3300  139.4721  152.0541 O   0  0  0  0  0  0  0  0  0  0  0  0
  147.2954  139.6176  153.0733 C   0  0  0  0  0  0  0  0  0  0  0  0
  147.3917  141.0874  153.4953 C   0  0  0  0  0  0  0  0  0  0  0  0
  148.7584  141.4100  153.7073 O   0  0  0  0  0  0  0  0  0  0  0  0
  149.3402  140.7895  154.8467 C   0  0  1  0  0  0  0  0  0  0  0  0
  150.2051  139.5772  154.4405 C   0  0  0  0  0  0  0  0  0  0  0  0
  150.9546  139.0202  155.6621 C   0  0  0  0  0  0  0  0  0  0  0  0
  151.7670  140.1213  156.3633 C   0  0  0  0  0  0  0  0  0  0  0  0
  150.9127  141.2592  156.6924 N   0  0  0  0  0  0  0  0  0  0  0  0
  151.4869  142.1510  157.6167 C   0  0  0  0  0  0  0  0  0  0  0  0
  151.6417  143.5270  157.3242 C   0  0  0  0  0  0  0  0  0  0  0  0
  152.2372  144.3659  158.2866 C   0  0  0  0  0  0  0  0  0  0  0  0
  152.6724  143.9280  159.4858 N   0  0  0  0  0  0  0  0  0  0  0  0
  152.5225  142.6168  159.7670 C   0  0  0  0  0  0  0  0  0  0  0  0
  151.9413  141.6903  158.8773 C   0  0  0  0  0  0  0  0  0  0  0  0
  151.7769  140.0378  159.3619 Cl  0  0  0  0  0  0  0  0  0  0  0  0
  150.2080  141.8458  155.5546 C   0  0  0  0  0  0  0  0  0  0  0  0
  145.5218  139.8643  152.3479 H   0  0  0  0  0  0  0  0  0  0  0  0
  147.0158  138.9929  153.9221 H   0  0  0  0  0  0  0  0  0  0  0  0
  148.2581  139.2607  152.7061 H   0  0  0  0  0  0  0  0  0  0  0  0
  146.9738  141.7268  152.7158 H   0  0  0  0  0  0  0  0  0  0  0  0
  146.8107  141.2502  154.4033 H   0  0  0  0  0  0  0  0  0  0  0  0
  148.5576  140.4710  155.5380 H   0  0  0  0  0  0  0  0  0  0  0  0
  149.5937  138.7897  154.0012 H   0  0  0  0  0  0  0  0  0  0  0  0
  150.9239  139.8782  153.6775 H   0  0  0  0  0  0  0  0  0  0  0  0
  150.2382  138.5940  156.3657 H   0  0  0  0  0  0  0  0  0  0  0  0
  151.6134  138.2061  155.3586 H   0  0  0  0  0  0  0  0  0  0  0  0
  152.2376  139.7174  157.2600 H   0  0  0  0  0  0  0  0  0  0  0  0
  152.5729  140.4620  155.7116 H   0  0  0  0  0  0  0  0  0  0  0  0
  151.3258  143.9446  156.3800 H   0  0  0  0  0  0  0  0  0  0  0  0
  152.3703  145.4185  158.0850 H   0  0  0  0  0  0  0  0  0  0  0  0
  152.8737  142.2963  160.7368 H   0  0  0  0  0  0  0  0  0  0  0  0
  150.9333  142.2528  154.8491 H   0  0  0  0  0  0  0  0  0  0  0  0
  149.5833  142.6740  155.8921 H   0  0  0  0  0  0  0  0  0  0  0  0
  1  2  1  0  0  0  0
  1 18  1  0  0  0  0
  2  3  1  0  0  0  0
  2 19  1  0  0  0  0
  2 20  1  0  0  0  0
  3  4  1  0  0  0  0
  3 21  1  0  0  0  0
  3 22  1  0  0  0  0
  4  5  1  0  0  0  0
  5 17  1  0  0  0  0
  5  6  1  0  0  0  0
  5 23  1  0  0  0  0
  6  7  1  0  0  0  0
  6 24  1  0  0  0  0
  6 25  1  0  0  0  0
  7  8  1  0  0  0  0
  7 26  1  0  0  0  0
  7 27  1  0  0  0  0
  8  9  1  0  0  0  0
  8 28  1  0  0  0  0
  8 29  1  0  0  0  0
  9 10  1  0  0  0  0
  9 17  1  0  0  0  0
 10 15  1  0  0  0  0
 10 11  2  0  0  0  0
 11 12  1  0  0  0  0
 11 30  1  0  0  0  0
 12 13  2  0  0  0  0
 12 31  1  0  0  0  0
 13 14  1  0  0  0  0
 14 15  2  0  0  0  0
 14 32  1  0  0  0  0
 15 16  1  0  0  0  0
 17 33  1  0  0  0  0
 17 34  1  0  0  0  0
M  END
> <s_m_source_file>
AV-unprocessed.smi

> <i_m_source_file_index>
3275

> <i_lp_mmshare_version>
43012

> <i_f3d_flags>
0

> <s_epik_input>
W09IXVtDSDJdW0NIMl1PW0NAQEhdMVtDSDJdW0NIMl1bQ0gyXU4oW0NIMl0xKWMyW2NIXVtjSF1uW2NIXWMyQ2w=

> <s_epik_cmdline>
J2VwaWtfcHl0aG9uJywgJy1waCcsICc3LjAnLCAnLXRuJywgJzgnLCAnLW1hJywgJzIwMCcsICctbWV0YWxfYmluZGluZycsICctaW1hZScsICc8aW5maWxlLm1hZT4nLCAnLW9tYWUnLCAnPG91dGZpbGUubWFlPic=

> <r_lp_tautomer_probability>
1

> <r_epik_Ionization_Penalty>
1.24095

> <r_epik_Ionization_Penalty_Charging>
0

> <r_epik_Ionization_Penalty_Neutral>
1.24095

> <r_epik_State_Penalty>
1.30987

> <r_epik_Charging_Adjusted_Penalty>
1.30987

> <i_epik_Tot_Q>
0

> <i_epik_Tot_abs_Q>
0

> <r_epik_Metal_State_Penalty>
0.00479332

> <b_epik_Metal_Only>
0

> <s_lp_Force_Field>
OPLS_2005

> <r_lp_Energy>
20.7809

> <b_lp_Chiralities_Consistent>
1

> <s_lp_Variant>
AV-unprocessed.smi:3275-4

> <Gold.Version>
5.8.1

> <Gold.Id.Protein>
6NUR|6NUR_protein|mol2

> <Gold.PLP.Fitness>
40.2058

> <Gold.PLP.PLP>
-37.1652

> <Gold.PLP.part.hbond>
-2.0000

> <Gold.PLP.part.metal>
0.0000

> <Gold.PLP.part.buried>
-2.8161

> <Gold.PLP.part.nonpolar>
-31.5173

> <Gold.PLP.part.repulsive>
0.2180

> <Gold.PLP.ligand.clash>
0.0061

> <Gold.PLP.ligand.torsion>
1.0754

> <Gold.PLP.Chemscore.Hbond>
1.6318

> <Gold.PLP.Chemscore.CHOScore>
0.0000

> <Gold.PLP.Chemscore.Metal>
0.0000

> <Gold.Chemscore.Hbonds>
donor molecule, donor type, donor heavy atom, donor atom, acceptor molecule, acceptor atom, score
      L1  H     1    18       P1 10175  1.00
      P1  H  8011  8017       L1     4  0.78

> <Gold.PLP.Chemscore.Internal.Correction>
0.3020

> <Gold.Rescore>
     Score         DG    S(hbond)    S(metal)    S(lipo)     H(rot)  DE(clash)    DE(int)     intcor
     16.05     -18.44       1.58        0.00     110.77       2.06       0.43       1.96       ----

> <Gold.Chemscore.Fitness>
16.0458

> <Gold.Chemscore.DG>
-18.4413

> <Gold.Chemscore.ZeroCoef>
-5.4800

> <Gold.Chemscore.Hbond>
1.5770

> <Gold.Chemscore.Metal>
0.0000

> <Gold.Chemscore.Lipo>
110.7709

> <Gold.Chemscore.Internal_Hbond>
0.0000

> <Gold.Chemscore.DEClash>
0.4307

> <Gold.Chemscore.DEInternal>
1.9648

> <Gold.Chemscore.Rot>
2.0570

> <Gold.Chemscore.Internal.Correction>
   9.000000E+99

> <Gold.Chemscore.Hbonds>
donor molecule, donor type, donor heavy atom, donor atom, acceptor molecule, acceptor atom, score
      L1  H     1    18       P1 10175  0.94
      P1  H  8011  8017       L1     4  0.73

> <Gold.Chemscore.Hbond.Weighted>
-5.2672

> <Gold.Chemscore.Metal.Weighted>
-0.0000

> <Gold.Chemscore.Lipo.Weighted>
-12.9602

> <Gold.Chemscore.Internal_Hbond.Weighted>
0.0000

> <Gold.Chemscore.DEClash.Weighted>
0.4307

> <Gold.Chemscore.DEInternal.Weighted>
1.9648

> <Gold.Chemscore.Rot.Weighted>
5.2660

> <Gold.Chemscore.Internal.Correction.Weighted>
   9.000000E+99

> <Gold.Protein.RotatedTorsions>
[ 6907 6896 6895 6894 ] final  -99.65 input  -60.11 | X-H torsion
[ 7974 7965 7964 7962 ] final   34.55 input  175.53 | X-H torsion
[ 8008 7997 7996 7995 ] final -100.73 input   59.86 | X-H torsion
[ 10167 10162 10161 10158 ] final   92.76 input  -65.29 | X-H torsion
[ 10718 10713 10712 10709 ] final   13.99 input   66.30 | X-H torsion
[ 10763 10752 10751 10750 ] final  -27.06 input  -60.55 | X-H torsion
[ 11005 11000 10999 10996 ] final  -80.86 input  -57.11 | X-H torsion

> <Gold.Protein.ActiveResidues>
 VAL166  LYS551  ARG553  GLY616  TRP617  ASP618  TYR619  PRO620  LYS621  CYS622 
 ASP623  PHE694  ASN695  SER759  ASP760  ASP761  ALA762  ILE779  LEU786  VAL792 
 PHE793  MET794  SER795  GLU796  ALA797  LYS798  CYS799  TRP800  GLU811  SER814 

> <Gold.Protein.RotatedAtoms>
  150.7087  134.1008  159.3964 H   0  0  0  0  0  0  0  0  0  0  0  0  # atno 6907 bound_to 6896
  151.8994  135.0382  160.0514 H   0  0  0  0  0  0  0  0  0  0  0  0  # atno 6908 bound_to 6896
  152.2427  133.5113  159.5316 H   0  0  0  0  0  0  0  0  0  0  0  0  # atno 6909 bound_to 6896
  146.1345  139.6255  142.9204 H   0  0  0  0  0  0  0  0  0  0  0  0  # atno 7974 bound_to 7965
  154.8327  140.0439  157.1487 H   0  0  0  0  0  0  0  0  0  0  0  0  # atno 8008 bound_to 7997
  154.9135  140.3017  155.5233 H   0  0  0  0  0  0  0  0  0  0  0  0  # atno 8009 bound_to 7997
  156.2988  140.2354  156.4177 H   0  0  0  0  0  0  0  0  0  0  0  0  # atno 8010 bound_to 7997
  139.8246  144.6716  150.9476 H   0  0  0  0  0  0  0  0  0  0  0  0  # atno 10167 bound_to 10162
  157.0326  130.6199  149.5738 H   0  0  0  0  0  0  0  0  0  0  0  0  # atno 10718 bound_to 10713
  153.7260  135.6942  153.5001 H   0  0  0  0  0  0  0  0  0  0  0  0  # atno 10763 bound_to 10752
  153.2170  135.4383  155.0444 H   0  0  0  0  0  0  0  0  0  0  0  0  # atno 10764 bound_to 10752
  154.8269  135.3451  154.6792 H   0  0  0  0  0  0  0  0  0  0  0  0  # atno 10765 bound_to 10752
  141.1667  133.7169  156.8336 H   0  0  0  0  0  0  0  0  0  0  0  0  # atno 11005 bound_to 11000
  145.5186  141.0433  143.2448 LP  0  0  0  0  0  0  0  0  0  0  0  0  # atno 17320 bound_to 7965
  144.7725  139.6702  143.7188 LP  0  0  0  0  0  0  0  0  0  0  0  0  # atno 17321 bound_to 7965
  140.7811  143.4059  151.1072 LP  0  0  0  0  0  0  0  0  0  0  0  0  # atno 17342 bound_to 10162
  139.7717  143.8484  152.3121 LP  0  0  0  0  0  0  0  0  0  0  0  0  # atno 17343 bound_to 10162
  156.0064  130.5151  150.7845 LP  0  0  0  0  0  0  0  0  0  0  0  0  # atno 17370 bound_to 10713
  157.5166  131.0929  151.0132 LP  0  0  0  0  0  0  0  0  0  0  0  0  # atno 17371 bound_to 10713
  140.2033  134.8881  157.3194 LP  0  0  0  0  0  0  0  0  0  0  0  0  # atno 17394 bound_to 11000
  140.2164  134.4076  155.7587 LP  0  0  0  0  0  0  0  0  0  0  0  0  # atno 17395 bound_to 11000

$$$$
