AV-unprocessed.smi:3118|AV-procd|sdf|11887|dock4
  -GOLD-   2272017273D 1   1.00000     0.00000
 Structure written by MMmdl.
 33 34  0  0  0  0  0  0  0  0  2 V2000
  149.4690  140.7087  157.6029 C   0  0  0  0  0  0  0  0  0  0  0  0
  150.9827  140.8321  157.3442 C   0  0  1  0  0  0  0  0  0  0  0  0
  151.3520  140.7367  155.8504 C   0  0  0  0  0  0  0  0  0  0  0  0
  151.1022  139.4074  155.2835 N   0  0  0  0  0  0  0  0  0  0  0  0
  151.5862  138.2082  155.7394 C   0  0  0  0  0  0  0  0  0  0  0  0
  151.0899  137.2425  154.9020 C   0  0  0  0  0  0  0  0  0  0  0  0
  150.3289  137.8932  153.9680 N   0  3  0  0  0  0  0  0  0  0  0  0
  150.3399  139.2099  154.1996 C   0  0  0  0  0  0  0  0  0  0  0  0
  151.4847  142.0940  157.8813 N   0  0  0  0  0  0  0  0  0  0  0  0
  152.3587  142.2156  158.8928 C   0  0  0  0  0  0  0  0  0  0  0  0
  152.8514  141.2497  159.4768 O   0  0  0  0  0  0  0  0  0  0  0  0
  152.7235  143.6501  159.2978 C   0  0  0  0  0  0  0  0  0  0  0  0
  152.1447  144.1145  160.6469 C   0  0  0  0  0  0  0  0  0  0  0  0
  151.7632  145.4393  159.9798 C   0  0  0  0  0  0  0  0  0  0  0  0
  151.8614  144.7320  158.6252 C   0  0  0  0  0  0  0  0  0  0  0  0
  149.0848  139.7416  157.2784 H   0  0  0  0  0  0  0  0  0  0  0  0
  148.9130  141.4839  157.0746 H   0  0  0  0  0  0  0  0  0  0  0  0
  149.2395  140.8019  158.6648 H   0  0  0  0  0  0  0  0  0  0  0  0
  151.4834  140.0113  157.8615 H   0  0  0  0  0  0  0  0  0  0  0  0
  150.7905  141.4690  155.2676 H   0  0  0  0  0  0  0  0  0  0  0  0
  152.4101  140.9594  155.7037 H   0  0  0  0  0  0  0  0  0  0  0  0
  152.2286  138.1334  156.6051 H   0  0  0  0  0  0  0  0  0  0  0  0
  151.2182  136.1699  154.9007 H   0  0  0  0  0  0  0  0  0  0  0  0
  149.8283  139.9633  153.6272 H   0  0  0  0  0  0  0  0  0  0  0  0
  151.1341  142.9417  157.4591 H   0  0  0  0  0  0  0  0  0  0  0  0
  153.7902  143.8682  159.2160 H   0  0  0  0  0  0  0  0  0  0  0  0
  151.2743  143.5502  160.9861 H   0  0  0  0  0  0  0  0  0  0  0  0
  152.8840  144.2174  161.4417 H   0  0  0  0  0  0  0  0  0  0  0  0
  150.7671  145.8052  160.2306 H   0  0  0  0  0  0  0  0  0  0  0  0
  152.5233  146.2112  160.1094 H   0  0  0  0  0  0  0  0  0  0  0  0
  152.3805  145.3100  157.8599 H   0  0  0  0  0  0  0  0  0  0  0  0
  150.8946  144.3745  158.2655 H   0  0  0  0  0  0  0  0  0  0  0  0
  149.8286  137.4448  153.2105 H   0  0  0  0  0  0  0  0  0  0  0  0
  1  2  1  0  0  0  0
  1 16  1  0  0  0  0
  1 17  1  0  0  0  0
  1 18  1  0  0  0  0
  2  3  1  0  0  0  0
  2  9  1  0  0  0  0
  2 19  1  0  0  0  0
  3  4  1  0  0  0  0
  3 20  1  0  0  0  0
  3 21  1  0  0  0  0
  4  8  1  0  0  0  0
  4  5  1  0  0  0  0
  5  6  2  0  0  0  0
  5 22  1  0  0  0  0
  6  7  1  0  0  0  0
  6 23  1  0  0  0  0
  7  8  2  0  0  0  0
  7 33  1  0  0  0  0
  8 24  1  0  0  0  0
  9 10  1  0  0  0  0
  9 25  1  0  0  0  0
 10 11  2  0  0  0  0
 10 12  1  0  0  0  0
 12 15  1  0  0  0  0
 12 13  1  0  0  0  0
 12 26  1  0  0  0  0
 13 14  1  0  0  0  0
 13 27  1  0  0  0  0
 13 28  1  0  0  0  0
 14 15  1  0  0  0  0
 14 29  1  0  0  0  0
 14 30  1  0  0  0  0
 15 31  1  0  0  0  0
 15 32  1  0  0  0  0
M  CHG  1   7   1
M  END
> <s_m_source_file>
AV-unprocessed.smi

> <i_m_source_file_index>
3118

> <i_lp_mmshare_version>
43012

> <i_f3d_flags>
0

> <s_epik_input>
W0NIMl0xW0NIMl1bQ0gyXVtDSF0xQyg9TylbTkhdW0NASF0oW0NIM10pW0NIMl1uMltjSF1bY0hdbltjSF0y

> <s_epik_cmdline>
J2VwaWtfcHl0aG9uJywgJy1waCcsICc3LjAnLCAnLXRuJywgJzgnLCAnLW1hJywgJzIwMCcsICctbWV0YWxfYmluZGluZycsICctaW1hZScsICc8aW5maWxlLm1hZT4nLCAnLW9tYWUnLCAnPG91dGZpbGUubWFlPic=

> <r_lp_tautomer_probability>
1

> <r_epik_Ionization_Penalty>
0.244425

> <r_epik_Ionization_Penalty_Charging>
0

> <r_epik_Ionization_Penalty_Neutral>
0.244425

> <r_epik_State_Penalty>
0.23553

> <r_epik_Charging_Adjusted_Penalty>
0.23553

> <i_epik_Tot_Q>
1

> <i_epik_Tot_abs_Q>
1

> <r_epik_Metal_State_Penalty>
0.5288

> <b_epik_Metal_Only>
0

> <s_lp_Force_Field>
OPLS_2005

> <r_lp_Energy>
14.8718

> <b_lp_Chiralities_Consistent>
1

> <s_lp_Variant>
AV-unprocessed.smi:3118-2

> <Gold.Version>
5.8.1

> <Gold.Id.Protein>
6NUR|6NUR_protein|mol2

> <Gold.PLP.Fitness>
45.5865

> <Gold.PLP.PLP>
-36.7908

> <Gold.PLP.part.hbond>
-1.4580

> <Gold.PLP.part.metal>
0.0000

> <Gold.PLP.part.buried>
-4.2221

> <Gold.PLP.part.nonpolar>
-31.4391

> <Gold.PLP.part.repulsive>
0.1352

> <Gold.PLP.ligand.clash>
0.0000

> <Gold.PLP.ligand.torsion>
0.2796

> <Gold.PLP.Chemscore.Hbond>
2.0000

> <Gold.PLP.Chemscore.CHOScore>
0.9795

> <Gold.PLP.Chemscore.Metal>
0.0000

> <Gold.Chemscore.Hbonds>
donor molecule, donor type, donor heavy atom, donor atom, acceptor molecule, acceptor atom, score
      L1  H     7    33       P1  7948  2.00
      L1  C     8    24       P1  7957  0.92

> <Gold.PLP.Chemscore.Internal.Correction>
0.4164

> <Gold.Rescore>
     Score         DG    S(hbond)    S(metal)    S(lipo)     H(rot)  DE(clash)    DE(int)     intcor
     12.78     -13.05       0.93        0.00      78.59       1.86       0.03       0.23       ----

> <Gold.Chemscore.Fitness>
12.7819

> <Gold.Chemscore.DG>
-13.0452

> <Gold.Chemscore.ZeroCoef>
-5.4800

> <Gold.Chemscore.Hbond>
0.9345

> <Gold.Chemscore.Metal>
0.0000

> <Gold.Chemscore.Lipo>
78.5938

> <Gold.Chemscore.Internal_Hbond>
0.0000

> <Gold.Chemscore.DEClash>
0.0314

> <Gold.Chemscore.DEInternal>
0.2319

> <Gold.Chemscore.Rot>
1.8561

> <Gold.Chemscore.Internal.Correction>
   9.000000E+99

> <Gold.Chemscore.Hbonds>
donor molecule, donor type, donor heavy atom, donor atom, acceptor molecule, acceptor atom, score
      L1  H     7    33       P1  7948  0.49

> <Gold.Chemscore.Hbond.Weighted>
-3.1213

> <Gold.Chemscore.Metal.Weighted>
-0.0000

> <Gold.Chemscore.Lipo.Weighted>
-9.1955

> <Gold.Chemscore.Internal_Hbond.Weighted>
0.0000

> <Gold.Chemscore.DEClash.Weighted>
0.0314

> <Gold.Chemscore.DEInternal.Weighted>
0.2319

> <Gold.Chemscore.Rot.Weighted>
4.7516

> <Gold.Chemscore.Internal.Correction.Weighted>
   9.000000E+99

> <Gold.Protein.RotatedTorsions>
[ 6907 6896 6895 6894 ] final   -8.13 input  -60.11 | X-H torsion
[ 7974 7965 7964 7962 ] final -177.65 input  175.53 | X-H torsion
[ 8008 7997 7996 7995 ] final -118.29 input   59.86 | X-H torsion
[ 10167 10162 10161 10158 ] final  147.52 input  -65.29 | X-H torsion
[ 10718 10713 10712 10709 ] final  116.90 input   66.30 | X-H torsion
[ 10763 10752 10751 10750 ] final  166.22 input  -60.55 | X-H torsion
[ 11005 11000 10999 10996 ] final   57.44 input  -57.11 | X-H torsion

> <Gold.Protein.ActiveResidues>
 VAL166  LYS551  ARG553  GLY616  TRP617  ASP618  TYR619  PRO620  LYS621  CYS622 
 ASP623  PHE694  ASN695  SER759  ASP760  ASP761  ALA762  ILE779  LEU786  VAL792 
 PHE793  MET794  SER795  GLU796  ALA797  LYS798  CYS799  TRP800  GLU811  SER814 

> <Gold.Protein.RotatedAtoms>
  151.4386  135.1018  159.9663 H   0  0  0  0  0  0  0  0  0  0  0  0  # atno 6907 bound_to 6896
  152.4930  133.8550  159.7231 H   0  0  0  0  0  0  0  0  0  0  0  0  # atno 6908 bound_to 6896
  150.9104  133.6946  159.2884 H   0  0  0  0  0  0  0  0  0  0  0  0  # atno 6909 bound_to 6896
  144.7128  140.0988  143.6417 H   0  0  0  0  0  0  0  0  0  0  0  0  # atno 7974 bound_to 7965
  155.0973  140.0395  157.2686 H   0  0  0  0  0  0  0  0  0  0  0  0  # atno 8008 bound_to 7997
  154.6785  140.2628  155.6907 H   0  0  0  0  0  0  0  0  0  0  0  0  # atno 8009 bound_to 7997
  156.2686  140.2783  156.1321 H   0  0  0  0  0  0  0  0  0  0  0  0  # atno 8010 bound_to 7997
  139.4889  144.5749  151.6984 H   0  0  0  0  0  0  0  0  0  0  0  0  # atno 10167 bound_to 10162
  157.6131  131.1031  150.7539 H   0  0  0  0  0  0  0  0  0  0  0  0  # atno 10718 bound_to 10713
  154.3357  135.2754  155.2449 H   0  0  0  0  0  0  0  0  0  0  0  0  # atno 10763 bound_to 10752
  154.4741  135.5875  153.6346 H   0  0  0  0  0  0  0  0  0  0  0  0  # atno 10764 bound_to 10752
  152.9862  135.6095  154.3553 H   0  0  0  0  0  0  0  0  0  0  0  0  # atno 10765 bound_to 10752
  140.0452  134.5815  155.9331 H   0  0  0  0  0  0  0  0  0  0  0  0  # atno 11005 bound_to 11000
  145.9556  139.2764  143.1186 LP  0  0  0  0  0  0  0  0  0  0  0  0  # atno 17320 bound_to 7965
  145.9276  140.9071  143.0373 LP  0  0  0  0  0  0  0  0  0  0  0  0  # atno 17321 bound_to 7965
  140.5343  144.0680  150.6065 LP  0  0  0  0  0  0  0  0  0  0  0  0  # atno 17342 bound_to 10162
  140.3681  143.2870  152.0309 LP  0  0  0  0  0  0  0  0  0  0  0  0  # atno 17343 bound_to 10162
  156.7912  130.4891  149.5384 LP  0  0  0  0  0  0  0  0  0  0  0  0  # atno 17370 bound_to 10713
  156.1241  130.6131  151.0237 LP  0  0  0  0  0  0  0  0  0  0  0  0  # atno 17371 bound_to 10713
  141.1903  133.6568  156.5408 LP  0  0  0  0  0  0  0  0  0  0  0  0  # atno 17394 bound_to 11000
  140.4004  134.7361  157.4776 LP  0  0  0  0  0  0  0  0  0  0  0  0  # atno 17395 bound_to 11000

$$$$
