AV-unprocessed.smi:1071|AV-procd|sdf|4680|dock5
  -GOLD-   22720 3193D 1   1.00000     0.00000
 Structure written by MMmdl.
 47 48  0  0  0  0  0  0  0  0  2 V2000
  137.8015  140.7999  152.9713 C   0  0  0  0  0  0  0  0  0  0  0  0
  138.2051  140.6359  154.3193 O   0  0  0  0  0  0  0  0  0  0  0  0
  138.4112  139.2759  154.6628 C   0  0  0  0  0  0  0  0  0  0  0  0
  139.7278  138.7984  154.0435 C   0  0  0  0  0  0  0  0  0  0  0  0
  139.8926  137.4127  154.3300 O   0  0  0  0  0  0  0  0  0  0  0  0
  141.0363  136.7803  153.8871 C   0  0  0  0  0  0  0  0  0  0  0  0
  141.9354  137.5027  153.0776 C   0  0  0  0  0  0  0  0  0  0  0  0
  143.1033  136.8625  152.6226 C   0  0  0  0  0  0  0  0  0  0  0  0
  143.3449  135.5258  152.9982 C   0  0  0  0  0  0  0  0  0  0  0  0
  144.5196  134.8932  152.5106 N   0  0  0  0  0  0  0  0  0  0  0  0
  145.3422  134.0476  153.1607 C   0  0  0  0  0  0  0  0  0  0  0  0
  145.3020  133.8560  154.3755 O   0  0  0  0  0  0  0  0  0  0  0  0
  146.3235  133.5601  152.3632 N   0  0  0  0  0  0  0  0  0  0  0  0
  146.0054  133.1220  150.9960 C   0  0  0  0  0  0  0  0  0  0  0  0
  145.6607  131.6185  151.0138 C   0  0  0  0  0  0  0  0  0  0  0  0
  146.7531  130.8155  151.6233 N   0  3  2  0  0  0  0  0  0  0  0  0
  146.4351  129.3728  151.6720 C   0  0  0  0  0  0  0  0  0  0  0  0
  147.2120  131.3410  152.9360 C   0  0  0  0  0  0  0  0  0  0  0  0
  147.5227  132.8500  152.8509 C   0  0  2  0  0  0  0  0  0  0  0  0
  148.1292  133.4075  154.1560 C   0  0  0  0  0  0  0  0  0  0  0  0
  142.3756  134.8821  153.8052 C   0  0  0  0  0  0  0  0  0  0  0  0
  141.2518  135.4893  154.2409 N   0  0  0  0  0  0  0  0  0  0  0  0
  137.6477  141.8584  152.7614 H   0  0  0  0  0  0  0  0  0  0  0  0
  136.8643  140.2780  152.7733 H   0  0  0  0  0  0  0  0  0  0  0  0
  138.5623  140.4272  152.2843 H   0  0  0  0  0  0  0  0  0  0  0  0
  138.4489  139.1668  155.7478 H   0  0  0  0  0  0  0  0  0  0  0  0
  137.5839  138.6655  154.2972 H   0  0  0  0  0  0  0  0  0  0  0  0
  139.7083  138.9664  152.9654 H   0  0  0  0  0  0  0  0  0  0  0  0
  140.5579  139.3709  154.4607 H   0  0  0  0  0  0  0  0  0  0  0  0
  141.7319  138.5288  152.8092 H   0  0  0  0  0  0  0  0  0  0  0  0
  143.8041  137.3956  151.9966 H   0  0  0  0  0  0  0  0  0  0  0  0
  144.7654  135.1087  151.5554 H   0  0  0  0  0  0  0  0  0  0  0  0
  145.1787  133.6790  150.5527 H   0  0  0  0  0  0  0  0  0  0  0  0
  146.8619  133.3045  150.3451 H   0  0  0  0  0  0  0  0  0  0  0  0
  144.7389  131.4576  151.5758 H   0  0  0  0  0  0  0  0  0  0  0  0
  145.4763  131.2691  149.9973 H   0  0  0  0  0  0  0  0  0  0  0  0
  145.5832  129.1817  152.3261 H   0  0  0  0  0  0  0  0  0  0  0  0
  147.2870  128.8029  152.0442 H   0  0  0  0  0  0  0  0  0  0  0  0
  146.1937  128.9982  150.6767 H   0  0  0  0  0  0  0  0  0  0  0  0
  146.4463  131.1562  153.6913 H   0  0  0  0  0  0  0  0  0  0  0  0
  148.1031  130.7945  153.2474 H   0  0  0  0  0  0  0  0  0  0  0  0
  148.2979  132.9871  152.0948 H   0  0  0  0  0  0  0  0  0  0  0  0
  149.1123  132.9715  154.3355 H   0  0  0  0  0  0  0  0  0  0  0  0
  147.5220  133.1814  155.0321 H   0  0  0  0  0  0  0  0  0  0  0  0
  148.2591  134.4888  154.1016 H   0  0  0  0  0  0  0  0  0  0  0  0
  142.4745  133.8487  154.0996 H   0  0  0  0  0  0  0  0  0  0  0  0
  147.5427  130.9107  151.0006 H   0  0  0  0  0  0  0  0  0  0  0  0
  1  2  1  0  0  0  0
  1 23  1  0  0  0  0
  1 24  1  0  0  0  0
  1 25  1  0  0  0  0
  2  3  1  0  0  0  0
  3  4  1  0  0  0  0
  3 26  1  0  0  0  0
  3 27  1  0  0  0  0
  4  5  1  0  0  0  0
  4 28  1  0  0  0  0
  4 29  1  0  0  0  0
  5  6  1  0  0  0  0
  6 22  1  0  0  0  0
  6  7  2  0  0  0  0
  7  8  1  0  0  0  0
  7 30  1  0  0  0  0
  8  9  2  0  0  0  0
  8 31  1  0  0  0  0
  9 10  1  0  0  0  0
  9 21  1  0  0  0  0
 10 11  1  0  0  0  0
 10 32  1  0  0  0  0
 11 12  2  0  0  0  0
 11 13  1  0  0  0  0
 13 19  1  0  0  0  0
 13 14  1  0  0  0  0
 14 15  1  0  0  0  0
 14 33  1  0  0  0  0
 14 34  1  0  0  0  0
 15 16  1  0  0  0  0
 15 35  1  0  0  0  0
 15 36  1  0  0  0  0
 16 17  1  0  0  0  0
 16 18  1  0  0  0  0
 16 47  1  0  0  0  0
 17 37  1  0  0  0  0
 17 38  1  0  0  0  0
 17 39  1  0  0  0  0
 18 19  1  0  0  0  0
 18 40  1  0  0  0  0
 18 41  1  0  0  0  0
 19 20  1  0  0  0  0
 19 42  1  0  0  0  0
 20 43  1  0  0  0  0
 20 44  1  0  0  0  0
 20 45  1  0  0  0  0
 21 22  2  0  0  0  0
 21 46  1  0  0  0  0
M  CHG  1  16   1
M  END
> <s_m_source_file>
AV-unprocessed.smi

> <i_m_source_file_index>
1071

> <i_lp_mmshare_version>
43012

> <i_f3d_flags>
0

> <s_epik_input>
W0NIM11PW0NIMl1bQ0gyXU9jMVtjSF1bY0hdYyhbY0hdbjEpW05IXUMoPU8pTjJbQ0gyXVtDSDJdTihbQ0gzXSlbQ0gyXVtDQEhdMltDSDNd

> <s_epik_cmdline>
J2VwaWtfcHl0aG9uJywgJy1waCcsICc3LjAnLCAnLXRuJywgJzgnLCAnLW1hJywgJzIwMCcsICctbWV0YWxfYmluZGluZycsICctaW1hZScsICc8aW5maWxlLm1hZT4nLCAnLW9tYWUnLCAnPG91dGZpbGUubWFlPic=

> <r_lp_tautomer_probability>
1

> <r_epik_Ionization_Penalty>
0.25455

> <r_epik_Ionization_Penalty_Charging>
0.254506

> <r_epik_Ionization_Penalty_Neutral>
4.43365e-05

> <r_epik_State_Penalty>
0.245983

> <r_epik_Charging_Adjusted_Penalty>
0.500488

> <i_epik_Tot_Q>
1

> <i_epik_Tot_abs_Q>
1

> <r_epik_Metal_State_Penalty>
0.245987

> <b_epik_Metal_Only>
0

> <s_lp_Force_Field>
OPLS_2005

> <r_lp_Energy>
54.7367

> <b_lp_Chiralities_Consistent>
1

> <s_lp_Variant>
AV-unprocessed.smi:1071-4

> <Gold.Version>
5.8.1

> <Gold.Id.Protein>
6NUR|6NUR_protein|mol2

> <Gold.PLP.Fitness>
40.9957

> <Gold.PLP.PLP>
-34.2418

> <Gold.PLP.part.hbond>
-2.0000

> <Gold.PLP.part.metal>
0.0000

> <Gold.PLP.part.buried>
-6.4138

> <Gold.PLP.part.nonpolar>
-26.3156

> <Gold.PLP.part.repulsive>
0.3235

> <Gold.PLP.ligand.clash>
0.5122

> <Gold.PLP.ligand.torsion>
0.7205

> <Gold.PLP.Chemscore.Hbond>
1.6890

> <Gold.PLP.Chemscore.CHOScore>
1.0000

> <Gold.PLP.Chemscore.Metal>
0.0000

> <Gold.Chemscore.Hbonds>
donor molecule, donor type, donor heavy atom, donor atom, acceptor molecule, acceptor atom, score
      L1  H    16    47       P1 10747  1.00
      P1  H 11000 11005       L1    22  0.69
      L1  C    21    46       P1 10957  1.00

> <Gold.PLP.Chemscore.Internal.Correction>
0.6401

> <Gold.Rescore>
     Score         DG    S(hbond)    S(metal)    S(lipo)     H(rot)  DE(clash)    DE(int)     intcor
     14.63     -16.62       1.73        0.00      80.88       1.60       0.10       1.89       ----

> <Gold.Chemscore.Fitness>
14.6341

> <Gold.Chemscore.DG>
-16.6225

> <Gold.Chemscore.ZeroCoef>
-5.4800

> <Gold.Chemscore.Hbond>
1.7326

> <Gold.Chemscore.Metal>
0.0000

> <Gold.Chemscore.Lipo>
80.8825

> <Gold.Chemscore.Internal_Hbond>
0.0000

> <Gold.Chemscore.DEClash>
0.0997

> <Gold.Chemscore.DEInternal>
1.8888

> <Gold.Chemscore.Rot>
1.6045

> <Gold.Chemscore.Internal.Correction>
   9.000000E+99

> <Gold.Chemscore.Hbonds>
donor molecule, donor type, donor heavy atom, donor atom, acceptor molecule, acceptor atom, score
      L1  H    16    47       P1 10747  0.99
      P1  H 11000 11005       L1    22  0.52

> <Gold.Chemscore.Hbond.Weighted>
-5.7868

> <Gold.Chemscore.Metal.Weighted>
-0.0000

> <Gold.Chemscore.Lipo.Weighted>
-9.4633

> <Gold.Chemscore.Internal_Hbond.Weighted>
0.0000

> <Gold.Chemscore.DEClash.Weighted>
0.0997

> <Gold.Chemscore.DEInternal.Weighted>
1.8888

> <Gold.Chemscore.Rot.Weighted>
4.1075

> <Gold.Chemscore.Internal.Correction.Weighted>
   9.000000E+99

> <Gold.Protein.RotatedTorsions>
[ 6907 6896 6895 6894 ] final  124.48 input  -60.11 | X-H torsion
[ 7974 7965 7964 7962 ] final -129.17 input  175.53 | X-H torsion
[ 8008 7997 7996 7995 ] final  -11.68 input   59.86 | X-H torsion
[ 10167 10162 10161 10158 ] final  117.26 input  -65.29 | X-H torsion
[ 10718 10713 10712 10709 ] final    1.01 input   66.30 | X-H torsion
[ 10763 10752 10751 10750 ] final  -82.07 input  -60.55 | X-H torsion
[ 11005 11000 10999 10996 ] final   31.43 input  -57.11 | X-H torsion

> <Gold.Protein.ActiveResidues>
 VAL166  LYS551  ARG553  GLY616  TRP617  ASP618  TYR619  PRO620  LYS621  CYS622 
 ASP623  PHE694  ASN695  SER759  ASP760  ASP761  ALA762  ILE779  LEU786  VAL792 
 PHE793  MET794  SER795  GLU796  ALA797  LYS798  CYS799  TRP800  GLU811  SER814 

> <Gold.Protein.RotatedAtoms>
  152.4074  133.6911  159.6368 H   0  0  0  0  0  0  0  0  0  0  0  0  # atno 6907 bound_to 6896
  150.7958  133.8684  159.3260 H   0  0  0  0  0  0  0  0  0  0  0  0  # atno 6908 bound_to 6896
  151.6435  135.1012  160.0197 H   0  0  0  0  0  0  0  0  0  0  0  0  # atno 6909 bound_to 6896
  144.9598  140.7435  143.4736 H   0  0  0  0  0  0  0  0  0  0  0  0  # atno 7974 bound_to 7965
  154.5443  140.2296  155.8589 H   0  0  0  0  0  0  0  0  0  0  0  0  # atno 8008 bound_to 7997
  156.1888  140.3082  155.9253 H   0  0  0  0  0  0  0  0  0  0  0  0  # atno 8009 bound_to 7997
  155.3195  140.0440  157.3029 H   0  0  0  0  0  0  0  0  0  0  0  0  # atno 8010 bound_to 7997
  139.6191  144.7097  151.2675 H   0  0  0  0  0  0  0  0  0  0  0  0  # atno 10167 bound_to 10162
  156.8419  130.5524  149.5677 H   0  0  0  0  0  0  0  0  0  0  0  0  # atno 10718 bound_to 10713
  154.5713  135.5604  153.7098 H   0  0  0  0  0  0  0  0  0  0  0  0  # atno 10763 bound_to 10752
  153.0049  135.6297  154.2110 H   0  0  0  0  0  0  0  0  0  0  0  0  # atno 10764 bound_to 10752
  154.2050  135.2876  155.2958 H   0  0  0  0  0  0  0  0  0  0  0  0  # atno 10765 bound_to 10752
  140.2840  134.2940  155.7793 H   0  0  0  0  0  0  0  0  0  0  0  0  # atno 11005 bound_to 11000
  145.2716  139.1952  143.4838 LP  0  0  0  0  0  0  0  0  0  0  0  0  # atno 17320 bound_to 7965
  146.3349  140.2664  142.8604 LP  0  0  0  0  0  0  0  0  0  0  0  0  # atno 17321 bound_to 7965
  140.7370  143.6691  150.8097 LP  0  0  0  0  0  0  0  0  0  0  0  0  # atno 17342 bound_to 10162
  140.0298  143.5455  152.2765 LP  0  0  0  0  0  0  0  0  0  0  0  0  # atno 17343 bound_to 10162
  156.0876  130.5870  150.9676 LP  0  0  0  0  0  0  0  0  0  0  0  0  # atno 17370 bound_to 10713
  157.6351  131.0917  150.8364 LP  0  0  0  0  0  0  0  0  0  0  0  0  # atno 17371 bound_to 10713
  141.2158  133.7543  156.9524 LP  0  0  0  0  0  0  0  0  0  0  0  0  # atno 17394 bound_to 11000
  140.1257  134.9388  157.2266 LP  0  0  0  0  0  0  0  0  0  0  0  0  # atno 17395 bound_to 11000

$$$$
