AV-unprocessed.smi:1352|AV-procd|sdf|5530|dock2
  -GOLD-   22720 5123D 1   1.00000     0.00000
 Structure written by MMmdl.
 47 48  0  0  0  0  0  0  0  0  2 V2000
  154.0783  141.0600  161.3175 C   0  0  0  0  0  0  0  0  0  0  0  0
  153.5195  141.5010  159.9573 C   0  0  2  0  0  0  0  0  0  0  0  0
  153.0357  142.9601  159.9953 C   0  0  0  0  0  0  0  0  0  0  0  0
  152.4619  143.3763  158.6307 C   0  0  2  0  0  0  0  0  0  0  0  0
  151.9536  144.8248  158.6544 C   0  0  0  0  0  0  0  0  0  0  0  0
  151.3542  142.3967  158.1973 C   0  0  0  0  0  0  0  0  0  0  0  0
  151.8495  140.9961  158.1646 N   0  3  2  0  0  0  0  0  0  0  0  0
  150.8393  140.0575  157.6137 C   0  0  0  0  0  0  0  0  0  0  0  0
  151.1342  138.5916  157.9869 C   0  0  0  0  0  0  0  0  0  0  0  0
  149.9069  137.8185  158.1355 N   0  0  0  0  0  0  0  0  0  0  0  0
  149.6012  137.0578  159.1976 C   0  0  0  0  0  0  0  0  0  0  0  0
  150.3551  136.9170  160.1616 O   0  0  0  0  0  0  0  0  0  0  0  0
  148.2474  136.3356  159.1414 C   0  0  0  0  0  0  0  0  0  0  0  0
  147.9829  135.4968  160.3225 N   0  0  0  0  0  0  0  0  0  0  0  0
  147.9564  134.1016  160.1262 C   0  0  0  0  0  0  0  0  0  0  0  0
  147.7249  133.2469  161.1352 C   0  0  0  0  0  0  0  0  0  0  0  0
  147.4973  133.7917  162.4526 C   0  0  0  0  0  0  0  0  0  0  0  0
  147.5238  135.1246  162.6521 C   0  0  0  0  0  0  0  0  0  0  0  0
  147.7801  136.0624  161.5527 C   0  0  0  0  0  0  0  0  0  0  0  0
  147.8114  137.2812  161.7259 O   0  0  0  0  0  0  0  0  0  0  0  0
  152.3810  140.5747  159.4882 C   0  0  0  0  0  0  0  0  0  0  0  0
  153.3132  141.1026  162.0935 H   0  0  0  0  0  0  0  0  0  0  0  0
  154.9044  141.7003  161.6290 H   0  0  0  0  0  0  0  0  0  0  0  0
  154.4536  140.0371  161.2757 H   0  0  0  0  0  0  0  0  0  0  0  0
  154.3318  141.4325  159.2318 H   0  0  0  0  0  0  0  0  0  0  0  0
  152.2751  143.0780  160.7688 H   0  0  0  0  0  0  0  0  0  0  0  0
  153.8612  143.6189  160.2680 H   0  0  0  0  0  0  0  0  0  0  0  0
  153.2661  143.3232  157.8951 H   0  0  0  0  0  0  0  0  0  0  0  0
  151.1407  144.9489  159.3707 H   0  0  0  0  0  0  0  0  0  0  0  0
  151.5829  145.1279  157.6746 H   0  0  0  0  0  0  0  0  0  0  0  0
  152.7500  145.5161  158.9322 H   0  0  0  0  0  0  0  0  0  0  0  0
  150.4997  142.4641  158.8729 H   0  0  0  0  0  0  0  0  0  0  0  0
  150.9970  142.6793  157.2060 H   0  0  0  0  0  0  0  0  0  0  0  0
  149.8412  140.3500  157.9434 H   0  0  0  0  0  0  0  0  0  0  0  0
  150.8376  140.1389  156.5258 H   0  0  0  0  0  0  0  0  0  0  0  0
  151.7768  138.1282  157.2361 H   0  0  0  0  0  0  0  0  0  0  0  0
  151.6698  138.5297  158.9334 H   0  0  0  0  0  0  0  0  0  0  0  0
  149.2335  137.8773  157.3847 H   0  0  0  0  0  0  0  0  0  0  0  0
  147.4492  137.0708  159.0200 H   0  0  0  0  0  0  0  0  0  0  0  0
  148.2207  135.7343  158.2313 H   0  0  0  0  0  0  0  0  0  0  0  0
  148.1420  133.7747  159.1133 H   0  0  0  0  0  0  0  0  0  0  0  0
  147.7121  132.1799  160.9666 H   0  0  0  0  0  0  0  0  0  0  0  0
  147.3061  133.1270  163.2824 H   0  0  0  0  0  0  0  0  0  0  0  0
  147.3522  135.5141  163.6448 H   0  0  0  0  0  0  0  0  0  0  0  0
  152.7580  139.5541  159.4324 H   0  0  0  0  0  0  0  0  0  0  0  0
  151.5711  140.5707  160.2199 H   0  0  0  0  0  0  0  0  0  0  0  0
  152.6256  140.9902  157.5181 H   0  0  0  0  0  0  0  0  0  0  0  0
  1  2  1  0  0  0  0
  1 22  1  0  0  0  0
  1 23  1  0  0  0  0
  1 24  1  0  0  0  0
  2 21  1  0  0  0  0
  2  3  1  0  0  0  0
  2 25  1  0  0  0  0
  3  4  1  0  0  0  0
  3 26  1  0  0  0  0
  3 27  1  0  0  0  0
  4  5  1  0  0  0  0
  4  6  1  0  0  0  0
  4 28  1  0  0  0  0
  5 29  1  0  0  0  0
  5 30  1  0  0  0  0
  5 31  1  0  0  0  0
  6  7  1  0  0  0  0
  6 32  1  0  0  0  0
  6 33  1  0  0  0  0
  7  8  1  0  0  0  0
  7 21  1  0  0  0  0
  7 47  1  0  0  0  0
  8  9  1  0  0  0  0
  8 34  1  0  0  0  0
  8 35  1  0  0  0  0
  9 10  1  0  0  0  0
  9 36  1  0  0  0  0
  9 37  1  0  0  0  0
 10 11  1  0  0  0  0
 10 38  1  0  0  0  0
 11 12  2  0  0  0  0
 11 13  1  0  0  0  0
 13 14  1  0  0  0  0
 13 39  1  0  0  0  0
 13 40  1  0  0  0  0
 14 19  1  0  0  0  0
 14 15  1  0  0  0  0
 15 16  2  0  0  0  0
 15 41  1  0  0  0  0
 16 17  1  0  0  0  0
 16 42  1  0  0  0  0
 17 18  2  0  0  0  0
 17 43  1  0  0  0  0
 18 19  1  0  0  0  0
 18 44  1  0  0  0  0
 19 20  2  0  0  0  0
 21 45  1  0  0  0  0
 21 46  1  0  0  0  0
M  CHG  1   7   1
M  END
> <s_m_source_file>
AV-unprocessed.smi

> <i_m_source_file_index>
1352

> <i_lp_mmshare_version>
43012

> <i_f3d_flags>
0

> <s_epik_input>
W0NIM11bQ0BASF0xW0NIMl1bQ0BASF0oW0NIM10pW0NIMl1OKFtDSDJdMSlbQ0gyXVtDSDJdW05IXUMoPU8pW0NIMl1uMltjSF1bY0hdW2NIXVtjSF1jMj1P

> <s_epik_cmdline>
J2VwaWtfcHl0aG9uJywgJy1waCcsICc3LjAnLCAnLXRuJywgJzgnLCAnLW1hJywgJzIwMCcsICctbWV0YWxfYmluZGluZycsICctaW1hZScsICc8aW5maWxlLm1hZT4nLCAnLW9tYWUnLCAnPG91dGZpbGUubWFlPic=

> <r_lp_tautomer_probability>
1

> <r_epik_Ionization_Penalty>
0.00156146

> <r_epik_Ionization_Penalty_Charging>
0.00156138

> <r_epik_Ionization_Penalty_Neutral>
8.12891e-08

> <r_epik_State_Penalty>
0.00104868

> <r_epik_Charging_Adjusted_Penalty>
0.00261006

> <i_epik_Tot_Q>
1

> <i_epik_Tot_abs_Q>
1

> <r_epik_Metal_State_Penalty>
-0

> <b_epik_Metal_Only>
0

> <s_lp_Force_Field>
OPLS_2005

> <r_lp_Energy>
25.1883

> <b_lp_Chiralities_Consistent>
1

> <s_lp_Variant>
AV-unprocessed.smi:1352-3

> <Gold.Version>
5.8.1

> <Gold.Id.Protein>
6NUR|6NUR_protein|mol2

> <Gold.PLP.Fitness>
55.4052

> <Gold.PLP.PLP>
-48.2606

> <Gold.PLP.part.hbond>
-3.8644

> <Gold.PLP.part.metal>
0.0000

> <Gold.PLP.part.buried>
-4.3913

> <Gold.PLP.part.nonpolar>
-40.6950

> <Gold.PLP.part.repulsive>
0.1901

> <Gold.PLP.ligand.clash>
0.0000

> <Gold.PLP.ligand.torsion>
0.5335

> <Gold.PLP.Chemscore.Hbond>
2.7280

> <Gold.PLP.Chemscore.CHOScore>
0.0000

> <Gold.PLP.Chemscore.Metal>
0.0000

> <Gold.Chemscore.Hbonds>
donor molecule, donor type, donor heavy atom, donor atom, acceptor molecule, acceptor atom, score
      P1  H  6896  6909       L1    12  1.00
      P1  H  6931  6943       L1    20  1.00
      P1  H  6934  6947       L1    20  0.64

> <Gold.PLP.Chemscore.Internal.Correction>
0.0276

> <Gold.Rescore>
     Score         DG    S(hbond)    S(metal)    S(lipo)     H(rot)  DE(clash)    DE(int)     intcor
     22.43     -22.96       2.76        0.00     110.80       1.83       0.03       0.50       ----

> <Gold.Chemscore.Fitness>
22.4261

> <Gold.Chemscore.DG>
-22.9552

> <Gold.Chemscore.ZeroCoef>
-5.4800

> <Gold.Chemscore.Hbond>
2.7556

> <Gold.Chemscore.Metal>
0.0000

> <Gold.Chemscore.Lipo>
110.8016

> <Gold.Chemscore.Internal_Hbond>
0.0000

> <Gold.Chemscore.DEClash>
0.0282

> <Gold.Chemscore.DEInternal>
0.5008

> <Gold.Chemscore.Rot>
1.8329

> <Gold.Chemscore.Internal.Correction>
   9.000000E+99

> <Gold.Chemscore.Hbonds>
donor molecule, donor type, donor heavy atom, donor atom, acceptor molecule, acceptor atom, score
      P1  H  6896  6909       L1    12  0.28
      P1  H  6931  6943       L1    20  0.92
      P1  H  6934  6947       L1    20  0.61

> <Gold.Chemscore.Hbond.Weighted>
-9.2036

> <Gold.Chemscore.Metal.Weighted>
-0.0000

> <Gold.Chemscore.Lipo.Weighted>
-12.9638

> <Gold.Chemscore.Internal_Hbond.Weighted>
0.0000

> <Gold.Chemscore.DEClash.Weighted>
0.0282

> <Gold.Chemscore.DEInternal.Weighted>
0.5008

> <Gold.Chemscore.Rot.Weighted>
4.6922

> <Gold.Chemscore.Internal.Correction.Weighted>
   9.000000E+99

> <Gold.Protein.RotatedTorsions>
[ 6907 6896 6895 6894 ] final   85.86 input  -60.11 | X-H torsion
[ 7974 7965 7964 7962 ] final  -55.90 input  175.53 | X-H torsion
[ 8008 7997 7996 7995 ] final  174.09 input   59.86 | X-H torsion
[ 10167 10162 10161 10158 ] final  -85.34 input  -65.29 | X-H torsion
[ 10718 10713 10712 10709 ] final -138.47 input   66.30 | X-H torsion
[ 10763 10752 10751 10750 ] final  145.19 input  -60.55 | X-H torsion
[ 11005 11000 10999 10996 ] final  -80.17 input  -57.11 | X-H torsion

> <Gold.Protein.ActiveResidues>
 VAL166  LYS551  ARG553  GLY616  TRP617  ASP618  TYR619  PRO620  LYS621  CYS622 
 ASP623  PHE694  ASN695  SER759  ASP760  ASP761  ALA762  ILE779  LEU786  VAL792 
 PHE793  MET794  SER795  GLU796  ALA797  LYS798  CYS799  TRP800  GLU811  SER814 

> <Gold.Protein.RotatedAtoms>
  152.5383  134.2521  159.8902 H   0  0  0  0  0  0  0  0  0  0  0  0  # atno 6907 bound_to 6896
  151.2484  133.4356  159.2618 H   0  0  0  0  0  0  0  0  0  0  0  0  # atno 6908 bound_to 6896
  151.0562  134.9720  159.8293 H   0  0  0  0  0  0  0  0  0  0  0  0  # atno 6909 bound_to 6896
  145.8688  140.8231  142.9899 H   0  0  0  0  0  0  0  0  0  0  0  0  # atno 7974 bound_to 7965
  156.1010  140.1443  156.9468 H   0  0  0  0  0  0  0  0  0  0  0  0  # atno 8008 bound_to 7997
  154.4702  140.0912  156.7170 H   0  0  0  0  0  0  0  0  0  0  0  0  # atno 8009 bound_to 7997
  155.4761  140.3443  155.4335 H   0  0  0  0  0  0  0  0  0  0  0  0  # atno 8010 bound_to 7997
  140.4047  143.2648  151.9096 H   0  0  0  0  0  0  0  0  0  0  0  0  # atno 10167 bound_to 10162
  156.2998  130.7422  151.1470 H   0  0  0  0  0  0  0  0  0  0  0  0  # atno 10718 bound_to 10713
  154.0012  135.2923  155.3402 H   0  0  0  0  0  0  0  0  0  0  0  0  # atno 10763 bound_to 10752
  154.7158  135.5130  153.8739 H   0  0  0  0  0  0  0  0  0  0  0  0  # atno 10764 bound_to 10752
  153.0765  135.6665  154.0254 H   0  0  0  0  0  0  0  0  0  0  0  0  # atno 10765 bound_to 10752
  141.1668  133.7138  156.8232 H   0  0  0  0  0  0  0  0  0  0  0  0  # atno 11005 bound_to 11000
  144.6726  140.1207  143.7450 LP  0  0  0  0  0  0  0  0  0  0  0  0  # atno 17320 bound_to 7965
  145.9161  139.2517  143.1409 LP  0  0  0  0  0  0  0  0  0  0  0  0  # atno 17321 bound_to 7965
  139.4784  144.5598  151.8257 LP  0  0  0  0  0  0  0  0  0  0  0  0  # atno 17342 bound_to 10162
  140.4702  144.1597  150.5917 LP  0  0  0  0  0  0  0  0  0  0  0  0  # atno 17343 bound_to 10162
  157.7365  131.0562  150.5411 LP  0  0  0  0  0  0  0  0  0  0  0  0  # atno 17370 bound_to 10713
  156.5537  130.4238  149.6095 LP  0  0  0  0  0  0  0  0  0  0  0  0  # atno 17371 bound_to 10713
  140.2104  134.8832  157.3268 LP  0  0  0  0  0  0  0  0  0  0  0  0  # atno 17394 bound_to 11000
  140.2093  134.4158  155.7621 LP  0  0  0  0  0  0  0  0  0  0  0  0  # atno 17395 bound_to 11000

$$$$
