AV-unprocessed.smi:2252|AV-procd|sdf|9109|dock7
  -GOLD-   2272012313D 1   1.00000     0.00000
 Structure written by MMmdl.
 45 47  0  0  0  0  0  0  0  0  4 V2000
  152.3395  142.4423  160.1649 C   0  0  0  0  0  0  0  0  0  0  0  0
  151.6880  143.4970  159.3842 N   0  0  0  0  0  0  0  0  0  0  0  0
  151.8481  144.8488  159.5511 C   0  0  0  0  0  0  0  0  0  0  0  0
  151.0527  145.4580  158.6167 C   0  0  0  0  0  0  0  0  0  0  0  0
  150.4404  144.4543  157.9173 N   0  3  0  0  0  0  0  0  0  0  0  0
  150.8272  143.2569  158.3780 C   0  0  0  0  0  0  0  0  0  0  0  0
  150.3628  141.9285  157.8489 C   0  0  0  0  0  0  0  0  0  0  0  0
  150.8000  141.6410  156.3997 C   0  0  0  0  0  0  0  0  0  0  0  0
  149.7332  140.9325  155.7008 N   0  5  0  0  0  0  0  0  0  0  0  0
  149.4283  139.6222  155.9076 C   0  0  0  0  0  0  0  0  0  0  0  0
  149.4168  138.9574  156.9495 O   0  0  0  0  0  0  0  0  0  0  0  0
  149.0544  138.9181  154.5896 C   0  0  2  0  0  0  0  0  0  0  0  0
  147.6065  139.3009  154.2122 C   0  0  0  0  0  0  0  0  0  0  0  0
  147.1111  139.1952  152.7862 C   0  0  0  0  0  0  0  0  0  0  0  0
  147.3229  140.5516  153.4078 C   0  0  0  0  0  0  0  0  0  0  0  0
  149.2183  137.4424  154.7015 N   0  3  0  0  0  0  0  0  0  0  0  0
  150.5493  136.9847  155.1644 C   0  0  0  0  0  0  0  0  0  0  0  0
  150.3370  135.6461  155.8874 C   0  0  0  0  0  0  0  0  0  0  0  0
  148.8331  135.3820  155.8224 C   0  0  0  0  0  0  0  0  0  0  0  0
  148.2289  136.7570  155.5601 C   0  0  0  0  0  0  0  0  0  0  0  0
  153.0020  142.8916  160.9052 H   0  0  0  0  0  0  0  0  0  0  0  0
  152.9236  141.8060  159.4995 H   0  0  0  0  0  0  0  0  0  0  0  0
  151.5806  141.8480  160.6745 H   0  0  0  0  0  0  0  0  0  0  0  0
  152.5000  145.2671  160.3045 H   0  0  0  0  0  0  0  0  0  0  0  0
  150.8805  146.5026  158.4022 H   0  0  0  0  0  0  0  0  0  0  0  0
  150.7316  141.1591  158.5276 H   0  0  0  0  0  0  0  0  0  0  0  0
  149.2746  141.9260  157.9284 H   0  0  0  0  0  0  0  0  0  0  0  0
  151.0382  142.5834  155.9059 H   0  0  0  0  0  0  0  0  0  0  0  0
  151.7323  141.0750  156.4255 H   0  0  0  0  0  0  0  0  0  0  0  0
  149.7149  139.2540  153.7861 H   0  0  0  0  0  0  0  0  0  0  0  0
  146.8782  139.0796  154.9907 H   0  0  0  0  0  0  0  0  0  0  0  0
  147.8189  138.8818  152.0216 H   0  0  0  0  0  0  0  0  0  0  0  0
  146.0854  138.8656  152.6348 H   0  0  0  0  0  0  0  0  0  0  0  0
  146.4395  141.1283  153.6737 H   0  0  0  0  0  0  0  0  0  0  0  0
  148.1735  141.1348  153.0602 H   0  0  0  0  0  0  0  0  0  0  0  0
  151.2333  136.8899  154.3206 H   0  0  0  0  0  0  0  0  0  0  0  0
  150.9778  137.7052  155.8628 H   0  0  0  0  0  0  0  0  0  0  0  0
  150.9044  134.8371  155.4260 H   0  0  0  0  0  0  0  0  0  0  0  0
  150.6638  135.7268  156.9247 H   0  0  0  0  0  0  0  0  0  0  0  0
  148.6124  134.7200  154.9839 H   0  0  0  0  0  0  0  0  0  0  0  0
  148.4442  134.9156  156.7281 H   0  0  0  0  0  0  0  0  0  0  0  0
  148.1181  137.3007  156.4999 H   0  0  0  0  0  0  0  0  0  0  0  0
  147.2480  136.6892  155.0888 H   0  0  0  0  0  0  0  0  0  0  0  0
  149.0930  137.0635  153.7738 H   0  0  0  0  0  0  0  0  0  0  0  0
  149.7904  144.5917  157.1535 H   0  0  0  0  0  0  0  0  0  0  0  0
  1  2  1  0  0  0  0
  1 21  1  0  0  0  0
  1 22  1  0  0  0  0
  1 23  1  0  0  0  0
  2  6  1  0  0  0  0
  2  3  1  0  0  0  0
  3  4  2  0  0  0  0
  3 24  1  0  0  0  0
  4  5  1  0  0  0  0
  4 25  1  0  0  0  0
  5  6  2  0  0  0  0
  5 45  1  0  0  0  0
  6  7  1  0  0  0  0
  7  8  1  0  0  0  0
  7 26  1  0  0  0  0
  7 27  1  0  0  0  0
  8  9  1  0  0  0  0
  8 28  1  0  0  0  0
  8 29  1  0  0  0  0
  9 10  1  0  0  0  0
 10 11  2  0  0  0  0
 10 12  1  0  0  0  0
 12 13  1  0  0  0  0
 12 16  1  0  0  0  0
 12 30  1  0  0  0  0
 13 15  1  0  0  0  0
 13 14  1  0  0  0  0
 13 31  1  0  0  0  0
 14 15  1  0  0  0  0
 14 32  1  0  0  0  0
 14 33  1  0  0  0  0
 15 34  1  0  0  0  0
 15 35  1  0  0  0  0
 16 20  1  0  0  0  0
 16 17  1  0  0  0  0
 16 44  1  0  0  0  0
 17 18  1  0  0  0  0
 17 36  1  0  0  0  0
 17 37  1  0  0  0  0
 18 19  1  0  0  0  0
 18 38  1  0  0  0  0
 18 39  1  0  0  0  0
 19 20  1  0  0  0  0
 19 40  1  0  0  0  0
 19 41  1  0  0  0  0
 20 42  1  0  0  0  0
 20 43  1  0  0  0  0
M  CHG  1   5   1
M  CHG  1   9  -1
M  CHG  1  16   1
M  END
> <s_m_source_file>
AV-unprocessed.smi

> <i_m_source_file_index>
2252

> <i_lp_mmshare_version>
43012

> <i_f3d_flags>
0

> <s_epik_input>
W0NIM11uMVtjSF1bY0hdbmMxW0NIMl1bQ0gyXVtOSF1DKD1PKVtDQEhdKFtDSF0yW0NIMl1bQ0gyXTIpTjNbQ0gyXVtDSDJdW0NIMl1bQ0gyXTM=

> <s_epik_cmdline>
J2VwaWtfcHl0aG9uJywgJy1waCcsICc3LjAnLCAnLXRuJywgJzgnLCAnLW1hJywgJzIwMCcsICctbWV0YWxfYmluZGluZycsICctaW1hZScsICc8aW5maWxlLm1hZT4nLCAnLW9tYWUnLCAnPG91dGZpbGUubWFlPic=

> <r_lp_tautomer_probability>
1

> <r_epik_Ionization_Penalty>
5.88052

> <r_epik_Ionization_Penalty_Charging>
5.85424

> <r_epik_Ionization_Penalty_Neutral>
0.026272

> <r_epik_State_Penalty>
5.94961

> <r_epik_Charging_Adjusted_Penalty>
11.8039

> <i_epik_Tot_Q>
1

> <i_epik_Tot_abs_Q>
3

> <r_epik_Metal_State_Penalty>
2.20001

> <b_epik_Metal_Only>
1

> <s_lp_Force_Field>
OPLS_2005

> <r_lp_Energy>
29.4432

> <b_lp_Chiralities_Consistent>
1

> <s_lp_Variant>
AV-unprocessed.smi:2252-7

> <Gold.Version>
5.8.1

> <Gold.Id.Protein>
6NUR|6NUR_protein|mol2

> <Gold.PLP.Fitness>
49.4716

> <Gold.PLP.PLP>
-39.8516

> <Gold.PLP.part.hbond>
-2.1667

> <Gold.PLP.part.metal>
0.0000

> <Gold.PLP.part.buried>
-4.6822

> <Gold.PLP.part.nonpolar>
-32.9719

> <Gold.PLP.part.repulsive>
0.1468

> <Gold.PLP.ligand.clash>
0.0000

> <Gold.PLP.ligand.torsion>
1.8052

> <Gold.PLP.Chemscore.Hbond>
4.0000

> <Gold.PLP.Chemscore.CHOScore>
0.0000

> <Gold.PLP.Chemscore.Metal>
0.0000

> <Gold.Chemscore.Hbonds>
donor molecule, donor type, donor heavy atom, donor atom, acceptor molecule, acceptor atom, score
      L1  H     5    45       P1  8028  1.80
      L1  H    16    44       P1  7948  1.79

> <Gold.PLP.Chemscore.Internal.Correction>
1.2304

> <Gold.Rescore>
     Score         DG    S(hbond)    S(metal)    S(lipo)     H(rot)  DE(clash)    DE(int)     intcor
     13.07     -17.59       1.83        0.00      94.73       1.98       0.06       4.45       ----

> <Gold.Chemscore.Fitness>
13.0742

> <Gold.Chemscore.DG>
-17.5892

> <Gold.Chemscore.ZeroCoef>
-5.4800

> <Gold.Chemscore.Hbond>
1.8253

> <Gold.Chemscore.Metal>
0.0000

> <Gold.Chemscore.Lipo>
94.7338

> <Gold.Chemscore.Internal_Hbond>
0.0000

> <Gold.Chemscore.DEClash>
0.0639

> <Gold.Chemscore.DEInternal>
4.4511

> <Gold.Chemscore.Rot>
1.9809

> <Gold.Chemscore.Internal.Correction>
   9.000000E+99

> <Gold.Chemscore.Hbonds>
donor molecule, donor type, donor heavy atom, donor atom, acceptor molecule, acceptor atom, score
      L1  H     5    45       P1  8028  0.18
      L1  H    16    44       P1  7948  0.87

> <Gold.Chemscore.Hbond.Weighted>
-6.0965

> <Gold.Chemscore.Metal.Weighted>
-0.0000

> <Gold.Chemscore.Lipo.Weighted>
-11.0839

> <Gold.Chemscore.Internal_Hbond.Weighted>
0.0000

> <Gold.Chemscore.DEClash.Weighted>
0.0639

> <Gold.Chemscore.DEInternal.Weighted>
4.4511

> <Gold.Chemscore.Rot.Weighted>
5.0711

> <Gold.Chemscore.Internal.Correction.Weighted>
   9.000000E+99

> <Gold.Protein.RotatedTorsions>
[ 6907 6896 6895 6894 ] final  -91.94 input  -60.11 | X-H torsion
[ 7974 7965 7964 7962 ] final  -79.10 input  175.53 | X-H torsion
[ 8008 7997 7996 7995 ] final  -50.64 input   59.86 | X-H torsion
[ 10167 10162 10161 10158 ] final -157.69 input  -65.29 | X-H torsion
[ 10718 10713 10712 10709 ] final   32.66 input   66.30 | X-H torsion
[ 10763 10752 10751 10750 ] final -141.57 input  -60.55 | X-H torsion
[ 11005 11000 10999 10996 ] final  -15.80 input  -57.11 | X-H torsion

> <Gold.Protein.ActiveResidues>
 VAL166  LYS551  ARG553  GLY616  TRP617  ASP618  TYR619  PRO620  LYS621  CYS622 
 ASP623  PHE694  ASN695  SER759  ASP760  ASP761  ALA762  ILE779  LEU786  VAL792 
 PHE793  MET794  SER795  GLU796  ALA797  LYS798  CYS799  TRP800  GLU811  SER814 

> <Gold.Protein.RotatedAtoms>
  150.6899  134.2200  159.4392 H   0  0  0  0  0  0  0  0  0  0  0  0  # atno 6907 bound_to 6896
  152.0157  134.9849  160.0578 H   0  0  0  0  0  0  0  0  0  0  0  0  # atno 6908 bound_to 6896
  152.1446  133.4450  159.4820 H   0  0  0  0  0  0  0  0  0  0  0  0  # atno 6909 bound_to 6896
  145.5776  140.9454  143.1361 H   0  0  0  0  0  0  0  0  0  0  0  0  # atno 7974 bound_to 7965
  154.4066  140.1267  156.4699 H   0  0  0  0  0  0  0  0  0  0  0  0  # atno 8008 bound_to 7997
  155.7190  140.3493  155.4987 H   0  0  0  0  0  0  0  0  0  0  0  0  # atno 8009 bound_to 7997
  155.9232  140.1056  157.1181 H   0  0  0  0  0  0  0  0  0  0  0  0  # atno 8010 bound_to 7997
  139.6751  143.9678  152.2305 H   0  0  0  0  0  0  0  0  0  0  0  0  # atno 10167 bound_to 10162
  157.2880  130.7288  149.6594 H   0  0  0  0  0  0  0  0  0  0  0  0  # atno 10718 bound_to 10713
  154.8540  135.3520  154.5889 H   0  0  0  0  0  0  0  0  0  0  0  0  # atno 10763 bound_to 10752
  153.6499  135.6994  153.5217 H   0  0  0  0  0  0  0  0  0  0  0  0  # atno 10764 bound_to 10752
  153.2902  135.4237  155.1118 H   0  0  0  0  0  0  0  0  0  0  0  0  # atno 10765 bound_to 10752
  140.8003  133.8219  155.9464 H   0  0  0  0  0  0  0  0  0  0  0  0  # atno 11005 bound_to 11000
  144.7408  139.7453  143.7311 LP  0  0  0  0  0  0  0  0  0  0  0  0  # atno 17320 bound_to 7965
  146.1739  139.4901  142.9910 LP  0  0  0  0  0  0  0  0  0  0  0  0  # atno 17321 bound_to 7965
  139.9453  144.6655  150.8225 LP  0  0  0  0  0  0  0  0  0  0  0  0  # atno 17342 bound_to 10162
  140.7632  143.3217  151.2606 LP  0  0  0  0  0  0  0  0  0  0  0  0  # atno 17343 bound_to 10162
  155.9666  130.4317  150.4933 LP  0  0  0  0  0  0  0  0  0  0  0  0  # atno 17370 bound_to 10713
  157.2890  131.0622  151.2146 LP  0  0  0  0  0  0  0  0  0  0  0  0  # atno 17371 bound_to 10713
  140.9301  134.2032  157.4869 LP  0  0  0  0  0  0  0  0  0  0  0  0  # atno 17394 bound_to 11000
  139.8722  134.9829  156.5176 LP  0  0  0  0  0  0  0  0  0  0  0  0  # atno 17395 bound_to 11000

$$$$
