AV-unprocessed.smi:2183|AV-procd|sdf|8868|dock4
  -GOLD-   2272012 63D 1   1.00000     0.00000
 Structure written by MMmdl.
 41 43  0  0  0  0  0  0  0  0  2 V2000
  149.1972  141.4791  153.7253 O   0  0  0  0  0  0  0  0  0  0  0  0
  149.7285  140.5572  154.6540 C   0  0  0  0  0  0  0  0  0  0  0  0
  150.3758  141.2129  155.8326 C   0  0  0  0  0  0  0  0  0  0  0  0
  150.2763  142.5278  156.1825 N   0  3  0  0  0  0  0  0  0  0  0  0
  151.0217  142.7697  157.3370 C   0  0  0  0  0  0  0  0  0  0  0  0
  151.2247  143.9385  158.0640 C   0  0  0  0  0  0  0  0  0  0  0  0
  152.0491  143.8391  159.2043 C   0  0  0  0  0  0  0  0  0  0  0  0
  152.6363  142.6136  159.5815 C   0  0  0  0  0  0  0  0  0  0  0  0
  152.4241  141.4356  158.8353 C   0  0  0  0  0  0  0  0  0  0  0  0
  151.6059  141.5427  157.7111 C   0  0  0  0  0  0  0  0  0  0  0  0
  151.1781  140.6119  156.7582 N   0  0  0  0  0  0  0  0  0  0  0  0
  151.6231  139.2140  156.8720 C   0  0  0  0  0  0  0  0  0  0  0  0
  152.1339  138.6328  155.5378 C   0  0  1  0  0  0  0  0  0  0  0  0
  153.4710  138.2051  155.7079 O   0  0  0  0  0  0  0  0  0  0  0  0
  151.2893  137.4360  155.0734 C   0  0  0  0  0  0  0  0  0  0  0  0
  151.3161  136.4359  156.0835 O   0  0  0  0  0  0  0  0  0  0  0  0
  150.8236  135.1850  155.7788 C   0  0  0  0  0  0  0  0  0  0  0  0
  149.8558  135.1104  154.7555 C   0  0  0  0  0  0  0  0  0  0  0  0
  149.2992  133.8733  154.3774 C   0  0  0  0  0  0  0  0  0  0  0  0
  149.7072  132.6916  155.0236 C   0  0  0  0  0  0  0  0  0  0  0  0
  149.0288  131.1741  154.5610 Cl  0  0  0  0  0  0  0  0  0  0  0  0
  150.6706  132.7513  156.0478 C   0  0  0  0  0  0  0  0  0  0  0  0
  151.2271  133.9891  156.4256 C   0  0  0  0  0  0  0  0  0  0  0  0
  149.2452  141.0964  152.8622 H   0  0  0  0  0  0  0  0  0  0  0  0
  148.9252  139.9060  154.9992 H   0  0  0  0  0  0  0  0  0  0  0  0
  150.4621  139.9282  154.1493 H   0  0  0  0  0  0  0  0  0  0  0  0
  150.7766  144.8785  157.7768 H   0  0  0  0  0  0  0  0  0  0  0  0
  152.2350  144.7203  159.8013 H   0  0  0  0  0  0  0  0  0  0  0  0
  153.2621  142.5762  160.4613 H   0  0  0  0  0  0  0  0  0  0  0  0
  152.8780  140.5017  159.1324 H   0  0  0  0  0  0  0  0  0  0  0  0
  152.4090  139.1751  157.6275 H   0  0  0  0  0  0  0  0  0  0  0  0
  150.7944  138.6226  157.2634 H   0  0  0  0  0  0  0  0  0  0  0  0
  152.1098  139.4109  154.7742 H   0  0  0  0  0  0  0  0  0  0  0  0
  153.7141  137.6783  154.9623 H   0  0  0  0  0  0  0  0  0  0  0  0
  150.2701  137.7487  154.8386 H   0  0  0  0  0  0  0  0  0  0  0  0
  151.7277  137.0173  154.1658 H   0  0  0  0  0  0  0  0  0  0  0  0
  149.5376  136.0120  154.2530 H   0  0  0  0  0  0  0  0  0  0  0  0
  148.5599  133.8327  153.5911 H   0  0  0  0  0  0  0  0  0  0  0  0
  150.9864  131.8466  156.5459 H   0  0  0  0  0  0  0  0  0  0  0  0
  151.9629  133.9938  157.2149 H   0  0  0  0  0  0  0  0  0  0  0  0
  149.7332  143.2056  155.6629 H   0  0  0  0  0  0  0  0  0  0  0  0
  1  2  1  0  0  0  0
  1 24  1  0  0  0  0
  2  3  1  0  0  0  0
  2 25  1  0  0  0  0
  2 26  1  0  0  0  0
  3 11  1  0  0  0  0
  3  4  2  0  0  0  0
  4  5  1  0  0  0  0
  4 41  1  0  0  0  0
  5 10  2  0  0  0  0
  5  6  1  0  0  0  0
  6  7  2  0  0  0  0
  6 27  1  0  0  0  0
  7  8  1  0  0  0  0
  7 28  1  0  0  0  0
  8  9  2  0  0  0  0
  8 29  1  0  0  0  0
  9 10  1  0  0  0  0
  9 30  1  0  0  0  0
 10 11  1  0  0  0  0
 11 12  1  0  0  0  0
 12 13  1  0  0  0  0
 12 31  1  0  0  0  0
 12 32  1  0  0  0  0
 13 14  1  0  0  0  0
 13 15  1  0  0  0  0
 13 33  1  0  0  0  0
 14 34  1  0  0  0  0
 15 16  1  0  0  0  0
 15 35  1  0  0  0  0
 15 36  1  0  0  0  0
 16 17  1  0  0  0  0
 17 23  1  0  0  0  0
 17 18  2  0  0  0  0
 18 19  1  0  0  0  0
 18 37  1  0  0  0  0
 19 20  2  0  0  0  0
 19 38  1  0  0  0  0
 20 21  1  0  0  0  0
 20 22  1  0  0  0  0
 22 23  2  0  0  0  0
 22 39  1  0  0  0  0
 23 40  1  0  0  0  0
M  CHG  1   4   1
M  END
> <s_m_source_file>
AV-unprocessed.smi

> <i_m_source_file_index>
2183

> <i_lp_mmshare_version>
43012

> <i_f3d_flags>
0

> <s_epik_input>
W2NIXTFbY0hdW2NIXVtjSF1jKGMxMiluKGMobjIpW0NIMl1bT0hdKVtDSDJdW0NASF0oW09IXSlbQ0gyXU9jM1tjSF1bY0hdYyhDbClbY0hdW2NIXTM=

> <s_epik_cmdline>
J2VwaWtfcHl0aG9uJywgJy1waCcsICc3LjAnLCAnLXRuJywgJzgnLCAnLW1hJywgJzIwMCcsICctbWV0YWxfYmluZGluZycsICctaW1hZScsICc8aW5maWxlLm1hZT4nLCAnLW9tYWUnLCAnPG91dGZpbGUubWFlPic=

> <r_lp_tautomer_probability>
1

> <r_epik_Ionization_Penalty>
1.40052

> <r_epik_Ionization_Penalty_Charging>
1.39966

> <r_epik_Ionization_Penalty_Neutral>
0.000858184

> <r_epik_State_Penalty>
1.4817

> <r_epik_Charging_Adjusted_Penalty>
2.88136

> <i_epik_Tot_Q>
1

> <i_epik_Tot_abs_Q>
1

> <r_epik_Metal_State_Penalty>
5.5238

> <b_epik_Metal_Only>
0

> <s_lp_Force_Field>
OPLS_2005

> <r_lp_Energy>
18.7235

> <b_lp_Chiralities_Consistent>
1

> <s_lp_Variant>
AV-unprocessed.smi:2183-4

> <Gold.Version>
5.8.1

> <Gold.Id.Protein>
6NUR|6NUR_protein|mol2

> <Gold.PLP.Fitness>
58.3006

> <Gold.PLP.PLP>
-50.4322

> <Gold.PLP.part.hbond>
-5.4909

> <Gold.PLP.part.metal>
0.0000

> <Gold.PLP.part.buried>
-4.2727

> <Gold.PLP.part.nonpolar>
-41.7790

> <Gold.PLP.part.repulsive>
0.1343

> <Gold.PLP.ligand.clash>
0.0000

> <Gold.PLP.ligand.torsion>
1.4347

> <Gold.PLP.Chemscore.Hbond>
3.5201

> <Gold.PLP.Chemscore.CHOScore>
0.0000

> <Gold.PLP.Chemscore.Metal>
0.0000

> <Gold.Chemscore.Hbonds>
donor molecule, donor type, donor heavy atom, donor atom, acceptor molecule, acceptor atom, score
      L1  H     1    24       P1  7957  1.00
      L1  H     4    41       P1  8028  1.92
      P1  H  7997  8010       L1    14  0.49

> <Gold.PLP.Chemscore.Internal.Correction>
0.1775

> <Gold.Rescore>
     Score         DG    S(hbond)    S(metal)    S(lipo)     H(rot)  DE(clash)    DE(int)     intcor
     17.73     -19.36       2.28        0.00     122.10       3.13       0.20       1.43       ----

> <Gold.Chemscore.Fitness>
17.7299

> <Gold.Chemscore.DG>
-19.3606

> <Gold.Chemscore.ZeroCoef>
-5.4800

> <Gold.Chemscore.Hbond>
2.2781

> <Gold.Chemscore.Metal>
0.0000

> <Gold.Chemscore.Lipo>
122.1000

> <Gold.Chemscore.Internal_Hbond>
0.0000

> <Gold.Chemscore.DEClash>
0.1974

> <Gold.Chemscore.DEInternal>
1.4334

> <Gold.Chemscore.Rot>
3.1305

> <Gold.Chemscore.Internal.Correction>
   9.000000E+99

> <Gold.Chemscore.Hbonds>
donor molecule, donor type, donor heavy atom, donor atom, acceptor molecule, acceptor atom, score
      L1  H     1    24       P1  7957  0.93
      L1  H     4    41       P1  8028  0.92
      P1  H  7997  8010       L1    14  0.11

> <Gold.Chemscore.Hbond.Weighted>
-7.6090

> <Gold.Chemscore.Metal.Weighted>
-0.0000

> <Gold.Chemscore.Lipo.Weighted>
-14.2857

> <Gold.Chemscore.Internal_Hbond.Weighted>
0.0000

> <Gold.Chemscore.DEClash.Weighted>
0.1974

> <Gold.Chemscore.DEInternal.Weighted>
1.4334

> <Gold.Chemscore.Rot.Weighted>
8.0141

> <Gold.Chemscore.Internal.Correction.Weighted>
   9.000000E+99

> <Gold.Protein.RotatedTorsions>
[ 6907 6896 6895 6894 ] final  -48.93 input  -60.11 | X-H torsion
[ 7974 7965 7964 7962 ] final -171.31 input  175.53 | X-H torsion
[ 8008 7997 7996 7995 ] final   84.59 input   59.86 | X-H torsion
[ 10167 10162 10161 10158 ] final -105.34 input  -65.29 | X-H torsion
[ 10718 10713 10712 10709 ] final  -74.64 input   66.30 | X-H torsion
[ 10763 10752 10751 10750 ] final  -14.50 input  -60.55 | X-H torsion
[ 11005 11000 10999 10996 ] final  -69.83 input  -57.11 | X-H torsion

> <Gold.Protein.ActiveResidues>
 VAL166  LYS551  ARG553  GLY616  TRP617  ASP618  TYR619  PRO620  LYS621  CYS622 
 ASP623  PHE694  ASN695  SER759  ASP760  ASP761  ALA762  ILE779  LEU786  VAL792 
 PHE793  MET794  SER795  GLU796  ALA797  LYS798  CYS799  TRP800  GLU811  SER814 

> <Gold.Protein.RotatedAtoms>
  150.8856  134.8253  159.7255 H   0  0  0  0  0  0  0  0  0  0  0  0  # atno 6907 bound_to 6896
  152.4805  134.4728  159.9651 H   0  0  0  0  0  0  0  0  0  0  0  0  # atno 6908 bound_to 6896
  151.4797  133.3510  159.2872 H   0  0  0  0  0  0  0  0  0  0  0  0  # atno 6909 bound_to 6896
  144.7158  140.1941  143.6345 H   0  0  0  0  0  0  0  0  0  0  0  0  # atno 7974 bound_to 7965
  155.9390  140.3409  155.6312 H   0  0  0  0  0  0  0  0  0  0  0  0  # atno 8008 bound_to 7997
  155.7063  140.0766  157.2408 H   0  0  0  0  0  0  0  0  0  0  0  0  # atno 8009 bound_to 7997
  154.4099  140.1631  156.2234 H   0  0  0  0  0  0  0  0  0  0  0  0  # atno 8010 bound_to 7997
  140.1996  143.3829  152.1140 H   0  0  0  0  0  0  0  0  0  0  0  0  # atno 10167 bound_to 10162
  156.0235  130.4422  150.2923 H   0  0  0  0  0  0  0  0  0  0  0  0  # atno 10718 bound_to 10713
  153.5292  135.7015  153.5692 H   0  0  0  0  0  0  0  0  0  0  0  0  # atno 10763 bound_to 10752
  153.3707  135.3945  155.1786 H   0  0  0  0  0  0  0  0  0  0  0  0  # atno 10764 bound_to 10752
  154.8686  135.3811  154.4788 H   0  0  0  0  0  0  0  0  0  0  0  0  # atno 10765 bound_to 10752
  141.1562  133.6774  156.6660 H   0  0  0  0  0  0  0  0  0  0  0  0  # atno 11005 bound_to 11000
  145.8741  139.2288  143.1643 LP  0  0  0  0  0  0  0  0  0  0  0  0  # atno 17320 bound_to 7965
  146.0057  140.8481  142.9996 LP  0  0  0  0  0  0  0  0  0  0  0  0  # atno 17321 bound_to 7965
  139.5223  144.7056  151.5362 LP  0  0  0  0  0  0  0  0  0  0  0  0  # atno 17342 bound_to 10162
  140.6400  143.8908  150.6682 LP  0  0  0  0  0  0  0  0  0  0  0  0  # atno 17343 bound_to 10162
  157.1026  131.0200  151.3079 LP  0  0  0  0  0  0  0  0  0  0  0  0  # atno 17370 bound_to 10713
  157.4767  130.7741  149.7375 LP  0  0  0  0  0  0  0  0  0  0  0  0  # atno 17371 bound_to 10713
  140.3211  134.8007  157.4253 LP  0  0  0  0  0  0  0  0  0  0  0  0  # atno 17394 bound_to 11000
  140.1096  134.5363  155.8278 LP  0  0  0  0  0  0  0  0  0  0  0  0  # atno 17395 bound_to 11000

$$$$
