#       Name:                AV-unprocessed.smi:47
#       Creating user name   scv26
#       Creation time:       Thu Mar 26 16:31:09 2020


#       File generated by GOLD software.
#

@<TRIPOS>MOLECULE
AV-unprocessed.smi:47
    36    38     1
SMALL
NO_CHARGES


@<TRIPOS>ATOM
      1 ****        -4.8894  -0.1585   2.1211 O.3            1 S1                 0.0000
      2 ****        -3.6593   0.5354   2.1323 C.3            1 S1                 0.0000
      3 ****        -3.7044   1.7520   1.1961 C.3            1 S1                 0.0000
      4 ****        -2.3779   1.8090   0.5648 N.4            1 S1                 1.0000
      5 ****        -1.9369   0.4130   0.4102 C.3            1 S1                 0.0000
      6 ****        -0.4400   0.4682   0.3436 C.2            1 S1                 0.0000
      7 ****         0.3505   1.1967   1.1359 N.2            1 S1                 0.0000
      8 ****         1.6388   0.9222   0.7172 N.2            1 S1                 0.0000
      9 ****         1.5334   0.0464  -0.2929 C.2            1 S1                 0.0000
     10 ****         2.6757  -0.5086  -1.0222 C.ar           1 S1                 0.0000
     11 ****         2.4732  -1.3056  -2.1731 C.ar           1 S1                 0.0000
     12 ****         3.5717  -1.8428  -2.8722 C.ar           1 S1                 0.0000
     13 ****         4.8829  -1.5912  -2.4272 C.ar           1 S1                 0.0000
     14 ****         5.0950  -0.8012  -1.2821 C.ar           1 S1                 0.0000
     15 ****         3.9975  -0.2622  -0.5832 C.ar           1 S1                 0.0000
     16 ****         0.2481  -0.2561  -0.5491 N.pl3          1 S1                 0.0000
     17 ****        -2.5088  -0.3445   1.6155 C.3            1 S1                 0.0000
     18 ****        -3.4440   0.8586   3.1517 H              1 S1                 0.0000
     19 ****        -2.3481   0.0174  -0.5199 H              1 S1                 0.0000
     20 ****        -0.1105  -0.8888  -1.2495 H              1 S1                 0.0000
     21 ****        -4.8359  -0.8815   2.7281 H              1 S1                 0.0000
     22 ****        -4.4437   1.6067   0.4065 H              1 S1                 0.0000
     23 ****        -3.9461   2.6789   1.7169 H              1 S1                 0.0000
     24 ****        -2.3976   2.2974  -0.3189 H              1 S1                 0.0000
     25 ****         1.4763  -1.5118  -2.5337 H              1 S1                 0.0000
     26 ****         3.4084  -2.4492  -3.7511 H              1 S1                 0.0000
     27 ****         5.7249  -2.0041  -2.9629 H              1 S1                 0.0000
     28 ****         6.1006  -0.6086  -0.9381 H              1 S1                 0.0000
     29 ****         4.1835   0.3396   0.2944 H              1 S1                 0.0000
     30 ****        -1.7591  -0.4417   2.4024 H              1 S1                 0.0000
     31 ****        -2.8183  -1.3541   1.3419 H              1 S1                 0.0000
     32 ****        -1.7402   2.2701   1.1985 H              1 S1                 0.0000
     33 ****        -5.0719  -0.5048   1.2008 LP             1 S1                 0.0000
     34 ****        -5.6262   0.4586   2.3972 LP             1 S1                 0.0000
     35 ****         0.0702   1.8099   1.8744 LP             1 S1                 0.0000
     36 ****         2.4837   1.3021   1.0936 LP             1 S1                 0.0000
@<TRIPOS>BOND
    1    1    2 1     
    2    1   21 1     
    3    2   18 1     
    4    2   17 1     
    5    2    3 1     
    6    3    4 1     
    7    3   22 1     
    8    3   23 1     
    9    4    5 1     
   10    4   24 1     
   11    4   32 1     
   12    5   19 1     
   13    5   17 1     
   14    5    6 1     
   15    6    7 2     
   16    6   16 1     
   17    7    8 1     
   18    8    9 2     
   19    9   16 1     
   20    9   10 1     
   21   10   15 ar    
   22   10   11 ar    
   23   11   12 ar    
   24   11   25 1     
   25   12   13 ar    
   26   12   26 1     
   27   13   14 ar    
   28   13   27 1     
   29   14   15 ar    
   30   14   28 1     
   31   15   29 1     
   32   16   20 1     
   33   17   30 1     
   34   17   31 1     
   35    1   33 1     
   36    1   34 1     
   37    7   35 1     
   38    8   36 1     
@<TRIPOS>SUBSTRUCTURE
      1 S1             1
@<TRIPOS>SET
LONE_PAIRS      STATIC     ATOMS    <user>   **** ""
4 33 34 35 36
DONOR_HYDROGENS      STATIC     ATOMS    <user>   **** ""
4 21 24 32 20
ATOM$BLUE        STATIC     ATOMS    COLORGROUP SYSTEM
4 33 34 35 36
ATOM$RED        STATIC     ATOMS    COLORGROUP SYSTEM
4 21 24 32 20
