#       Name:                AV-unprocessed.smi:496
#       Creating user name   scv26
#       Creation time:       Thu Mar 26 23:16:39 2020


#       File generated by GOLD software.
#

@<TRIPOS>MOLECULE
AV-unprocessed.smi:496
    49    51     1
SMALL
NO_CHARGES


@<TRIPOS>ATOM
      1 ****        -3.0856   3.3976  -0.8619 C.3            1 S1                 0.0000
      2 ****        -2.0188   3.9107  -0.0792 O.3            1 S1                 0.0000
      3 ****        -0.8148   3.1656  -0.1921 C.3            1 S1                 0.0000
      4 ****        -0.8544   1.8889   0.6663 C.3            1 S1                 0.0000
      5 ****         0.4119   1.1568   0.6069 N.pl3          1 S1                 0.0000
      6 ****         0.8668   0.2424  -0.3054 C.2            1 S1                 0.0000
      7 ****         0.0790  -0.2315  -1.5158 C.3            1 S1                 0.0000
      8 ****         0.8161   0.0720  -2.8286 C.3            1 S1                 0.0000
      9 ****        -0.2271  -1.6618  -1.4495 N.pl3          1 S1                -1.0000
     10 ****        -1.1827  -2.2009  -0.6399 C.2            1 S1                 0.0000
     11 ****        -1.9555  -1.6426   0.1470 O.2            1 S1                 0.0000
     12 ****        -1.2595  -3.6757  -0.7628 C.2            1 S1                 0.0000
     13 ****        -2.0958  -4.5674  -0.1448 C.2            1 S1                 0.0000
     14 ****        -1.7406  -5.8611  -0.6172 C.2            1 S1                 0.0000
     15 ****        -0.7105  -5.6710  -1.4924 C.2            1 S1                 0.0000
     16 ****        -0.4058  -4.3493  -1.5943 O.3            1 S1                 0.0000
     17 ****         2.0805  -0.2565  -0.0469 N.2            1 S1                 0.0000
     18 ****         2.4532   0.3941   1.1100 C.ar           1 S1                 0.0000
     19 ****         3.6384   0.2992   1.8738 C.ar           1 S1                 0.0000
     20 ****         3.8012   1.0770   3.0386 C.ar           1 S1                 0.0000
     21 ****         2.7830   1.9588   3.4541 C.ar           1 S1                 0.0000
     22 ****         1.5945   2.0671   2.7065 C.ar           1 S1                 0.0000
     23 ****         1.4356   1.2872   1.5442 C.ar           1 S1                 0.0000
     24 ****        -3.9592   4.0395  -0.7494 H              1 S1                 0.0000
     25 ****        -3.3724   2.3926  -0.5532 H              1 S1                 0.0000
     26 ****        -2.8224   3.3756  -1.9202 H              1 S1                 0.0000
     27 ****        -0.5976   2.9404  -1.2373 H              1 S1                 0.0000
     28 ****        -0.0025   3.8025   0.1590 H              1 S1                 0.0000
     29 ****        -1.0544   2.1548   1.7043 H              1 S1                 0.0000
     30 ****        -1.6706   1.2278   0.3784 H              1 S1                 0.0000
     31 ****        -0.8434   0.3477  -1.5603 H              1 S1                 0.0000
     32 ****         1.0198   1.1390  -2.9215 H              1 S1                 0.0000
     33 ****         0.2212  -0.2255  -3.6927 H              1 S1                 0.0000
     34 ****         1.7697  -0.4542  -2.8852 H              1 S1                 0.0000
     35 ****        -2.8709  -4.3166   0.5643 H              1 S1                 0.0000
     36 ****        -2.1817  -6.8096  -0.3499 H              1 S1                 0.0000
     37 ****        -0.1085  -6.3305  -2.0997 H              1 S1                 0.0000
     38 ****         4.4228  -0.3740   1.5611 H              1 S1                 0.0000
     39 ****         4.7111   0.9968   3.6149 H              1 S1                 0.0000
     40 ****         2.9143   2.5517   4.3472 H              1 S1                 0.0000
     41 ****         0.8146   2.7426   3.0245 H              1 S1                 0.0000
     42 ****        -2.3020   3.9086   0.8798 LP             1 S1                 0.0000
     43 ****        -1.8369   4.8497  -0.3710 LP             1 S1                 0.0000
     44 ****         0.2969  -2.2814  -2.0339 LP             1 S1                 0.0000
     45 ****        -1.9283  -0.6487   0.2540 LP             1 S1                 0.0000
     46 ****        -2.6078  -2.1849   0.6765 LP             1 S1                 0.0000
     47 ****         0.5413  -4.1927  -1.3140 LP             1 S1                 0.0000
     48 ****        -0.5297  -4.0401  -2.5372 LP             1 S1                 0.0000
     49 ****         2.5944  -0.9380  -0.5679 LP             1 S1                 0.0000
@<TRIPOS>BOND
    1    1    2 1     
    2    1   24 1     
    3    1   25 1     
    4    1   26 1     
    5    2    3 1     
    6    3    4 1     
    7    3   27 1     
    8    3   28 1     
    9    4    5 1     
   10    4   29 1     
   11    4   30 1     
   12    5   23 1     
   13    5    6 1     
   14    6    7 1     
   15    6   17 2     
   16    7    8 1     
   17    7    9 1     
   18    7   31 1     
   19    8   32 1     
   20    8   33 1     
   21    8   34 1     
   22    9   10 1     
   23   10   11 2     
   24   10   12 1     
   25   12   16 1     
   26   12   13 2     
   27   13   14 1     
   28   13   35 1     
   29   14   15 2     
   30   14   36 1     
   31   15   16 1     
   32   15   37 1     
   33   17   18 1     
   34   18   23 ar    
   35   18   19 ar    
   36   19   20 ar    
   37   19   38 1     
   38   20   21 ar    
   39   20   39 1     
   40   21   22 ar    
   41   21   40 1     
   42   22   23 ar    
   43   22   41 1     
   44    2   42 1     
   45    2   43 1     
   46    9   44 1     
   47   11   45 1     
   48   11   46 1     
   49   16   47 1     
   50   16   48 1     
   51   17   49 1     
@<TRIPOS>SUBSTRUCTURE
      1 S1             1
@<TRIPOS>SET
LONE_PAIRS      STATIC     ATOMS    <user>   **** ""
8 42 43 44 45 46 47 48 49
ATOM$BLUE        STATIC     ATOMS    COLORGROUP SYSTEM
8 42 43 44 45 46 47 48 49
