AV-unprocessed.smi:1762|AV-procd|sdf|7121|dock10
  -GOLD-   22720 8353D 1   1.00000     0.00000
 Structure written by MMmdl.
 52 53  0  0  0  0  0  0  0  0  3 V2000
  149.7474  133.5147  156.6053 C   0  0  0  0  0  0  0  0  0  0  0  0
  149.4317  134.9399  157.0706 C   0  0  2  0  0  0  0  0  0  0  0  0
  150.5236  135.9386  156.6518 C   0  0  0  0  0  0  0  0  0  0  0  0
  150.2163  137.2818  157.2006 N   0  3  2  0  0  0  0  0  0  0  0  0
  151.0413  138.4208  156.6902 C   0  0  1  0  0  0  0  0  0  0  0  0
  152.5706  138.2019  156.8220 C   0  0  0  0  0  0  0  0  0  0  0  0
  153.0734  137.2749  156.1780 O   0  0  0  0  0  0  0  0  0  0  0  0
  153.1598  139.0971  157.6648 N   0  5  0  0  0  0  0  0  0  0  0  0
  152.4505  140.2078  158.3021 C   0  0  0  0  0  0  0  0  0  0  0  0
  153.3299  140.9199  159.3589 C   0  0  0  0  0  0  0  0  0  0  0  0
  152.8930  142.3323  159.7444 C   0  0  0  0  0  0  0  0  0  0  0  0
  152.7524  142.6945  161.1033 C   0  0  0  0  0  0  0  0  0  0  0  0
  152.3154  143.9966  161.4139 C   0  0  0  0  0  0  0  0  0  0  0  0
  152.0283  144.8861  160.3617 C   0  0  0  0  0  0  0  0  0  0  0  0
  152.1837  144.4290  159.0385 C   0  0  0  0  0  0  0  0  0  0  0  0
  152.5970  143.1818  158.7293 N   0  0  0  0  0  0  0  0  0  0  0  0
  150.5560  138.9426  155.2990 C   0  0  0  0  0  0  0  0  0  0  0  0
  150.8881  137.9709  154.1478 C   0  0  0  0  0  0  0  0  0  0  0  0
  151.1340  140.3332  154.9721 C   0  0  0  0  0  0  0  0  0  0  0  0
  150.0954  137.2246  158.6776 C   0  0  0  0  0  0  0  0  0  0  0  0
  149.0375  136.1853  159.0945 C   0  0  1  0  0  0  0  0  0  0  0  0
  147.5919  136.6436  158.8298 C   0  0  0  0  0  0  0  0  0  0  0  0
  149.3213  134.9211  158.4928 O   0  0  0  0  0  0  0  0  0  0  0  0
  149.8517  133.4684  155.5210 H   0  0  0  0  0  0  0  0  0  0  0  0
  148.9532  132.8257  156.8933 H   0  0  0  0  0  0  0  0  0  0  0  0
  150.6761  133.1541  157.0468 H   0  0  0  0  0  0  0  0  0  0  0  0
  148.4790  135.2352  156.6307 H   0  0  0  0  0  0  0  0  0  0  0  0
  151.4906  135.6010  157.0207 H   0  0  0  0  0  0  0  0  0  0  0  0
  150.5882  135.9735  155.5650 H   0  0  0  0  0  0  0  0  0  0  0  0
  150.8203  139.2441  157.3719 H   0  0  0  0  0  0  0  0  0  0  0  0
  152.1177  140.9382  157.5644 H   0  0  0  0  0  0  0  0  0  0  0  0
  151.5364  139.8683  158.7911 H   0  0  0  0  0  0  0  0  0  0  0  0
  153.3360  140.3187  160.2687 H   0  0  0  0  0  0  0  0  0  0  0  0
  154.3668  140.9442  159.0205 H   0  0  0  0  0  0  0  0  0  0  0  0
  152.9718  141.9877  161.8898 H   0  0  0  0  0  0  0  0  0  0  0  0
  152.1970  144.3069  162.4413 H   0  0  0  0  0  0  0  0  0  0  0  0
  151.6911  145.8923  160.5626 H   0  0  0  0  0  0  0  0  0  0  0  0
  151.9651  145.0810  158.2058 H   0  0  0  0  0  0  0  0  0  0  0  0
  149.4713  139.0506  155.3167 H   0  0  0  0  0  0  0  0  0  0  0  0
  151.9610  137.7885  154.0816 H   0  0  0  0  0  0  0  0  0  0  0  0
  150.5608  138.3733  153.1889 H   0  0  0  0  0  0  0  0  0  0  0  0
  150.3941  137.0071  154.2693 H   0  0  0  0  0  0  0  0  0  0  0  0
  152.2243  140.3164  154.9661 H   0  0  0  0  0  0  0  0  0  0  0  0
  150.8143  141.0868  155.6918 H   0  0  0  0  0  0  0  0  0  0  0  0
  150.8033  140.6735  153.9904 H   0  0  0  0  0  0  0  0  0  0  0  0
  151.0603  136.9551  159.1099 H   0  0  0  0  0  0  0  0  0  0  0  0
  149.8321  138.2045  159.0779 H   0  0  0  0  0  0  0  0  0  0  0  0
  149.1276  136.0348  160.1707 H   0  0  0  0  0  0  0  0  0  0  0  0
  147.3617  137.5433  159.4009 H   0  0  0  0  0  0  0  0  0  0  0  0
  146.8795  135.8743  159.1278 H   0  0  0  0  0  0  0  0  0  0  0  0
  147.4158  136.8747  157.7796 H   0  0  0  0  0  0  0  0  0  0  0  0
  149.2851  137.4913  156.8723 H   0  0  0  0  0  0  0  0  0  0  0  0
  1  2  1  0  0  0  0
  1 24  1  0  0  0  0
  1 25  1  0  0  0  0
  1 26  1  0  0  0  0
  2 23  1  0  0  0  0
  2  3  1  0  0  0  0
  2 27  1  0  0  0  0
  3  4  1  0  0  0  0
  3 28  1  0  0  0  0
  3 29  1  0  0  0  0
  4  5  1  0  0  0  0
  4 20  1  0  0  0  0
  4 52  1  0  0  0  0
  5  6  1  0  0  0  0
  5 17  1  0  0  0  0
  5 30  1  0  0  0  0
  6  7  2  0  0  0  0
  6  8  1  0  0  0  0
  8  9  1  0  0  0  0
  9 10  1  0  0  0  0
  9 31  1  0  0  0  0
  9 32  1  0  0  0  0
 10 11  1  0  0  0  0
 10 33  1  0  0  0  0
 10 34  1  0  0  0  0
 11 16  1  0  0  0  0
 11 12  2  0  0  0  0
 12 13  1  0  0  0  0
 12 35  1  0  0  0  0
 13 14  2  0  0  0  0
 13 36  1  0  0  0  0
 14 15  1  0  0  0  0
 14 37  1  0  0  0  0
 15 16  2  0  0  0  0
 15 38  1  0  0  0  0
 17 18  1  0  0  0  0
 17 19  1  0  0  0  0
 17 39  1  0  0  0  0
 18 40  1  0  0  0  0
 18 41  1  0  0  0  0
 18 42  1  0  0  0  0
 19 43  1  0  0  0  0
 19 44  1  0  0  0  0
 19 45  1  0  0  0  0
 20 21  1  0  0  0  0
 20 46  1  0  0  0  0
 20 47  1  0  0  0  0
 21 22  1  0  0  0  0
 21 23  1  0  0  0  0
 21 48  1  0  0  0  0
 22 49  1  0  0  0  0
 22 50  1  0  0  0  0
 22 51  1  0  0  0  0
M  CHG  1   4   1
M  CHG  1   8  -1
M  END
> <s_m_source_file>
AV-unprocessed.smi

> <i_m_source_file_index>
1762

> <i_lp_mmshare_version>
43012

> <i_f3d_flags>
0

> <s_epik_input>
W0NIM11bQ0BASF0xW0NIMl1OKFtDSDJdW0NASF0oTzEpW0NIM10pW0NAQEhdKFtDSF0oW0NIM10pW0NIM10pQyg9TylbTkhdW0NIMl1bQ0gyXWMyW2NIXVtjSF1bY0hdW2NIXW4y

> <s_epik_cmdline>
J2VwaWtfcHl0aG9uJywgJy1waCcsICc3LjAnLCAnLXRuJywgJzgnLCAnLW1hJywgJzIwMCcsICctbWV0YWxfYmluZGluZycsICctaW1hZScsICc8aW5maWxlLm1hZT4nLCAnLW9tYWUnLCAnPG91dGZpbGUubWFlPic=

> <r_epik_Ionization_Penalty>
7.82966

> <r_epik_Ionization_Penalty_Charging>
7.7461

> <r_epik_Ionization_Penalty_Neutral>
0.0835571

> <r_epik_State_Penalty>
8.52273

> <r_epik_Charging_Adjusted_Penalty>
16.2688

> <i_epik_Tot_Q>
0

> <i_epik_Tot_abs_Q>
2

> <r_epik_Metal_State_Penalty>
4.47451

> <b_epik_Metal_Only>
1

> <s_lp_Force_Field>
OPLS_2005

> <r_lp_Energy>
25.1161

> <b_lp_Chiralities_Consistent>
1

> <s_lp_Variant>
AV-unprocessed.smi:1762-23

> <Gold.Version>
5.8.1

> <Gold.Id.Protein>
6NUR|6NUR_protein|mol2

> <Gold.PLP.Fitness>
50.9851

> <Gold.PLP.PLP>
-41.8546

> <Gold.PLP.part.hbond>
-3.0000

> <Gold.PLP.part.metal>
0.0000

> <Gold.PLP.part.buried>
-3.3216

> <Gold.PLP.part.nonpolar>
-35.6671

> <Gold.PLP.part.repulsive>
0.0322

> <Gold.PLP.ligand.clash>
0.0000

> <Gold.PLP.ligand.torsion>
0.8281

> <Gold.PLP.Chemscore.Hbond>
3.3536

> <Gold.PLP.Chemscore.CHOScore>
0.0000

> <Gold.PLP.Chemscore.Metal>
0.0000

> <Gold.Chemscore.Hbonds>
donor molecule, donor type, donor heavy atom, donor atom, acceptor molecule, acceptor atom, score
      P1  H  6896  6909       L1    23  1.00
      P1  H  7997  8008       L1     8  1.90
      P1  H 10752 10763       L1     7  0.52

> <Gold.PLP.Chemscore.Internal.Correction>
0.7258

> <Gold.Rescore>
     Score         DG    S(hbond)    S(metal)    S(lipo)     H(rot)  DE(clash)    DE(int)     intcor
     17.44     -20.58       1.60        0.00     118.41       1.60       1.12       2.02       ----

> <Gold.Chemscore.Fitness>
17.4436

> <Gold.Chemscore.DG>
-20.5833

> <Gold.Chemscore.ZeroCoef>
-5.4800

> <Gold.Chemscore.Hbond>
1.6013

> <Gold.Chemscore.Metal>
0.0000

> <Gold.Chemscore.Lipo>
118.4090

> <Gold.Chemscore.Internal_Hbond>
0.0000

> <Gold.Chemscore.DEClash>
1.1228

> <Gold.Chemscore.DEInternal>
2.0169

> <Gold.Chemscore.Rot>
1.6012

> <Gold.Chemscore.Internal.Correction>
   9.000000E+99

> <Gold.Chemscore.Hbonds>
donor molecule, donor type, donor heavy atom, donor atom, acceptor molecule, acceptor atom, score
      P1  H  6896  6909       L1    23  0.43
      P1  H  7997  8008       L1     8  0.14
      P1  H 10752 10763       L1     7  0.52

> <Gold.Chemscore.Hbond.Weighted>
-5.3484

> <Gold.Chemscore.Metal.Weighted>
-0.0000

> <Gold.Chemscore.Lipo.Weighted>
-13.8539

> <Gold.Chemscore.Internal_Hbond.Weighted>
0.0000

> <Gold.Chemscore.DEClash.Weighted>
1.1228

> <Gold.Chemscore.DEInternal.Weighted>
2.0169

> <Gold.Chemscore.Rot.Weighted>
4.0990

> <Gold.Chemscore.Internal.Correction.Weighted>
   9.000000E+99

> <Gold.Protein.RotatedTorsions>
[ 6907 6896 6895 6894 ] final   31.92 input  -60.11 | X-H torsion
[ 7974 7965 7964 7962 ] final   44.01 input  175.53 | X-H torsion
[ 8008 7997 7996 7995 ] final  -63.65 input   59.86 | X-H torsion
[ 10167 10162 10161 10158 ] final   -3.22 input  -65.29 | X-H torsion
[ 10718 10713 10712 10709 ] final  -52.60 input   66.30 | X-H torsion
[ 10763 10752 10751 10750 ] final   97.72 input  -60.55 | X-H torsion
[ 11005 11000 10999 10996 ] final  148.18 input  -57.11 | X-H torsion

> <Gold.Protein.ActiveResidues>
 VAL166  LYS551  ARG553  GLY616  TRP617  ASP618  TYR619  PRO620  LYS621  CYS622 
 ASP623  PHE694  ASN695  SER759  ASP760  ASP761  ALA762  ILE779  LEU786  VAL792 
 PHE793  MET794  SER795  GLU796  ALA797  LYS798  CYS799  TRP800  GLU811  SER814 

> <Gold.Protein.RotatedAtoms>
  152.0671  134.9557  160.0574 H   0  0  0  0  0  0  0  0  0  0  0  0  # atno 6907 bound_to 6896
  152.0897  133.4189  159.4546 H   0  0  0  0  0  0  0  0  0  0  0  0  # atno 6908 bound_to 6896
  150.6836  134.2805  159.4669 H   0  0  0  0  0  0  0  0  0  0  0  0  # atno 6909 bound_to 6896
  146.0605  139.5122  142.9661 H   0  0  0  0  0  0  0  0  0  0  0  0  # atno 7974 bound_to 7965
  154.4566  140.0970  156.6775 H   0  0  0  0  0  0  0  0  0  0  0  0  # atno 8008 bound_to 7997
  155.5119  140.3476  155.4371 H   0  0  0  0  0  0  0  0  0  0  0  0  # atno 8009 bound_to 7997
  156.0790  140.1368  156.9725 H   0  0  0  0  0  0  0  0  0  0  0  0  # atno 8010 bound_to 7997
  140.6882  143.6565  150.8304 H   0  0  0  0  0  0  0  0  0  0  0  0  # atno 10167 bound_to 10162
  156.1607  130.4150  149.9797 H   0  0  0  0  0  0  0  0  0  0  0  0  # atno 10718 bound_to 10713
  153.2803  135.4173  155.1072 H   0  0  0  0  0  0  0  0  0  0  0  0  # atno 10763 bound_to 10752
  154.8487  135.3493  154.6121 H   0  0  0  0  0  0  0  0  0  0  0  0  # atno 10764 bound_to 10752
  153.6541  135.7051  153.5256 H   0  0  0  0  0  0  0  0  0  0  0  0  # atno 10765 bound_to 10752
  140.0938  134.9025  157.1691 H   0  0  0  0  0  0  0  0  0  0  0  0  # atno 11005 bound_to 11000
  145.6567  141.0250  143.1731 LP  0  0  0  0  0  0  0  0  0  0  0  0  # atno 17320 bound_to 7965
  144.7172  139.8154  143.7394 LP  0  0  0  0  0  0  0  0  0  0  0  0  # atno 17321 bound_to 7965
  140.0274  143.5479  152.2774 LP  0  0  0  0  0  0  0  0  0  0  0  0  # atno 17342 bound_to 10162
  139.6259  144.7637  151.2640 LP  0  0  0  0  0  0  0  0  0  0  0  0  # atno 17343 bound_to 10162
  156.7627  130.9157  151.3642 LP  0  0  0  0  0  0  0  0  0  0  0  0  # atno 17370 bound_to 10713
  157.6730  130.9069  150.0085 LP  0  0  0  0  0  0  0  0  0  0  0  0  # atno 17371 bound_to 10713
  140.3315  134.2804  155.7227 LP  0  0  0  0  0  0  0  0  0  0  0  0  # atno 17394 bound_to 11000
  141.2086  133.7773  157.0050 LP  0  0  0  0  0  0  0  0  0  0  0  0  # atno 17395 bound_to 11000

$$$$
