AV-unprocessed.smi:2768|AV-procd|sdf|10655|dock4
  -GOLD-   2272015103D 1   1.00000     0.00000
 Structure written by MMmdl.
 34 35  0  0  0  0  0  0  0  0  2 V2000
  152.6693  139.7345  155.1996 O   0  0  0  0  0  0  0  0  0  0  0  0
  151.6281  139.5564  155.8425 C   0  0  0  0  0  0  0  0  0  0  0  0
  151.2449  140.0813  157.0422 N   0  5  0  0  0  0  0  0  0  0  0  0
  151.9663  141.1458  157.7437 C   0  0  1  0  0  0  0  0  0  0  0  0
  150.9767  142.2572  158.1784 C   0  0  0  0  0  0  0  0  0  0  0  0
  151.6300  143.3519  159.0590 C   0  0  0  0  0  0  0  0  0  0  0  0
  152.3132  142.7718  160.3149 C   0  0  0  0  0  0  0  0  0  0  0  0
  153.3127  141.6734  159.8968 C   0  0  0  0  0  0  0  0  0  0  0  0
  152.6590  140.5783  159.0129 C   0  0  2  0  0  0  0  0  0  0  0  0
  153.6565  139.6520  158.6322 O   0  0  0  0  0  0  0  0  0  0  0  0
  150.5526  138.6271  155.2395 C   0  0  0  0  0  0  0  0  0  0  0  0
  151.0972  137.9554  154.2217 F   0  0  0  0  0  0  0  0  0  0  0  0
  150.1531  137.7228  156.1413 F   0  0  0  0  0  0  0  0  0  0  0  0
  149.3674  139.4431  154.7265 C   0  0  0  0  0  0  0  0  0  0  0  0
  148.2733  138.8085  154.0944 C   0  0  0  0  0  0  0  0  0  0  0  0
  147.2071  139.6019  153.6292 C   0  0  0  0  0  0  0  0  0  0  0  0
  147.2698  140.9965  153.8097 C   0  0  0  0  0  0  0  0  0  0  0  0
  148.4033  141.5376  154.4476 C   0  0  0  0  0  0  0  0  0  0  0  0
  149.4298  140.7858  154.8980 N   0  0  0  0  0  0  0  0  0  0  0  0
  152.7332  141.6022  157.1148 H   0  0  0  0  0  0  0  0  0  0  0  0
  151.9217  140.0436  159.6139 H   0  0  0  0  0  0  0  0  0  0  0  0
  150.5334  142.7221  157.2969 H   0  0  0  0  0  0  0  0  0  0  0  0
  150.1491  141.8119  158.7332 H   0  0  0  0  0  0  0  0  0  0  0  0
  152.3607  143.9159  158.4754 H   0  0  0  0  0  0  0  0  0  0  0  0
  150.8708  144.0737  159.3610 H   0  0  0  0  0  0  0  0  0  0  0  0
  152.8218  143.5592  160.8716 H   0  0  0  0  0  0  0  0  0  0  0  0
  151.5602  142.3487  160.9810 H   0  0  0  0  0  0  0  0  0  0  0  0
  154.1522  142.1341  159.3712 H   0  0  0  0  0  0  0  0  0  0  0  0
  153.7373  141.2161  160.7913 H   0  0  0  0  0  0  0  0  0  0  0  0
  154.1301  139.4092  159.4141 H   0  0  0  0  0  0  0  0  0  0  0  0
  148.2546  137.7368  153.9627 H   0  0  0  0  0  0  0  0  0  0  0  0
  146.3567  139.1487  153.1412 H   0  0  0  0  0  0  0  0  0  0  0  0
  146.4702  141.6362  153.4667 H   0  0  0  0  0  0  0  0  0  0  0  0
  148.4865  142.6031  154.6025 H   0  0  0  0  0  0  0  0  0  0  0  0
  1  2  2  0  0  0  0
  2  3  1  0  0  0  0
  2 11  1  0  0  0  0
  3  4  1  0  0  0  0
  4 20  1  0  0  0  0
  4  9  1  0  0  0  0
  4  5  1  0  0  0  0
  5  6  1  0  0  0  0
  5 22  1  0  0  0  0
  5 23  1  0  0  0  0
  6  7  1  0  0  0  0
  6 24  1  0  0  0  0
  6 25  1  0  0  0  0
  7  8  1  0  0  0  0
  7 26  1  0  0  0  0
  7 27  1  0  0  0  0
  8  9  1  0  0  0  0
  8 28  1  0  0  0  0
  8 29  1  0  0  0  0
  9 21  1  0  0  0  0
  9 10  1  0  0  0  0
 10 30  1  0  0  0  0
 11 12  1  0  0  0  0
 11 13  1  0  0  0  0
 11 14  1  0  0  0  0
 14 19  1  0  0  0  0
 14 15  2  0  0  0  0
 15 16  1  0  0  0  0
 15 31  1  0  0  0  0
 16 17  2  0  0  0  0
 16 32  1  0  0  0  0
 17 18  1  0  0  0  0
 17 33  1  0  0  0  0
 18 19  2  0  0  0  0
 18 34  1  0  0  0  0
M  CHG  1   3  -1
M  END
> <s_m_source_file>
AV-unprocessed.smi

> <i_m_source_file_index>
2768

> <i_lp_mmshare_version>
43012

> <i_f3d_flags>
0

> <s_epik_input>
bjFbY0hdW2NIXVtjSF1bY0hdYzFDKEYpKEYpQyg9TylbTkhdW0NAQEhdMltDSDJdW0NIMl1bQ0gyXVtDSDJdW0NASF0yW09IXQ==

> <s_epik_cmdline>
J2VwaWtfcHl0aG9uJywgJy1waCcsICc3LjAnLCAnLXRuJywgJzgnLCAnLW1hJywgJzIwMCcsICctbWV0YWxfYmluZGluZycsICctaW1hZScsICc8aW5maWxlLm1hZT4nLCAnLW9tYWUnLCAnPG91dGZpbGUubWFlPic=

> <r_lp_tautomer_probability>
1

> <r_epik_Ionization_Penalty>
5.70553

> <r_epik_Ionization_Penalty_Charging>
5.70553

> <r_epik_Ionization_Penalty_Neutral>
5.5493e-06

> <r_epik_State_Penalty>
5.70549

> <r_epik_Charging_Adjusted_Penalty>
11.411

> <i_epik_Tot_Q>
-1

> <i_epik_Tot_abs_Q>
1

> <r_epik_Metal_State_Penalty>
1.6859

> <b_epik_Metal_Only>
1

> <s_lp_Force_Field>
OPLS_2005

> <r_lp_Energy>
26.4517

> <b_lp_Chiralities_Consistent>
1

> <s_lp_Variant>
AV-unprocessed.smi:2768-8

> <Gold.Version>
5.8.1

> <Gold.Id.Protein>
6NUR|6NUR_protein|mol2

> <Gold.PLP.Fitness>
47.5559

> <Gold.PLP.PLP>
-39.3086

> <Gold.PLP.part.hbond>
-3.1925

> <Gold.PLP.part.metal>
0.0000

> <Gold.PLP.part.buried>
-4.7442

> <Gold.PLP.part.nonpolar>
-31.8922

> <Gold.PLP.part.repulsive>
0.1296

> <Gold.PLP.ligand.clash>
0.0000

> <Gold.PLP.ligand.torsion>
0.5068

> <Gold.PLP.Chemscore.Hbond>
2.0731

> <Gold.PLP.Chemscore.CHOScore>
1.0000

> <Gold.PLP.Chemscore.Metal>
0.0000

> <Gold.Chemscore.Hbonds>
donor molecule, donor type, donor heavy atom, donor atom, acceptor molecule, acceptor atom, score
      P1  H  7989  7998       L1     1  0.19
      P1  H  7997  8008       L1    10  0.96
      P1  H  7997  8009       L1     1  0.79
      L1  C    18    34       P1  8028  1.00

> <Gold.PLP.Chemscore.Internal.Correction>
0.0415

> <Gold.Rescore>
     Score         DG    S(hbond)    S(metal)    S(lipo)     H(rot)  DE(clash)    DE(int)     intcor
     15.89     -17.66       1.77        0.00      96.13       1.95       0.07       1.70       ----

> <Gold.Chemscore.Fitness>
15.8893

> <Gold.Chemscore.DG>
-17.6625

> <Gold.Chemscore.ZeroCoef>
-5.4800

> <Gold.Chemscore.Hbond>
1.7747

> <Gold.Chemscore.Metal>
0.0000

> <Gold.Chemscore.Lipo>
96.1334

> <Gold.Chemscore.Internal_Hbond>
0.0000

> <Gold.Chemscore.DEClash>
0.0730

> <Gold.Chemscore.DEInternal>
1.7002

> <Gold.Chemscore.Rot>
1.9503

> <Gold.Chemscore.Internal.Correction>
   9.000000E+99

> <Gold.Chemscore.Hbonds>
donor molecule, donor type, donor heavy atom, donor atom, acceptor molecule, acceptor atom, score
      P1  H  7989  7998       L1     1  0.03
      P1  H  7997  8008       L1    10  0.46
      P1  H  7997  8009       L1     1  0.75

> <Gold.Chemscore.Hbond.Weighted>
-5.9277

> <Gold.Chemscore.Metal.Weighted>
-0.0000

> <Gold.Chemscore.Lipo.Weighted>
-11.2476

> <Gold.Chemscore.Internal_Hbond.Weighted>
0.0000

> <Gold.Chemscore.DEClash.Weighted>
0.0730

> <Gold.Chemscore.DEInternal.Weighted>
1.7002

> <Gold.Chemscore.Rot.Weighted>
4.9928

> <Gold.Chemscore.Internal.Correction.Weighted>
   9.000000E+99

> <Gold.Protein.RotatedTorsions>
[ 6907 6896 6895 6894 ] final   30.04 input  -60.11 | X-H torsion
[ 7974 7965 7964 7962 ] final  -24.90 input  175.53 | X-H torsion
[ 8008 7997 7996 7995 ] final -116.79 input   59.86 | X-H torsion
[ 10167 10162 10161 10158 ] final   -1.12 input  -65.29 | X-H torsion
[ 10718 10713 10712 10709 ] final   38.64 input   66.30 | X-H torsion
[ 10763 10752 10751 10750 ] final  100.32 input  -60.55 | X-H torsion
[ 11005 11000 10999 10996 ] final   69.33 input  -57.11 | X-H torsion

> <Gold.Protein.ActiveResidues>
 VAL166  LYS551  ARG553  GLY616  TRP617  ASP618  TYR619  PRO620  LYS621  CYS622 
 ASP623  PHE694  ASN695  SER759  ASP760  ASP761  ALA762  ILE779  LEU786  VAL792 
 PHE793  MET794  SER795  GLU796  ALA797  LYS798  CYS799  TRP800  GLU811  SER814 

> <Gold.Protein.RotatedAtoms>
  152.0402  134.9716  160.0573 H   0  0  0  0  0  0  0  0  0  0  0  0  # atno 6907 bound_to 6896
  152.1158  133.4321  159.4660 H   0  0  0  0  0  0  0  0  0  0  0  0  # atno 6908 bound_to 6896
  150.6846  134.2513  159.4555 H   0  0  0  0  0  0  0  0  0  0  0  0  # atno 6909 bound_to 6896
  146.1525  140.4814  142.8605 H   0  0  0  0  0  0  0  0  0  0  0  0  # atno 7974 bound_to 7965
  155.0734  140.0393  157.2616 H   0  0  0  0  0  0  0  0  0  0  0  0  # atno 8008 bound_to 7997
  154.6964  140.2664  155.6737 H   0  0  0  0  0  0  0  0  0  0  0  0  # atno 8009 bound_to 7997
  156.2746  140.2749  156.1560 H   0  0  0  0  0  0  0  0  0  0  0  0  # atno 8010 bound_to 7997
  140.6796  143.6813  150.8103 H   0  0  0  0  0  0  0  0  0  0  0  0  # atno 10167 bound_to 10162
  157.3612  130.7650  149.7049 H   0  0  0  0  0  0  0  0  0  0  0  0  # atno 10718 bound_to 10713
  153.3124  135.4083  155.1347 H   0  0  0  0  0  0  0  0  0  0  0  0  # atno 10763 bound_to 10752
  154.8579  135.3568  154.5705 H   0  0  0  0  0  0  0  0  0  0  0  0  # atno 10764 bound_to 10752
  153.6135  135.7067  153.5396 H   0  0  0  0  0  0  0  0  0  0  0  0  # atno 10765 bound_to 10752
  139.9660  134.6980  156.0545 H   0  0  0  0  0  0  0  0  0  0  0  0  # atno 11005 bound_to 11000
  144.7922  140.6054  143.6534 LP  0  0  0  0  0  0  0  0  0  0  0  0  # atno 17320 bound_to 7965
  145.4788  139.1497  143.3773 LP  0  0  0  0  0  0  0  0  0  0  0  0  # atno 17321 bound_to 7965
  140.0512  143.5248  152.2673 LP  0  0  0  0  0  0  0  0  0  0  0  0  # atno 17342 bound_to 10162
  139.6111  144.7609  151.2951 LP  0  0  0  0  0  0  0  0  0  0  0  0  # atno 17343 bound_to 10162
  155.9738  130.4113  150.3975 LP  0  0  0  0  0  0  0  0  0  0  0  0  # atno 17370 bound_to 10713
  157.2053  131.0447  151.2629 LP  0  0  0  0  0  0  0  0  0  0  0  0  # atno 17371 bound_to 10713
  141.1339  133.6579  156.3541 LP  0  0  0  0  0  0  0  0  0  0  0  0  # atno 17394 bound_to 11000
  140.5396  134.6133  157.5375 LP  0  0  0  0  0  0  0  0  0  0  0  0  # atno 17395 bound_to 11000

$$$$
