AV-unprocessed.smi:1426|AV-procd|sdf|5808|dock10
  -GOLD-   22720 5463D 1   1.00000     0.00000
 Structure written by MMmdl.
 44 46  0  0  0  0  0  0  0  0  2 V2000
  150.3697  133.7594  155.4039 O   0  0  0  0  0  0  0  0  0  0  0  0
  149.8134  134.4064  154.5167 C   0  0  0  0  0  0  0  0  0  0  0  0
  149.9842  135.7240  154.3411 N   0  0  0  0  0  0  0  0  0  0  0  0
  150.8368  136.5742  155.1653 C   0  0  0  0  0  0  0  0  0  0  0  0
  150.7178  138.0602  154.7763 C   0  0  1  0  0  0  0  0  0  0  0  0
  149.7727  138.8524  155.6555 C   0  0  0  0  0  0  0  0  0  0  0  0
  150.2052  140.2862  155.3659 C   0  0  0  0  0  0  0  0  0  0  0  0
  151.6044  140.2228  155.1056 O   0  0  0  0  0  0  0  0  0  0  0  0
  152.0085  138.8682  154.9262 C   0  0  0  0  0  0  0  0  0  0  0  0
  148.9482  133.9031  153.6205 N   0  0  0  0  0  0  0  0  0  0  0  0
  148.5002  132.5572  153.4946 C   0  0  0  0  0  0  0  0  0  0  0  0
  149.1074  131.5081  154.2321 C   0  0  0  0  0  0  0  0  0  0  0  0
  148.6320  130.1897  154.1020 C   0  0  0  0  0  0  0  0  0  0  0  0
  147.5577  129.9374  153.2322 C   0  0  0  0  0  0  0  0  0  0  0  0
  147.0145  130.9523  152.5290 N   0  3  0  0  0  0  0  0  0  0  0  0
  147.4370  132.2398  152.5995 C   0  0  0  0  0  0  0  0  0  0  0  0
  146.7787  133.1943  151.7908 N   0  0  0  0  0  0  0  0  0  0  0  0
  146.2129  134.4003  152.3841 C   0  0  0  0  0  0  0  0  0  0  0  0
  145.3005  134.9808  151.3073 C   0  0  0  0  0  0  0  0  0  0  0  0
  144.7469  133.7264  150.6384 C   0  0  0  0  0  0  0  0  0  0  0  0
  145.9118  132.7332  150.7109 C   0  0  0  0  0  0  0  0  0  0  0  0
  149.4865  136.1758  153.5878 H   0  0  0  0  0  0  0  0  0  0  0  0
  150.5909  136.4388  156.2199 H   0  0  0  0  0  0  0  0  0  0  0  0
  151.8664  136.2364  155.0450 H   0  0  0  0  0  0  0  0  0  0  0  0
  150.3718  138.1424  153.7443 H   0  0  0  0  0  0  0  0  0  0  0  0
  148.7216  138.6722  155.4276 H   0  0  0  0  0  0  0  0  0  0  0  0
  149.9400  138.6172  156.7077 H   0  0  0  0  0  0  0  0  0  0  0  0
  149.7034  140.6612  154.4730 H   0  0  0  0  0  0  0  0  0  0  0  0
  149.9816  140.9641  156.1899 H   0  0  0  0  0  0  0  0  0  0  0  0
  152.5600  138.5559  155.8141 H   0  0  0  0  0  0  0  0  0  0  0  0
  152.6686  138.7618  154.0648 H   0  0  0  0  0  0  0  0  0  0  0  0
  148.4892  134.5738  153.0220 H   0  0  0  0  0  0  0  0  0  0  0  0
  149.9393  131.6937  154.8947 H   0  0  0  0  0  0  0  0  0  0  0  0
  149.0853  129.3854  154.6626 H   0  0  0  0  0  0  0  0  0  0  0  0
  147.1246  128.9608  153.0706 H   0  0  0  0  0  0  0  0  0  0  0  0
  145.6230  134.1515  153.2674 H   0  0  0  0  0  0  0  0  0  0  0  0
  146.9925  135.1044  152.6768 H   0  0  0  0  0  0  0  0  0  0  0  0
  144.5232  135.6295  151.7121 H   0  0  0  0  0  0  0  0  0  0  0  0
  145.8871  135.5573  150.5904 H   0  0  0  0  0  0  0  0  0  0  0  0
  143.9037  133.3466  151.2169 H   0  0  0  0  0  0  0  0  0  0  0  0
  144.4022  133.9027  149.6188 H   0  0  0  0  0  0  0  0  0  0  0  0
  146.4750  132.7522  149.7775 H   0  0  0  0  0  0  0  0  0  0  0  0
  145.5552  131.7154  150.8745 H   0  0  0  0  0  0  0  0  0  0  0  0
  146.2429  130.7350  151.8984 H   0  0  0  0  0  0  0  0  0  0  0  0
  1  2  2  0  0  0  0
  2  3  1  0  0  0  0
  2 10  1  0  0  0  0
  3  4  1  0  0  0  0
  3 22  1  0  0  0  0
  4  5  1  0  0  0  0
  4 23  1  0  0  0  0
  4 24  1  0  0  0  0
  5  9  1  0  0  0  0
  5  6  1  0  0  0  0
  5 25  1  0  0  0  0
  6  7  1  0  0  0  0
  6 26  1  0  0  0  0
  6 27  1  0  0  0  0
  7  8  1  0  0  0  0
  7 28  1  0  0  0  0
  7 29  1  0  0  0  0
  8  9  1  0  0  0  0
  9 30  1  0  0  0  0
  9 31  1  0  0  0  0
 10 11  1  0  0  0  0
 10 32  1  0  0  0  0
 11 16  1  0  0  0  0
 11 12  2  0  0  0  0
 12 13  1  0  0  0  0
 12 33  1  0  0  0  0
 13 14  2  0  0  0  0
 13 34  1  0  0  0  0
 14 15  1  0  0  0  0
 14 35  1  0  0  0  0
 15 16  2  0  0  0  0
 15 44  1  0  0  0  0
 16 17  1  0  0  0  0
 17 21  1  0  0  0  0
 17 18  1  0  0  0  0
 18 19  1  0  0  0  0
 18 36  1  0  0  0  0
 18 37  1  0  0  0  0
 19 20  1  0  0  0  0
 19 38  1  0  0  0  0
 19 39  1  0  0  0  0
 20 21  1  0  0  0  0
 20 40  1  0  0  0  0
 20 41  1  0  0  0  0
 21 42  1  0  0  0  0
 21 43  1  0  0  0  0
M  CHG  1  15   1
M  END
> <s_m_source_file>
AV-unprocessed.smi

> <i_m_source_file_index>
1426

> <i_lp_mmshare_version>
43012

> <i_f3d_flags>
0

> <s_epik_input>
W0NIMl0xT1tDSDJdW0NIMl1bQ0BIXTFbQ0gyXVtOSF1DKD1PKVtOSF1jMltjSF1bY0hdW2NIXW5jMk4zW0NIMl1bQ0gyXVtDSDJdW0NIMl0z

> <s_epik_cmdline>
J2VwaWtfcHl0aG9uJywgJy1waCcsICc3LjAnLCAnLXRuJywgJzgnLCAnLW1hJywgJzIwMCcsICctbWV0YWxfYmluZGluZycsICctaW1hZScsICc8aW5maWxlLm1hZT4nLCAnLW9tYWUnLCAnPG91dGZpbGUubWFlPic=

> <r_lp_tautomer_probability>
0.999994

> <r_epik_Ionization_Penalty>
1.10677

> <r_epik_Ionization_Penalty_Charging>
1.10675

> <r_epik_Ionization_Penalty_Neutral>
2.02663e-05

> <r_epik_State_Penalty>
1.16438

> <r_epik_Charging_Adjusted_Penalty>
2.27113

> <i_epik_Tot_Q>
1

> <i_epik_Tot_abs_Q>
1

> <r_epik_Metal_State_Penalty>
1.25078

> <b_epik_Metal_Only>
0

> <s_lp_Force_Field>
OPLS_2005

> <r_lp_Energy>
54.362

> <b_lp_Chiralities_Consistent>
1

> <s_lp_Variant>
AV-unprocessed.smi:1426-4

> <Gold.Version>
5.8.1

> <Gold.Id.Protein>
6NUR|6NUR_protein|mol2

> <Gold.PLP.Fitness>
43.8409

> <Gold.PLP.PLP>
-36.6114

> <Gold.PLP.part.hbond>
-4.8428

> <Gold.PLP.part.metal>
0.0000

> <Gold.PLP.part.buried>
-3.2229

> <Gold.PLP.part.nonpolar>
-29.5255

> <Gold.PLP.part.repulsive>
0.3167

> <Gold.PLP.ligand.clash>
0.0000

> <Gold.PLP.ligand.torsion>
0.7203

> <Gold.PLP.Chemscore.Hbond>
2.7600

> <Gold.PLP.Chemscore.CHOScore>
0.0000

> <Gold.PLP.Chemscore.Metal>
0.0000

> <Gold.Chemscore.Hbonds>
donor molecule, donor type, donor heavy atom, donor atom, acceptor molecule, acceptor atom, score
      L1  H     3    22       P1  7948  0.99
      L1  H    10    32       P1  7948  0.76
      P1  H  7989  7998       L1     8  0.96

> <Gold.PLP.Chemscore.Internal.Correction>
0.3899

> <Gold.Rescore>
     Score         DG    S(hbond)    S(metal)    S(lipo)     H(rot)  DE(clash)    DE(int)     intcor
     11.90     -15.25       1.35        0.00      75.77       1.40       0.26       3.10       ----

> <Gold.Chemscore.Fitness>
11.9036

> <Gold.Chemscore.DG>
-15.2546

> <Gold.Chemscore.ZeroCoef>
-5.4800

> <Gold.Chemscore.Hbond>
1.3471

> <Gold.Chemscore.Metal>
0.0000

> <Gold.Chemscore.Lipo>
75.7707

> <Gold.Chemscore.Internal_Hbond>
0.0000

> <Gold.Chemscore.DEClash>
0.2553

> <Gold.Chemscore.DEInternal>
3.0957

> <Gold.Chemscore.Rot>
1.4023

> <Gold.Chemscore.Internal.Correction>
   9.000000E+99

> <Gold.Chemscore.Hbonds>
donor molecule, donor type, donor heavy atom, donor atom, acceptor molecule, acceptor atom, score
      L1  H     3    22       P1  7948  0.56
      L1  H    10    32       P1  7948  0.25
      P1  H  7989  7998       L1     8  0.12

> <Gold.Chemscore.Hbond.Weighted>
-4.4993

> <Gold.Chemscore.Metal.Weighted>
-0.0000

> <Gold.Chemscore.Lipo.Weighted>
-8.8652

> <Gold.Chemscore.Internal_Hbond.Weighted>
0.0000

> <Gold.Chemscore.DEClash.Weighted>
0.2553

> <Gold.Chemscore.DEInternal.Weighted>
3.0957

> <Gold.Chemscore.Rot.Weighted>
3.5898

> <Gold.Chemscore.Internal.Correction.Weighted>
   9.000000E+99

> <Gold.Protein.RotatedTorsions>
[ 6907 6896 6895 6894 ] final   -6.46 input  -60.11 | X-H torsion
[ 7974 7965 7964 7962 ] final  -14.14 input  175.53 | X-H torsion
[ 8008 7997 7996 7995 ] final -132.38 input   59.86 | X-H torsion
[ 10167 10162 10161 10158 ] final  -90.08 input  -65.29 | X-H torsion
[ 10718 10713 10712 10709 ] final  -66.62 input   66.30 | X-H torsion
[ 10763 10752 10751 10750 ] final   83.27 input  -60.55 | X-H torsion
[ 11005 11000 10999 10996 ] final  -59.52 input  -57.11 | X-H torsion

> <Gold.Protein.ActiveResidues>
 VAL166  LYS551  ARG553  GLY616  TRP617  ASP618  TYR619  PRO620  LYS621  CYS622 
 ASP623  PHE694  ASN695  SER759  ASP760  ASP761  ALA762  ILE779  LEU786  VAL792 
 PHE793  MET794  SER795  GLU796  ALA797  LYS798  CYS799  TRP800  GLU811  SER814 

> <Gold.Protein.RotatedAtoms>
  151.4652  135.1041  159.9735 H   0  0  0  0  0  0  0  0  0  0  0  0  # atno 6907 bound_to 6896
  152.4837  133.8315  159.7116 H   0  0  0  0  0  0  0  0  0  0  0  0  # atno 6908 bound_to 6896
  150.8930  133.7158  159.2926 H   0  0  0  0  0  0  0  0  0  0  0  0  # atno 6909 bound_to 6896
  146.2086  140.3305  142.8398 H   0  0  0  0  0  0  0  0  0  0  0  0  # atno 7974 bound_to 7965
  155.3279  140.0465  157.3041 H   0  0  0  0  0  0  0  0  0  0  0  0  # atno 8008 bound_to 7997
  154.5344  140.2267  155.8714 H   0  0  0  0  0  0  0  0  0  0  0  0  # atno 8009 bound_to 7997
  156.1820  140.3071  155.9173 H   0  0  0  0  0  0  0  0  0  0  0  0  # atno 8010 bound_to 7997
  140.3584  143.2854  151.9643 H   0  0  0  0  0  0  0  0  0  0  0  0  # atno 10167 bound_to 10162
  156.0602  130.4265  150.1735 H   0  0  0  0  0  0  0  0  0  0  0  0  # atno 10718 bound_to 10713
  153.1276  135.4697  154.9298 H   0  0  0  0  0  0  0  0  0  0  0  0  # atno 10763 bound_to 10752
  154.7635  135.3138  154.8335 H   0  0  0  0  0  0  0  0  0  0  0  0  # atno 10764 bound_to 10752
  153.8884  135.6887  153.4816 H   0  0  0  0  0  0  0  0  0  0  0  0  # atno 10765 bound_to 10752
  141.1251  133.6617  156.5084 H   0  0  0  0  0  0  0  0  0  0  0  0  # atno 11005 bound_to 11000
  144.8856  140.7457  143.5959 LP  0  0  0  0  0  0  0  0  0  0  0  0  # atno 17320 bound_to 7965
  145.3226  139.1784  143.4580 LP  0  0  0  0  0  0  0  0  0  0  0  0  # atno 17321 bound_to 7965
  139.4817  144.6014  151.7599 LP  0  0  0  0  0  0  0  0  0  0  0  0  # atno 17342 bound_to 10162
  140.5151  144.0966  150.6006 LP  0  0  0  0  0  0  0  0  0  0  0  0  # atno 17343 bound_to 10162
  156.9805  130.9862  151.3438 LP  0  0  0  0  0  0  0  0  0  0  0  0  # atno 17370 bound_to 10713
  157.5605  130.8242  149.8260 LP  0  0  0  0  0  0  0  0  0  0  0  0  # atno 17371 bound_to 10713
  140.4389  134.7034  157.4981 LP  0  0  0  0  0  0  0  0  0  0  0  0  # atno 17394 bound_to 11000
  140.0243  134.6501  155.9195 LP  0  0  0  0  0  0  0  0  0  0  0  0  # atno 17395 bound_to 11000

$$$$
