AV-unprocessed.smi:560|AV-procd|sdf|2929|dock8
  -GOLD-   2262023423D 1   1.00000     0.00000
 Structure written by MMmdl.
 42 43  0  0  0  0  0  0  0  0  2 V2000
  153.0178  142.2107  161.9832 C   0  0  0  0  0  0  0  0  0  0  0  0
  153.3461  142.3619  160.4838 C   0  0  1  0  0  0  0  0  0  0  0  0
  152.9463  141.1307  159.6526 C   0  0  0  0  0  0  0  0  0  0  0  0
  153.3643  140.0088  159.9420 O   0  0  0  0  0  0  0  0  0  0  0  0
  152.1340  141.3584  158.6076 N   0  0  0  0  0  0  0  0  0  0  0  0
  151.6152  140.3354  157.7057 C   0  0  2  0  0  0  0  0  0  0  0  0
  152.1693  140.5239  156.2813 C   0  0  0  0  0  0  0  0  0  0  0  0
  151.5417  139.5181  155.3017 C   0  0  0  0  0  0  0  0  0  0  0  0
  150.0600  139.6196  155.3051 N   0  3  1  0  0  0  0  0  0  0  0  0
  149.4292  138.7648  154.2666 C   0  0  0  0  0  0  0  0  0  0  0  0
  148.3907  139.5138  153.4247 C   0  0  0  0  0  0  0  0  0  0  0  0
  147.9779  138.9151  152.3054 N   0  0  0  0  0  0  0  0  0  0  0  0
  147.9770  140.6202  153.7676 O   0  0  0  0  0  0  0  0  0  0  0  0
  149.5015  139.3951  156.6658 C   0  0  0  0  0  0  0  0  0  0  0  0
  150.0798  140.4016  157.6740 C   0  0  0  0  0  0  0  0  0  0  0  0
  152.7626  143.5740  159.9189 N   0  0  0  0  0  0  0  0  0  0  0  0
  151.9841  144.5187  160.5569 C   0  0  0  0  0  0  0  0  0  0  0  0
  151.6914  145.4931  159.6464 C   0  0  0  0  0  0  0  0  0  0  0  0
  152.3502  145.0584  158.4630 C   0  0  0  0  0  0  0  0  0  0  0  0
  152.9957  143.9160  158.6303 N   0  0  0  0  0  0  0  0  0  0  0  0
  153.5164  141.3392  162.4095 H   0  0  0  0  0  0  0  0  0  0  0  0
  151.9471  142.0985  162.1591 H   0  0  0  0  0  0  0  0  0  0  0  0
  153.3537  143.0837  162.5433 H   0  0  0  0  0  0  0  0  0  0  0  0
  154.4297  142.4591  160.4013 H   0  0  0  0  0  0  0  0  0  0  0  0
  151.8385  142.3092  158.4398 H   0  0  0  0  0  0  0  0  0  0  0  0
  151.9080  139.3510  158.0766 H   0  0  0  0  0  0  0  0  0  0  0  0
  151.9677  141.5391  155.9363 H   0  0  0  0  0  0  0  0  0  0  0  0
  153.2537  140.4071  156.2785 H   0  0  0  0  0  0  0  0  0  0  0  0
  151.9226  139.7132  154.2985 H   0  0  0  0  0  0  0  0  0  0  0  0
  151.8390  138.5010  155.5625 H   0  0  0  0  0  0  0  0  0  0  0  0
  150.1916  138.4071  153.5731 H   0  0  0  0  0  0  0  0  0  0  0  0
  148.9848  137.8807  154.7274 H   0  0  0  0  0  0  0  0  0  0  0  0
  147.2909  139.3600  151.7137 H   0  0  0  0  0  0  0  0  0  0  0  0
  148.3525  138.0111  152.0543 H   0  0  0  0  0  0  0  0  0  0  0  0
  148.4157  139.4929  156.6485 H   0  0  0  0  0  0  0  0  0  0  0  0
  149.7201  138.3754  156.9871 H   0  0  0  0  0  0  0  0  0  0  0  0
  149.6763  140.2004  158.6675 H   0  0  0  0  0  0  0  0  0  0  0  0
  149.7549  141.4083  157.4060 H   0  0  0  0  0  0  0  0  0  0  0  0
  151.7050  144.4200  161.5957 H   0  0  0  0  0  0  0  0  0  0  0  0
  151.0986  146.3823  159.8021 H   0  0  0  0  0  0  0  0  0  0  0  0
  152.3820  145.5373  157.4953 H   0  0  0  0  0  0  0  0  0  0  0  0
  149.8405  140.5725  155.0508 H   0  0  0  0  0  0  0  0  0  0  0  0
  1  2  1  0  0  0  0
  1 21  1  0  0  0  0
  1 22  1  0  0  0  0
  1 23  1  0  0  0  0
  2  3  1  0  0  0  0
  2 16  1  0  0  0  0
  2 24  1  0  0  0  0
  3  4  2  0  0  0  0
  3  5  1  0  0  0  0
  5  6  1  0  0  0  0
  5 25  1  0  0  0  0
  6 15  1  0  0  0  0
  6  7  1  0  0  0  0
  6 26  1  0  0  0  0
  7  8  1  0  0  0  0
  7 27  1  0  0  0  0
  7 28  1  0  0  0  0
  8  9  1  0  0  0  0
  8 29  1  0  0  0  0
  8 30  1  0  0  0  0
  9 10  1  0  0  0  0
  9 14  1  0  0  0  0
  9 42  1  0  0  0  0
 10 11  1  0  0  0  0
 10 31  1  0  0  0  0
 10 32  1  0  0  0  0
 11 12  1  0  0  0  0
 11 13  2  0  0  0  0
 12 33  1  0  0  0  0
 12 34  1  0  0  0  0
 14 15  1  0  0  0  0
 14 35  1  0  0  0  0
 14 36  1  0  0  0  0
 15 37  1  0  0  0  0
 15 38  1  0  0  0  0
 16 20  1  0  0  0  0
 16 17  1  0  0  0  0
 17 18  2  0  0  0  0
 17 39  1  0  0  0  0
 18 19  1  0  0  0  0
 18 40  1  0  0  0  0
 19 20  2  0  0  0  0
 19 41  1  0  0  0  0
M  CHG  1   9   1
M  END
> <s_m_source_file>
AV-unprocessed.smi

> <i_m_source_file_index>
560

> <i_lp_mmshare_version>
43012

> <i_f3d_flags>
0

> <s_epik_input>
bjFbY0hdW2NIXVtjSF1uMVtDQEhdKFtDSDNdKUMoPU8pW05IXVtDSF0yW0NIMl1bQ0gyXU4oW0NIMl1bQ0gyXTIpW0NIMl1DKD1PKVtOSDJd

> <s_epik_cmdline>
J2VwaWtfcHl0aG9uJywgJy1waCcsICc3LjAnLCAnLXRuJywgJzgnLCAnLW1hJywgJzIwMCcsICctbWV0YWxfYmluZGluZycsICctaW1hZScsICc8aW5maWxlLm1hZT4nLCAnLW9tYWUnLCAnPG91dGZpbGUubWFlPic=

> <r_lp_tautomer_probability>
1

> <r_epik_Ionization_Penalty>
1.02943

> <r_epik_Ionization_Penalty_Charging>
1.02936

> <r_epik_Ionization_Penalty_Neutral>
7.4537e-05

> <r_epik_State_Penalty>
1.08036

> <r_epik_Charging_Adjusted_Penalty>
2.10972

> <i_epik_Tot_Q>
1

> <i_epik_Tot_abs_Q>
1

> <r_epik_Metal_State_Penalty>
1.09347

> <b_epik_Metal_Only>
0

> <s_lp_Force_Field>
OPLS_2005

> <r_lp_Energy>
15.5023

> <b_lp_Chiralities_Consistent>
1

> <s_lp_Variant>
AV-unprocessed.smi:560-4

> <Gold.Version>
5.8.1

> <Gold.Id.Protein>
6NUR|6NUR_protein|mol2

> <Gold.PLP.Fitness>
44.7365

> <Gold.PLP.PLP>
-43.3239

> <Gold.PLP.part.hbond>
-2.0000

> <Gold.PLP.part.metal>
0.0000

> <Gold.PLP.part.buried>
-7.3607

> <Gold.PLP.part.nonpolar>
-34.6935

> <Gold.PLP.part.repulsive>
0.3377

> <Gold.PLP.ligand.clash>
0.0000

> <Gold.PLP.ligand.torsion>
0.8653

> <Gold.PLP.Chemscore.Hbond>
1.0000

> <Gold.PLP.Chemscore.CHOScore>
0.0000

> <Gold.PLP.Chemscore.Metal>
0.0000

> <Gold.Chemscore.Hbonds>
donor molecule, donor type, donor heavy atom, donor atom, acceptor molecule, acceptor atom, score
      L1  H    12    34       P1  7948  1.00

> <Gold.PLP.Chemscore.Internal.Correction>
0.1431

> <Gold.Rescore>
     Score         DG    S(hbond)    S(metal)    S(lipo)     H(rot)  DE(clash)    DE(int)     intcor
     10.66     -12.96       0.99        0.00      90.82       2.52       0.04       2.27       ----

> <Gold.Chemscore.Fitness>
10.6583

> <Gold.Chemscore.DG>
-12.9612

> <Gold.Chemscore.ZeroCoef>
-5.4800

> <Gold.Chemscore.Hbond>
0.9934

> <Gold.Chemscore.Metal>
0.0000

> <Gold.Chemscore.Lipo>
90.8156

> <Gold.Chemscore.Internal_Hbond>
0.0000

> <Gold.Chemscore.DEClash>
0.0363

> <Gold.Chemscore.DEInternal>
2.2666

> <Gold.Chemscore.Rot>
2.5243

> <Gold.Chemscore.Internal.Correction>
   9.000000E+99

> <Gold.Chemscore.Hbonds>
donor molecule, donor type, donor heavy atom, donor atom, acceptor molecule, acceptor atom, score
      L1  H    12    34       P1  7948  1.00

> <Gold.Chemscore.Hbond.Weighted>
-3.3180

> <Gold.Chemscore.Metal.Weighted>
-0.0000

> <Gold.Chemscore.Lipo.Weighted>
-10.6254

> <Gold.Chemscore.Internal_Hbond.Weighted>
0.0000

> <Gold.Chemscore.DEClash.Weighted>
0.0363

> <Gold.Chemscore.DEInternal.Weighted>
2.2666

> <Gold.Chemscore.Rot.Weighted>
6.4622

> <Gold.Chemscore.Internal.Correction.Weighted>
   9.000000E+99

> <Gold.Protein.RotatedTorsions>
[ 6907 6896 6895 6894 ] final  -84.94 input  -60.11 | X-H torsion
[ 7974 7965 7964 7962 ] final  138.66 input  175.53 | X-H torsion
[ 8008 7997 7996 7995 ] final  157.45 input   59.86 | X-H torsion
[ 10167 10162 10161 10158 ] final  167.82 input  -65.29 | X-H torsion
[ 10718 10713 10712 10709 ] final -123.46 input   66.30 | X-H torsion
[ 10763 10752 10751 10750 ] final -170.13 input  -60.55 | X-H torsion
[ 11005 11000 10999 10996 ] final  -50.08 input  -57.11 | X-H torsion

> <Gold.Protein.ActiveResidues>
 VAL166  LYS551  ARG553  GLY616  TRP617  ASP618  TYR619  PRO620  LYS621  CYS622 
 ASP623  PHE694  ASN695  SER759  ASP760  ASP761  ALA762  ILE779  LEU786  VAL792 
 PHE793  MET794  SER795  GLU796  ALA797  LYS798  CYS799  TRP800  GLU811  SER814 

> <Gold.Protein.RotatedAtoms>
  150.6873  134.3281  159.4815 H   0  0  0  0  0  0  0  0  0  0  0  0  # atno 6907 bound_to 6896
  152.1149  134.9245  160.0574 H   0  0  0  0  0  0  0  0  0  0  0  0  # atno 6908 bound_to 6896
  152.0473  133.3969  159.4399 H   0  0  0  0  0  0  0  0  0  0  0  0  # atno 6909 bound_to 6896
  144.9351  139.4999  143.5599 H   0  0  0  0  0  0  0  0  0  0  0  0  # atno 7974 bound_to 7965
  156.2363  140.1885  156.7111 H   0  0  0  0  0  0  0  0  0  0  0  0  # atno 8008 bound_to 7997
  154.6112  140.0621  156.9523 H   0  0  0  0  0  0  0  0  0  0  0  0  # atno 8009 bound_to 7997
  155.2013  140.3292  155.4345 H   0  0  0  0  0  0  0  0  0  0  0  0  # atno 8010 bound_to 7997
  139.4954  144.3881  151.9548 H   0  0  0  0  0  0  0  0  0  0  0  0  # atno 10167 bound_to 10162
  156.1504  130.6530  150.9904 H   0  0  0  0  0  0  0  0  0  0  0  0  # atno 10718 bound_to 10713
  154.6448  135.2903  155.0060 H   0  0  0  0  0  0  0  0  0  0  0  0  # atno 10763 bound_to 10752
  154.1173  135.6553  153.4900 H   0  0  0  0  0  0  0  0  0  0  0  0  # atno 10764 bound_to 10752
  153.0345  135.5279  154.7330 H   0  0  0  0  0  0  0  0  0  0  0  0  # atno 10765 bound_to 10752
  141.0796  133.6657  156.3679 H   0  0  0  0  0  0  0  0  0  0  0  0  # atno 11005 bound_to 11000
  146.3263  139.8330  142.8905 LP  0  0  0  0  0  0  0  0  0  0  0  0  # atno 17320 bound_to 7965
  145.3079  141.0212  143.3571 LP  0  0  0  0  0  0  0  0  0  0  0  0  # atno 17321 bound_to 7965
  140.3318  144.3307  150.5986 LP  0  0  0  0  0  0  0  0  0  0  0  0  # atno 17342 bound_to 10162
  140.5639  143.2188  151.7718 LP  0  0  0  0  0  0  0  0  0  0  0  0  # atno 17343 bound_to 10162
  157.6652  131.0873  150.7746 LP  0  0  0  0  0  0  0  0  0  0  0  0  # atno 17370 bound_to 10713
  156.7814  130.4860  149.5400 LP  0  0  0  0  0  0  0  0  0  0  0  0  # atno 17371 bound_to 10713
  140.5498  134.6039  157.5404 LP  0  0  0  0  0  0  0  0  0  0  0  0  # atno 17394 bound_to 11000
  139.9609  134.7454  156.0239 LP  0  0  0  0  0  0  0  0  0  0  0  0  # atno 17395 bound_to 11000

$$$$
