AV-unprocessed.smi:2346|AV-procd|sdf|9367|dock5
  -GOLD-   2272012593D 1   1.00000     0.00000
 Structure written by MMmdl.
 45 47  0  0  0  0  0  0  0  0  2 V2000
  157.0352  140.3113  159.2892 C   0  0  0  0  0  0  0  0  0  0  0  0
  155.6559  140.1876  158.9754 O   0  0  0  0  0  0  0  0  0  0  0  0
  154.9211  139.2145  159.6213 C   0  0  0  0  0  0  0  0  0  0  0  0
  155.2065  138.7559  160.9326 C   0  0  0  0  0  0  0  0  0  0  0  0
  154.4126  137.7583  161.5310 C   0  0  0  0  0  0  0  0  0  0  0  0
  154.7150  137.2940  162.8746 C   0  0  0  0  0  0  0  0  0  0  0  0
  154.9556  136.9239  163.9441 N   0  0  0  0  0  0  0  0  0  0  0  0
  153.3264  137.2108  160.8242 C   0  0  0  0  0  0  0  0  0  0  0  0
  153.0347  137.6601  159.5238 C   0  0  0  0  0  0  0  0  0  0  0  0
  153.8277  138.6642  158.9132 C   0  0  0  0  0  0  0  0  0  0  0  0
  153.5991  139.1519  157.6431 O   0  0  0  0  0  0  0  0  0  0  0  0
  152.2784  139.0999  157.1244 C   0  0  0  0  0  0  0  0  0  0  0  0
  151.3324  139.7377  158.1483 C   0  0  0  0  0  0  0  0  0  0  0  0
  151.1317  141.1693  157.8869 N   0  0  0  0  0  0  0  0  0  0  0  0
  150.3797  141.7973  156.9362 C   0  0  0  0  0  0  0  0  0  0  0  0
  149.5191  141.1470  155.8961 C   0  0  2  0  0  0  0  0  0  0  0  0
  150.3073  140.1303  155.0568 C   0  0  0  0  0  0  0  0  0  0  0  0
  148.9443  142.0996  155.0285 O   0  0  0  0  0  0  0  0  0  0  0  0
  150.5173  143.1390  157.1403 N   0  3  0  0  0  0  0  0  0  0  0  0
  151.3873  143.3710  158.2056 C   0  0  0  0  0  0  0  0  0  0  0  0
  151.8398  144.5596  158.7699 C   0  0  0  0  0  0  0  0  0  0  0  0
  152.7346  144.4447  159.8540 C   0  0  0  0  0  0  0  0  0  0  0  0
  153.1451  143.1849  160.3365 C   0  0  0  0  0  0  0  0  0  0  0  0
  152.6765  141.9864  159.7579 C   0  0  0  0  0  0  0  0  0  0  0  0
  151.7908  142.1092  158.6874 C   0  0  0  0  0  0  0  0  0  0  0  0
  157.4662  141.1197  158.6987 H   0  0  0  0  0  0  0  0  0  0  0  0
  157.5827  139.3992  159.0477 H   0  0  0  0  0  0  0  0  0  0  0  0
  157.1851  140.5560  160.3416 H   0  0  0  0  0  0  0  0  0  0  0  0
  156.0341  139.1590  161.4972 H   0  0  0  0  0  0  0  0  0  0  0  0
  152.7113  136.4439  161.2733 H   0  0  0  0  0  0  0  0  0  0  0  0
  152.1940  137.2146  159.0142 H   0  0  0  0  0  0  0  0  0  0  0  0
  152.2206  139.6389  156.1776 H   0  0  0  0  0  0  0  0  0  0  0  0
  151.9835  138.0640  156.9483 H   0  0  0  0  0  0  0  0  0  0  0  0
  150.3569  139.2520  158.1148 H   0  0  0  0  0  0  0  0  0  0  0  0
  151.7037  139.6054  159.1649 H   0  0  0  0  0  0  0  0  0  0  0  0
  148.7046  140.6194  156.3926 H   0  0  0  0  0  0  0  0  0  0  0  0
  150.7455  139.3573  155.6891 H   0  0  0  0  0  0  0  0  0  0  0  0
  151.1161  140.6058  154.5010 H   0  0  0  0  0  0  0  0  0  0  0  0
  149.6592  139.6335  154.3341 H   0  0  0  0  0  0  0  0  0  0  0  0
  149.1784  142.9633  155.3333 H   0  0  0  0  0  0  0  0  0  0  0  0
  151.5272  145.5256  158.4010 H   0  0  0  0  0  0  0  0  0  0  0  0
  153.1137  145.3406  160.3241 H   0  0  0  0  0  0  0  0  0  0  0  0
  153.8329  143.1362  161.1683 H   0  0  0  0  0  0  0  0  0  0  0  0
  152.9982  141.0272  160.1356 H   0  0  0  0  0  0  0  0  0  0  0  0
  150.0490  143.8423  156.5835 H   0  0  0  0  0  0  0  0  0  0  0  0
  1  2  1  0  0  0  0
  1 26  1  0  0  0  0
  1 27  1  0  0  0  0
  1 28  1  0  0  0  0
  2  3  1  0  0  0  0
  3 10  1  0  0  0  0
  3  4  2  0  0  0  0
  4  5  1  0  0  0  0
  4 29  1  0  0  0  0
  5  6  1  0  0  0  0
  5  8  2  0  0  0  0
  6  7  3  0  0  0  0
  8  9  1  0  0  0  0
  8 30  1  0  0  0  0
  9 10  2  0  0  0  0
  9 31  1  0  0  0  0
 10 11  1  0  0  0  0
 11 12  1  0  0  0  0
 12 13  1  0  0  0  0
 12 32  1  0  0  0  0
 12 33  1  0  0  0  0
 13 14  1  0  0  0  0
 13 34  1  0  0  0  0
 13 35  1  0  0  0  0
 14 25  1  0  0  0  0
 14 15  1  0  0  0  0
 15 16  1  0  0  0  0
 15 19  2  0  0  0  0
 16 17  1  0  0  0  0
 16 18  1  0  0  0  0
 16 36  1  0  0  0  0
 17 37  1  0  0  0  0
 17 38  1  0  0  0  0
 17 39  1  0  0  0  0
 18 40  1  0  0  0  0
 19 20  1  0  0  0  0
 19 45  1  0  0  0  0
 20 25  2  0  0  0  0
 20 21  1  0  0  0  0
 21 22  2  0  0  0  0
 21 41  1  0  0  0  0
 22 23  1  0  0  0  0
 22 42  1  0  0  0  0
 23 24  2  0  0  0  0
 23 43  1  0  0  0  0
 24 25  1  0  0  0  0
 24 44  1  0  0  0  0
M  CHG  1  19   1
M  END
> <s_m_source_file>
AV-unprocessed.smi

> <i_m_source_file_index>
2346

> <i_lp_mmshare_version>
43012

> <i_f3d_flags>
0

> <s_epik_input>
W0NIM11PYzFbY0hdYyhDI04pW2NIXVtjSF1jMU9bQ0gyXVtDSDJdbihjKG4yKVtDQEhdKFtDSDNdKVtPSF0pYyhjMjMpW2NIXVtjSF1bY0hdW2NIXTM=

> <s_epik_cmdline>
J2VwaWtfcHl0aG9uJywgJy1waCcsICc3LjAnLCAnLXRuJywgJzgnLCAnLW1hJywgJzIwMCcsICctbWV0YWxfYmluZGluZycsICctaW1hZScsICc8aW5maWxlLm1hZT4nLCAnLW9tYWUnLCAnPG91dGZpbGUubWFlPic=

> <r_epik_Ionization_Penalty>
1.58928

> <r_epik_Ionization_Penalty_Charging>
1.58925

> <r_epik_Ionization_Penalty_Neutral>
2.92192e-05

> <r_epik_State_Penalty>
1.68649

> <r_epik_Charging_Adjusted_Penalty>
3.27574

> <i_epik_Tot_Q>
1

> <i_epik_Tot_abs_Q>
1

> <r_epik_Metal_State_Penalty>
5.74385

> <b_epik_Metal_Only>
0

> <s_lp_Force_Field>
OPLS_2005

> <r_lp_Energy>
24.6554

> <b_lp_Chiralities_Consistent>
1

> <s_lp_Variant>
AV-unprocessed.smi:2346-3

> <Gold.Version>
5.8.1

> <Gold.Id.Protein>
6NUR|6NUR_protein|mol2

> <Gold.PLP.Fitness>
59.3740

> <Gold.PLP.PLP>
-49.7591

> <Gold.PLP.part.hbond>
-4.8214

> <Gold.PLP.part.metal>
0.0000

> <Gold.PLP.part.buried>
-5.3328

> <Gold.PLP.part.nonpolar>
-40.9297

> <Gold.PLP.part.repulsive>
0.0839

> <Gold.PLP.ligand.clash>
0.0000

> <Gold.PLP.ligand.torsion>
1.2468

> <Gold.PLP.Chemscore.Hbond>
4.0000

> <Gold.PLP.Chemscore.CHOScore>
0.0000

> <Gold.PLP.Chemscore.Metal>
0.0000

> <Gold.Chemscore.Hbonds>
donor molecule, donor type, donor heavy atom, donor atom, acceptor molecule, acceptor atom, score
      L1  H    18    40       P1  8028  1.00
      L1  H    19    45       P1  8028  2.00
      P1  H  7997  8008       L1    11  0.86

> <Gold.PLP.Chemscore.Internal.Correction>
0.1086

> <Gold.Rescore>
     Score         DG    S(hbond)    S(metal)    S(lipo)     H(rot)  DE(clash)    DE(int)     intcor
     22.35     -23.66       2.94        0.00     129.48       2.65       0.06       1.26       ----

> <Gold.Chemscore.Fitness>
22.3468

> <Gold.Chemscore.DG>
-23.6627

> <Gold.Chemscore.ZeroCoef>
-5.4800

> <Gold.Chemscore.Hbond>
2.9370

> <Gold.Chemscore.Metal>
0.0000

> <Gold.Chemscore.Lipo>
129.4768

> <Gold.Chemscore.Internal_Hbond>
0.0000

> <Gold.Chemscore.DEClash>
0.0601

> <Gold.Chemscore.DEInternal>
1.2558

> <Gold.Chemscore.Rot>
2.6467

> <Gold.Chemscore.Internal.Correction>
   9.000000E+99

> <Gold.Chemscore.Hbonds>
donor molecule, donor type, donor heavy atom, donor atom, acceptor molecule, acceptor atom, score
      L1  H    18    40       P1  8028  0.98
      L1  H    19    45       P1  8028  1.00
      P1  H  7997  8008       L1    11  0.77

> <Gold.Chemscore.Hbond.Weighted>
-9.8095

> <Gold.Chemscore.Metal.Weighted>
-0.0000

> <Gold.Chemscore.Lipo.Weighted>
-15.1488

> <Gold.Chemscore.Internal_Hbond.Weighted>
0.0000

> <Gold.Chemscore.DEClash.Weighted>
0.0601

> <Gold.Chemscore.DEInternal.Weighted>
1.2558

> <Gold.Chemscore.Rot.Weighted>
6.7756

> <Gold.Chemscore.Internal.Correction.Weighted>
   9.000000E+99

> <Gold.Protein.RotatedTorsions>
[ 6907 6896 6895 6894 ] final -149.78 input  -60.11 | X-H torsion
[ 7974 7965 7964 7962 ] final  -44.78 input  175.53 | X-H torsion
[ 8008 7997 7996 7995 ] final  -91.20 input   59.86 | X-H torsion
[ 10167 10162 10161 10158 ] final -105.75 input  -65.29 | X-H torsion
[ 10718 10713 10712 10709 ] final  158.22 input   66.30 | X-H torsion
[ 10763 10752 10751 10750 ] final  -94.82 input  -60.55 | X-H torsion
[ 11005 11000 10999 10996 ] final -123.48 input  -57.11 | X-H torsion

> <Gold.Protein.ActiveResidues>
 VAL166  LYS551  ARG553  GLY616  TRP617  ASP618  TYR619  PRO620  LYS621  CYS622 
 ASP623  PHE694  ASN695  SER759  ASP760  ASP761  ALA762  ILE779  LEU786  VAL792 
 PHE793  MET794  SER795  GLU796  ALA797  LYS798  CYS799  TRP800  GLU811  SER814 

> <Gold.Protein.RotatedAtoms>
  151.1891  133.4678  159.2594 H   0  0  0  0  0  0  0  0  0  0  0  0  # atno 6907 bound_to 6896
  151.1182  135.0064  159.8536 H   0  0  0  0  0  0  0  0  0  0  0  0  # atno 6908 bound_to 6896
  152.5454  134.1804  159.8686 H   0  0  0  0  0  0  0  0  0  0  0  0  # atno 6909 bound_to 6896
  145.9886  140.7206  142.9328 H   0  0  0  0  0  0  0  0  0  0  0  0  # atno 7974 bound_to 7965
  154.7078  140.0522  157.0521 H   0  0  0  0  0  0  0  0  0  0  0  0  # atno 8008 bound_to 7997
  155.0596  140.3188  155.4646 H   0  0  0  0  0  0  0  0  0  0  0  0  # atno 8009 bound_to 7997
  156.2780  140.2101  156.5723 H   0  0  0  0  0  0  0  0  0  0  0  0  # atno 8010 bound_to 7997
  140.1952  143.3861  152.1174 H   0  0  0  0  0  0  0  0  0  0  0  0  # atno 10167 bound_to 10162
  157.1809  131.0632  151.2132 H   0  0  0  0  0  0  0  0  0  0  0  0  # atno 10718 bound_to 10713
  154.7091  135.5143  153.8639 H   0  0  0  0  0  0  0  0  0  0  0  0  # atno 10763 bound_to 10752
  153.0765  135.6618  154.0143 H   0  0  0  0  0  0  0  0  0  0  0  0  # atno 10764 bound_to 10752
  153.9988  135.3013  155.3384 H   0  0  0  0  0  0  0  0  0  0  0  0  # atno 10765 bound_to 10752
  140.9915  134.0532  157.3648 H   0  0  0  0  0  0  0  0  0  0  0  0  # atno 11005 bound_to 11000
  144.6882  140.3031  143.7260 LP  0  0  0  0  0  0  0  0  0  0  0  0  # atno 17320 bound_to 7965
  145.7664  139.1842  143.2237 LP  0  0  0  0  0  0  0  0  0  0  0  0  # atno 17321 bound_to 7965
  139.5239  144.7078  151.5301 LP  0  0  0  0  0  0  0  0  0  0  0  0  # atno 17342 bound_to 10162
  140.6428  143.8854  150.6708 LP  0  0  0  0  0  0  0  0  0  0  0  0  # atno 17343 bound_to 10162
  157.3954  130.7304  149.6727 LP  0  0  0  0  0  0  0  0  0  0  0  0  # atno 17370 bound_to 10713
  155.9724  130.4135  150.4086 LP  0  0  0  0  0  0  0  0  0  0  0  0  # atno 17371 bound_to 10713
  139.8995  135.0158  156.7197 LP  0  0  0  0  0  0  0  0  0  0  0  0  # atno 17394 bound_to 11000
  140.7032  133.9288  155.8037 LP  0  0  0  0  0  0  0  0  0  0  0  0  # atno 17395 bound_to 11000

$$$$
