AV-unprocessed.smi:1363|AV-procd|sdf|5565|dock5
  -GOLD-   22720 5153D 1   1.00000     0.00000
 Structure written by MMmdl.
 44 45  0  0  0  0  0  0  0  0  1 V2000
  143.4026  139.3322  155.8228 C   0  0  0  0  0  0  0  0  0  0  0  0
  144.6978  139.9574  155.3522 C   0  0  0  0  0  0  0  0  0  0  0  0
  145.1800  139.4168  154.1717 N   0  0  0  0  0  0  0  0  0  0  0  0
  146.3552  139.9331  153.6554 C   0  0  0  0  0  0  0  0  0  0  0  0
  146.8108  139.2895  152.3573 C   0  0  0  0  0  0  0  0  0  0  0  0
  147.0203  140.9336  154.2872 C   0  0  0  0  0  0  0  0  0  0  0  0
  148.3190  141.5312  153.7474 C   0  0  0  0  0  0  0  0  0  0  0  0
  149.5508  141.3742  154.6424 C   0  0  0  0  0  0  0  0  0  0  0  0
  150.2002  140.3283  154.6322 O   0  0  0  0  0  0  0  0  0  0  0  0
  149.8649  142.4295  155.4084 N   0  0  0  0  0  0  0  0  0  0  0  0
  151.0093  142.5018  156.3088 C   0  0  0  0  0  0  0  0  0  0  0  0
  150.5687  142.8216  157.7512 C   0  0  0  0  0  0  0  0  0  0  0  0
  151.6021  142.5435  158.8382 C   0  0  0  0  0  0  0  0  0  0  0  0
  152.1649  141.3368  159.0631 C   0  0  0  0  0  0  0  0  0  0  0  0
  153.2164  141.0690  160.1257 C   0  0  0  0  0  0  0  0  0  0  0  0
  153.8381  142.3622  160.6762 C   0  0  0  0  0  0  0  0  0  0  0  0
  152.7598  143.4170  160.9469 C   0  0  0  0  0  0  0  0  0  0  0  0
  151.9840  143.7666  159.6642 C   0  0  0  0  0  0  0  0  0  0  0  0
  146.4621  141.4623  155.5543 C   0  0  0  0  0  0  0  0  0  0  0  0
  147.0269  142.3555  156.1842 O   0  0  0  0  0  0  0  0  0  0  0  0
  145.2607  140.9114  156.0293 N   0  0  0  0  0  0  0  0  0  0  0  0
  144.7175  138.6725  153.6699 H   0  0  0  0  0  0  0  0  0  0  0  0
  143.1243  139.7070  156.8086 H   0  0  0  0  0  0  0  0  0  0  0  0
  143.5027  138.2484  155.8872 H   0  0  0  0  0  0  0  0  0  0  0  0
  142.5952  139.5656  155.1281 H   0  0  0  0  0  0  0  0  0  0  0  0
  146.8514  140.0294  151.5578 H   0  0  0  0  0  0  0  0  0  0  0  0
  146.1322  138.4954  152.0432 H   0  0  0  0  0  0  0  0  0  0  0  0
  147.8029  138.8530  152.4751 H   0  0  0  0  0  0  0  0  0  0  0  0
  148.1938  142.5907  153.5229 H   0  0  0  0  0  0  0  0  0  0  0  0
  148.5298  141.0677  152.7829 H   0  0  0  0  0  0  0  0  0  0  0  0
  149.2748  143.2470  155.3550 H   0  0  0  0  0  0  0  0  0  0  0  0
  151.5138  141.5358  156.2748 H   0  0  0  0  0  0  0  0  0  0  0  0
  151.7210  143.2456  155.9457 H   0  0  0  0  0  0  0  0  0  0  0  0
  150.2900  143.8739  157.8214 H   0  0  0  0  0  0  0  0  0  0  0  0
  149.6708  142.2486  157.9866 H   0  0  0  0  0  0  0  0  0  0  0  0
  151.8782  140.4746  158.4810 H   0  0  0  0  0  0  0  0  0  0  0  0
  152.7450  140.5048  160.9309 H   0  0  0  0  0  0  0  0  0  0  0  0
  153.9965  140.4328  159.7064 H   0  0  0  0  0  0  0  0  0  0  0  0
  154.4004  142.1492  161.5858 H   0  0  0  0  0  0  0  0  0  0  0  0
  154.5542  142.7591  159.9553 H   0  0  0  0  0  0  0  0  0  0  0  0
  152.0671  143.0354  161.6984 H   0  0  0  0  0  0  0  0  0  0  0  0
  153.2065  144.3178  161.3688 H   0  0  0  0  0  0  0  0  0  0  0  0
  152.5859  144.4218  159.0337 H   0  0  0  0  0  0  0  0  0  0  0  0
  151.0854  144.3249  159.9284 H   0  0  0  0  0  0  0  0  0  0  0  0
  1 23  1  0  0  0  0
  1 24  1  0  0  0  0
  1 25  1  0  0  0  0
  1  2  1  0  0  0  0
  2  3  1  0  0  0  0
  2 21  2  0  0  0  0
  3  4  1  0  0  0  0
  3 22  1  0  0  0  0
  4  6  2  0  0  0  0
  4  5  1  0  0  0  0
  5 26  1  0  0  0  0
  5 27  1  0  0  0  0
  5 28  1  0  0  0  0
  6 19  1  0  0  0  0
  6  7  1  0  0  0  0
  7  8  1  0  0  0  0
  7 29  1  0  0  0  0
  7 30  1  0  0  0  0
  8  9  2  0  0  0  0
  8 10  1  0  0  0  0
 10 11  1  0  0  0  0
 10 31  1  0  0  0  0
 11 12  1  0  0  0  0
 11 32  1  0  0  0  0
 11 33  1  0  0  0  0
 12 13  1  0  0  0  0
 12 34  1  0  0  0  0
 12 35  1  0  0  0  0
 13 18  1  0  0  0  0
 13 14  2  0  0  0  0
 14 15  1  0  0  0  0
 14 36  1  0  0  0  0
 15 16  1  0  0  0  0
 15 37  1  0  0  0  0
 15 38  1  0  0  0  0
 16 17  1  0  0  0  0
 16 39  1  0  0  0  0
 16 40  1  0  0  0  0
 17 18  1  0  0  0  0
 17 41  1  0  0  0  0
 17 42  1  0  0  0  0
 18 43  1  0  0  0  0
 18 44  1  0  0  0  0
 19 20  2  0  0  0  0
 19 21  1  0  0  0  0
M  END
> <s_m_source_file>
AV-unprocessed.smi

> <i_m_source_file_index>
1363

> <i_lp_mmshare_version>
43012

> <i_f3d_flags>
0

> <s_epik_input>
W0NIM11jMW5jKFtDSDNdKWMoYyg9TylbbkhdMSlbQ0gyXUMoPU8pW05IXVtDSDJdW0NIMl1DMj1bQ0hdW0NIMl1bQ0gyXVtDSDJdW0NIMl0y

> <s_epik_cmdline>
J2VwaWtfcHl0aG9uJywgJy1waCcsICc3LjAnLCAnLXRuJywgJzgnLCAnLW1hJywgJzIwMCcsICctbWV0YWxfYmluZGluZycsICctaW1hZScsICc8aW5maWxlLm1hZT4nLCAnLW9tYWUnLCAnPG91dGZpbGUubWFlPic=

> <r_lp_tautomer_probability>
0.156392

> <r_epik_Ionization_Penalty>
0.0140998

> <r_epik_Ionization_Penalty_Charging>
0.0139776

> <r_epik_Ionization_Penalty_Neutral>
0.000122158

> <r_epik_State_Penalty>
1.53009

> <r_epik_Charging_Adjusted_Penalty>
1.54407

> <i_epik_Tot_Q>
0

> <i_epik_Tot_abs_Q>
0

> <r_epik_Metal_State_Penalty>
1.7066

> <b_epik_Metal_Only>
0

> <s_lp_Force_Field>
OPLS_2005

> <r_lp_Energy>
12.7953

> <b_lp_Chiralities_Consistent>
1

> <s_lp_Variant>
AV-unprocessed.smi:1363-2

> <Gold.Version>
5.8.1

> <Gold.Id.Protein>
6NUR|6NUR_protein|mol2

> <Gold.PLP.Fitness>
42.9387

> <Gold.PLP.PLP>
-37.7159

> <Gold.PLP.part.hbond>
-3.0000

> <Gold.PLP.part.metal>
0.0000

> <Gold.PLP.part.buried>
-1.3702

> <Gold.PLP.part.nonpolar>
-32.1070

> <Gold.PLP.part.repulsive>
0.4265

> <Gold.PLP.ligand.clash>
0.0000

> <Gold.PLP.ligand.torsion>
0.3958

> <Gold.PLP.Chemscore.Hbond>
1.9920

> <Gold.PLP.Chemscore.CHOScore>
0.0000

> <Gold.PLP.Chemscore.Metal>
0.0000

> <Gold.Chemscore.Hbonds>
donor molecule, donor type, donor heavy atom, donor atom, acceptor molecule, acceptor atom, score
      L1  H    10    31       P1  8028  1.00
      P1  H  7989  7998       L1     9  0.95

> <Gold.PLP.Chemscore.Internal.Correction>
0.0385

> <Gold.Rescore>
     Score         DG    S(hbond)    S(metal)    S(lipo)     H(rot)  DE(clash)    DE(int)     intcor
     14.89     -18.00       1.50        0.00     104.83       1.86       0.65       2.46       ----

> <Gold.Chemscore.Fitness>
14.8870

> <Gold.Chemscore.DG>
-17.9999

> <Gold.Chemscore.ZeroCoef>
-5.4800

> <Gold.Chemscore.Hbond>
1.5044

> <Gold.Chemscore.Metal>
0.0000

> <Gold.Chemscore.Lipo>
104.8277

> <Gold.Chemscore.Internal_Hbond>
0.0000

> <Gold.Chemscore.DEClash>
0.6546

> <Gold.Chemscore.DEInternal>
2.4584

> <Gold.Chemscore.Rot>
1.8631

> <Gold.Chemscore.Internal.Correction>
   9.000000E+99

> <Gold.Chemscore.Hbonds>
donor molecule, donor type, donor heavy atom, donor atom, acceptor molecule, acceptor atom, score
      L1  H    10    31       P1  8028  0.93
      P1  H  7989  7998       L1     9  0.21

> <Gold.Chemscore.Hbond.Weighted>
-5.0247

> <Gold.Chemscore.Metal.Weighted>
-0.0000

> <Gold.Chemscore.Lipo.Weighted>
-12.2648

> <Gold.Chemscore.Internal_Hbond.Weighted>
0.0000

> <Gold.Chemscore.DEClash.Weighted>
0.6546

> <Gold.Chemscore.DEInternal.Weighted>
2.4584

> <Gold.Chemscore.Rot.Weighted>
4.7697

> <Gold.Chemscore.Internal.Correction.Weighted>
   9.000000E+99

> <Gold.Protein.RotatedTorsions>
[ 6907 6896 6895 6894 ] final  126.92 input  -60.11 | X-H torsion
[ 7974 7965 7964 7962 ] final   21.57 input  175.53 | X-H torsion
[ 8008 7997 7996 7995 ] final  -68.89 input   59.86 | X-H torsion
[ 10167 10162 10161 10158 ] final -146.57 input  -65.29 | X-H torsion
[ 10718 10713 10712 10709 ] final   91.87 input   66.30 | X-H torsion
[ 10763 10752 10751 10750 ] final   98.51 input  -60.55 | X-H torsion
[ 11005 11000 10999 10996 ] final  -33.49 input  -57.11 | X-H torsion

> <Gold.Protein.ActiveResidues>
 VAL166  LYS551  ARG553  GLY616  TRP617  ASP618  TYR619  PRO620  LYS621  CYS622 
 ASP623  PHE694  ASN695  SER759  ASP760  ASP761  ALA762  ILE779  LEU786  VAL792 
 PHE793  MET794  SER795  GLU796  ALA797  LYS798  CYS799  TRP800  GLU811  SER814 

> <Gold.Protein.RotatedAtoms>
  152.3860  133.6612  159.6198 H   0  0  0  0  0  0  0  0  0  0  0  0  # atno 6907 bound_to 6896
  150.7779  133.9034  159.3357 H   0  0  0  0  0  0  0  0  0  0  0  0  # atno 6908 bound_to 6896
  151.6831  135.0960  160.0271 H   0  0  0  0  0  0  0  0  0  0  0  0  # atno 6909 bound_to 6896
  146.2066  139.8008  142.8721 H   0  0  0  0  0  0  0  0  0  0  0  0  # atno 7974 bound_to 7965
  154.4900  140.0864  156.7572 H   0  0  0  0  0  0  0  0  0  0  0  0  # atno 8008 bound_to 7997
  155.4255  140.3447  155.4257 H   0  0  0  0  0  0  0  0  0  0  0  0  # atno 8009 bound_to 7997
  156.1316  140.1503  156.9045 H   0  0  0  0  0  0  0  0  0  0  0  0  # atno 8010 bound_to 7997
  139.7701  143.8250  152.2623 H   0  0  0  0  0  0  0  0  0  0  0  0  # atno 10167 bound_to 10162
  157.6959  131.0423  150.3794 H   0  0  0  0  0  0  0  0  0  0  0  0  # atno 10718 bound_to 10713
  153.2899  135.4146  155.1157 H   0  0  0  0  0  0  0  0  0  0  0  0  # atno 10763 bound_to 10752
  154.8517  135.3516  154.5995 H   0  0  0  0  0  0  0  0  0  0  0  0  # atno 10764 bound_to 10752
  153.6417  135.7056  153.5297 H   0  0  0  0  0  0  0  0  0  0  0  0  # atno 10765 bound_to 10752
  140.9639  133.7148  156.1414 H   0  0  0  0  0  0  0  0  0  0  0  0  # atno 11005 bound_to 11000
  145.3298  141.0264  143.3453 LP  0  0  0  0  0  0  0  0  0  0  0  0  # atno 17320 bound_to 7965
  144.8807  139.4908  143.6724 LP  0  0  0  0  0  0  0  0  0  0  0  0  # atno 17321 bound_to 7965
  139.8282  144.7265  150.9484 LP  0  0  0  0  0  0  0  0  0  0  0  0  # atno 17342 bound_to 10162
  140.7813  143.4095  151.1017 LP  0  0  0  0  0  0  0  0  0  0  0  0  # atno 17343 bound_to 10162
  156.4210  130.3953  149.6825 LP  0  0  0  0  0  0  0  0  0  0  0  0  # atno 17370 bound_to 10713
  156.4076  130.7706  151.2717 LP  0  0  0  0  0  0  0  0  0  0  0  0  # atno 17371 bound_to 10713
  140.7427  134.4132  157.5552 LP  0  0  0  0  0  0  0  0  0  0  0  0  # atno 17394 bound_to 11000
  139.8887  134.8848  156.2457 LP  0  0  0  0  0  0  0  0  0  0  0  0  # atno 17395 bound_to 11000

$$$$
