AV-unprocessed.smi:1222|AV-procd|sdf|5122|dock3
  -GOLD-   22720 4183D 1   1.00000     0.00000
 Structure written by MMmdl.
 36 38  0  0  0  0  0  0  0  0  1 V2000
  150.5788  140.5434  156.2766 O   0  0  0  0  0  0  0  0  0  0  0  0
  150.0427  141.6405  156.1156 C   0  0  0  0  0  0  0  0  0  0  0  0
  149.0031  141.8856  155.2992 N   0  0  0  0  0  0  0  0  0  0  0  0
  148.3065  140.9713  154.4662 C   0  0  0  0  0  0  0  0  0  0  0  0
  148.6264  139.6790  154.3308 N   0  0  0  0  0  0  0  0  0  0  0  0
  147.7702  139.0167  153.4475 C   0  0  0  0  0  0  0  0  0  0  0  0
  146.7974  139.8262  152.9152 C   0  0  0  0  0  0  0  0  0  0  0  0
  146.9186  141.4619  153.5061 S   0  0  0  0  0  0  0  0  0  0  0  0
  150.4344  142.7554  156.7495 N   0  0  0  0  0  0  0  0  0  0  0  0
  151.5327  142.8353  157.7080 C   0  0  0  0  0  0  0  0  0  0  0  0
  151.4483  141.6966  158.7403 C   0  0  0  0  0  0  0  0  0  0  0  0
  152.5123  141.8677  159.8379 C   0  0  0  0  0  0  0  0  0  0  0  0
  152.3417  143.1559  160.5097 N   0  0  0  0  0  0  0  0  0  0  0  0
  153.3276  143.2654  161.5725 C   0  0  0  0  0  0  0  0  0  0  0  0
  153.6938  142.0031  162.3194 C   0  0  0  0  0  0  0  0  0  0  0  0
  152.8509  143.0592  162.9922 C   0  0  0  0  0  0  0  0  0  0  0  0
  152.5505  144.2446  159.5549 C   0  0  0  0  0  0  0  0  0  0  0  0
  151.4900  144.1854  158.4412 C   0  0  0  0  0  0  0  0  0  0  0  0
  148.6699  142.8378  155.2712 H   0  0  0  0  0  0  0  0  0  0  0  0
  147.9261  137.9656  153.2546 H   0  0  0  0  0  0  0  0  0  0  0  0
  146.0204  139.5601  152.2142 H   0  0  0  0  0  0  0  0  0  0  0  0
  149.9373  143.6124  156.5566 H   0  0  0  0  0  0  0  0  0  0  0  0
  152.4825  142.7638  157.1742 H   0  0  0  0  0  0  0  0  0  0  0  0
  150.4576  141.6779  159.1970 H   0  0  0  0  0  0  0  0  0  0  0  0
  151.5812  140.7315  158.2504 H   0  0  0  0  0  0  0  0  0  0  0  0
  152.4140  141.0612  160.5655 H   0  0  0  0  0  0  0  0  0  0  0  0
  153.5140  141.7933  159.4110 H   0  0  0  0  0  0  0  0  0  0  0  0
  154.1384  143.9826  161.4546 H   0  0  0  0  0  0  0  0  0  0  0  0
  153.2005  141.0772  162.0286 H   0  0  0  0  0  0  0  0  0  0  0  0
  154.7257  141.8974  162.6478 H   0  0  0  0  0  0  0  0  0  0  0  0
  153.3211  143.6560  163.7710 H   0  0  0  0  0  0  0  0  0  0  0  0
  151.7975  142.8342  163.1492 H   0  0  0  0  0  0  0  0  0  0  0  0
  152.4799  145.2018  160.0727 H   0  0  0  0  0  0  0  0  0  0  0  0
  153.5528  144.1852  159.1273 H   0  0  0  0  0  0  0  0  0  0  0  0
  151.6525  145.0001  157.7347 H   0  0  0  0  0  0  0  0  0  0  0  0
  150.5021  144.3453  158.8763 H   0  0  0  0  0  0  0  0  0  0  0  0
  1  2  2  0  0  0  0
  2  3  1  0  0  0  0
  2  9  1  0  0  0  0
  3  4  1  0  0  0  0
  3 19  1  0  0  0  0
  4  8  1  0  0  0  0
  4  5  2  0  0  0  0
  5  6  1  0  0  0  0
  6  7  2  0  0  0  0
  6 20  1  0  0  0  0
  7  8  1  0  0  0  0
  7 21  1  0  0  0  0
  9 10  1  0  0  0  0
  9 22  1  0  0  0  0
 10 18  1  0  0  0  0
 10 11  1  0  0  0  0
 10 23  1  0  0  0  0
 11 12  1  0  0  0  0
 11 24  1  0  0  0  0
 11 25  1  0  0  0  0
 12 13  1  0  0  0  0
 12 26  1  0  0  0  0
 12 27  1  0  0  0  0
 13 14  1  0  0  0  0
 13 17  1  0  0  0  0
 14 16  1  0  0  0  0
 14 15  1  0  0  0  0
 14 28  1  0  0  0  0
 15 16  1  0  0  0  0
 15 29  1  0  0  0  0
 15 30  1  0  0  0  0
 16 31  1  0  0  0  0
 16 32  1  0  0  0  0
 17 18  1  0  0  0  0
 17 33  1  0  0  0  0
 17 34  1  0  0  0  0
 18 35  1  0  0  0  0
 18 36  1  0  0  0  0
M  END
> <s_m_source_file>
AV-unprocessed.smi

> <i_m_source_file_index>
1222

> <i_lp_mmshare_version>
43012

> <i_f3d_flags>
0

> <s_epik_input>
czFbY0hdW2NIXW5jMVtOSF1DKD1PKVtOSF1bQ0hdMltDSDJdW0NIMl1OKFtDSDJdW0NIMl0yKVtDSF0zW0NIMl1bQ0gyXTM=

> <s_epik_cmdline>
J2VwaWtfcHl0aG9uJywgJy1waCcsICc3LjAnLCAnLXRuJywgJzgnLCAnLW1hJywgJzIwMCcsICctbWV0YWxfYmluZGluZycsICctaW1hZScsICc8aW5maWxlLm1hZT4nLCAnLW9tYWUnLCAnPG91dGZpbGUubWFlPic=

> <r_lp_tautomer_probability>
0.999

> <r_epik_Ionization_Penalty>
0.985554

> <r_epik_Ionization_Penalty_Charging>
0

> <r_epik_Ionization_Penalty_Neutral>
0.985554

> <r_epik_State_Penalty>
1.03262

> <r_epik_Charging_Adjusted_Penalty>
1.03262

> <i_epik_Tot_Q>
0

> <i_epik_Tot_abs_Q>
0

> <r_epik_Metal_State_Penalty>
1.07929

> <b_epik_Metal_Only>
0

> <s_lp_Force_Field>
OPLS_2005

> <r_lp_Energy>
20.1195

> <b_lp_Chiralities_Consistent>
1

> <s_lp_Variant>
AV-unprocessed.smi:1222-3

> <Gold.Version>
5.8.1

> <Gold.Id.Protein>
6NUR|6NUR_protein|mol2

> <Gold.PLP.Fitness>
46.6828

> <Gold.PLP.PLP>
-36.1134

> <Gold.PLP.part.hbond>
-2.0000

> <Gold.PLP.part.metal>
0.0000

> <Gold.PLP.part.buried>
-4.2931

> <Gold.PLP.part.nonpolar>
-29.5561

> <Gold.PLP.part.repulsive>
0.3928

> <Gold.PLP.ligand.clash>
0.0000

> <Gold.PLP.ligand.torsion>
1.0386

> <Gold.PLP.Chemscore.Hbond>
2.0000

> <Gold.PLP.Chemscore.CHOScore>
1.8260

> <Gold.PLP.Chemscore.Metal>
0.0000

> <Gold.Chemscore.Hbonds>
donor molecule, donor type, donor heavy atom, donor atom, acceptor molecule, acceptor atom, score
      L1  H     3    19       P1  8028  1.00
      L1  H     9    22       P1  8028  1.00
      L1  C     6    20       P1  7948  1.00
      L1  C     7    21       P1 10175  0.83

> <Gold.PLP.Chemscore.Internal.Correction>
1.1686

> <Gold.Rescore>
     Score         DG    S(hbond)    S(metal)    S(lipo)     H(rot)  DE(clash)    DE(int)     intcor
     16.75     -21.59       1.97        0.00     108.62       1.25       1.30       3.54       ----

> <Gold.Chemscore.Fitness>
16.7462

> <Gold.Chemscore.DG>
-21.5860

> <Gold.Chemscore.ZeroCoef>
-5.4800

> <Gold.Chemscore.Hbond>
1.9717

> <Gold.Chemscore.Metal>
0.0000

> <Gold.Chemscore.Lipo>
108.6161

> <Gold.Chemscore.Internal_Hbond>
0.0000

> <Gold.Chemscore.DEClash>
1.3043

> <Gold.Chemscore.DEInternal>
3.5356

> <Gold.Chemscore.Rot>
1.2451

> <Gold.Chemscore.Internal.Correction>
   9.000000E+99

> <Gold.Chemscore.Hbonds>
donor molecule, donor type, donor heavy atom, donor atom, acceptor molecule, acceptor atom, score
      L1  H     3    19       P1  8028  0.96
      L1  H     9    22       P1  8028  0.99

> <Gold.Chemscore.Hbond.Weighted>
-6.5853

> <Gold.Chemscore.Metal.Weighted>
-0.0000

> <Gold.Chemscore.Lipo.Weighted>
-12.7081

> <Gold.Chemscore.Internal_Hbond.Weighted>
0.0000

> <Gold.Chemscore.DEClash.Weighted>
1.3043

> <Gold.Chemscore.DEInternal.Weighted>
3.5356

> <Gold.Chemscore.Rot.Weighted>
3.1874

> <Gold.Chemscore.Internal.Correction.Weighted>
   9.000000E+99

> <Gold.Protein.RotatedTorsions>
[ 6907 6896 6895 6894 ] final    6.49 input  -60.11 | X-H torsion
[ 7974 7965 7964 7962 ] final   -8.93 input  175.53 | X-H torsion
[ 8008 7997 7996 7995 ] final -131.53 input   59.86 | X-H torsion
[ 10167 10162 10161 10158 ] final   31.27 input  -65.29 | X-H torsion
[ 10718 10713 10712 10709 ] final   43.63 input   66.30 | X-H torsion
[ 10763 10752 10751 10750 ] final  160.49 input  -60.55 | X-H torsion
[ 11005 11000 10999 10996 ] final   68.08 input  -57.11 | X-H torsion

> <Gold.Protein.ActiveResidues>
 VAL166  LYS551  ARG553  GLY616  TRP617  ASP618  TYR619  PRO620  LYS621  CYS622 
 ASP623  PHE694  ASN695  SER759  ASP760  ASP761  ALA762  ILE779  LEU786  VAL792 
 PHE793  MET794  SER795  GLU796  ALA797  LYS798  CYS799  TRP800  GLU811  SER814 

> <Gold.Protein.RotatedAtoms>
  151.6745  135.0971  160.0204 H   0  0  0  0  0  0  0  0  0  0  0  0  # atno 6907 bound_to 6896
  152.3872  133.6623  159.6217 H   0  0  0  0  0  0  0  0  0  0  0  0  # atno 6908 bound_to 6896
  150.7795  133.8932  159.3360 H   0  0  0  0  0  0  0  0  0  0  0  0  # atno 6909 bound_to 6896
  146.2266  140.2542  142.8348 H   0  0  0  0  0  0  0  0  0  0  0  0  # atno 7974 bound_to 7965
  155.3138  140.0458  157.3036 H   0  0  0  0  0  0  0  0  0  0  0  0  # atno 8008 bound_to 7997
  154.5418  140.2290  155.8595 H   0  0  0  0  0  0  0  0  0  0  0  0  # atno 8009 bound_to 7997
  156.1888  140.3056  155.9297 H   0  0  0  0  0  0  0  0  0  0  0  0  # atno 8010 bound_to 7997
  140.4604  144.0915  150.6211 H   0  0  0  0  0  0  0  0  0  0  0  0  # atno 10167 bound_to 10162
  157.4180  130.7952  149.7489 H   0  0  0  0  0  0  0  0  0  0  0  0  # atno 10718 bound_to 10713
  154.2482  135.2772  155.2827 H   0  0  0  0  0  0  0  0  0  0  0  0  # atno 10763 bound_to 10752
  154.5487  135.5681  153.6907 H   0  0  0  0  0  0  0  0  0  0  0  0  # atno 10764 bound_to 10752
  152.9986  135.6269  154.2628 H   0  0  0  0  0  0  0  0  0  0  0  0  # atno 10765 bound_to 10752
  139.9732  134.6865  156.0405 H   0  0  0  0  0  0  0  0  0  0  0  0  # atno 11005 bound_to 11000
  144.9389  140.8056  143.5643 LP  0  0  0  0  0  0  0  0  0  0  0  0  # atno 17320 bound_to 7965
  145.2491  139.2039  143.4952 LP  0  0  0  0  0  0  0  0  0  0  0  0  # atno 17321 bound_to 7965
  140.4101  143.2661  151.9844 LP  0  0  0  0  0  0  0  0  0  0  0  0  # atno 17342 bound_to 10162
  139.4805  144.5923  151.7750 LP  0  0  0  0  0  0  0  0  0  0  0  0  # atno 17343 bound_to 10162
  155.9871  130.3969  150.3179 LP  0  0  0  0  0  0  0  0  0  0  0  0  # atno 17370 bound_to 10713
  157.1324  131.0275  151.2963 LP  0  0  0  0  0  0  0  0  0  0  0  0  # atno 17371 bound_to 10713
  141.1411  133.6564  156.3732 LP  0  0  0  0  0  0  0  0  0  0  0  0  # atno 17394 bound_to 11000
  140.5249  134.6268  157.5330 LP  0  0  0  0  0  0  0  0  0  0  0  0  # atno 17395 bound_to 11000

$$$$
