AV-unprocessed.smi:1902|AV-procd|sdf|7721|dock2
  -GOLD-   22720 9463D 1   1.00000     0.00000
 Structure written by MMmdl.
 44 45  0  0  0  0  0  0  0  0  2 V2000
  143.6902  132.7910  151.8825 C   0  0  0  0  0  0  0  0  0  0  0  0
  144.7333  133.7531  151.2875 C   0  0  2  0  0  0  0  0  0  0  0  0
  146.0631  133.0551  150.9507 C   0  0  0  0  0  0  0  0  0  0  0  0
  146.8829  132.7248  152.2109 C   0  0  0  0  0  0  0  0  0  0  0  0
  147.1261  133.9398  153.0308 N   0  3  2  0  0  0  0  0  0  0  0  0
  148.0276  133.6705  154.1793 C   0  0  0  0  0  0  0  0  0  0  0  0
  148.1100  134.8640  155.1509 C   0  0  0  0  0  0  0  0  0  0  0  0
  148.9096  135.9523  154.6006 N   0  0  0  0  0  0  0  0  0  0  0  0
  149.9846  136.4922  155.1947 C   0  0  0  0  0  0  0  0  0  0  0  0
  150.3911  136.1339  156.3008 O   0  0  0  0  0  0  0  0  0  0  0  0
  150.6865  137.6205  154.4253 C   0  0  0  0  0  0  0  0  0  0  0  0
  150.5291  138.9416  155.0566 N   0  0  0  0  0  0  0  0  0  0  0  0
  149.3396  139.6468  154.7848 C   0  0  0  0  0  0  0  0  0  0  0  0
  149.0966  140.8581  155.3100 C   0  0  0  0  0  0  0  0  0  0  0  0
  150.0945  141.4395  156.1759 C   0  0  0  0  0  0  0  0  0  0  0  0
  151.2344  140.7725  156.4452 C   0  0  0  0  0  0  0  0  0  0  0  0
  151.5033  139.4474  155.8750 C   0  0  0  0  0  0  0  0  0  0  0  0
  152.5400  138.8288  156.1183 O   0  0  0  0  0  0  0  0  0  0  0  0
  145.8520  134.5970  153.4263 C   0  0  0  0  0  0  0  0  0  0  0  0
  145.0091  134.9675  152.1925 C   0  0  0  0  0  0  0  0  0  0  0  0
  144.0204  132.3565  152.8257 H   0  0  0  0  0  0  0  0  0  0  0  0
  143.4826  131.9692  151.1968 H   0  0  0  0  0  0  0  0  0  0  0  0
  142.7473  133.3054  152.0696 H   0  0  0  0  0  0  0  0  0  0  0  0
  144.3109  134.1264  150.3537 H   0  0  0  0  0  0  0  0  0  0  0  0
  145.8784  132.1477  150.3747 H   0  0  0  0  0  0  0  0  0  0  0  0
  146.6544  133.7064  150.3053 H   0  0  0  0  0  0  0  0  0  0  0  0
  146.3753  131.9702  152.8133 H   0  0  0  0  0  0  0  0  0  0  0  0
  147.8364  132.2919  151.9056 H   0  0  0  0  0  0  0  0  0  0  0  0
  147.7078  132.7661  154.6992 H   0  0  0  0  0  0  0  0  0  0  0  0
  149.0302  133.4673  153.8003 H   0  0  0  0  0  0  0  0  0  0  0  0
  147.1102  135.2265  155.3964 H   0  0  0  0  0  0  0  0  0  0  0  0
  148.5719  134.5682  156.0920 H   0  0  0  0  0  0  0  0  0  0  0  0
  148.6408  136.3065  153.6937 H   0  0  0  0  0  0  0  0  0  0  0  0
  151.7472  137.3843  154.3183 H   0  0  0  0  0  0  0  0  0  0  0  0
  150.2928  137.6313  153.4081 H   0  0  0  0  0  0  0  0  0  0  0  0
  148.6414  139.1411  154.1334 H   0  0  0  0  0  0  0  0  0  0  0  0
  148.1776  141.3827  155.0935 H   0  0  0  0  0  0  0  0  0  0  0  0
  149.9259  142.4136  156.6110 H   0  0  0  0  0  0  0  0  0  0  0  0
  151.9690  141.2227  157.0965 H   0  0  0  0  0  0  0  0  0  0  0  0
  145.2889  133.9378  154.0884 H   0  0  0  0  0  0  0  0  0  0  0  0
  146.0558  135.5045  153.9929 H   0  0  0  0  0  0  0  0  0  0  0  0
  145.5407  135.7268  151.6174 H   0  0  0  0  0  0  0  0  0  0  0  0
  144.0708  135.4276  152.5038 H   0  0  0  0  0  0  0  0  0  0  0  0
  147.6173  134.5864  152.4302 H   0  0  0  0  0  0  0  0  0  0  0  0
  1  2  1  0  0  0  0
  1 21  1  0  0  0  0
  1 22  1  0  0  0  0
  1 23  1  0  0  0  0
  2 20  1  0  0  0  0
  2  3  1  0  0  0  0
  2 24  1  0  0  0  0
  3  4  1  0  0  0  0
  3 25  1  0  0  0  0
  3 26  1  0  0  0  0
  4  5  1  0  0  0  0
  4 27  1  0  0  0  0
  4 28  1  0  0  0  0
  5  6  1  0  0  0  0
  5 19  1  0  0  0  0
  5 44  1  0  0  0  0
  6  7  1  0  0  0  0
  6 29  1  0  0  0  0
  6 30  1  0  0  0  0
  7  8  1  0  0  0  0
  7 31  1  0  0  0  0
  7 32  1  0  0  0  0
  8  9  1  0  0  0  0
  8 33  1  0  0  0  0
  9 10  2  0  0  0  0
  9 11  1  0  0  0  0
 11 12  1  0  0  0  0
 11 34  1  0  0  0  0
 11 35  1  0  0  0  0
 12 17  1  0  0  0  0
 12 13  1  0  0  0  0
 13 14  2  0  0  0  0
 13 36  1  0  0  0  0
 14 15  1  0  0  0  0
 14 37  1  0  0  0  0
 15 16  2  0  0  0  0
 15 38  1  0  0  0  0
 16 17  1  0  0  0  0
 16 39  1  0  0  0  0
 17 18  2  0  0  0  0
 19 20  1  0  0  0  0
 19 40  1  0  0  0  0
 19 41  1  0  0  0  0
 20 42  1  0  0  0  0
 20 43  1  0  0  0  0
M  CHG  1   5   1
M  END
> <s_m_source_file>
AV-unprocessed.smi

> <i_m_source_file_index>
1902

> <i_lp_mmshare_version>
43012

> <i_f3d_flags>
0

> <s_epik_input>
W0NIM11bQ0hdMVtDSDJdW0NIMl1OKFtDSDJdW0NIMl0xKVtDSDJdW0NIMl1bTkhdQyg9TylbQ0gyXW4yW2NIXVtjSF1bY0hdW2NIXWMyPU8=

> <s_epik_cmdline>
J2VwaWtfcHl0aG9uJywgJy1waCcsICc3LjAnLCAnLXRuJywgJzgnLCAnLW1hJywgJzIwMCcsICctbWV0YWxfYmluZGluZycsICctaW1hZScsICc8aW5maWxlLm1hZT4nLCAnLW9tYWUnLCAnPG91dGZpbGUubWFlPic=

> <r_lp_tautomer_probability>
1

> <r_epik_Ionization_Penalty>
0.00156146

> <r_epik_Ionization_Penalty_Charging>
0.00156137

> <r_epik_Ionization_Penalty_Neutral>
8.12891e-08

> <r_epik_State_Penalty>
0.00104868

> <r_epik_Charging_Adjusted_Penalty>
0.00261006

> <i_epik_Tot_Q>
1

> <i_epik_Tot_abs_Q>
1

> <r_epik_Metal_State_Penalty>
-0

> <b_epik_Metal_Only>
0

> <s_lp_Force_Field>
OPLS_2005

> <r_lp_Energy>
27.1486

> <b_lp_Chiralities_Consistent>
1

> <s_lp_Variant>
AV-unprocessed.smi:1902-2

> <Gold.Version>
5.8.1

> <Gold.Id.Protein>
6NUR|6NUR_protein|mol2

> <Gold.PLP.Fitness>
51.3028

> <Gold.PLP.PLP>
-39.1182

> <Gold.PLP.part.hbond>
-3.0000

> <Gold.PLP.part.metal>
0.0000

> <Gold.PLP.part.buried>
-3.0242

> <Gold.PLP.part.nonpolar>
-32.4670

> <Gold.PLP.part.repulsive>
0.0265

> <Gold.PLP.ligand.clash>
0.0000

> <Gold.PLP.ligand.torsion>
0.5420

> <Gold.PLP.Chemscore.Hbond>
4.0000

> <Gold.PLP.Chemscore.CHOScore>
0.4016

> <Gold.PLP.Chemscore.Metal>
0.0000

> <Gold.Chemscore.Hbonds>
donor molecule, donor type, donor heavy atom, donor atom, acceptor molecule, acceptor atom, score
      L1  H     5    44       P1  7948  1.40
      L1  H     8    33       P1  7948  0.90
      P1  H  7997  8009       L1    18  0.46

> <Gold.PLP.Chemscore.Internal.Correction>
0.0638

> <Gold.Rescore>
     Score         DG    S(hbond)    S(metal)    S(lipo)     H(rot)  DE(clash)    DE(int)     intcor
     15.52     -16.29       1.89        0.00      79.10       1.86       0.19       0.57       ----

> <Gold.Chemscore.Fitness>
15.5230

> <Gold.Chemscore.DG>
-16.2892

> <Gold.Chemscore.ZeroCoef>
-5.4800

> <Gold.Chemscore.Hbond>
1.8899

> <Gold.Chemscore.Metal>
0.0000

> <Gold.Chemscore.Lipo>
79.1036

> <Gold.Chemscore.Internal_Hbond>
0.0000

> <Gold.Chemscore.DEClash>
0.1914

> <Gold.Chemscore.DEInternal>
0.5748

> <Gold.Chemscore.Rot>
1.8586

> <Gold.Chemscore.Internal.Correction>
   9.000000E+99

> <Gold.Chemscore.Hbonds>
donor molecule, donor type, donor heavy atom, donor atom, acceptor molecule, acceptor atom, score
      L1  H     5    44       P1  7948  0.54
      L1  H     8    33       P1  7948  0.88
      P1  H  7997  8009       L1    18  0.42

> <Gold.Chemscore.Hbond.Weighted>
-6.3122

> <Gold.Chemscore.Metal.Weighted>
-0.0000

> <Gold.Chemscore.Lipo.Weighted>
-9.2551

> <Gold.Chemscore.Internal_Hbond.Weighted>
0.0000

> <Gold.Chemscore.DEClash.Weighted>
0.1914

> <Gold.Chemscore.DEInternal.Weighted>
0.5748

> <Gold.Chemscore.Rot.Weighted>
4.7581

> <Gold.Chemscore.Internal.Correction.Weighted>
   9.000000E+99

> <Gold.Protein.RotatedTorsions>
[ 6907 6896 6895 6894 ] final  132.04 input  -60.11 | X-H torsion
[ 7974 7965 7964 7962 ] final   67.02 input  175.53 | X-H torsion
[ 8008 7997 7996 7995 ] final -175.02 input   59.86 | X-H torsion
[ 10167 10162 10161 10158 ] final  116.65 input  -65.29 | X-H torsion
[ 10718 10713 10712 10709 ] final -145.94 input   66.30 | X-H torsion
[ 10763 10752 10751 10750 ] final   90.52 input  -60.55 | X-H torsion
[ 11005 11000 10999 10996 ] final   88.04 input  -57.11 | X-H torsion

> <Gold.Protein.ActiveResidues>
 VAL166  LYS551  ARG553  GLY616  TRP617  ASP618  TYR619  PRO620  LYS621  CYS622 
 ASP623  PHE694  ASN695  SER759  ASP760  ASP761  ALA762  ILE779  LEU786  VAL792 
 PHE793  MET794  SER795  GLU796  ALA797  LYS798  CYS799  TRP800  GLU811  SER814 

> <Gold.Protein.RotatedAtoms>
  152.3365  133.6017  159.5845 H   0  0  0  0  0  0  0  0  0  0  0  0  # atno 6907 bound_to 6896
  150.7453  133.9788  159.3578 H   0  0  0  0  0  0  0  0  0  0  0  0  # atno 6908 bound_to 6896
  151.7657  135.0799  160.0403 H   0  0  0  0  0  0  0  0  0  0  0  0  # atno 6909 bound_to 6896
  145.8196  139.3077  143.1051 H   0  0  0  0  0  0  0  0  0  0  0  0  # atno 7974 bound_to 7965
  155.9773  140.1175  157.0758 H   0  0  0  0  0  0  0  0  0  0  0  0  # atno 8008 bound_to 7997
  154.4173  140.1151  156.5456 H   0  0  0  0  0  0  0  0  0  0  0  0  # atno 8009 bound_to 7997
  155.6517  140.3473  155.4753 H   0  0  0  0  0  0  0  0  0  0  0  0  # atno 8010 bound_to 7997
  139.6232  144.7104  151.2589 H   0  0  0  0  0  0  0  0  0  0  0  0  # atno 10167 bound_to 10162
  156.3887  130.7874  151.2074 H   0  0  0  0  0  0  0  0  0  0  0  0  # atno 10718 bound_to 10713
  153.1984  135.4431  155.0236 H   0  0  0  0  0  0  0  0  0  0  0  0  # atno 10763 bound_to 10752
  154.8132  135.3304  154.7249 H   0  0  0  0  0  0  0  0  0  0  0  0  # atno 10764 bound_to 10752
  153.7697  135.6985  153.4964 H   0  0  0  0  0  0  0  0  0  0  0  0  # atno 10765 bound_to 10752
  139.8905  134.8462  156.2944 H   0  0  0  0  0  0  0  0  0  0  0  0  # atno 11005 bound_to 11000
  145.9689  140.8776  143.0172 LP  0  0  0  0  0  0  0  0  0  0  0  0  # atno 17320 bound_to 7965
  144.6749  140.1918  143.7396 LP  0  0  0  0  0  0  0  0  0  0  0  0  # atno 17321 bound_to 7965
  140.7395  143.6616  150.8159 LP  0  0  0  0  0  0  0  0  0  0  0  0  # atno 17342 bound_to 10162
  140.0230  143.5522  152.2792 LP  0  0  0  0  0  0  0  0  0  0  0  0  # atno 17343 bound_to 10162
  157.7497  131.0322  150.4216 LP  0  0  0  0  0  0  0  0  0  0  0  0  # atno 17370 bound_to 10713
  156.4474  130.4004  149.6658 LP  0  0  0  0  0  0  0  0  0  0  0  0  # atno 17371 bound_to 10713
  140.9954  133.7183  156.0878 LP  0  0  0  0  0  0  0  0  0  0  0  0  # atno 17394 bound_to 11000
  140.7569  134.3983  157.5532 LP  0  0  0  0  0  0  0  0  0  0  0  0  # atno 17395 bound_to 11000

$$$$
