AV-unprocessed.smi:2968|AV-procd|sdf|11328|dock2
  -GOLD-   2272016233D 1   1.00000     0.00000
 Structure written by MMmdl.
 45 46  0  0  0  0  0  0  0  0  1 V2000
  153.0409  139.6769  155.6124 O   0  0  0  0  0  0  0  0  0  0  0  0
  151.5829  139.5138  155.7252 S   0  0  0  0  0  0  0  0  0  0  0  0
  150.7002  140.0860  154.6962 O   0  0  0  0  0  0  0  0  0  0  0  0
  151.2245  137.7683  155.8622 C   0  0  0  0  0  0  0  0  0  0  0  0
  150.4025  137.1295  154.9147 C   0  0  0  0  0  0  0  0  0  0  0  0
  150.1721  135.7468  155.0533 C   0  0  0  0  0  0  0  0  0  0  0  0
  150.7849  135.0585  156.1224 C   0  0  0  0  0  0  0  0  0  0  0  0
  150.5975  133.6725  156.2248 N   0  0  0  0  0  0  0  0  0  0  0  0
  149.4552  133.0707  155.5431 C   0  0  0  0  0  0  0  0  0  0  0  0
  149.8825  132.1686  154.3725 C   0  0  0  0  0  0  0  0  0  0  0  0
  149.0455  132.4292  153.2589 O   0  0  0  0  0  0  0  0  0  0  0  0
  147.6634  132.3200  153.5444 C   0  0  0  0  0  0  0  0  0  0  0  0
  146.8912  132.4023  152.2218 C   0  0  0  0  0  0  0  0  0  0  0  0
  147.1792  131.2750  151.4211 O   0  0  0  0  0  0  0  0  0  0  0  0
  151.5643  135.6803  157.0404 N   0  0  0  0  0  0  0  0  0  0  0  0
  151.7871  137.0044  156.9029 C   0  0  0  0  0  0  0  0  0  0  0  0
  151.0909  140.1550  157.2671 N   0  0  0  0  0  0  0  0  0  0  0  0
  151.9159  139.8985  158.4658 C   0  0  0  0  0  0  0  0  0  0  0  0
  152.7956  141.1106  158.8215 C   0  0  0  0  0  0  0  0  0  0  0  0
  151.9545  142.3837  158.9614 C   0  0  0  0  0  0  0  0  0  0  0  0
  151.1572  142.6184  157.6740 C   0  0  0  0  0  0  0  0  0  0  0  0
  150.2896  141.3955  157.3253 C   0  0  0  0  0  0  0  0  0  0  0  0
  149.9572  137.6809  154.1001 H   0  0  0  0  0  0  0  0  0  0  0  0
  149.5537  135.2242  154.3382 H   0  0  0  0  0  0  0  0  0  0  0  0
  150.8426  133.2589  157.1125 H   0  0  0  0  0  0  0  0  0  0  0  0
  148.8168  132.5296  156.2423 H   0  0  0  0  0  0  0  0  0  0  0  0
  148.8512  133.8905  155.1542 H   0  0  0  0  0  0  0  0  0  0  0  0
  150.9151  132.3821  154.0938 H   0  0  0  0  0  0  0  0  0  0  0  0
  149.8345  131.1190  154.6682 H   0  0  0  0  0  0  0  0  0  0  0  0
  147.4812  131.3547  154.0189 H   0  0  0  0  0  0  0  0  0  0  0  0
  147.3320  133.0945  154.2384 H   0  0  0  0  0  0  0  0  0  0  0  0
  145.8174  132.4822  152.3937 H   0  0  0  0  0  0  0  0  0  0  0  0
  147.1981  133.2899  151.6685 H   0  0  0  0  0  0  0  0  0  0  0  0
  148.0991  131.2874  151.2040 H   0  0  0  0  0  0  0  0  0  0  0  0
  152.4223  137.4614  157.6470 H   0  0  0  0  0  0  0  0  0  0  0  0
  151.2499  139.6750  159.2997 H   0  0  0  0  0  0  0  0  0  0  0  0
  152.5328  139.0122  158.3200 H   0  0  0  0  0  0  0  0  0  0  0  0
  153.3312  140.9172  159.7511 H   0  0  0  0  0  0  0  0  0  0  0  0
  153.5570  141.2587  158.0569 H   0  0  0  0  0  0  0  0  0  0  0  0
  151.2737  142.2884  159.8081 H   0  0  0  0  0  0  0  0  0  0  0  0
  152.5971  143.2397  159.1686 H   0  0  0  0  0  0  0  0  0  0  0  0
  150.5240  143.4988  157.7861 H   0  0  0  0  0  0  0  0  0  0  0  0
  151.8423  142.8389  156.8566 H   0  0  0  0  0  0  0  0  0  0  0  0
  149.7689  141.5561  156.3817 H   0  0  0  0  0  0  0  0  0  0  0  0
  149.5171  141.2695  158.0846 H   0  0  0  0  0  0  0  0  0  0  0  0
  1  2  2  0  0  0  0
  2  3  2  0  0  0  0
  2  4  1  0  0  0  0
  2 17  1  0  0  0  0
  4 16  1  0  0  0  0
  4  5  2  0  0  0  0
  5  6  1  0  0  0  0
  5 23  1  0  0  0  0
  6  7  2  0  0  0  0
  6 24  1  0  0  0  0
  7  8  1  0  0  0  0
  7 15  1  0  0  0  0
  8  9  1  0  0  0  0
  8 25  1  0  0  0  0
  9 10  1  0  0  0  0
  9 26  1  0  0  0  0
  9 27  1  0  0  0  0
 10 11  1  0  0  0  0
 10 28  1  0  0  0  0
 10 29  1  0  0  0  0
 11 12  1  0  0  0  0
 12 13  1  0  0  0  0
 12 30  1  0  0  0  0
 12 31  1  0  0  0  0
 13 14  1  0  0  0  0
 13 32  1  0  0  0  0
 13 33  1  0  0  0  0
 14 34  1  0  0  0  0
 15 16  2  0  0  0  0
 16 35  1  0  0  0  0
 17 22  1  0  0  0  0
 17 18  1  0  0  0  0
 18 19  1  0  0  0  0
 18 36  1  0  0  0  0
 18 37  1  0  0  0  0
 19 20  1  0  0  0  0
 19 38  1  0  0  0  0
 19 39  1  0  0  0  0
 20 21  1  0  0  0  0
 20 40  1  0  0  0  0
 20 41  1  0  0  0  0
 21 22  1  0  0  0  0
 21 42  1  0  0  0  0
 21 43  1  0  0  0  0
 22 44  1  0  0  0  0
 22 45  1  0  0  0  0
M  END
> <s_m_source_file>
AV-unprocessed.smi

> <i_m_source_file_index>
2968

> <i_lp_mmshare_version>
43012

> <i_f3d_flags>
0

> <s_epik_input>
W0NIMl0xW0NIMl1bQ0gyXVtDSDJdW0NIMl1OMVMoPU8pKD1PKWMyW2NIXVtjSF1jKG5bY0hdMilbTkhdW0NIMl1bQ0gyXU9bQ0gyXVtDSDJdW09IXQ==

> <s_epik_cmdline>
J2VwaWtfcHl0aG9uJywgJy1waCcsICc3LjAnLCAnLXRuJywgJzgnLCAnLW1hJywgJzIwMCcsICctbWV0YWxfYmluZGluZycsICctaW1hZScsICc8aW5maWxlLm1hZT4nLCAnLW9tYWUnLCAnPG91dGZpbGUubWFlPic=

> <r_lp_tautomer_probability>
1

> <r_epik_Ionization_Penalty>
0.000398056

> <r_epik_Ionization_Penalty_Charging>
0

> <r_epik_Ionization_Penalty_Neutral>
0.000398056

> <r_epik_State_Penalty>
0.00024364

> <r_epik_Charging_Adjusted_Penalty>
0.00024364

> <i_epik_Tot_Q>
0

> <i_epik_Tot_abs_Q>
0

> <r_epik_Metal_State_Penalty>
-0

> <b_epik_Metal_Only>
0

> <s_lp_Force_Field>
OPLS_2005

> <r_lp_Energy>
3.3881

> <b_lp_Chiralities_Consistent>
1

> <s_lp_Variant>
AV-unprocessed.smi:2968-1

> <Gold.Version>
5.8.1

> <Gold.Id.Protein>
6NUR|6NUR_protein|mol2

> <Gold.PLP.Fitness>
41.9515

> <Gold.PLP.PLP>
-34.1116

> <Gold.PLP.part.hbond>
-2.7955

> <Gold.PLP.part.metal>
0.0000

> <Gold.PLP.part.buried>
-6.5027

> <Gold.PLP.part.nonpolar>
-25.6847

> <Gold.PLP.part.repulsive>
0.3637

> <Gold.PLP.ligand.clash>
0.0000

> <Gold.PLP.ligand.torsion>
2.6285

> <Gold.PLP.Chemscore.Hbond>
2.9588

> <Gold.PLP.Chemscore.CHOScore>
0.0000

> <Gold.PLP.Chemscore.Metal>
0.0000

> <Gold.Chemscore.Hbonds>
donor molecule, donor type, donor heavy atom, donor atom, acceptor molecule, acceptor atom, score
      L1  H    14    34       P1 10747  0.45
      P1  H  7989  7998       L1     3  1.00
      P1  H  7997  8008       L1     1  0.91

> <Gold.PLP.Chemscore.Internal.Correction>
4.2207

> <Gold.Rescore>
     Score         DG    S(hbond)    S(metal)    S(lipo)     H(rot)  DE(clash)    DE(int)     intcor
     15.01     -17.60       2.91        0.00      77.46       2.60       0.03       2.56       ----

> <Gold.Chemscore.Fitness>
15.0100

> <Gold.Chemscore.DG>
-17.5998

> <Gold.Chemscore.ZeroCoef>
-5.4800

> <Gold.Chemscore.Hbond>
2.9088

> <Gold.Chemscore.Metal>
0.0000

> <Gold.Chemscore.Lipo>
77.4591

> <Gold.Chemscore.Internal_Hbond>
0.0000

> <Gold.Chemscore.DEClash>
0.0270

> <Gold.Chemscore.DEInternal>
2.5628

> <Gold.Chemscore.Rot>
2.6009

> <Gold.Chemscore.Internal.Correction>
   9.000000E+99

> <Gold.Chemscore.Hbonds>
donor molecule, donor type, donor heavy atom, donor atom, acceptor molecule, acceptor atom, score
      L1  H    14    34       P1 10747  0.45
      P1  H  7989  7998       L1     3  0.74
      P1  H  7997  8008       L1     1  0.87

> <Gold.Chemscore.Hbond.Weighted>
-9.7154

> <Gold.Chemscore.Metal.Weighted>
-0.0000

> <Gold.Chemscore.Lipo.Weighted>
-9.0627

> <Gold.Chemscore.Internal_Hbond.Weighted>
0.0000

> <Gold.Chemscore.DEClash.Weighted>
0.0270

> <Gold.Chemscore.DEInternal.Weighted>
2.5628

> <Gold.Chemscore.Rot.Weighted>
6.6583

> <Gold.Chemscore.Internal.Correction.Weighted>
   9.000000E+99

> <Gold.Protein.RotatedTorsions>
[ 6907 6896 6895 6894 ] final  -95.77 input  -60.11 | X-H torsion
[ 7974 7965 7964 7962 ] final -102.50 input  175.53 | X-H torsion
[ 8008 7997 7996 7995 ] final  -24.88 input   59.86 | X-H torsion
[ 10167 10162 10161 10158 ] final -175.44 input  -65.29 | X-H torsion
[ 10718 10713 10712 10709 ] final -163.20 input   66.30 | X-H torsion
[ 10763 10752 10751 10750 ] final  -77.80 input  -60.55 | X-H torsion
[ 11005 11000 10999 10996 ] final -147.86 input  -57.11 | X-H torsion

> <Gold.Protein.ActiveResidues>
 VAL166  LYS551  ARG553  GLY616  TRP617  ASP618  TYR619  PRO620  LYS621  CYS622 
 ASP623  PHE694  ASN695  SER759  ASP760  ASP761  ALA762  ILE779  LEU786  VAL792 
 PHE793  MET794  SER795  GLU796  ALA797  LYS798  CYS799  TRP800  GLU811  SER814 

> <Gold.Protein.RotatedAtoms>
  150.6972  134.1606  159.4174 H   0  0  0  0  0  0  0  0  0  0  0  0  # atno 6907 bound_to 6896
  151.9587  135.0132  160.0555 H   0  0  0  0  0  0  0  0  0  0  0  0  # atno 6908 bound_to 6896
  152.1946  133.4762  159.5063 H   0  0  0  0  0  0  0  0  0  0  0  0  # atno 6909 bound_to 6896
  145.2679  140.9289  143.3003 H   0  0  0  0  0  0  0  0  0  0  0  0  # atno 7974 bound_to 7965
  154.4505  140.1941  156.0533 H   0  0  0  0  0  0  0  0  0  0  0  0  # atno 8008 bound_to 7997
  156.0637  140.3293  155.7465 H   0  0  0  0  0  0  0  0  0  0  0  0  # atno 8009 bound_to 7997
  155.5371  140.0583  157.2868 H   0  0  0  0  0  0  0  0  0  0  0  0  # atno 8010 bound_to 7997
  139.5580  144.1939  152.1192 H   0  0  0  0  0  0  0  0  0  0  0  0  # atno 10167 bound_to 10162
  156.6213  130.8891  151.2958 H   0  0  0  0  0  0  0  0  0  0  0  0  # atno 10718 bound_to 10713
  154.5176  135.5751  153.6655 H   0  0  0  0  0  0  0  0  0  0  0  0  # atno 10763 bound_to 10752
  152.9910  135.6174  154.2796 H   0  0  0  0  0  0  0  0  0  0  0  0  # atno 10764 bound_to 10752
  154.2715  135.2853  155.2716 H   0  0  0  0  0  0  0  0  0  0  0  0  # atno 10765 bound_to 10752
  140.7673  134.3230  157.5085 H   0  0  0  0  0  0  0  0  0  0  0  0  # atno 11005 bound_to 11000
  144.9361  139.4242  143.6471 LP  0  0  0  0  0  0  0  0  0  0  0  0  # atno 17320 bound_to 7965
  146.3255  139.8297  142.8911 LP  0  0  0  0  0  0  0  0  0  0  0  0  # atno 17321 bound_to 7965
  140.1447  144.5169  150.6723 LP  0  0  0  0  0  0  0  0  0  0  0  0  # atno 17342 bound_to 10162
  140.6856  143.2348  151.5268 LP  0  0  0  0  0  0  0  0  0  0  0  0  # atno 17343 bound_to 10162
  157.7227  130.9580  150.1504 LP  0  0  0  0  0  0  0  0  0  0  0  0  # atno 17370 bound_to 10713
  156.2309  130.3682  149.8445 LP  0  0  0  0  0  0  0  0  0  0  0  0  # atno 17371 bound_to 10713
  139.8761  134.9239  156.3336 LP  0  0  0  0  0  0  0  0  0  0  0  0  # atno 17394 bound_to 11000
  140.9607  133.7390  156.0398 LP  0  0  0  0  0  0  0  0  0  0  0  0  # atno 17395 bound_to 11000

$$$$
