AV-unprocessed.smi:1221|AV-procd|sdf|5118|dock2
  -GOLD-   22720 4173D 1   1.00000     0.00000
 Structure written by MMmdl.
 40 41  0  0  0  0  0  0  0  0  1 V2000
  143.8776  132.3161  149.5782 C   0  0  0  0  0  0  0  0  0  0  0  0
  144.3629  133.2919  150.5946 C   0  0  0  0  0  0  0  0  0  0  0  0
  145.3411  134.2461  150.5752 C   0  0  0  0  0  0  0  0  0  0  0  0
  145.2642  134.8090  151.8769 C   0  0  0  0  0  0  0  0  0  0  0  0
  146.1339  135.8586  152.2684 N   0  0  0  0  0  0  0  0  0  0  0  0
  145.7931  137.0668  152.7480 C   0  0  0  0  0  0  0  0  0  0  0  0
  144.6398  137.4595  152.9266 O   0  0  0  0  0  0  0  0  0  0  0  0
  146.8771  137.8085  153.0180 N   0  0  0  0  0  0  0  0  0  0  0  0
  146.8444  139.1632  153.5548 C   0  0  0  0  0  0  0  0  0  0  0  0
  148.0881  139.9677  153.1326 C   0  0  0  0  0  0  0  0  0  0  0  0
  148.5270  140.8673  154.2066 N   0  0  0  0  0  0  0  0  0  0  0  0
  147.5604  141.8901  154.6390 C   0  0  0  0  0  0  0  0  0  0  0  0
  146.9803  141.6400  156.0510 C   0  0  0  0  0  0  0  0  0  0  0  0
  147.8973  140.9013  157.0459 C   0  0  0  0  0  0  0  0  0  0  0  0
  149.3063  141.5085  157.2089 C   0  0  0  0  0  0  0  0  0  0  0  0
  150.1251  141.7105  155.9116 C   0  0  0  0  0  0  0  0  0  0  0  0
  149.7538  140.7479  154.7721 C   0  0  0  0  0  0  0  0  0  0  0  0
  150.5770  139.9029  154.4192 O   0  0  0  0  0  0  0  0  0  0  0  0
  144.3245  134.2490  152.6232 N   0  0  0  0  0  0  0  0  0  0  0  0
  143.7408  133.2750  151.8047 O   0  0  0  0  0  0  0  0  0  0  0  0
  144.6215  132.1673  148.7953 H   0  0  0  0  0  0  0  0  0  0  0  0
  142.9599  132.6722  149.1104 H   0  0  0  0  0  0  0  0  0  0  0  0
  143.6715  131.3485  150.0360 H   0  0  0  0  0  0  0  0  0  0  0  0
  146.0029  134.4983  149.7601 H   0  0  0  0  0  0  0  0  0  0  0  0
  147.1204  135.6679  152.1755 H   0  0  0  0  0  0  0  0  0  0  0  0
  147.7873  137.4089  152.8423 H   0  0  0  0  0  0  0  0  0  0  0  0
  145.9435  139.6543  153.1856 H   0  0  0  0  0  0  0  0  0  0  0  0
  146.7524  139.1274  154.6418 H   0  0  0  0  0  0  0  0  0  0  0  0
  148.9019  139.2915  152.8642 H   0  0  0  0  0  0  0  0  0  0  0  0
  147.8734  140.5256  152.2208 H   0  0  0  0  0  0  0  0  0  0  0  0
  148.0374  142.8699  154.6040 H   0  0  0  0  0  0  0  0  0  0  0  0
  146.7322  141.9758  153.9348 H   0  0  0  0  0  0  0  0  0  0  0  0
  146.6703  142.5941  156.4785 H   0  0  0  0  0  0  0  0  0  0  0  0
  146.0659  141.0546  155.9491 H   0  0  0  0  0  0  0  0  0  0  0  0
  147.4097  140.8771  158.0207 H   0  0  0  0  0  0  0  0  0  0  0  0
  147.9839  139.8551  156.7494 H   0  0  0  0  0  0  0  0  0  0  0  0
  149.2203  142.4696  157.7168 H   0  0  0  0  0  0  0  0  0  0  0  0
  149.8753  140.8708  157.8864 H   0  0  0  0  0  0  0  0  0  0  0  0
  150.0201  142.7358  155.5573 H   0  0  0  0  0  0  0  0  0  0  0  0
  151.1866  141.6026  156.1385 H   0  0  0  0  0  0  0  0  0  0  0  0
  1  2  1  0  0  0  0
  1 21  1  0  0  0  0
  1 22  1  0  0  0  0
  1 23  1  0  0  0  0
  2 20  1  0  0  0  0
  2  3  2  0  0  0  0
  3  4  1  0  0  0  0
  3 24  1  0  0  0  0
  4  5  1  0  0  0  0
  4 19  2  0  0  0  0
  5  6  1  0  0  0  0
  5 25  1  0  0  0  0
  6  7  2  0  0  0  0
  6  8  1  0  0  0  0
  8  9  1  0  0  0  0
  8 26  1  0  0  0  0
  9 10  1  0  0  0  0
  9 27  1  0  0  0  0
  9 28  1  0  0  0  0
 10 11  1  0  0  0  0
 10 29  1  0  0  0  0
 10 30  1  0  0  0  0
 11 17  1  0  0  0  0
 11 12  1  0  0  0  0
 12 13  1  0  0  0  0
 12 31  1  0  0  0  0
 12 32  1  0  0  0  0
 13 14  1  0  0  0  0
 13 33  1  0  0  0  0
 13 34  1  0  0  0  0
 14 15  1  0  0  0  0
 14 35  1  0  0  0  0
 14 36  1  0  0  0  0
 15 16  1  0  0  0  0
 15 37  1  0  0  0  0
 15 38  1  0  0  0  0
 16 17  1  0  0  0  0
 16 39  1  0  0  0  0
 16 40  1  0  0  0  0
 17 18  2  0  0  0  0
 19 20  1  0  0  0  0
M  END
> <s_m_source_file>
AV-unprocessed.smi

> <i_m_source_file_index>
1221

> <i_lp_mmshare_version>
43012

> <i_f3d_flags>
0

> <s_epik_input>
W0NIM11jMVtjSF1jKG5vMSlbTkhdQyg9TylbTkhdW0NIMl1bQ0gyXU4yW0NIMl1bQ0gyXVtDSDJdW0NIMl1bQ0gyXUMyPU8=

> <s_epik_cmdline>
J2VwaWtfcHl0aG9uJywgJy1waCcsICc3LjAnLCAnLXRuJywgJzgnLCAnLW1hJywgJzIwMCcsICctbWV0YWxfYmluZGluZycsICctaW1hZScsICc8aW5maWxlLm1hZT4nLCAnLW9tYWUnLCAnPG91dGZpbGUubWFlPic=

> <r_lp_tautomer_probability>
1

> <r_epik_Ionization_Penalty>
2.943e-05

> <r_epik_Ionization_Penalty_Charging>
0

> <r_epik_Ionization_Penalty_Neutral>
2.943e-05

> <r_epik_State_Penalty>
-0

> <r_epik_Charging_Adjusted_Penalty>
0

> <i_epik_Tot_Q>
0

> <i_epik_Tot_abs_Q>
0

> <r_epik_Metal_State_Penalty>
0.0104721

> <b_epik_Metal_Only>
0

> <s_lp_Force_Field>
OPLS_2005

> <r_lp_Energy>
18.1231

> <b_lp_Chiralities_Consistent>
1

> <s_lp_Variant>
AV-unprocessed.smi:1221-1

> <Gold.Version>
5.8.1

> <Gold.Id.Protein>
6NUR|6NUR_protein|mol2

> <Gold.PLP.Fitness>
37.9163

> <Gold.PLP.PLP>
-30.7940

> <Gold.PLP.part.hbond>
-3.0000

> <Gold.PLP.part.metal>
0.0000

> <Gold.PLP.part.buried>
-0.0845

> <Gold.PLP.part.nonpolar>
-29.0515

> <Gold.PLP.part.repulsive>
0.7812

> <Gold.PLP.ligand.clash>
0.0000

> <Gold.PLP.ligand.torsion>
0.9433

> <Gold.PLP.Chemscore.Hbond>
3.0000

> <Gold.PLP.Chemscore.CHOScore>
0.0000

> <Gold.PLP.Chemscore.Metal>
0.0000

> <Gold.Chemscore.Hbonds>
donor molecule, donor type, donor heavy atom, donor atom, acceptor molecule, acceptor atom, score
      L1  H     5    25       P1  7948  1.00
      L1  H     8    26       P1  7948  1.00
      P1  H  7989  7998       L1    18  1.00

> <Gold.PLP.Chemscore.Internal.Correction>
0.0089

> <Gold.Rescore>
     Score         DG    S(hbond)    S(metal)    S(lipo)     H(rot)  DE(clash)    DE(int)     intcor
     15.21     -17.56       2.84        0.00      57.66       1.63       1.48       0.87       ----

> <Gold.Chemscore.Fitness>
15.2079

> <Gold.Chemscore.DG>
-17.5628

> <Gold.Chemscore.ZeroCoef>
-5.4800

> <Gold.Chemscore.Hbond>
2.8445

> <Gold.Chemscore.Metal>
0.0000

> <Gold.Chemscore.Lipo>
57.6612

> <Gold.Chemscore.Internal_Hbond>
0.0000

> <Gold.Chemscore.DEClash>
1.4806

> <Gold.Chemscore.DEInternal>
0.8743

> <Gold.Chemscore.Rot>
1.6266

> <Gold.Chemscore.Internal.Correction>
   9.000000E+99

> <Gold.Chemscore.Hbonds>
donor molecule, donor type, donor heavy atom, donor atom, acceptor molecule, acceptor atom, score
      L1  H     5    25       P1  7948  0.97
      L1  H     8    26       P1  7948  0.95
      P1  H  7989  7998       L1    18  0.26

> <Gold.Chemscore.Hbond.Weighted>
-9.5005

> <Gold.Chemscore.Metal.Weighted>
-0.0000

> <Gold.Chemscore.Lipo.Weighted>
-6.7464

> <Gold.Chemscore.Internal_Hbond.Weighted>
0.0000

> <Gold.Chemscore.DEClash.Weighted>
1.4806

> <Gold.Chemscore.DEInternal.Weighted>
0.8743

> <Gold.Chemscore.Rot.Weighted>
4.1641

> <Gold.Chemscore.Internal.Correction.Weighted>
   9.000000E+99

> <Gold.Protein.RotatedTorsions>
[ 6907 6896 6895 6894 ] final  -47.72 input  -60.11 | X-H torsion
[ 7974 7965 7964 7962 ] final -165.61 input  175.53 | X-H torsion
[ 8008 7997 7996 7995 ] final -175.71 input   59.86 | X-H torsion
[ 10167 10162 10161 10158 ] final  175.14 input  -65.29 | X-H torsion
[ 10718 10713 10712 10709 ] final  157.45 input   66.30 | X-H torsion
[ 10763 10752 10751 10750 ] final  -22.49 input  -60.55 | X-H torsion
[ 11005 11000 10999 10996 ] final  116.63 input  -57.11 | X-H torsion

> <Gold.Protein.ActiveResidues>
 VAL166  LYS551  ARG553  GLY616  TRP617  ASP618  TYR619  PRO620  LYS621  CYS622 
 ASP623  PHE694  ASN695  SER759  ASP760  ASP761  ALA762  ILE779  LEU786  VAL792 
 PHE793  MET794  SER795  GLU796  ALA797  LYS798  CYS799  TRP800  GLU811  SER814 

> <Gold.Protein.RotatedAtoms>
  150.8978  134.8388  159.7338 H   0  0  0  0  0  0  0  0  0  0  0  0  # atno 6907 bound_to 6896
  152.4875  134.4548  159.9596 H   0  0  0  0  0  0  0  0  0  0  0  0  # atno 6908 bound_to 6896
  151.4604  133.3555  159.2843 H   0  0  0  0  0  0  0  0  0  0  0  0  # atno 6909 bound_to 6896
  144.7265  140.2789  143.6239 H   0  0  0  0  0  0  0  0  0  0  0  0  # atno 7974 bound_to 7965
  155.9859  140.1191  157.0684 H   0  0  0  0  0  0  0  0  0  0  0  0  # atno 8008 bound_to 7997
  154.4196  140.1135  156.5567 H   0  0  0  0  0  0  0  0  0  0  0  0  # atno 8009 bound_to 7997
  155.6409  140.3473  155.4716 H   0  0  0  0  0  0  0  0  0  0  0  0  # atno 8010 bound_to 7997
  139.5166  144.3065  152.0330 H   0  0  0  0  0  0  0  0  0  0  0  0  # atno 10167 bound_to 10162
  157.1914  131.0655  151.2077 H   0  0  0  0  0  0  0  0  0  0  0  0  # atno 10718 bound_to 10713
  153.6528  135.6980  153.5203 H   0  0  0  0  0  0  0  0  0  0  0  0  # atno 10763 bound_to 10752
  153.2693  135.4220  155.0971 H   0  0  0  0  0  0  0  0  0  0  0  0  # atno 10764 bound_to 10752
  154.8472  135.3574  154.6072 H   0  0  0  0  0  0  0  0  0  0  0  0  # atno 10765 bound_to 10752
  139.9047  134.9600  156.7227 H   0  0  0  0  0  0  0  0  0  0  0  0  # atno 11005 bound_to 11000
  145.7969  139.1949  143.2070 LP  0  0  0  0  0  0  0  0  0  0  0  0  # atno 17320 bound_to 7965
  146.0709  140.7870  142.9688 LP  0  0  0  0  0  0  0  0  0  0  0  0  # atno 17321 bound_to 7965
  140.2511  144.4168  150.6221 LP  0  0  0  0  0  0  0  0  0  0  0  0  # atno 17342 bound_to 10162
  140.6224  143.2177  151.6667 LP  0  0  0  0  0  0  0  0  0  0  0  0  # atno 17343 bound_to 10162
  157.3857  130.7255  149.6661 LP  0  0  0  0  0  0  0  0  0  0  0  0  # atno 17370 bound_to 10713
  155.9711  130.4160  150.4210 LP  0  0  0  0  0  0  0  0  0  0  0  0  # atno 17371 bound_to 10713
  140.6987  133.9325  155.8011 LP  0  0  0  0  0  0  0  0  0  0  0  0  # atno 17394 bound_to 11000
  141.0387  134.0652  157.3928 LP  0  0  0  0  0  0  0  0  0  0  0  0  # atno 17395 bound_to 11000

$$$$
