#       Name:                AV-unprocessed.smi:2878
#       Creating user name   scv26
#       Creation time:       Fri Mar 27 15:51:21 2020


#       File generated by GOLD software.
#

@<TRIPOS>MOLECULE
AV-unprocessed.smi:2878
    48    49     1
SMALL
NO_CHARGES


@<TRIPOS>ATOM
      1 ****        -2.0140  -0.8155  -2.6768 C.3            1 S1                 0.0000
      2 ****        -2.4948   0.8686  -2.2057 S.3            1 S1                 0.0000
      3 ****        -3.3105   0.5693  -0.6044 C.3            1 S1                 0.0000
      4 ****        -4.5604   1.4627  -0.4922 C.3            1 S1                 0.0000
      5 ****        -5.2749   1.2824   0.8547 C.3            1 S1                 0.0000
      6 ****        -4.3181   1.5587   2.0218 C.3            1 S1                 0.0000
      7 ****        -3.0754   0.6611   1.9378 C.3            1 S1                 0.0000
      8 ****        -2.3480   0.8092   0.5856 C.3            1 S1                 0.0000
      9 ****        -1.2354  -0.1372   0.5416 N.am           1 S1                 0.0000
     10 ****         0.0565   0.1669   0.7269 C.2            1 S1                 0.0000
     11 ****         0.4734   1.2951   0.9887 O.2            1 S1                 0.0000
     12 ****         0.8436  -0.9083   0.5823 N.am           1 S1                 0.0000
     13 ****         2.2974  -0.8982   0.6968 C.3            1 S1                 0.0000
     14 ****         2.9633  -0.4094  -0.5995 C.3            1 S1                 0.0000
     15 ****         4.4521  -0.3999  -0.5052 C.2            1 S1                 0.0000
     16 ****         5.2858  -1.3808  -0.8437 N.2            1 S1                 0.0000
     17 ****         6.4833  -0.8382  -0.4901 C.2            1 S1                 0.0000
     18 ****         7.7793  -1.5520  -0.6720 C.3            1 S1                 0.0000
     19 ****         6.4354   0.3750   0.0465 N.2            1 S1                 0.0000
     20 ****         5.0652   0.6731   0.0498 O.3            1 S1                 0.0000
     21 ****        -1.5218  -0.8034  -3.6491 H              1 S1                 0.0000
     22 ****        -2.8920  -1.4578  -2.7444 H              1 S1                 0.0000
     23 ****        -1.3236  -1.2436  -1.9510 H              1 S1                 0.0000
     24 ****        -3.6461  -0.4686  -0.5888 H              1 S1                 0.0000
     25 ****        -4.2759   2.5092  -0.6121 H              1 S1                 0.0000
     26 ****        -5.2523   1.2374  -1.3045 H              1 S1                 0.0000
     27 ****        -6.1342   1.9509   0.9120 H              1 S1                 0.0000
     28 ****        -5.6661   0.2670   0.9307 H              1 S1                 0.0000
     29 ****        -4.0147   2.6062   2.0087 H              1 S1                 0.0000
     30 ****        -4.8309   1.3963   2.9702 H              1 S1                 0.0000
     31 ****        -2.3948   0.9034   2.7551 H              1 S1                 0.0000
     32 ****        -3.3748  -0.3779   2.0846 H              1 S1                 0.0000
     33 ****        -1.9734   1.8319   0.5101 H              1 S1                 0.0000
     34 ****        -1.4689  -1.0968   0.3330 H              1 S1                 0.0000
     35 ****         0.4083  -1.7937   0.3690 H              1 S1                 0.0000
     36 ****         2.6019  -0.2770   1.5410 H              1 S1                 0.0000
     37 ****         2.6274  -1.9126   0.9229 H              1 S1                 0.0000
     38 ****         2.6709  -1.0463  -1.4353 H              1 S1                 0.0000
     39 ****         2.6281   0.5993  -0.8434 H              1 S1                 0.0000
     40 ****         8.5976  -0.8418  -0.7959 H              1 S1                 0.0000
     41 ****         7.7431  -2.1902  -1.5552 H              1 S1                 0.0000
     42 ****         7.9892  -2.1747   0.1979 H              1 S1                 0.0000
     43 ****        -0.1680   2.0574   1.0758 LP             1 S1                 0.0000
     44 ****         1.4534   1.4493   1.1143 LP             1 S1                 0.0000
     45 ****         5.0866  -2.2735  -1.2478 LP             1 S1                 0.0000
     46 ****         7.1940   0.9404   0.3705 LP             1 S1                 0.0000
     47 ****         4.7417   0.8134   0.9856 LP             1 S1                 0.0000
     48 ****         4.8864   1.4947  -0.4914 LP             1 S1                 0.0000
@<TRIPOS>BOND
    1    1    2 1     
    2    1   21 1     
    3    1   22 1     
    4    1   23 1     
    5    2    3 1     
    6    3    8 1     
    7    3    4 1     
    8    3   24 1     
    9    4    5 1     
   10    4   25 1     
   11    4   26 1     
   12    5    6 1     
   13    5   27 1     
   14    5   28 1     
   15    6    7 1     
   16    6   29 1     
   17    6   30 1     
   18    7    8 1     
   19    7   31 1     
   20    7   32 1     
   21    8    9 1     
   22    8   33 1     
   23    9   10 am    
   24    9   34 1     
   25   10   11 2     
   26   10   12 am    
   27   12   13 1     
   28   12   35 1     
   29   13   14 1     
   30   13   36 1     
   31   13   37 1     
   32   14   15 1     
   33   14   38 1     
   34   14   39 1     
   35   15   20 1     
   36   15   16 2     
   37   16   17 1     
   38   17   18 1     
   39   17   19 2     
   40   18   40 1     
   41   18   41 1     
   42   18   42 1     
   43   19   20 1     
   44   11   43 1     
   45   11   44 1     
   46   16   45 1     
   47   19   46 1     
   48   20   47 1     
   49   20   48 1     
@<TRIPOS>SUBSTRUCTURE
      1 S1             1
@<TRIPOS>SET
LONE_PAIRS      STATIC     ATOMS    <user>   **** ""
6 43 44 45 46 47 48
DONOR_HYDROGENS      STATIC     ATOMS    <user>   **** ""
2 34 35
ATOM$BLUE        STATIC     ATOMS    COLORGROUP SYSTEM
6 43 44 45 46 47 48
ATOM$RED        STATIC     ATOMS    COLORGROUP SYSTEM
2 34 35
