AV-unprocessed.smi:1644|AV-procd|sdf|6589|dock5
  -GOLD-   22720 7283D 1   1.00000     0.00000
 Structure written by MMmdl.
 50 52  0  0  0  0  0  0  0  0  2 V2000
  154.3349  136.3590  163.4688 C   0  0  0  0  0  0  0  0  0  0  0  0
  154.6099  136.9388  162.0773 C   0  0  0  0  0  0  0  0  0  0  0  0
  153.3522  136.9410  161.1844 C   0  0  0  0  0  0  0  0  0  0  0  0
  153.5050  137.6249  159.8063 C   0  0  1  0  0  0  0  0  0  0  0  0
  154.3284  136.8720  158.8810 N   0  0  0  0  0  0  0  0  0  0  0  0
  153.6796  136.5674  157.7492 C   0  0  0  0  0  0  0  0  0  0  0  0
  154.1615  135.9537  156.7980 O   0  0  0  0  0  0  0  0  0  0  0  0
  152.4269  137.0525  157.8335 N   0  0  0  0  0  0  0  0  0  0  0  0
  151.4174  136.9192  156.7790 C   0  0  0  0  0  0  0  0  0  0  0  0
  150.8360  138.2874  156.3699 C   0  0  2  0  0  0  0  0  0  0  0  0
  150.3443  138.1996  155.0467 O   0  0  0  0  0  0  0  0  0  0  0  0
  151.9043  139.3970  156.4133 C   0  0  0  0  0  0  0  0  0  0  0  0
  151.3240  140.7338  156.5904 N   0  0  0  0  0  0  0  0  0  0  0  0
  150.4441  141.4192  155.8118 C   0  0  0  0  0  0  0  0  0  0  0  0
  150.2140  142.6196  156.4133 N   0  3  0  0  0  0  0  0  0  0  0  0
  150.9578  142.6997  157.5932 C   0  0  0  0  0  0  0  0  0  0  0  0
  151.0570  143.7099  158.5428 C   0  0  0  0  0  0  0  0  0  0  0  0
  151.9107  143.4777  159.6451 C   0  0  0  0  0  0  0  0  0  0  0  0
  152.0424  144.5615  160.7018 C   0  0  0  0  0  0  0  0  0  0  0  0
  152.6310  142.2609  159.7678 C   0  0  0  0  0  0  0  0  0  0  0  0
  153.5436  142.0198  160.9582 C   0  0  0  0  0  0  0  0  0  0  0  0
  152.5184  141.2467  158.7904 C   0  0  0  0  0  0  0  0  0  0  0  0
  151.6727  141.4926  157.7118 C   0  0  0  0  0  0  0  0  0  0  0  0
  152.2244  137.6891  158.9940 C   0  0  0  0  0  0  0  0  0  0  0  0
  151.1945  138.2476  159.3708 O   0  0  0  0  0  0  0  0  0  0  0  0
  155.2378  136.3694  164.0795 H   0  0  0  0  0  0  0  0  0  0  0  0
  153.9895  135.3268  163.4033 H   0  0  0  0  0  0  0  0  0  0  0  0
  153.5723  136.9359  163.9927 H   0  0  0  0  0  0  0  0  0  0  0  0
  154.9914  137.9541  162.1871 H   0  0  0  0  0  0  0  0  0  0  0  0
  155.4052  136.3598  161.6072 H   0  0  0  0  0  0  0  0  0  0  0  0
  153.0200  135.9132  161.0327 H   0  0  0  0  0  0  0  0  0  0  0  0
  152.5423  137.4339  161.7234 H   0  0  0  0  0  0  0  0  0  0  0  0
  153.9110  138.6308  159.9202 H   0  0  0  0  0  0  0  0  0  0  0  0
  155.2889  136.6271  159.0743 H   0  0  0  0  0  0  0  0  0  0  0  0
  151.8990  136.4538  155.9173 H   0  0  0  0  0  0  0  0  0  0  0  0
  150.6249  136.2259  157.0674 H   0  0  0  0  0  0  0  0  0  0  0  0
  150.0121  138.5600  157.0306 H   0  0  0  0  0  0  0  0  0  0  0  0
  150.0919  137.3043  154.8782 H   0  0  0  0  0  0  0  0  0  0  0  0
  152.6131  139.2257  157.2245 H   0  0  0  0  0  0  0  0  0  0  0  0
  152.4855  139.4060  155.4899 H   0  0  0  0  0  0  0  0  0  0  0  0
  150.0053  141.0714  154.8875 H   0  0  0  0  0  0  0  0  0  0  0  0
  150.5046  144.6330  158.4437 H   0  0  0  0  0  0  0  0  0  0  0  0
  153.0790  144.8883  160.7887 H   0  0  0  0  0  0  0  0  0  0  0  0
  151.7132  144.1908  161.6727 H   0  0  0  0  0  0  0  0  0  0  0  0
  151.4379  145.4351  160.4559 H   0  0  0  0  0  0  0  0  0  0  0  0
  154.0156  141.0381  160.9068 H   0  0  0  0  0  0  0  0  0  0  0  0
  152.9795  142.0691  161.8899 H   0  0  0  0  0  0  0  0  0  0  0  0
  154.3352  142.7688  160.9915 H   0  0  0  0  0  0  0  0  0  0  0  0
  153.0654  140.3196  158.8825 H   0  0  0  0  0  0  0  0  0  0  0  0
  149.5932  143.3284  156.0441 H   0  0  0  0  0  0  0  0  0  0  0  0
  1  2  1  0  0  0  0
  1 26  1  0  0  0  0
  1 27  1  0  0  0  0
  1 28  1  0  0  0  0
  2  3  1  0  0  0  0
  2 29  1  0  0  0  0
  2 30  1  0  0  0  0
  3  4  1  0  0  0  0
  3 31  1  0  0  0  0
  3 32  1  0  0  0  0
  4 24  1  0  0  0  0
  4  5  1  0  0  0  0
  4 33  1  0  0  0  0
  5  6  1  0  0  0  0
  5 34  1  0  0  0  0
  6  7  2  0  0  0  0
  6  8  1  0  0  0  0
  8  9  1  0  0  0  0
  8 24  1  0  0  0  0
  9 10  1  0  0  0  0
  9 35  1  0  0  0  0
  9 36  1  0  0  0  0
 10 11  1  0  0  0  0
 10 12  1  0  0  0  0
 10 37  1  0  0  0  0
 11 38  1  0  0  0  0
 12 13  1  0  0  0  0
 12 39  1  0  0  0  0
 12 40  1  0  0  0  0
 13 23  1  0  0  0  0
 13 14  1  0  0  0  0
 14 15  2  0  0  0  0
 14 41  1  0  0  0  0
 15 16  1  0  0  0  0
 15 50  1  0  0  0  0
 16 23  2  0  0  0  0
 16 17  1  0  0  0  0
 17 18  2  0  0  0  0
 17 42  1  0  0  0  0
 18 19  1  0  0  0  0
 18 20  1  0  0  0  0
 19 43  1  0  0  0  0
 19 44  1  0  0  0  0
 19 45  1  0  0  0  0
 20 21  1  0  0  0  0
 20 22  2  0  0  0  0
 21 46  1  0  0  0  0
 21 47  1  0  0  0  0
 21 48  1  0  0  0  0
 22 23  1  0  0  0  0
 22 49  1  0  0  0  0
 24 25  2  0  0  0  0
M  CHG  1  15   1
M  END
> <s_m_source_file>
AV-unprocessed.smi

> <i_m_source_file_index>
1644

> <i_lp_mmshare_version>
43012

> <i_f3d_flags>
0

> <s_epik_input>
W0NIM11bQ0gyXVtDSDJdW0NAQEhdMVtOSF1DKD1PKU4oQzE9TylbQ0gyXVtDQEhdKFtPSF0pW0NIMl1uKFtjSF1uMiljKGMyMylbY0hdYyhbQ0gzXSljKFtjSF0zKVtDSDNd

> <s_epik_cmdline>
J2VwaWtfcHl0aG9uJywgJy1waCcsICc3LjAnLCAnLXRuJywgJzgnLCAnLW1hJywgJzIwMCcsICctbWV0YWxfYmluZGluZycsICctaW1hZScsICc8aW5maWxlLm1hZT4nLCAnLW9tYWUnLCAnPG91dGZpbGUubWFlPic=

> <r_lp_tautomer_probability>
1

> <r_epik_Ionization_Penalty>
1.06742

> <r_epik_Ionization_Penalty_Charging>
1.06736

> <r_epik_Ionization_Penalty_Neutral>
5.56132e-05

> <r_epik_State_Penalty>
1.12163

> <r_epik_Charging_Adjusted_Penalty>
2.18899

> <i_epik_Tot_Q>
1

> <i_epik_Tot_abs_Q>
1

> <r_epik_Metal_State_Penalty>
1.26636

> <b_epik_Metal_Only>
0

> <s_lp_Force_Field>
OPLS_2005

> <r_lp_Energy>
29.5638

> <b_lp_Chiralities_Consistent>
1

> <s_lp_Variant>
AV-unprocessed.smi:1644-6

> <Gold.Version>
5.8.1

> <Gold.Id.Protein>
6NUR|6NUR_protein|mol2

> <Gold.PLP.Fitness>
55.1201

> <Gold.PLP.PLP>
-47.2057

> <Gold.PLP.part.hbond>
-2.6689

> <Gold.PLP.part.metal>
0.0000

> <Gold.PLP.part.buried>
-6.0088

> <Gold.PLP.part.nonpolar>
-39.1150

> <Gold.PLP.part.repulsive>
0.1893

> <Gold.PLP.ligand.clash>
0.0000

> <Gold.PLP.ligand.torsion>
0.6052

> <Gold.PLP.Chemscore.Hbond>
3.0000

> <Gold.PLP.Chemscore.CHOScore>
0.0000

> <Gold.PLP.Chemscore.Metal>
0.0000

> <Gold.Chemscore.Hbonds>
donor molecule, donor type, donor heavy atom, donor atom, acceptor molecule, acceptor atom, score
      L1  H    15    50       P1  8028  2.00
      P1  H 10752 10764       L1     7  1.00

> <Gold.PLP.Chemscore.Internal.Correction>
0.1249

> <Gold.Rescore>
     Score         DG    S(hbond)    S(metal)    S(lipo)     H(rot)  DE(clash)    DE(int)     intcor
     18.77     -19.44       1.99        0.00     123.55       2.80       0.06       0.60       ----

> <Gold.Chemscore.Fitness>
18.7712

> <Gold.Chemscore.DG>
-19.4351

> <Gold.Chemscore.ZeroCoef>
-5.4800

> <Gold.Chemscore.Hbond>
1.9935

> <Gold.Chemscore.Metal>
0.0000

> <Gold.Chemscore.Lipo>
123.5461

> <Gold.Chemscore.Internal_Hbond>
0.0000

> <Gold.Chemscore.DEClash>
0.0589

> <Gold.Chemscore.DEInternal>
0.6050

> <Gold.Chemscore.Rot>
2.7961

> <Gold.Chemscore.Internal.Correction>
   9.000000E+99

> <Gold.Chemscore.Hbonds>
donor molecule, donor type, donor heavy atom, donor atom, acceptor molecule, acceptor atom, score
      L1  H    15    50       P1  8028  0.99
      P1  H 10752 10764       L1     7  0.94

> <Gold.Chemscore.Hbond.Weighted>
-6.6582

> <Gold.Chemscore.Metal.Weighted>
-0.0000

> <Gold.Chemscore.Lipo.Weighted>
-14.4549

> <Gold.Chemscore.Internal_Hbond.Weighted>
0.0000

> <Gold.Chemscore.DEClash.Weighted>
0.0589

> <Gold.Chemscore.DEInternal.Weighted>
0.6050

> <Gold.Chemscore.Rot.Weighted>
7.1580

> <Gold.Chemscore.Internal.Correction.Weighted>
   9.000000E+99

> <Gold.Protein.RotatedTorsions>
[ 6907 6896 6895 6894 ] final   61.42 input  -60.11 | X-H torsion
[ 7974 7965 7964 7962 ] final   -9.85 input  175.53 | X-H torsion
[ 8008 7997 7996 7995 ] final -132.48 input   59.86 | X-H torsion
[ 10167 10162 10161 10158 ] final   41.22 input  -65.29 | X-H torsion
[ 10718 10713 10712 10709 ] final -152.33 input   66.30 | X-H torsion
[ 10763 10752 10751 10750 ] final   22.20 input  -60.55 | X-H torsion
[ 11005 11000 10999 10996 ] final  -47.26 input  -57.11 | X-H torsion

> <Gold.Protein.ActiveResidues>
 VAL166  LYS551  ARG553  GLY616  TRP617  ASP618  TYR619  PRO620  LYS621  CYS622 
 ASP623  PHE694  ASN695  SER759  ASP760  ASP761  ALA762  ILE779  LEU786  VAL792 
 PHE793  MET794  SER795  GLU796  ALA797  LYS798  CYS799  TRP800  GLU811  SER814 

> <Gold.Protein.RotatedAtoms>
  152.4087  134.6162  160.0038 H   0  0  0  0  0  0  0  0  0  0  0  0  # atno 6907 bound_to 6896
  151.6345  133.3324  159.3124 H   0  0  0  0  0  0  0  0  0  0  0  0  # atno 6908 bound_to 6896
  150.7980  134.7094  159.6640 H   0  0  0  0  0  0  0  0  0  0  0  0  # atno 6909 bound_to 6896
  146.2239  140.2677  142.8355 H   0  0  0  0  0  0  0  0  0  0  0  0  # atno 7974 bound_to 7965
  155.3297  140.0466  157.3042 H   0  0  0  0  0  0  0  0  0  0  0  0  # atno 8008 bound_to 7997
  154.5335  140.2265  155.8729 H   0  0  0  0  0  0  0  0  0  0  0  0  # atno 8009 bound_to 7997
  156.1812  140.3073  155.9158 H   0  0  0  0  0  0  0  0  0  0  0  0  # atno 8010 bound_to 7997
  140.3665  144.2160  150.6135 H   0  0  0  0  0  0  0  0  0  0  0  0  # atno 10167 bound_to 10162
  156.4711  130.8259  151.2488 H   0  0  0  0  0  0  0  0  0  0  0  0  # atno 10718 bound_to 10713
  153.0934  135.6653  153.9810 H   0  0  0  0  0  0  0  0  0  0  0  0  # atno 10763 bound_to 10752
  153.9400  135.2995  155.3444 H   0  0  0  0  0  0  0  0  0  0  0  0  # atno 10764 bound_to 10752
  154.7351  135.5105  153.9101 H   0  0  0  0  0  0  0  0  0  0  0  0  # atno 10765 bound_to 10752
  141.0629  133.6703  156.3271 H   0  0  0  0  0  0  0  0  0  0  0  0  # atno 11005 bound_to 11000
  144.9292  140.7955  143.5700 LP  0  0  0  0  0  0  0  0  0  0  0  0  # atno 17320 bound_to 7965
  145.2619  139.1989  143.4887 LP  0  0  0  0  0  0  0  0  0  0  0  0  # atno 17321 bound_to 7965
  140.5075  143.2300  151.8585 LP  0  0  0  0  0  0  0  0  0  0  0  0  # atno 17342 bound_to 10162
  139.4808  144.4988  151.9088 LP  0  0  0  0  0  0  0  0  0  0  0  0  # atno 17343 bound_to 10162
  157.7491  131.0076  150.3195 LP  0  0  0  0  0  0  0  0  0  0  0  0  # atno 17370 bound_to 10713
  156.3617  130.3848  149.7246 LP  0  0  0  0  0  0  0  0  0  0  0  0  # atno 17371 bound_to 10713
  140.5831  134.5725  157.5484 LP  0  0  0  0  0  0  0  0  0  0  0  0  # atno 17394 bound_to 11000
  139.9449  134.7719  156.0585 LP  0  0  0  0  0  0  0  0  0  0  0  0  # atno 17395 bound_to 11000

$$$$
