#       Name:                AV-unprocessed.smi:516
#       Creating user name   scv26
#       Creation time:       Thu Mar 26 23:26:13 2020


#       File generated by GOLD software.
#

@<TRIPOS>MOLECULE
AV-unprocessed.smi:516
    54    56     1
SMALL
NO_CHARGES


@<TRIPOS>ATOM
      1 ****        -2.8675   3.5397  -2.1423 C.3            1 S1                 0.0000
      2 ****        -2.2469   2.2677  -2.0976 O.3            1 S1                 0.0000
      3 ****        -2.7293   1.4603  -1.0367 C.3            1 S1                 0.0000
      4 ****        -2.0172   0.0993  -1.0441 C.3            1 S1                 0.0000
      5 ****        -0.5643   0.2357  -0.9798 N.pl3          1 S1                 0.0000
      6 ****         0.1962   0.3812   0.1375 C.2            1 S1                 0.0000
      7 ****        -0.3651   0.4275   1.5306 C.3            1 S1                 0.0000
      8 ****         0.1273  -0.8171   2.1731 N.4            1 S1                 1.0000
      9 ****         0.1408  -0.7215   3.6513 C.3            1 S1                 0.0000
     10 ****         0.7237  -2.0046   4.2674 C.3            1 S1                 0.0000
     11 ****        -0.0276  -3.1294   3.8280 O.3            1 S1                 0.0000
     12 ****         0.0227  -3.2841   2.4150 C.3            1 S1                 0.0000
     13 ****        -0.5855  -2.0450   1.7378 C.3            1 S1                 0.0000
     14 ****         1.5066   0.4796  -0.1007 N.2            1 S1                 0.0000
     15 ****         1.5855   0.3932  -1.4821 C.2            1 S1                 0.0000
     16 ****         0.3522   0.2510  -2.0366 C.2            1 S1                 0.0000
     17 ****         0.1146   0.1448  -3.4942 C.2            1 S1                 0.0000
     18 ****        -1.0226   0.0407  -3.9482 O.2            1 S1                 0.0000
     19 ****         1.2819   0.1777  -4.2117 N.pl3          1 S1                -1.0000
     20 ****         2.5508   0.3107  -3.6902 C.2            1 S1                 0.0000
     21 ****         3.5511   0.3250  -4.4084 O.2            1 S1                 0.0000
     22 ****         2.7210   0.4288  -2.3359 N.am           1 S1                 0.0000
     23 ****         4.0578   0.5769  -1.7532 C.3            1 S1                 0.0000
     24 ****        -2.4565   4.1178  -2.9698 H              1 S1                 0.0000
     25 ****        -2.6903   4.0972  -1.2218 H              1 S1                 0.0000
     26 ****        -3.9435   3.4488  -2.2959 H              1 S1                 0.0000
     27 ****        -2.5589   1.9653  -0.0848 H              1 S1                 0.0000
     28 ****        -3.8054   1.3126  -1.1385 H              1 S1                 0.0000
     29 ****        -2.3583  -0.5091  -0.2074 H              1 S1                 0.0000
     30 ****        -2.2951  -0.4699  -1.9285 H              1 S1                 0.0000
     31 ****         0.0365   1.3093   2.0317 H              1 S1                 0.0000
     32 ****        -1.4516   0.4987   1.5568 H              1 S1                 0.0000
     33 ****         0.7378   0.1374   3.9604 H              1 S1                 0.0000
     34 ****        -0.8740  -0.5570   4.0170 H              1 S1                 0.0000
     35 ****         1.7741  -2.1248   3.9970 H              1 S1                 0.0000
     36 ****         0.6791  -1.9530   5.3554 H              1 S1                 0.0000
     37 ****         1.0524  -3.4395   2.0889 H              1 S1                 0.0000
     38 ****        -0.5379  -4.1769   2.1374 H              1 S1                 0.0000
     39 ****        -1.6439  -1.9634   1.9902 H              1 S1                 0.0000
     40 ****        -0.5235  -2.1623   0.6558 H              1 S1                 0.0000
     41 ****         4.5737   1.4346  -2.1869 H              1 S1                 0.0000
     42 ****         4.6569  -0.3137  -1.9462 H              1 S1                 0.0000
     43 ****         4.0327   0.7283  -0.6745 H              1 S1                 0.0000
     44 ****         1.0909  -0.9179   1.8856 H              1 S1                 0.0000
     45 ****        -1.2623   2.3961  -1.9796 LP             1 S1                 0.0000
     46 ****        -2.4203   1.7966  -2.9625 LP             1 S1                 0.0000
     47 ****        -0.9807  -3.0098   4.1060 LP             1 S1                 0.0000
     48 ****         0.3437  -3.9531   4.2565 LP             1 S1                 0.0000
     49 ****         2.2509   0.5891   0.5581 LP             1 S1                 0.0000
     50 ****        -1.8085   0.0265  -3.3300 LP             1 S1                 0.0000
     51 ****        -1.1622  -0.0298  -4.9359 LP             1 S1                 0.0000
     52 ****         1.2059   0.0978  -5.2056 LP             1 S1                 0.0000
     53 ****         3.4558   0.2386  -5.4001 LP             1 S1                 0.0000
     54 ****         4.4585   0.4230  -3.9999 LP             1 S1                 0.0000
@<TRIPOS>BOND
    1    1    2 1     
    2    1   24 1     
    3    1   25 1     
    4    1   26 1     
    5    2    3 1     
    6    3    4 1     
    7    3   27 1     
    8    3   28 1     
    9    4    5 1     
   10    4   29 1     
   11    4   30 1     
   12    5   16 1     
   13    5    6 1     
   14    6    7 1     
   15    6   14 2     
   16    7    8 1     
   17    7   31 1     
   18    7   32 1     
   19    8   13 1     
   20    8    9 1     
   21    8   44 1     
   22    9   10 1     
   23    9   33 1     
   24    9   34 1     
   25   10   11 1     
   26   10   35 1     
   27   10   36 1     
   28   11   12 1     
   29   12   13 1     
   30   12   37 1     
   31   12   38 1     
   32   13   39 1     
   33   13   40 1     
   34   14   15 1     
   35   15   22 1     
   36   15   16 2     
   37   16   17 1     
   38   17   18 2     
   39   17   19 1     
   40   19   20 1     
   41   20   21 2     
   42   20   22 am    
   43   22   23 1     
   44   23   41 1     
   45   23   42 1     
   46   23   43 1     
   47    2   45 1     
   48    2   46 1     
   49   11   47 1     
   50   11   48 1     
   51   14   49 1     
   52   18   50 1     
   53   18   51 1     
   54   19   52 1     
   55   21   53 1     
   56   21   54 1     
@<TRIPOS>SUBSTRUCTURE
      1 S1             1
@<TRIPOS>SET
LONE_PAIRS      STATIC     ATOMS    <user>   **** ""
10 45 46 47 48 49 50 51 52 53 54
DONOR_HYDROGENS      STATIC     ATOMS    <user>   **** ""
1 44
ATOM$BLUE        STATIC     ATOMS    COLORGROUP SYSTEM
10 45 46 47 48 49 50 51 52 53 54
ATOM$RED        STATIC     ATOMS    COLORGROUP SYSTEM
1 44
