AV-unprocessed.smi:1762|AV-procd|sdf|7118|dock8
  -GOLD-   22720 8353D 1   1.00000     0.00000
 Structure written by MMmdl.
 53 54  0  0  0  0  0  0  0  0  2 V2000
  150.9491  137.7680  155.2181 C   0  0  0  0  0  0  0  0  0  0  0  0
  150.5208  138.9515  154.3316 C   0  0  1  0  0  0  0  0  0  0  0  0
  149.0022  139.0173  154.0864 C   0  0  0  0  0  0  0  0  0  0  0  0
  148.2644  139.4481  155.3089 N   0  3  2  0  0  0  0  0  0  0  0  0
  146.7709  139.4050  155.1379 C   0  0  1  0  0  0  0  0  0  0  0  0
  146.3297  138.0775  154.4836 C   0  0  0  0  0  0  0  0  0  0  0  0
  146.9915  137.0528  154.6558 O   0  0  0  0  0  0  0  0  0  0  0  0
  145.2145  138.1134  153.7390 N   0  0  0  0  0  0  0  0  0  0  0  0
  144.6359  136.9673  153.0506 C   0  0  0  0  0  0  0  0  0  0  0  0
  145.5777  136.4740  151.9435 C   0  0  0  0  0  0  0  0  0  0  0  0
  145.3852  135.0004  151.6381 C   0  0  0  0  0  0  0  0  0  0  0  0
  144.0915  134.4610  151.4739 C   0  0  0  0  0  0  0  0  0  0  0  0
  143.9691  133.0875  151.1872 C   0  0  0  0  0  0  0  0  0  0  0  0
  145.1386  132.3113  151.0747 C   0  0  0  0  0  0  0  0  0  0  0  0
  146.3839  132.9456  151.2550 C   0  0  0  0  0  0  0  0  0  0  0  0
  146.5124  134.2613  151.5318 N   0  0  0  0  0  0  0  0  0  0  0  0
  145.9608  139.6655  156.4535 C   0  0  0  0  0  0  0  0  0  0  0  0
  146.2506  138.6511  157.5797 C   0  0  0  0  0  0  0  0  0  0  0  0
  144.4407  139.7765  156.2219 C   0  0  0  0  0  0  0  0  0  0  0  0
  148.8197  140.7507  155.7684 C   0  0  0  0  0  0  0  0  0  0  0  0
  150.3375  140.6499  156.0101 C   0  0  2  0  0  0  0  0  0  0  0  0
  150.9462  142.0014  156.3996 C   0  0  0  0  0  0  0  0  0  0  0  0
  150.9881  140.2037  154.8260 O   0  0  0  0  0  0  0  0  0  0  0  0
  150.6996  136.8196  154.7416 H   0  0  0  0  0  0  0  0  0  0  0  0
  150.4577  137.7780  156.1906 H   0  0  0  0  0  0  0  0  0  0  0  0
  152.0262  137.7782  155.3860 H   0  0  0  0  0  0  0  0  0  0  0  0
  151.0064  138.8115  153.3653 H   0  0  0  0  0  0  0  0  0  0  0  0
  148.7943  139.7245  153.2818 H   0  0  0  0  0  0  0  0  0  0  0  0
  148.6690  138.0425  153.7310 H   0  0  0  0  0  0  0  0  0  0  0  0
  146.5214  140.2127  154.4468 H   0  0  0  0  0  0  0  0  0  0  0  0
  144.7274  138.9936  153.6493 H   0  0  0  0  0  0  0  0  0  0  0  0
  144.4579  136.1739  153.7775 H   0  0  0  0  0  0  0  0  0  0  0  0
  143.6688  137.2313  152.6186 H   0  0  0  0  0  0  0  0  0  0  0  0
  145.4119  137.0472  151.0300 H   0  0  0  0  0  0  0  0  0  0  0  0
  146.6156  136.6482  152.2304 H   0  0  0  0  0  0  0  0  0  0  0  0
  143.2127  135.0824  151.5641 H   0  0  0  0  0  0  0  0  0  0  0  0
  142.9958  132.6380  151.0550 H   0  0  0  0  0  0  0  0  0  0  0  0
  145.0832  131.2553  150.8552 H   0  0  0  0  0  0  0  0  0  0  0  0
  147.3012  132.3812  151.1753 H   0  0  0  0  0  0  0  0  0  0  0  0
  146.2343  140.6523  156.8235 H   0  0  0  0  0  0  0  0  0  0  0  0
  145.8794  137.6564  157.3320 H   0  0  0  0  0  0  0  0  0  0  0  0
  145.7654  138.9541  158.5079 H   0  0  0  0  0  0  0  0  0  0  0  0
  147.3165  138.5619  157.7874 H   0  0  0  0  0  0  0  0  0  0  0  0
  143.9939  138.8186  155.9536 H   0  0  0  0  0  0  0  0  0  0  0  0
  144.2134  140.4876  155.4271 H   0  0  0  0  0  0  0  0  0  0  0  0
  143.9354  140.1245  157.1234 H   0  0  0  0  0  0  0  0  0  0  0  0
  148.5979  141.5233  155.0303 H   0  0  0  0  0  0  0  0  0  0  0  0
  148.3732  141.0652  156.7093 H   0  0  0  0  0  0  0  0  0  0  0  0
  150.5316  139.9489  156.8220 H   0  0  0  0  0  0  0  0  0  0  0  0
  150.4955  142.3868  157.3146 H   0  0  0  0  0  0  0  0  0  0  0  0
  150.7966  142.7434  155.6149 H   0  0  0  0  0  0  0  0  0  0  0  0
  152.0190  141.9106  156.5717 H   0  0  0  0  0  0  0  0  0  0  0  0
  148.4788  138.7754  156.0317 H   0  0  0  0  0  0  0  0  0  0  0  0
  1  2  1  0  0  0  0
  1 24  1  0  0  0  0
  1 25  1  0  0  0  0
  1 26  1  0  0  0  0
  2 23  1  0  0  0  0
  2  3  1  0  0  0  0
  2 27  1  0  0  0  0
  3  4  1  0  0  0  0
  3 28  1  0  0  0  0
  3 29  1  0  0  0  0
  4  5  1  0  0  0  0
  4 20  1  0  0  0  0
  4 53  1  0  0  0  0
  5  6  1  0  0  0  0
  5 17  1  0  0  0  0
  5 30  1  0  0  0  0
  6  7  2  0  0  0  0
  6  8  1  0  0  0  0
  8  9  1  0  0  0  0
  8 31  1  0  0  0  0
  9 10  1  0  0  0  0
  9 32  1  0  0  0  0
  9 33  1  0  0  0  0
 10 11  1  0  0  0  0
 10 34  1  0  0  0  0
 10 35  1  0  0  0  0
 11 16  1  0  0  0  0
 11 12  2  0  0  0  0
 12 13  1  0  0  0  0
 12 36  1  0  0  0  0
 13 14  2  0  0  0  0
 13 37  1  0  0  0  0
 14 15  1  0  0  0  0
 14 38  1  0  0  0  0
 15 16  2  0  0  0  0
 15 39  1  0  0  0  0
 17 18  1  0  0  0  0
 17 19  1  0  0  0  0
 17 40  1  0  0  0  0
 18 41  1  0  0  0  0
 18 42  1  0  0  0  0
 18 43  1  0  0  0  0
 19 44  1  0  0  0  0
 19 45  1  0  0  0  0
 19 46  1  0  0  0  0
 20 21  1  0  0  0  0
 20 47  1  0  0  0  0
 20 48  1  0  0  0  0
 21 22  1  0  0  0  0
 21 23  1  0  0  0  0
 21 49  1  0  0  0  0
 22 50  1  0  0  0  0
 22 51  1  0  0  0  0
 22 52  1  0  0  0  0
M  CHG  1   4   1
M  END
> <s_m_source_file>
AV-unprocessed.smi

> <i_m_source_file_index>
1762

> <i_lp_mmshare_version>
43012

> <i_f3d_flags>
0

> <s_epik_input>
W0NIM11bQ0BASF0xW0NIMl1OKFtDSDJdW0NASF0oTzEpW0NIM10pW0NAQEhdKFtDSF0oW0NIM10pW0NIM10pQyg9TylbTkhdW0NIMl1bQ0gyXWMyW2NIXVtjSF1bY0hdW2NIXW4y

> <s_epik_cmdline>
J2VwaWtfcHl0aG9uJywgJy1waCcsICc3LjAnLCAnLXRuJywgJzgnLCAnLW1hJywgJzIwMCcsICctbWV0YWxfYmluZGluZycsICctaW1hZScsICc8aW5maWxlLm1hZT4nLCAnLW9tYWUnLCAnPG91dGZpbGUubWFlPic=

> <r_epik_Ionization_Penalty>
2.27005

> <r_epik_Ionization_Penalty_Charging>
2.24983

> <r_epik_Ionization_Penalty_Neutral>
0.0202209

> <r_epik_State_Penalty>
2.40228

> <r_epik_Charging_Adjusted_Penalty>
4.65211

> <i_epik_Tot_Q>
1

> <i_epik_Tot_abs_Q>
1

> <r_epik_Metal_State_Penalty>
2.40762

> <b_epik_Metal_Only>
0

> <s_lp_Force_Field>
OPLS_2005

> <r_lp_Energy>
25.0813

> <b_lp_Chiralities_Consistent>
1

> <s_lp_Variant>
AV-unprocessed.smi:1762-20

> <Gold.Version>
5.8.1

> <Gold.Id.Protein>
6NUR|6NUR_protein|mol2

> <Gold.PLP.Fitness>
39.9582

> <Gold.PLP.PLP>
-32.9293

> <Gold.PLP.part.hbond>
-2.0000

> <Gold.PLP.part.metal>
0.0000

> <Gold.PLP.part.buried>
-5.6988

> <Gold.PLP.part.nonpolar>
-26.0365

> <Gold.PLP.part.repulsive>
0.3974

> <Gold.PLP.ligand.clash>
0.0000

> <Gold.PLP.ligand.torsion>
1.1048

> <Gold.PLP.Chemscore.Hbond>
2.0000

> <Gold.PLP.Chemscore.CHOScore>
1.0000

> <Gold.PLP.Chemscore.Metal>
0.0000

> <Gold.Chemscore.Hbonds>
donor molecule, donor type, donor heavy atom, donor atom, acceptor molecule, acceptor atom, score
      L1  H     8    31       P1 10175  0.70
      P1  H  7989  7998       L1    23  1.00
      L1  C    15    39       P1 10747  1.00

> <Gold.PLP.Chemscore.Internal.Correction>
0.2385

> <Gold.Rescore>
     Score         DG    S(hbond)    S(metal)    S(lipo)     H(rot)  DE(clash)    DE(int)     intcor
     15.06     -17.77       1.92        0.00      86.54       1.66       0.12       2.58       ----

> <Gold.Chemscore.Fitness>
15.0626

> <Gold.Chemscore.DG>
-17.7660

> <Gold.Chemscore.ZeroCoef>
-5.4800

> <Gold.Chemscore.Hbond>
1.9221

> <Gold.Chemscore.Metal>
0.0000

> <Gold.Chemscore.Lipo>
86.5364

> <Gold.Chemscore.Internal_Hbond>
0.0000

> <Gold.Chemscore.DEClash>
0.1193

> <Gold.Chemscore.DEInternal>
2.5841

> <Gold.Chemscore.Rot>
1.6635

> <Gold.Chemscore.Internal.Correction>
   9.000000E+99

> <Gold.Chemscore.Hbonds>
donor molecule, donor type, donor heavy atom, donor atom, acceptor molecule, acceptor atom, score
      L1  H     8    31       P1 10175  0.66
      P1  H  7989  7998       L1    23  0.34

> <Gold.Chemscore.Hbond.Weighted>
-6.4199

> <Gold.Chemscore.Metal.Weighted>
-0.0000

> <Gold.Chemscore.Lipo.Weighted>
-10.1248

> <Gold.Chemscore.Internal_Hbond.Weighted>
0.0000

> <Gold.Chemscore.DEClash.Weighted>
0.1193

> <Gold.Chemscore.DEInternal.Weighted>
2.5841

> <Gold.Chemscore.Rot.Weighted>
4.2586

> <Gold.Chemscore.Internal.Correction.Weighted>
   9.000000E+99

> <Gold.Protein.RotatedTorsions>
[ 6907 6896 6895 6894 ] final    5.55 input  -60.11 | X-H torsion
[ 7974 7965 7964 7962 ] final   29.24 input  175.53 | X-H torsion
[ 8008 7997 7996 7995 ] final  -42.50 input   59.86 | X-H torsion
[ 10167 10162 10161 10158 ] final   64.40 input  -65.29 | X-H torsion
[ 10718 10713 10712 10709 ] final   -2.05 input   66.30 | X-H torsion
[ 10763 10752 10751 10750 ] final  -12.54 input  -60.55 | X-H torsion
[ 11005 11000 10999 10996 ] final  -88.18 input  -57.11 | X-H torsion

> <Gold.Protein.ActiveResidues>
 VAL166  LYS551  ARG553  GLY616  TRP617  ASP618  TYR619  PRO620  LYS621  CYS622 
 ASP623  PHE694  ASN695  SER759  ASP760  ASP761  ALA762  ILE779  LEU786  VAL792 
 PHE793  MET794  SER795  GLU796  ALA797  LYS798  CYS799  TRP800  GLU811  SER814 

> <Gold.Protein.RotatedAtoms>
  151.6593  135.0991  160.0176 H   0  0  0  0  0  0  0  0  0  0  0  0  # atno 6907 bound_to 6896
  152.3956  133.6738  159.6282 H   0  0  0  0  0  0  0  0  0  0  0  0  # atno 6908 bound_to 6896
  150.7864  133.8796  159.3323 H   0  0  0  0  0  0  0  0  0  0  0  0  # atno 6909 bound_to 6896
  146.1683  139.6948  142.8986 H   0  0  0  0  0  0  0  0  0  0  0  0  # atno 7974 bound_to 7965
  154.3999  140.1472  156.3365 H   0  0  0  0  0  0  0  0  0  0  0  0  # atno 8008 bound_to 7997
  155.8395  140.3462  155.5602 H   0  0  0  0  0  0  0  0  0  0  0  0  # atno 8009 bound_to 7997
  155.8102  140.0883  157.1899 H   0  0  0  0  0  0  0  0  0  0  0  0  # atno 8010 bound_to 7997
  140.1226  144.4717  150.6911 H   0  0  0  0  0  0  0  0  0  0  0  0  # atno 10167 bound_to 10162
  156.7965  130.5379  149.5728 H   0  0  0  0  0  0  0  0  0  0  0  0  # atno 10718 bound_to 10713
  153.5000  135.7017  153.5837 H   0  0  0  0  0  0  0  0  0  0  0  0  # atno 10763 bound_to 10752
  153.3973  135.3881  155.1963 H   0  0  0  0  0  0  0  0  0  0  0  0  # atno 10764 bound_to 10752
  154.8711  135.3873  154.4469 H   0  0  0  0  0  0  0  0  0  0  0  0  # atno 10765 bound_to 10752
  141.1606  133.7555  156.9414 H   0  0  0  0  0  0  0  0  0  0  0  0  # atno 11005 bound_to 11000
  145.4409  141.0422  143.2858 LP  0  0  0  0  0  0  0  0  0  0  0  0  # atno 17320 bound_to 7965
  144.8125  139.5937  143.7023 LP  0  0  0  0  0  0  0  0  0  0  0  0  # atno 17321 bound_to 7965
  140.6863  143.2352  151.5251 LP  0  0  0  0  0  0  0  0  0  0  0  0  # atno 17342 bound_to 10162
  139.5561  144.2273  152.1614 LP  0  0  0  0  0  0  0  0  0  0  0  0  # atno 17343 bound_to 10162
  156.1127  130.6052  151.0072 LP  0  0  0  0  0  0  0  0  0  0  0  0  # atno 17370 bound_to 10713
  157.6575  131.0887  150.7915 LP  0  0  0  0  0  0  0  0  0  0  0  0  # atno 17371 bound_to 10713
  140.1319  134.9350  157.2348 LP  0  0  0  0  0  0  0  0  0  0  0  0  # atno 17394 bound_to 11000
  140.2943  134.3205  155.7306 LP  0  0  0  0  0  0  0  0  0  0  0  0  # atno 17395 bound_to 11000

$$$$
