AV-unprocessed.smi:1880|AV-procd|sdf|7638|dock6
  -GOLD-   22720 9363D 1   1.00000     0.00000
 Structure written by MMmdl.
 37 39  0  0  0  0  0  0  0  0  2 V2000
  150.5268  138.2342  156.4569 O   0  0  0  0  0  0  0  0  0  0  0  0
  149.9488  138.4272  157.7332 C   0  0  1  0  0  0  0  0  0  0  0  0
  149.8962  137.0712  158.4534 C   0  0  0  0  0  0  0  0  0  0  0  0
  149.2861  137.2540  159.7197 O   0  0  0  0  0  0  0  0  0  0  0  0
  147.9061  136.9244  159.7210 C   0  0  0  0  0  0  0  0  0  0  0  0
  147.6065  136.2249  161.0083 C   0  0  0  0  0  0  0  0  0  0  0  0
  147.4055  134.9104  161.3292 C   0  0  0  0  0  0  0  0  0  0  0  0
  147.1728  134.8682  162.7317 C   0  0  0  0  0  0  0  0  0  0  0  0
  147.2572  136.1601  163.1662 C   0  0  0  0  0  0  0  0  0  0  0  0
  147.5246  136.9996  162.1293 O   0  0  0  0  0  0  0  0  0  0  0  0
  150.7886  139.4622  158.5076 C   0  0  0  0  0  0  0  0  0  0  0  0
  150.4337  140.8474  158.1712 N   0  0  0  0  0  0  0  0  0  0  0  0
  149.7303  141.3379  157.1146 C   0  0  0  0  0  0  0  0  0  0  0  0
  149.6619  142.6906  157.2592 N   0  3  0  0  0  0  0  0  0  0  0  0
  150.3313  143.0693  158.4254 C   0  0  0  0  0  0  0  0  0  0  0  0
  150.5334  144.3217  158.9963 C   0  0  0  0  0  0  0  0  0  0  0  0
  151.2643  144.3598  160.2021 C   0  0  0  0  0  0  0  0  0  0  0  0
  151.4899  145.5534  160.8000 F   0  0  0  0  0  0  0  0  0  0  0  0
  151.7634  143.1808  160.7957 C   0  0  0  0  0  0  0  0  0  0  0  0
  152.4594  143.2622  161.9542 F   0  0  0  0  0  0  0  0  0  0  0  0
  151.5520  141.9162  160.2075 C   0  0  0  0  0  0  0  0  0  0  0  0
  150.8295  141.8892  159.0159 C   0  0  0  0  0  0  0  0  0  0  0  0
  151.3241  138.7407  156.4121 H   0  0  0  0  0  0  0  0  0  0  0  0
  148.9358  138.8110  157.6063 H   0  0  0  0  0  0  0  0  0  0  0  0
  149.3667  136.3264  157.8562 H   0  0  0  0  0  0  0  0  0  0  0  0
  150.9093  136.6983  158.6132 H   0  0  0  0  0  0  0  0  0  0  0  0
  147.2989  137.8264  159.6331 H   0  0  0  0  0  0  0  0  0  0  0  0
  147.6671  136.2737  158.8790 H   0  0  0  0  0  0  0  0  0  0  0  0
  147.4214  134.0806  160.6379 H   0  0  0  0  0  0  0  0  0  0  0  0
  146.9722  134.0024  163.3453 H   0  0  0  0  0  0  0  0  0  0  0  0
  147.1606  136.6355  164.1312 H   0  0  0  0  0  0  0  0  0  0  0  0
  150.6792  139.3302  159.5847 H   0  0  0  0  0  0  0  0  0  0  0  0
  151.8492  139.3329  158.2861 H   0  0  0  0  0  0  0  0  0  0  0  0
  149.2990  140.7578  156.3113 H   0  0  0  0  0  0  0  0  0  0  0  0
  150.1525  145.2264  158.5462 H   0  0  0  0  0  0  0  0  0  0  0  0
  151.9366  141.0195  160.6702 H   0  0  0  0  0  0  0  0  0  0  0  0
  149.1895  143.3059  156.6093 H   0  0  0  0  0  0  0  0  0  0  0  0
  1  2  1  0  0  0  0
  1 23  1  0  0  0  0
  2  3  1  0  0  0  0
  2 11  1  0  0  0  0
  2 24  1  0  0  0  0
  3  4  1  0  0  0  0
  3 25  1  0  0  0  0
  3 26  1  0  0  0  0
  4  5  1  0  0  0  0
  5  6  1  0  0  0  0
  5 27  1  0  0  0  0
  5 28  1  0  0  0  0
  6 10  1  0  0  0  0
  6  7  2  0  0  0  0
  7  8  1  0  0  0  0
  7 29  1  0  0  0  0
  8  9  2  0  0  0  0
  8 30  1  0  0  0  0
  9 10  1  0  0  0  0
  9 31  1  0  0  0  0
 11 12  1  0  0  0  0
 11 32  1  0  0  0  0
 11 33  1  0  0  0  0
 12 22  1  0  0  0  0
 12 13  1  0  0  0  0
 13 14  2  0  0  0  0
 13 34  1  0  0  0  0
 14 15  1  0  0  0  0
 14 37  1  0  0  0  0
 15 22  2  0  0  0  0
 15 16  1  0  0  0  0
 16 17  2  0  0  0  0
 16 35  1  0  0  0  0
 17 18  1  0  0  0  0
 17 19  1  0  0  0  0
 19 20  1  0  0  0  0
 19 21  2  0  0  0  0
 21 22  1  0  0  0  0
 21 36  1  0  0  0  0
M  CHG  1  14   1
M  END
> <s_m_source_file>
AV-unprocessed.smi

> <i_m_source_file_index>
1880

> <i_lp_mmshare_version>
43012

> <i_f3d_flags>
0

> <s_epik_input>
W2NIXTFjKEYpYyhGKVtjSF1jKGMxMiluKFtjSF1uMilbQ0gyXVtDQEhdKFtPSF0pW0NIMl1PW0NIMl1jM1tjSF1bY0hdW2NIXW8z

> <s_epik_cmdline>
J2VwaWtfcHl0aG9uJywgJy1waCcsICc3LjAnLCAnLXRuJywgJzgnLCAnLW1hJywgJzIwMCcsICctbWV0YWxfYmluZGluZycsICctaW1hZScsICc8aW5maWxlLm1hZT4nLCAnLW9tYWUnLCAnPG91dGZpbGUubWFlPic=

> <r_epik_Ionization_Penalty>
2.17656

> <r_epik_Ionization_Penalty_Charging>
2.17656

> <r_epik_Ionization_Penalty_Neutral>
9.34185e-07

> <r_epik_State_Penalty>
2.31826

> <r_epik_Charging_Adjusted_Penalty>
4.49482

> <i_epik_Tot_Q>
1

> <i_epik_Tot_abs_Q>
1

> <r_epik_Metal_State_Penalty>
6.39906

> <b_epik_Metal_Only>
0

> <s_lp_Force_Field>
OPLS_2005

> <r_lp_Energy>
11.8532

> <b_lp_Chiralities_Consistent>
1

> <s_lp_Variant>
AV-unprocessed.smi:1880-4

> <Gold.Version>
5.8.1

> <Gold.Id.Protein>
6NUR|6NUR_protein|mol2

> <Gold.PLP.Fitness>
59.4792

> <Gold.PLP.PLP>
-52.1233

> <Gold.PLP.part.hbond>
-3.6163

> <Gold.PLP.part.metal>
0.0000

> <Gold.PLP.part.buried>
-7.0816

> <Gold.PLP.part.nonpolar>
-41.5351

> <Gold.PLP.part.repulsive>
0.0567

> <Gold.PLP.ligand.clash>
0.0000

> <Gold.PLP.ligand.torsion>
1.2110

> <Gold.PLP.Chemscore.Hbond>
3.2396

> <Gold.PLP.Chemscore.CHOScore>
0.0000

> <Gold.PLP.Chemscore.Metal>
0.0000

> <Gold.Chemscore.Hbonds>
donor molecule, donor type, donor heavy atom, donor atom, acceptor molecule, acceptor atom, score
      L1  H    14    37       P1  8028  2.00
      P1  H  6931  6943       L1    10  1.00
      P1  H  6934  6947       L1    10  0.08

> <Gold.PLP.Chemscore.Internal.Correction>
0.0591

> <Gold.Rescore>
     Score         DG    S(hbond)    S(metal)    S(lipo)     H(rot)  DE(clash)    DE(int)     intcor
     16.53     -17.88       2.53        0.00      98.02       2.94       0.02       1.33       ----

> <Gold.Chemscore.Fitness>
16.5253

> <Gold.Chemscore.DG>
-17.8786

> <Gold.Chemscore.ZeroCoef>
-5.4800

> <Gold.Chemscore.Hbond>
2.5295

> <Gold.Chemscore.Metal>
0.0000

> <Gold.Chemscore.Lipo>
98.0226

> <Gold.Chemscore.Internal_Hbond>
0.0000

> <Gold.Chemscore.DEClash>
0.0210

> <Gold.Chemscore.DEInternal>
1.3323

> <Gold.Chemscore.Rot>
2.9369

> <Gold.Chemscore.Internal.Correction>
   9.000000E+99

> <Gold.Chemscore.Hbonds>
donor molecule, donor type, donor heavy atom, donor atom, acceptor molecule, acceptor atom, score
      L1  H    14    37       P1  8028  0.98
      P1  H  6931  6943       L1    10  0.42
      P1  H  6934  6947       L1    10  0.01

> <Gold.Chemscore.Hbond.Weighted>
-8.4485

> <Gold.Chemscore.Metal.Weighted>
-0.0000

> <Gold.Chemscore.Lipo.Weighted>
-11.4686

> <Gold.Chemscore.Internal_Hbond.Weighted>
0.0000

> <Gold.Chemscore.DEClash.Weighted>
0.0210

> <Gold.Chemscore.DEInternal.Weighted>
1.3323

> <Gold.Chemscore.Rot.Weighted>
7.5185

> <Gold.Chemscore.Internal.Correction.Weighted>
   9.000000E+99

> <Gold.Protein.RotatedTorsions>
[ 6907 6896 6895 6894 ] final -179.14 input  -60.11 | X-H torsion
[ 7974 7965 7964 7962 ] final -157.81 input  175.53 | X-H torsion
[ 8008 7997 7996 7995 ] final   29.80 input   59.86 | X-H torsion
[ 10167 10162 10161 10158 ] final -131.52 input  -65.29 | X-H torsion
[ 10718 10713 10712 10709 ] final -178.59 input   66.30 | X-H torsion
[ 10763 10752 10751 10750 ] final -152.46 input  -60.55 | X-H torsion
[ 11005 11000 10999 10996 ] final -118.06 input  -57.11 | X-H torsion

> <Gold.Protein.ActiveResidues>
 VAL166  LYS551  ARG553  GLY616  TRP617  ASP618  TYR619  PRO620  LYS621  CYS622 
 ASP623  PHE694  ASN695  SER759  ASP760  ASP761  ALA762  ILE779  LEU786  VAL792 
 PHE793  MET794  SER795  GLU796  ALA797  LYS798  CYS799  TRP800  GLU811  SER814 

> <Gold.Protein.RotatedAtoms>
  151.6486  133.3322  159.3146 H   0  0  0  0  0  0  0  0  0  0  0  0  # atno 6907 bound_to 6896
  150.7971  134.7043  159.6577 H   0  0  0  0  0  0  0  0  0  0  0  0  # atno 6908 bound_to 6896
  152.4060  134.6211  160.0102 H   0  0  0  0  0  0  0  0  0  0  0  0  # atno 6909 bound_to 6896
  144.7532  140.3917  143.6032 H   0  0  0  0  0  0  0  0  0  0  0  0  # atno 7974 bound_to 7965
  155.0802  140.3209  155.4604 H   0  0  0  0  0  0  0  0  0  0  0  0  # atno 8008 bound_to 7997
  156.2769  140.2096  156.5875 H   0  0  0  0  0  0  0  0  0  0  0  0  # atno 8009 bound_to 7997
  154.6985  140.0509  157.0421 H   0  0  0  0  0  0  0  0  0  0  0  0  # atno 8010 bound_to 7997
  139.9180  143.6415  152.2560 H   0  0  0  0  0  0  0  0  0  0  0  0  # atno 10167 bound_to 10162
  156.8465  130.9704  151.3096 H   0  0  0  0  0  0  0  0  0  0  0  0  # atno 10718 bound_to 10713
  154.7993  135.3236  154.7590 H   0  0  0  0  0  0  0  0  0  0  0  0  # atno 10763 bound_to 10752
  153.8262  135.6883  153.4825 H   0  0  0  0  0  0  0  0  0  0  0  0  # atno 10764 bound_to 10752
  153.1700  135.4627  154.9833 H   0  0  0  0  0  0  0  0  0  0  0  0  # atno 10765 bound_to 10752
  141.0312  133.9978  157.3140 H   0  0  0  0  0  0  0  0  0  0  0  0  # atno 11005 bound_to 11000
  145.6870  139.1630  143.2668 LP  0  0  0  0  0  0  0  0  0  0  0  0  # atno 17320 bound_to 7965
  146.1510  140.6925  142.9322 LP  0  0  0  0  0  0  0  0  0  0  0  0  # atno 17321 bound_to 7965
  139.6885  144.7649  151.1480 LP  0  0  0  0  0  0  0  0  0  0  0  0  # atno 17342 bound_to 10162
  140.7669  143.5622  150.9086 LP  0  0  0  0  0  0  0  0  0  0  0  0  # atno 17343 bound_to 10162
  157.6327  130.8742  149.9302 LP  0  0  0  0  0  0  0  0  0  0  0  0  # atno 17370 bound_to 10713
  156.0851  130.3669  150.0503 LP  0  0  0  0  0  0  0  0  0  0  0  0  # atno 17371 bound_to 10713
  139.9209  135.0200  156.8061 LP  0  0  0  0  0  0  0  0  0  0  0  0  # atno 17394 bound_to 11000
  140.6403  133.9824  155.7704 LP  0  0  0  0  0  0  0  0  0  0  0  0  # atno 17395 bound_to 11000

$$$$
