AV-unprocessed.smi:1774|AV-procd|sdf|7164|dock7
  -GOLD-   22720 8403D 1   1.00000     0.00000
 Structure written by MMmdl.
 45 46  0  0  0  0  0  0  0  0  1 V2000
  147.8545  132.9821  152.4359 C   0  0  0  0  0  0  0  0  0  0  0  0
  146.4903  132.9719  151.7654 C   0  0  0  0  0  0  0  0  0  0  0  0
  145.8958  131.7373  151.4283 C   0  0  0  0  0  0  0  0  0  0  0  0
  144.6354  131.7299  150.8068 C   0  0  0  0  0  0  0  0  0  0  0  0
  144.0188  132.9657  150.5467 C   0  0  0  0  0  0  0  0  0  0  0  0
  144.5793  134.1499  150.8656 N   0  0  0  0  0  0  0  0  0  0  0  0
  145.7958  134.1750  151.4662 C   0  0  0  0  0  0  0  0  0  0  0  0
  146.4430  135.3868  151.8391 N   0  0  0  0  0  0  0  0  0  0  0  0
  145.9046  136.4859  152.3963 C   0  0  0  0  0  0  0  0  0  0  0  0
  144.7085  136.6484  152.6392 O   0  0  0  0  0  0  0  0  0  0  0  0
  146.8455  137.4057  152.6563 N   0  0  0  0  0  0  0  0  0  0  0  0
  146.6089  138.7017  153.2848 C   0  0  0  0  0  0  0  0  0  0  0  0
  147.8028  139.6570  153.0866 C   0  0  0  0  0  0  0  0  0  0  0  0
  148.8298  139.6079  154.1271 N   0  0  0  0  0  0  0  0  0  0  0  0
  149.2266  140.9353  154.5900 C   0  0  0  0  0  0  0  0  0  0  0  0
  150.3044  140.8597  155.6879 C   0  0  2  0  0  0  0  0  0  0  0  0
  150.7833  142.2471  156.1268 C   0  0  0  0  0  0  0  0  0  0  0  0
  151.4253  140.1330  155.1910 O   0  0  0  0  0  0  0  0  0  0  0  0
  151.0960  138.8138  154.7637 C   0  0  2  0  0  0  0  0  0  0  0  0
  152.3761  138.1345  154.2665 C   0  0  0  0  0  0  0  0  0  0  0  0
  150.0156  138.8953  153.6684 C   0  0  0  0  0  0  0  0  0  0  0  0
  148.2401  131.9708  152.5679 H   0  0  0  0  0  0  0  0  0  0  0  0
  147.7933  133.4488  153.4193 H   0  0  0  0  0  0  0  0  0  0  0  0
  148.5725  133.5375  151.8317 H   0  0  0  0  0  0  0  0  0  0  0  0
  146.3972  130.8047  151.6424 H   0  0  0  0  0  0  0  0  0  0  0  0
  144.1538  130.8018  150.5368 H   0  0  0  0  0  0  0  0  0  0  0  0
  143.0504  133.0055  150.0705 H   0  0  0  0  0  0  0  0  0  0  0  0
  147.4379  135.4123  151.6733 H   0  0  0  0  0  0  0  0  0  0  0  0
  147.8016  137.1865  152.4185 H   0  0  0  0  0  0  0  0  0  0  0  0
  145.7309  139.1339  152.8048 H   0  0  0  0  0  0  0  0  0  0  0  0
  146.3429  138.5912  154.3362 H   0  0  0  0  0  0  0  0  0  0  0  0
  148.2582  139.4223  152.1235 H   0  0  0  0  0  0  0  0  0  0  0  0
  147.4309  140.6786  152.9950 H   0  0  0  0  0  0  0  0  0  0  0  0
  149.6021  141.5217  153.7498 H   0  0  0  0  0  0  0  0  0  0  0  0
  148.3655  141.4731  154.9844 H   0  0  0  0  0  0  0  0  0  0  0  0
  149.9014  140.3375  156.5575 H   0  0  0  0  0  0  0  0  0  0  0  0
  149.9586  142.8367  156.5283 H   0  0  0  0  0  0  0  0  0  0  0  0
  151.2144  142.7992  155.2912 H   0  0  0  0  0  0  0  0  0  0  0  0
  151.5443  142.1685  156.9034 H   0  0  0  0  0  0  0  0  0  0  0  0
  150.7097  138.2527  155.6164 H   0  0  0  0  0  0  0  0  0  0  0  0
  152.1763  137.1149  153.9360 H   0  0  0  0  0  0  0  0  0  0  0  0
  153.1239  138.0868  155.0584 H   0  0  0  0  0  0  0  0  0  0  0  0
  152.8120  138.6797  153.4290 H   0  0  0  0  0  0  0  0  0  0  0  0
  149.7411  137.8859  153.3594 H   0  0  0  0  0  0  0  0  0  0  0  0
  150.4260  139.3908  152.7870 H   0  0  0  0  0  0  0  0  0  0  0  0
  1  2  1  0  0  0  0
  1 22  1  0  0  0  0
  1 23  1  0  0  0  0
  1 24  1  0  0  0  0
  2  7  1  0  0  0  0
  2  3  2  0  0  0  0
  3  4  1  0  0  0  0
  3 25  1  0  0  0  0
  4  5  2  0  0  0  0
  4 26  1  0  0  0  0
  5  6  1  0  0  0  0
  5 27  1  0  0  0  0
  6  7  2  0  0  0  0
  7  8  1  0  0  0  0
  8  9  1  0  0  0  0
  8 28  1  0  0  0  0
  9 10  2  0  0  0  0
  9 11  1  0  0  0  0
 11 12  1  0  0  0  0
 11 29  1  0  0  0  0
 12 13  1  0  0  0  0
 12 30  1  0  0  0  0
 12 31  1  0  0  0  0
 13 14  1  0  0  0  0
 13 32  1  0  0  0  0
 13 33  1  0  0  0  0
 14 21  1  0  0  0  0
 14 15  1  0  0  0  0
 15 16  1  0  0  0  0
 15 34  1  0  0  0  0
 15 35  1  0  0  0  0
 16 17  1  0  0  0  0
 16 18  1  0  0  0  0
 16 36  1  0  0  0  0
 17 37  1  0  0  0  0
 17 38  1  0  0  0  0
 17 39  1  0  0  0  0
 18 19  1  0  0  0  0
 19 20  1  0  0  0  0
 19 21  1  0  0  0  0
 19 40  1  0  0  0  0
 20 41  1  0  0  0  0
 20 42  1  0  0  0  0
 20 43  1  0  0  0  0
 21 44  1  0  0  0  0
 21 45  1  0  0  0  0
M  END
> <s_m_source_file>
AV-unprocessed.smi

> <i_m_source_file_index>
1774

> <i_lp_mmshare_version>
43012

> <i_f3d_flags>
0

> <s_epik_input>
W0NIM11jMVtjSF1bY0hdW2NIXW5jMVtOSF1DKD1PKVtOSF1bQ0gyXVtDSDJdTjJbQ0gyXVtDQEBIXShbQ0gzXSlPW0NAQEhdKFtDSDNdKVtDSDJdMg==

> <s_epik_cmdline>
J2VwaWtfcHl0aG9uJywgJy1waCcsICc3LjAnLCAnLXRuJywgJzgnLCAnLW1hJywgJzIwMCcsICctbWV0YWxfYmluZGluZycsICctaW1hZScsICc8aW5maWxlLm1hZT4nLCAnLW9tYWUnLCAnPG91dGZpbGUubWFlPic=

> <r_epik_Ionization_Penalty>
0.266047

> <r_epik_Ionization_Penalty_Charging>
0

> <r_epik_Ionization_Penalty_Neutral>
0.266047

> <r_epik_State_Penalty>
0.257924

> <r_epik_Charging_Adjusted_Penalty>
0.257924

> <i_epik_Tot_Q>
0

> <i_epik_Tot_abs_Q>
0

> <r_epik_Metal_State_Penalty>
0.257922

> <b_epik_Metal_Only>
0

> <s_lp_Force_Field>
OPLS_2005

> <r_lp_Energy>
26.8029

> <b_lp_Chiralities_Consistent>
1

> <s_lp_Variant>
AV-unprocessed.smi:1774-1

> <Gold.Version>
5.8.1

> <Gold.Id.Protein>
6NUR|6NUR_protein|mol2

> <Gold.PLP.Fitness>
45.8175

> <Gold.PLP.PLP>
-36.6430

> <Gold.PLP.part.hbond>
-3.0000

> <Gold.PLP.part.metal>
0.0000

> <Gold.PLP.part.buried>
0.7256

> <Gold.PLP.part.nonpolar>
-35.8171

> <Gold.PLP.part.repulsive>
0.8788

> <Gold.PLP.ligand.clash>
0.0000

> <Gold.PLP.ligand.torsion>
1.2678

> <Gold.PLP.Chemscore.Hbond>
2.9000

> <Gold.PLP.Chemscore.CHOScore>
1.0000

> <Gold.PLP.Chemscore.Metal>
0.0000

> <Gold.Chemscore.Hbonds>
donor molecule, donor type, donor heavy atom, donor atom, acceptor molecule, acceptor atom, score
      L1  H     8    28       P1  7948  1.00
      L1  H    11    29       P1  7948  1.00
      P1  H  7989  7998       L1    18  0.85
      L1  C     5    27       P1 10186  0.98

> <Gold.PLP.Chemscore.Internal.Correction>
0.0100

> <Gold.Rescore>
     Score         DG    S(hbond)    S(metal)    S(lipo)     H(rot)  DE(clash)    DE(int)     intcor
     16.51     -19.18       1.93        0.00      93.78       1.46       0.68       1.99       ----

> <Gold.Chemscore.Fitness>
16.5094

> <Gold.Chemscore.DG>
-19.1848

> <Gold.Chemscore.ZeroCoef>
-5.4800

> <Gold.Chemscore.Hbond>
1.9342

> <Gold.Chemscore.Metal>
0.0000

> <Gold.Chemscore.Lipo>
93.7819

> <Gold.Chemscore.Internal_Hbond>
0.0000

> <Gold.Chemscore.DEClash>
0.6805

> <Gold.Chemscore.DEInternal>
1.9949

> <Gold.Chemscore.Rot>
1.4562

> <Gold.Chemscore.Internal.Correction>
   9.000000E+99

> <Gold.Chemscore.Hbonds>
donor molecule, donor type, donor heavy atom, donor atom, acceptor molecule, acceptor atom, score
      L1  H     8    28       P1  7948  0.92
      L1  H    11    29       P1  7948  0.95
      P1  H  7989  7998       L1    18  0.05

> <Gold.Chemscore.Hbond.Weighted>
-6.4602

> <Gold.Chemscore.Metal.Weighted>
-0.0000

> <Gold.Chemscore.Lipo.Weighted>
-10.9725

> <Gold.Chemscore.Internal_Hbond.Weighted>
0.0000

> <Gold.Chemscore.DEClash.Weighted>
0.6805

> <Gold.Chemscore.DEInternal.Weighted>
1.9949

> <Gold.Chemscore.Rot.Weighted>
3.7278

> <Gold.Chemscore.Internal.Correction.Weighted>
   9.000000E+99

> <Gold.Protein.RotatedTorsions>
[ 6907 6896 6895 6894 ] final  102.83 input  -60.11 | X-H torsion
[ 7974 7965 7964 7962 ] final   21.83 input  175.53 | X-H torsion
[ 8008 7997 7996 7995 ] final   39.97 input   59.86 | X-H torsion
[ 10167 10162 10161 10158 ] final  170.87 input  -65.29 | X-H torsion
[ 10718 10713 10712 10709 ] final  178.07 input   66.30 | X-H torsion
[ 10763 10752 10751 10750 ] final -159.98 input  -60.55 | X-H torsion
[ 11005 11000 10999 10996 ] final -102.30 input  -57.11 | X-H torsion

> <Gold.Protein.ActiveResidues>
 VAL166  LYS551  ARG553  GLY616  TRP617  ASP618  TYR619  PRO620  LYS621  CYS622 
 ASP623  PHE694  ASN695  SER759  ASP760  ASP761  ALA762  ILE779  LEU786  VAL792 
 PHE793  MET794  SER795  GLU796  ALA797  LYS798  CYS799  TRP800  GLU811  SER814 

> <Gold.Protein.RotatedAtoms>
  152.5313  133.9917  159.7853 H   0  0  0  0  0  0  0  0  0  0  0  0  # atno 6907 bound_to 6896
  151.0151  133.5920  159.2685 H   0  0  0  0  0  0  0  0  0  0  0  0  # atno 6908 bound_to 6896
  151.2980  135.0767  159.9282 H   0  0  0  0  0  0  0  0  0  0  0  0  # atno 6909 bound_to 6896
  146.2055  139.7971  142.8729 H   0  0  0  0  0  0  0  0  0  0  0  0  # atno 7974 bound_to 7965
  155.2454  140.3348  155.4288 H   0  0  0  0  0  0  0  0  0  0  0  0  # atno 8008 bound_to 7997
  156.2238  140.1820  156.7456 H   0  0  0  0  0  0  0  0  0  0  0  0  # atno 8009 bound_to 7997
  154.5867  140.0644  156.9166 H   0  0  0  0  0  0  0  0  0  0  0  0  # atno 8010 bound_to 7997
  139.5030  144.3549  151.9885 H   0  0  0  0  0  0  0  0  0  0  0  0  # atno 10167 bound_to 10162
  156.8959  130.9863  151.3043 H   0  0  0  0  0  0  0  0  0  0  0  0  # atno 10718 bound_to 10713
  154.7429  135.3073  154.8696 H   0  0  0  0  0  0  0  0  0  0  0  0  # atno 10763 bound_to 10752
  153.9505  135.6764  153.4748 H   0  0  0  0  0  0  0  0  0  0  0  0  # atno 10764 bound_to 10752
  153.1027  135.4904  154.8821 H   0  0  0  0  0  0  0  0  0  0  0  0  # atno 10765 bound_to 10752
  141.1195  133.8547  157.1342 H   0  0  0  0  0  0  0  0  0  0  0  0  # atno 11005 bound_to 11000
  145.3335  141.0272  143.3433 LP  0  0  0  0  0  0  0  0  0  0  0  0  # atno 17320 bound_to 7965
  144.8782  139.4941  143.6735 LP  0  0  0  0  0  0  0  0  0  0  0  0  # atno 17321 bound_to 7965
  140.2985  144.3673  150.6067 LP  0  0  0  0  0  0  0  0  0  0  0  0  # atno 17342 bound_to 10162
  140.5891  143.2168  151.7286 LP  0  0  0  0  0  0  0  0  0  0  0  0  # atno 17343 bound_to 10162
  157.6055  130.8544  149.8869 LP  0  0  0  0  0  0  0  0  0  0  0  0  # atno 17370 bound_to 10713
  156.0606  130.3700  150.0992 LP  0  0  0  0  0  0  0  0  0  0  0  0  # atno 17371 bound_to 10713
  140.0141  134.9975  157.0457 LP  0  0  0  0  0  0  0  0  0  0  0  0  # atno 17394 bound_to 11000
  140.4549  134.1544  155.7185 LP  0  0  0  0  0  0  0  0  0  0  0  0  # atno 17395 bound_to 11000

$$$$
