#       Name:                AV-unprocessed.smi:2193
#       Creating user name   scv26
#       Creation time:       Fri Mar 27 12:11:00 2020


#       File generated by GOLD software.
#

@<TRIPOS>MOLECULE
AV-unprocessed.smi:2193
    47    49     1
SMALL
NO_CHARGES


@<TRIPOS>ATOM
      1 ****        -1.4340   2.7764  -3.3608 O.3            1 S1                 0.0000
      2 ****        -1.1872   1.8670  -2.3072 C.3            1 S1                 0.0000
      3 ****        -1.3859   2.4501  -0.9362 C.2            1 S1                 0.0000
      4 ****        -1.8537   3.6836  -0.7289 N.2            1 S1                 0.0000
      5 ****        -1.8786   3.7752   0.6486 C.ar           1 S1                 0.0000
      6 ****        -2.2782   4.8373   1.4912 C.ar           1 S1                 0.0000
      7 ****        -2.2173   4.6981   2.8933 C.ar           1 S1                 0.0000
      8 ****        -1.7563   3.4976   3.4714 C.ar           1 S1                 0.0000
      9 ****        -1.3535   2.4271   2.6499 C.ar           1 S1                 0.0000
     10 ****        -1.4167   2.5710   1.2507 C.ar           1 S1                 0.0000
     11 ****        -1.1044   1.7350   0.1823 N.pl3          1 S1                 0.0000
     12 ****        -0.5889   0.3748   0.2712 C.3            1 S1                 0.0000
     13 ****         0.9512   0.3116   0.2042 C.3            1 S1                 0.0000
     14 ****         1.5156   1.0636   1.2602 O.3            1 S1                 0.0000
     15 ****         1.4847  -1.1254   0.2947 C.3            1 S1                 0.0000
     16 ****         1.0767  -1.8447  -0.8615 O.3            1 S1                 0.0000
     17 ****         1.4482  -3.1674  -0.9721 C.ar           1 S1                 0.0000
     18 ****         1.0046  -3.8626  -2.1163 C.ar           1 S1                 0.0000
     19 ****         1.3401  -5.2161  -2.3128 C.ar           1 S1                 0.0000
     20 ****         2.1272  -5.8908  -1.3616 C.ar           1 S1                 0.0000
     21 ****         2.4528  -7.1915  -1.5495 F              1 S1                 0.0000
     22 ****         2.5756  -5.2103  -0.2146 C.ar           1 S1                 0.0000
     23 ****         2.2393  -3.8566  -0.0177 C.ar           1 S1                 0.0000
     24 ****        -1.2909   2.3314  -4.1818 H              1 S1                 0.0000
     25 ****        -1.8500   1.0100  -2.4288 H              1 S1                 0.0000
     26 ****        -0.1637   1.5057  -2.4018 H              1 S1                 0.0000
     27 ****        -2.6321   5.7609   1.0577 H              1 S1                 0.0000
     28 ****        -2.5253   5.5163   3.5279 H              1 S1                 0.0000
     29 ****        -1.7118   3.3993   4.5461 H              1 S1                 0.0000
     30 ****        -0.9990   1.5074   3.0905 H              1 S1                 0.0000
     31 ****        -0.9448  -0.0697   1.2014 H              1 S1                 0.0000
     32 ****        -1.0295  -0.2198  -0.5293 H              1 S1                 0.0000
     33 ****         1.2984   0.7557  -0.7288 H              1 S1                 0.0000
     34 ****         1.2221   0.6980   2.0806 H              1 S1                 0.0000
     35 ****         2.5750  -1.1065   0.3432 H              1 S1                 0.0000
     36 ****         1.1133  -1.6079   1.2006 H              1 S1                 0.0000
     37 ****         0.4001  -3.3527  -2.8522 H              1 S1                 0.0000
     38 ****         0.9941  -5.7361  -3.1938 H              1 S1                 0.0000
     39 ****         3.1799  -5.7268   0.5164 H              1 S1                 0.0000
     40 ****         2.6032  -3.3693   0.8738 H              1 S1                 0.0000
     41 ****        -0.8113   3.5554  -3.2866 LP             1 S1                 0.0000
     42 ****        -2.3792   3.0995  -3.3128 LP             1 S1                 0.0000
     43 ****        -2.1202   4.3711  -1.4044 LP             1 S1                 0.0000
     44 ****         1.2200   2.0164   1.1909 LP             1 S1                 0.0000
     45 ****         2.5133   1.0197   1.2094 LP             1 S1                 0.0000
     46 ****         1.4495  -1.3649  -1.6558 LP             1 S1                 0.0000
     47 ****         0.0776  -1.8140  -0.8922 LP             1 S1                 0.0000
@<TRIPOS>BOND
    1    1    2 1     
    2    1   24 1     
    3    2    3 1     
    4    2   25 1     
    5    2   26 1     
    6    3   11 1     
    7    3    4 2     
    8    4    5 1     
    9    5   10 ar    
   10    5    6 ar    
   11    6    7 ar    
   12    6   27 1     
   13    7    8 ar    
   14    7   28 1     
   15    8    9 ar    
   16    8   29 1     
   17    9   10 ar    
   18    9   30 1     
   19   10   11 1     
   20   11   12 1     
   21   12   13 1     
   22   12   31 1     
   23   12   32 1     
   24   13   14 1     
   25   13   15 1     
   26   13   33 1     
   27   14   34 1     
   28   15   16 1     
   29   15   35 1     
   30   15   36 1     
   31   16   17 1     
   32   17   23 ar    
   33   17   18 ar    
   34   18   19 ar    
   35   18   37 1     
   36   19   20 ar    
   37   19   38 1     
   38   20   21 1     
   39   20   22 ar    
   40   22   23 ar    
   41   22   39 1     
   42   23   40 1     
   43    1   41 1     
   44    1   42 1     
   45    4   43 1     
   46   14   44 1     
   47   14   45 1     
   48   16   46 1     
   49   16   47 1     
@<TRIPOS>SUBSTRUCTURE
      1 S1             1
@<TRIPOS>SET
LONE_PAIRS      STATIC     ATOMS    <user>   **** ""
7 41 42 43 44 45 46 47
DONOR_HYDROGENS      STATIC     ATOMS    <user>   **** ""
2 24 34
ATOM$BLUE        STATIC     ATOMS    COLORGROUP SYSTEM
7 41 42 43 44 45 46 47
ATOM$RED        STATIC     ATOMS    COLORGROUP SYSTEM
2 24 34
