AV-unprocessed.smi:2705|AV-procd|sdf|10443|dock5
  -GOLD-   2272014483D 1   1.00000     0.00000
 Structure written by MMmdl.
 36 37  0  0  0  0  0  0  0  0  1 V2000
  152.7290  144.9808  157.5049 C   0  0  0  0  0  0  0  0  0  0  0  0
  152.0573  143.9122  158.3983 C   0  0  0  0  0  0  0  0  0  0  0  0
  151.1126  143.1257  157.5929 N   0  0  0  0  0  0  0  0  0  0  0  0
  150.2839  142.1421  157.9884 C   0  0  0  0  0  0  0  0  0  0  0  0
  150.1623  141.7670  159.1537 O   0  0  0  0  0  0  0  0  0  0  0  0
  149.4760  141.4621  156.8841 C   0  0  0  0  0  0  0  0  0  0  0  0
  150.3176  140.5703  156.1080 N   0  0  0  0  0  0  0  0  0  0  0  0
  151.5639  140.1379  156.3138 C   0  0  0  0  0  0  0  0  0  0  0  0
  151.9612  139.3155  155.3553 N   0  0  0  0  0  0  0  0  0  0  0  0
  150.8620  139.2582  154.5149 N   0  0  0  0  0  0  0  0  0  0  0  0
  149.8837  140.0004  154.9565 N   0  0  0  0  0  0  0  0  0  0  0  0
  153.1585  142.9299  158.8736 C   0  0  0  0  0  0  0  0  0  0  0  0
  152.7812  142.0146  160.0528 C   0  0  0  0  0  0  0  0  0  0  0  0
  153.1239  142.6400  161.4162 C   0  0  0  0  0  0  0  0  0  0  0  0
  152.2228  143.8122  161.8331 C   0  0  0  0  0  0  0  0  0  0  0  0
  152.1377  144.9594  160.8102 C   0  0  0  0  0  0  0  0  0  0  0  0
  151.2966  144.5904  159.5746 C   0  0  0  0  0  0  0  0  0  0  0  0
  153.4800  145.5442  158.0591 H   0  0  0  0  0  0  0  0  0  0  0  0
  152.0142  145.7061  157.1163 H   0  0  0  0  0  0  0  0  0  0  0  0
  153.2295  144.5249  156.6497 H   0  0  0  0  0  0  0  0  0  0  0  0
  151.1113  143.3408  156.6064 H   0  0  0  0  0  0  0  0  0  0  0  0
  148.6497  140.8971  157.3186 H   0  0  0  0  0  0  0  0  0  0  0  0
  149.0421  142.2080  156.2167 H   0  0  0  0  0  0  0  0  0  0  0  0
  152.1715  140.4184  157.1618 H   0  0  0  0  0  0  0  0  0  0  0  0
  153.4548  142.3043  158.0299 H   0  0  0  0  0  0  0  0  0  0  0  0
  154.0649  143.4788  159.1331 H   0  0  0  0  0  0  0  0  0  0  0  0
  151.7333  141.7161  160.0070 H   0  0  0  0  0  0  0  0  0  0  0  0
  153.3565  141.0927  159.9605 H   0  0  0  0  0  0  0  0  0  0  0  0
  153.0555  141.8675  162.1828 H   0  0  0  0  0  0  0  0  0  0  0  0
  154.1658  142.9624  161.4191 H   0  0  0  0  0  0  0  0  0  0  0  0
  151.2209  143.4421  162.0538 H   0  0  0  0  0  0  0  0  0  0  0  0
  152.6001  144.2118  162.7750 H   0  0  0  0  0  0  0  0  0  0  0  0
  151.6529  145.8018  161.3047 H   0  0  0  0  0  0  0  0  0  0  0  0
  153.1294  145.3144  160.5284 H   0  0  0  0  0  0  0  0  0  0  0  0
  150.8206  145.5002  159.2062 H   0  0  0  0  0  0  0  0  0  0  0  0
  150.4672  143.9599  159.8994 H   0  0  0  0  0  0  0  0  0  0  0  0
  1  2  1  0  0  0  0
  1 18  1  0  0  0  0
  1 19  1  0  0  0  0
  1 20  1  0  0  0  0
  2 17  1  0  0  0  0
  2  3  1  0  0  0  0
  2 12  1  0  0  0  0
  3  4  1  0  0  0  0
  3 21  1  0  0  0  0
  4  5  2  0  0  0  0
  4  6  1  0  0  0  0
  6  7  1  0  0  0  0
  6 22  1  0  0  0  0
  6 23  1  0  0  0  0
  7 11  1  0  0  0  0
  7  8  1  0  0  0  0
  8  9  2  0  0  0  0
  8 24  1  0  0  0  0
  9 10  1  0  0  0  0
 10 11  2  0  0  0  0
 12 13  1  0  0  0  0
 12 25  1  0  0  0  0
 12 26  1  0  0  0  0
 13 14  1  0  0  0  0
 13 27  1  0  0  0  0
 13 28  1  0  0  0  0
 14 15  1  0  0  0  0
 14 29  1  0  0  0  0
 14 30  1  0  0  0  0
 15 16  1  0  0  0  0
 15 31  1  0  0  0  0
 15 32  1  0  0  0  0
 16 17  1  0  0  0  0
 16 33  1  0  0  0  0
 16 34  1  0  0  0  0
 17 35  1  0  0  0  0
 17 36  1  0  0  0  0
M  END
> <s_m_source_file>
AV-unprocessed.smi

> <i_m_source_file_index>
2705

> <i_lp_mmshare_version>
43012

> <i_f3d_flags>
0

> <s_epik_input>
W0NIMl0xW0NIMl1bQ0gyXVtDSDJdW0NIMl1bQ0gyXUMxKFtDSDNdKVtOSF1DKD1PKVtDSDJdbjJbY0hdbm5uMg==

> <s_epik_cmdline>
J2VwaWtfcHl0aG9uJywgJy1waCcsICc3LjAnLCAnLXRuJywgJzgnLCAnLW1hJywgJzIwMCcsICctbWV0YWxfYmluZGluZycsICctaW1hZScsICc8aW5maWxlLm1hZT4nLCAnLW9tYWUnLCAnPG91dGZpbGUubWFlPic=

> <r_lp_tautomer_probability>
1

> <r_epik_Ionization_Penalty>
4.39395e-07

> <r_epik_Ionization_Penalty_Charging>
0

> <r_epik_Ionization_Penalty_Neutral>
4.39395e-07

> <r_epik_State_Penalty>
-0

> <r_epik_Charging_Adjusted_Penalty>
0

> <i_epik_Tot_Q>
0

> <i_epik_Tot_abs_Q>
0

> <r_epik_Metal_State_Penalty>
-0

> <b_epik_Metal_Only>
0

> <s_lp_Force_Field>
OPLS_2005

> <r_lp_Energy>
20.5987

> <b_lp_Chiralities_Consistent>
1

> <s_lp_Variant>
AV-unprocessed.smi:2705-1

> <Gold.Version>
5.8.1

> <Gold.Id.Protein>
6NUR|6NUR_protein|mol2

> <Gold.PLP.Fitness>
40.5005

> <Gold.PLP.PLP>
-40.1544

> <Gold.PLP.part.hbond>
-4.2143

> <Gold.PLP.part.metal>
0.0000

> <Gold.PLP.part.buried>
-5.0226

> <Gold.PLP.part.nonpolar>
-31.3507

> <Gold.PLP.part.repulsive>
0.2805

> <Gold.PLP.ligand.clash>
0.0000

> <Gold.PLP.ligand.torsion>
0.3184

> <Gold.PLP.Chemscore.Hbond>
0.3250

> <Gold.PLP.Chemscore.CHOScore>
0.0000

> <Gold.PLP.Chemscore.Metal>
0.0000

> <Gold.Chemscore.Hbonds>
donor molecule, donor type, donor heavy atom, donor atom, acceptor molecule, acceptor atom, score
      P1  H  7989  7998       L1    10  0.21

> <Gold.PLP.Chemscore.Internal.Correction>
0.0080

> <Gold.Rescore>
     Score         DG    S(hbond)    S(metal)    S(lipo)     H(rot)  DE(clash)    DE(int)     intcor
      9.87     -13.24       0.00        0.00     108.00       1.91       1.52       1.85       ----

> <Gold.Chemscore.Fitness>
9.8667

> <Gold.Chemscore.DG>
-13.2375

> <Gold.Chemscore.ZeroCoef>
-5.4800

> <Gold.Chemscore.Hbond>
0.0000

> <Gold.Chemscore.Metal>
0.0000

> <Gold.Chemscore.Lipo>
108.0029

> <Gold.Chemscore.Internal_Hbond>
0.0000

> <Gold.Chemscore.DEClash>
1.5240

> <Gold.Chemscore.DEInternal>
1.8468

> <Gold.Chemscore.Rot>
1.9058

> <Gold.Chemscore.Internal.Correction>
   9.000000E+99

> <Gold.Chemscore.Hbond.Weighted>
-0.0000

> <Gold.Chemscore.Metal.Weighted>
-0.0000

> <Gold.Chemscore.Lipo.Weighted>
-12.6363

> <Gold.Chemscore.Internal_Hbond.Weighted>
0.0000

> <Gold.Chemscore.DEClash.Weighted>
1.5240

> <Gold.Chemscore.DEInternal.Weighted>
1.8468

> <Gold.Chemscore.Rot.Weighted>
4.8788

> <Gold.Chemscore.Internal.Correction.Weighted>
   9.000000E+99

> <Gold.Protein.RotatedTorsions>
[ 6907 6896 6895 6894 ] final  130.04 input  -60.11 | X-H torsion
[ 7974 7965 7964 7962 ] final   93.45 input  175.53 | X-H torsion
[ 8008 7997 7996 7995 ] final  -70.65 input   59.86 | X-H torsion
[ 10167 10162 10161 10158 ] final   39.86 input  -65.29 | X-H torsion
[ 10718 10713 10712 10709 ] final  109.83 input   66.30 | X-H torsion
[ 10763 10752 10751 10750 ] final   -8.97 input  -60.55 | X-H torsion
[ 11005 11000 10999 10996 ] final -128.60 input  -57.11 | X-H torsion

> <Gold.Protein.ActiveResidues>
 VAL166  LYS551  ARG553  GLY616  TRP617  ASP618  TYR619  PRO620  LYS621  CYS622 
 ASP623  PHE694  ASN695  SER759  ASP760  ASP761  ALA762  ILE779  LEU786  VAL792 
 PHE793  MET794  SER795  GLU796  ALA797  LYS798  CYS799  TRP800  GLU811  SER814 

> <Gold.Protein.RotatedAtoms>
  152.3565  133.6244  159.5983 H   0  0  0  0  0  0  0  0  0  0  0  0  # atno 6907 bound_to 6896
  150.7572  133.9491  159.3489 H   0  0  0  0  0  0  0  0  0  0  0  0  # atno 6908 bound_to 6896
  151.7335  135.0870  160.0355 H   0  0  0  0  0  0  0  0  0  0  0  0  # atno 6909 bound_to 6896
  145.4788  139.2279  143.2894 H   0  0  0  0  0  0  0  0  0  0  0  0  # atno 7974 bound_to 7965
  154.5028  140.0830  156.7833 H   0  0  0  0  0  0  0  0  0  0  0  0  # atno 8008 bound_to 7997
  155.3963  140.3435  155.4236 H   0  0  0  0  0  0  0  0  0  0  0  0  # atno 8009 bound_to 7997
  156.1478  140.1549  156.8806 H   0  0  0  0  0  0  0  0  0  0  0  0  # atno 8010 bound_to 7997
  140.3798  144.1995  150.6131 H   0  0  0  0  0  0  0  0  0  0  0  0  # atno 10167 bound_to 10162
  157.6523  131.0921  150.6512 H   0  0  0  0  0  0  0  0  0  0  0  0  # atno 10718 bound_to 10713
  153.4481  135.7014  153.6126 H   0  0  0  0  0  0  0  0  0  0  0  0  # atno 10763 bound_to 10752
  153.4473  135.3766  155.2263 H   0  0  0  0  0  0  0  0  0  0  0  0  # atno 10764 bound_to 10752
  154.8728  135.3988  154.3889 H   0  0  0  0  0  0  0  0  0  0  0  0  # atno 10765 bound_to 10752
  140.9502  134.1076  157.4069 H   0  0  0  0  0  0  0  0  0  0  0  0  # atno 11005 bound_to 11000
  146.2353  140.5573  142.8957 LP  0  0  0  0  0  0  0  0  0  0  0  0  # atno 17320 bound_to 7965
  144.7901  140.6015  143.6547 LP  0  0  0  0  0  0  0  0  0  0  0  0  # atno 17321 bound_to 7965
  140.4949  143.2335  151.8764 LP  0  0  0  0  0  0  0  0  0  0  0  0  # atno 17342 bound_to 10162
  139.4796  144.5124  151.8914 LP  0  0  0  0  0  0  0  0  0  0  0  0  # atno 17343 bound_to 10162
  156.6821  130.4570  149.5624 LP  0  0  0  0  0  0  0  0  0  0  0  0  # atno 17370 bound_to 10713
  156.1921  130.6566  151.1073 LP  0  0  0  0  0  0  0  0  0  0  0  0  # atno 17371 bound_to 10713
  139.8845  135.0063  156.6374 LP  0  0  0  0  0  0  0  0  0  0  0  0  # atno 17394 bound_to 11000
  140.7613  133.8815  155.8420 LP  0  0  0  0  0  0  0  0  0  0  0  0  # atno 17395 bound_to 11000

$$$$
