AV-unprocessed.smi:1207|AV-procd|sdf|5052|dock9
  -GOLD-   22720 4 83D 1   1.00000     0.00000
 Structure written by MMmdl.
 52 54  0  0  0  0  0  0  0  0  2 V2000
  152.0584  143.7641  159.9297 C   0  0  0  0  0  0  0  0  0  0  0  0
  151.8901  142.6227  158.9424 C   0  0  0  0  0  0  0  0  0  0  0  0
  150.9214  142.7359  157.9195 C   0  0  0  0  0  0  0  0  0  0  0  0
  150.7334  141.6970  156.9820 C   0  0  0  0  0  0  0  0  0  0  0  0
  149.8565  141.5952  155.9157 N   0  0  0  0  0  0  0  0  0  0  0  0
  150.1631  140.3962  155.4291 C   0  0  0  0  0  0  0  0  0  0  0  0
  151.1340  139.7056  156.0576 N   0  0  0  0  0  0  0  0  0  0  0  0
  151.6377  138.3872  155.7164 C   0  0  0  0  0  0  0  0  0  0  0  0
  150.6570  137.6018  154.8258 C   0  0  1  0  0  0  0  0  0  0  0  0
  151.3623  136.5993  154.1188 O   0  0  0  0  0  0  0  0  0  0  0  0
  149.5293  136.9373  155.6391 C   0  0  0  0  0  0  0  0  0  0  0  0
  148.7519  135.9805  154.8115 N   0  3  1  0  0  0  0  0  0  0  0  0
  149.2700  134.5966  154.9115 C   0  0  0  0  0  0  0  0  0  0  0  0
  147.2868  136.0611  155.0447 C   0  0  0  0  0  0  0  0  0  0  0  0
  146.5475  135.1093  154.1427 C   0  0  0  0  0  0  0  0  0  0  0  0
  145.7995  135.4316  152.9740 C   0  0  0  0  0  0  0  0  0  0  0  0
  145.5691  136.7820  152.3567 C   0  0  0  0  0  0  0  0  0  0  0  0
  145.2765  134.3564  152.4105 N   0  0  0  0  0  0  0  0  0  0  0  0
  145.6647  133.2775  153.2102 O   0  0  0  0  0  0  0  0  0  0  0  0
  146.4178  133.7500  154.2356 C   0  0  0  0  0  0  0  0  0  0  0  0
  146.9265  132.7361  155.2043 C   0  0  0  0  0  0  0  0  0  0  0  0
  151.5487  140.5331  157.0958 C   0  0  0  0  0  0  0  0  0  0  0  0
  152.5177  140.4097  158.1074 C   0  0  0  0  0  0  0  0  0  0  0  0
  152.6900  141.4554  159.0380 C   0  0  0  0  0  0  0  0  0  0  0  0
  153.7350  141.3104  160.1301 C   0  0  0  0  0  0  0  0  0  0  0  0
  151.3925  144.5950  159.6953 H   0  0  0  0  0  0  0  0  0  0  0  0
  153.0814  144.1407  159.9090 H   0  0  0  0  0  0  0  0  0  0  0  0
  151.8320  143.4290  160.9422 H   0  0  0  0  0  0  0  0  0  0  0  0
  150.3117  143.6248  157.8466 H   0  0  0  0  0  0  0  0  0  0  0  0
  149.6488  139.9955  154.5678 H   0  0  0  0  0  0  0  0  0  0  0  0
  152.6047  138.4947  155.2222 H   0  0  0  0  0  0  0  0  0  0  0  0
  151.8188  137.8459  156.6459 H   0  0  0  0  0  0  0  0  0  0  0  0
  150.2324  138.2862  154.0924 H   0  0  0  0  0  0  0  0  0  0  0  0
  151.2007  136.7079  153.1938 H   0  0  0  0  0  0  0  0  0  0  0  0
  149.9701  136.4285  156.4982 H   0  0  0  0  0  0  0  0  0  0  0  0
  148.8509  137.6880  156.0481 H   0  0  0  0  0  0  0  0  0  0  0  0
  149.1604  134.2101  155.9257 H   0  0  0  0  0  0  0  0  0  0  0  0
  150.3264  134.5593  154.6437 H   0  0  0  0  0  0  0  0  0  0  0  0
  148.7403  133.9293  154.2319 H   0  0  0  0  0  0  0  0  0  0  0  0
  147.0732  135.8737  156.0978 H   0  0  0  0  0  0  0  0  0  0  0  0
  146.9336  137.0761  154.8631 H   0  0  0  0  0  0  0  0  0  0  0  0
  145.1638  137.4824  153.0876 H   0  0  0  0  0  0  0  0  0  0  0  0
  144.8663  136.7325  151.5239 H   0  0  0  0  0  0  0  0  0  0  0  0
  146.5012  137.2006  151.9773 H   0  0  0  0  0  0  0  0  0  0  0  0
  147.4993  133.2052  156.0040 H   0  0  0  0  0  0  0  0  0  0  0  0
  147.5749  132.0167  154.7039 H   0  0  0  0  0  0  0  0  0  0  0  0
  146.1009  132.1879  155.6584 H   0  0  0  0  0  0  0  0  0  0  0  0
  153.1224  139.5171  158.1680 H   0  0  0  0  0  0  0  0  0  0  0  0
  154.2285  140.3392  160.0828 H   0  0  0  0  0  0  0  0  0  0  0  0
  153.2759  141.4034  161.1146 H   0  0  0  0  0  0  0  0  0  0  0  0
  154.5003  142.0805  160.0299 H   0  0  0  0  0  0  0  0  0  0  0  0
  148.9079  136.2691  153.8558 H   0  0  0  0  0  0  0  0  0  0  0  0
  1  2  1  0  0  0  0
  1 26  1  0  0  0  0
  1 27  1  0  0  0  0
  1 28  1  0  0  0  0
  2 24  1  0  0  0  0
  2  3  2  0  0  0  0
  3  4  1  0  0  0  0
  3 29  1  0  0  0  0
  4 22  2  0  0  0  0
  4  5  1  0  0  0  0
  5  6  2  0  0  0  0
  6  7  1  0  0  0  0
  6 30  1  0  0  0  0
  7  8  1  0  0  0  0
  7 22  1  0  0  0  0
  8  9  1  0  0  0  0
  8 31  1  0  0  0  0
  8 32  1  0  0  0  0
  9 10  1  0  0  0  0
  9 11  1  0  0  0  0
  9 33  1  0  0  0  0
 10 34  1  0  0  0  0
 11 12  1  0  0  0  0
 11 35  1  0  0  0  0
 11 36  1  0  0  0  0
 12 13  1  0  0  0  0
 12 14  1  0  0  0  0
 12 52  1  0  0  0  0
 13 37  1  0  0  0  0
 13 38  1  0  0  0  0
 13 39  1  0  0  0  0
 14 15  1  0  0  0  0
 14 40  1  0  0  0  0
 14 41  1  0  0  0  0
 15 20  2  0  0  0  0
 15 16  1  0  0  0  0
 16 17  1  0  0  0  0
 16 18  2  0  0  0  0
 17 42  1  0  0  0  0
 17 43  1  0  0  0  0
 17 44  1  0  0  0  0
 18 19  1  0  0  0  0
 19 20  1  0  0  0  0
 20 21  1  0  0  0  0
 21 45  1  0  0  0  0
 21 46  1  0  0  0  0
 21 47  1  0  0  0  0
 22 23  1  0  0  0  0
 23 24  2  0  0  0  0
 23 48  1  0  0  0  0
 24 25  1  0  0  0  0
 25 49  1  0  0  0  0
 25 50  1  0  0  0  0
 25 51  1  0  0  0  0
M  CHG  1  12   1
M  END
> <s_m_source_file>
AV-unprocessed.smi

> <i_m_source_file_index>
1207

> <i_lp_mmshare_version>
43012

> <i_f3d_flags>
0

> <s_epik_input>
W0NIM11jKFtjSF0xKWMoW0NIM10pW2NIXWMoYzEyKW4oW2NIXW4yKVtDSDJdW0NASF0oW09IXSlbQ0gyXU4oW0NIM10pW0NIMl1jM2MoW0NIM10pbm9jM1tDSDNd

> <s_epik_cmdline>
J2VwaWtfcHl0aG9uJywgJy1waCcsICc3LjAnLCAnLXRuJywgJzgnLCAnLW1hJywgJzIwMCcsICctbWV0YWxfYmluZGluZycsICctaW1hZScsICc8aW5maWxlLm1hZT4nLCAnLW9tYWUnLCAnPG91dGZpbGUubWFlPic=

> <r_epik_Ionization_Penalty>
0.646518

> <r_epik_Ionization_Penalty_Charging>
0.559419

> <r_epik_Ionization_Penalty_Neutral>
0.0870981

> <r_epik_State_Penalty>
0.661677

> <r_epik_Charging_Adjusted_Penalty>
1.2211

> <i_epik_Tot_Q>
1

> <i_epik_Tot_abs_Q>
1

> <r_epik_Metal_State_Penalty>
0.649158

> <b_epik_Metal_Only>
0

> <s_lp_Force_Field>
OPLS_2005

> <r_lp_Energy>
8.27883

> <b_lp_Chiralities_Consistent>
1

> <s_lp_Variant>
AV-unprocessed.smi:1207-4

> <Gold.Version>
5.8.1

> <Gold.Id.Protein>
6NUR|6NUR_protein|mol2

> <Gold.PLP.Fitness>
50.0932

> <Gold.PLP.PLP>
-40.4672

> <Gold.PLP.part.hbond>
-3.2438

> <Gold.PLP.part.metal>
0.0000

> <Gold.PLP.part.buried>
-2.9459

> <Gold.PLP.part.nonpolar>
-34.5262

> <Gold.PLP.part.repulsive>
0.2893

> <Gold.PLP.ligand.clash>
0.0000

> <Gold.PLP.ligand.torsion>
1.2701

> <Gold.PLP.Chemscore.Hbond>
4.0000

> <Gold.PLP.Chemscore.CHOScore>
0.0000

> <Gold.PLP.Chemscore.Metal>
0.0000

> <Gold.Chemscore.Hbonds>
donor molecule, donor type, donor heavy atom, donor atom, acceptor molecule, acceptor atom, score
      L1  H    10    34       P1  7949  0.98
      L1  H    12    52       P1  7948  2.00
      P1  H 10752 10765       L1    10  1.00

> <Gold.PLP.Chemscore.Internal.Correction>
0.1663

> <Gold.Rescore>
     Score         DG    S(hbond)    S(metal)    S(lipo)     H(rot)  DE(clash)    DE(int)     intcor
     18.17     -19.61       2.23        0.00     110.91       2.46       0.13       1.31       ----

> <Gold.Chemscore.Fitness>
18.1669

> <Gold.Chemscore.DG>
-19.6054

> <Gold.Chemscore.ZeroCoef>
-5.4800

> <Gold.Chemscore.Hbond>
2.2270

> <Gold.Chemscore.Metal>
0.0000

> <Gold.Chemscore.Lipo>
110.9061

> <Gold.Chemscore.Internal_Hbond>
0.0000

> <Gold.Chemscore.DEClash>
0.1258

> <Gold.Chemscore.DEInternal>
1.3128

> <Gold.Chemscore.Rot>
2.4565

> <Gold.Chemscore.Internal.Correction>
   9.000000E+99

> <Gold.Chemscore.Hbonds>
donor molecule, donor type, donor heavy atom, donor atom, acceptor molecule, acceptor atom, score
      L1  H    10    34       P1  7949  0.52
      L1  H    12    52       P1  7948  0.97
      P1  H 10752 10765       L1    10  0.50

> <Gold.Chemscore.Hbond.Weighted>
-7.4381

> <Gold.Chemscore.Metal.Weighted>
-0.0000

> <Gold.Chemscore.Lipo.Weighted>
-12.9760

> <Gold.Chemscore.Internal_Hbond.Weighted>
0.0000

> <Gold.Chemscore.DEClash.Weighted>
0.1258

> <Gold.Chemscore.DEInternal.Weighted>
1.3128

> <Gold.Chemscore.Rot.Weighted>
6.2887

> <Gold.Chemscore.Internal.Correction.Weighted>
   9.000000E+99

> <Gold.Protein.RotatedTorsions>
[ 6907 6896 6895 6894 ] final    0.24 input  -60.11 | X-H torsion
[ 7974 7965 7964 7962 ] final  143.37 input  175.53 | X-H torsion
[ 8008 7997 7996 7995 ] final  130.33 input   59.86 | X-H torsion
[ 10167 10162 10161 10158 ] final   87.02 input  -65.29 | X-H torsion
[ 10718 10713 10712 10709 ] final  -95.14 input   66.30 | X-H torsion
[ 10763 10752 10751 10750 ] final  158.58 input  -60.55 | X-H torsion
[ 11005 11000 10999 10996 ] final -169.67 input  -57.11 | X-H torsion

> <Gold.Protein.ActiveResidues>
 VAL166  LYS551  ARG553  GLY616  TRP617  ASP618  TYR619  PRO620  LYS621  CYS622 
 ASP623  PHE694  ASN695  SER759  ASP760  ASP761  ALA762  ILE779  LEU786  VAL792 
 PHE793  MET794  SER795  GLU796  ALA797  LYS798  CYS799  TRP800  GLU811  SER814 

> <Gold.Protein.RotatedAtoms>
  151.5732  135.1061  159.9999 H   0  0  0  0  0  0  0  0  0  0  0  0  # atno 6907 bound_to 6896
  152.4390  133.7409  159.6651 H   0  0  0  0  0  0  0  0  0  0  0  0  # atno 6908 bound_to 6896
  150.8292  133.8050  159.3129 H   0  0  0  0  0  0  0  0  0  0  0  0  # atno 6909 bound_to 6896
  144.8926  139.5536  143.5791 H   0  0  0  0  0  0  0  0  0  0  0  0  # atno 7974 bound_to 7965
  156.2952  140.2598  156.2745 H   0  0  0  0  0  0  0  0  0  0  0  0  # atno 8008 bound_to 7997
  154.9662  140.0392  157.2232 H   0  0  0  0  0  0  0  0  0  0  0  0  # atno 8009 bound_to 7997
  154.7900  140.2810  155.6003 H   0  0  0  0  0  0  0  0  0  0  0  0  # atno 8010 bound_to 7997
  139.8816  144.6436  150.8836 H   0  0  0  0  0  0  0  0  0  0  0  0  # atno 10167 bound_to 10162
  156.0038  130.5097  150.6032 H   0  0  0  0  0  0  0  0  0  0  0  0  # atno 10718 bound_to 10713
  154.2183  135.2783  155.2934 H   0  0  0  0  0  0  0  0  0  0  0  0  # atno 10763 bound_to 10752
  154.5723  135.5615  153.7110 H   0  0  0  0  0  0  0  0  0  0  0  0  # atno 10764 bound_to 10752
  153.0048  135.6324  154.2322 H   0  0  0  0  0  0  0  0  0  0  0  0  # atno 10765 bound_to 10752
  140.5281  134.5643  157.5067 H   0  0  0  0  0  0  0  0  0  0  0  0  # atno 11005 bound_to 11000
  146.3063  139.7591  142.9054 LP  0  0  0  0  0  0  0  0  0  0  0  0  # atno 17320 bound_to 7965
  145.3755  141.0350  143.3207 LP  0  0  0  0  0  0  0  0  0  0  0  0  # atno 17321 bound_to 7965
  140.7743  143.3581  151.1882 LP  0  0  0  0  0  0  0  0  0  0  0  0  # atno 17342 bound_to 10162
  139.7191  143.9253  152.2978 LP  0  0  0  0  0  0  0  0  0  0  0  0  # atno 17343 bound_to 10162
  157.3877  131.0791  151.1421 LP  0  0  0  0  0  0  0  0  0  0  0  0  # atno 17370 bound_to 10713
  157.2123  130.6443  149.5779 LP  0  0  0  0  0  0  0  0  0  0  0  0  # atno 17371 bound_to 10713
  139.9569  134.7519  156.0322 LP  0  0  0  0  0  0  0  0  0  0  0  0  # atno 17394 bound_to 11000
  141.1297  133.6590  156.3430 LP  0  0  0  0  0  0  0  0  0  0  0  0  # atno 17395 bound_to 11000

$$$$
