AV-unprocessed.smi:224|AV-procd|sdf|1722|dock8
  -GOLD-   2262020203D 1   1.00000     0.00000
 Structure written by MMmdl.
 56 59  0  0  0  0  0  0  0  0  2 V2000
  145.0124  132.0142  149.4950 C   0  0  0  0  0  0  0  0  0  0  0  0
  144.7090  133.2400  150.3695 C   0  0  1  0  0  0  0  0  0  0  0  0
  144.0673  134.2030  149.5602 O   0  0  0  0  0  0  0  0  0  0  0  0
  143.7842  132.9163  151.5629 C   0  0  0  0  0  0  0  0  0  0  0  0
  144.1692  133.6226  152.8197 N   0  3  1  0  0  0  0  0  0  0  0  0
  145.6507  133.7329  152.9519 C   0  0  0  0  0  0  0  0  0  0  0  0
  146.0683  134.4109  154.2641 C   0  0  0  0  0  0  0  0  0  0  0  0
  145.4292  135.7132  154.3864 N   0  0  0  0  0  0  0  0  0  0  0  0
  146.0843  136.7699  153.8337 C   0  0  0  0  0  0  0  0  0  0  0  0
  145.7739  137.1714  152.5718 N   0  0  0  0  0  0  0  0  0  0  0  0
  146.4168  138.1982  152.0085 C   0  0  0  0  0  0  0  0  0  0  0  0
  147.3865  138.9561  152.5213 N   0  0  0  0  0  0  0  0  0  0  0  0
  147.6934  138.5738  153.7934 C   0  0  0  0  0  0  0  0  0  0  0  0
  147.0988  137.5008  154.5173 C   0  0  0  0  0  0  0  0  0  0  0  0
  147.6656  137.4193  155.7840 N   0  0  0  0  0  0  0  0  0  0  0  0
  148.5508  138.3778  155.8028 C   0  0  0  0  0  0  0  0  0  0  0  0
  148.6278  139.1281  154.6514 N   0  0  0  0  0  0  0  0  0  0  0  0
  149.5159  140.2533  154.3988 C   0  0  0  0  0  0  0  0  0  0  0  0
  149.7208  141.1718  155.6273 C   0  0  2  0  0  0  0  0  0  0  0  0
  150.2547  142.4116  155.1956 O   0  0  0  0  0  0  0  0  0  0  0  0
  150.6686  140.5757  156.6603 C   0  0  0  0  0  0  0  0  0  0  0  0
  150.1794  141.1955  157.9622 C   0  0  0  0  0  0  0  0  0  0  0  0
  148.7702  141.1799  157.8116 O   0  0  0  0  0  0  0  0  0  0  0  0
  148.4453  141.4485  156.4502 C   0  0  0  0  0  0  0  0  0  0  0  0
  143.9734  135.6458  154.3026 C   0  0  0  0  0  0  0  0  0  0  0  0
  143.4843  134.9427  153.0123 C   0  0  2  0  0  0  0  0  0  0  0  0
  141.9483  134.8229  153.0854 C   0  0  0  0  0  0  0  0  0  0  0  0
  145.5495  131.2498  150.0570 H   0  0  0  0  0  0  0  0  0  0  0  0
  145.6337  132.2859  148.6409 H   0  0  0  0  0  0  0  0  0  0  0  0
  144.0973  131.5626  149.1101 H   0  0  0  0  0  0  0  0  0  0  0  0
  145.6434  133.6880  150.7046 H   0  0  0  0  0  0  0  0  0  0  0  0
  143.1469  134.2186  149.7752 H   0  0  0  0  0  0  0  0  0  0  0  0
  142.7480  133.1598  151.3210 H   0  0  0  0  0  0  0  0  0  0  0  0
  143.8117  131.8377  151.6959 H   0  0  0  0  0  0  0  0  0  0  0  0
  146.1152  132.7491  152.9201 H   0  0  0  0  0  0  0  0  0  0  0  0
  146.0480  134.2960  152.1056 H   0  0  0  0  0  0  0  0  0  0  0  0
  145.7661  133.7963  155.1130 H   0  0  0  0  0  0  0  0  0  0  0  0
  147.1540  134.4790  154.3094 H   0  0  0  0  0  0  0  0  0  0  0  0
  146.1106  138.4484  151.0035 H   0  0  0  0  0  0  0  0  0  0  0  0
  149.1734  138.5658  156.6655 H   0  0  0  0  0  0  0  0  0  0  0  0
  150.4749  139.8580  154.0609 H   0  0  0  0  0  0  0  0  0  0  0  0
  149.1130  140.8276  153.5636 H   0  0  0  0  0  0  0  0  0  0  0  0
  149.6141  143.0872  155.3578 H   0  0  0  0  0  0  0  0  0  0  0  0
  150.5398  139.4936  156.7123 H   0  0  0  0  0  0  0  0  0  0  0  0
  151.7218  140.7753  156.4581 H   0  0  0  0  0  0  0  0  0  0  0  0
  150.4959  140.6368  158.8431 H   0  0  0  0  0  0  0  0  0  0  0  0
  150.5266  142.2250  158.0617 H   0  0  0  0  0  0  0  0  0  0  0  0
  148.0946  142.4758  156.3396 H   0  0  0  0  0  0  0  0  0  0  0  0
  147.6231  140.7908  156.1704 H   0  0  0  0  0  0  0  0  0  0  0  0
  143.6202  135.0927  155.1740 H   0  0  0  0  0  0  0  0  0  0  0  0
  143.5388  136.6428  154.3904 H   0  0  0  0  0  0  0  0  0  0  0  0
  143.7361  135.5716  152.1575 H   0  0  0  0  0  0  0  0  0  0  0  0
  141.5020  135.7719  153.3845 H   0  0  0  0  0  0  0  0  0  0  0  0
  141.6415  134.0734  153.8156 H   0  0  0  0  0  0  0  0  0  0  0  0
  141.4970  134.5711  152.1270 H   0  0  0  0  0  0  0  0  0  0  0  0
  143.8556  133.0390  153.5820 H   0  0  0  0  0  0  0  0  0  0  0  0
  1  2  1  0  0  0  0
  1 28  1  0  0  0  0
  1 29  1  0  0  0  0
  1 30  1  0  0  0  0
  2  3  1  0  0  0  0
  2  4  1  0  0  0  0
  2 31  1  0  0  0  0
  3 32  1  0  0  0  0
  4  5  1  0  0  0  0
  4 33  1  0  0  0  0
  4 34  1  0  0  0  0
  5 26  1  0  0  0  0
  5  6  1  0  0  0  0
  5 56  1  0  0  0  0
  6  7  1  0  0  0  0
  6 35  1  0  0  0  0
  6 36  1  0  0  0  0
  7  8  1  0  0  0  0
  7 37  1  0  0  0  0
  7 38  1  0  0  0  0
  8  9  1  0  0  0  0
  8 25  1  0  0  0  0
  9 14  1  0  0  0  0
  9 10  2  0  0  0  0
 10 11  1  0  0  0  0
 11 12  2  0  0  0  0
 11 39  1  0  0  0  0
 12 13  1  0  0  0  0
 13 17  1  0  0  0  0
 13 14  2  0  0  0  0
 14 15  1  0  0  0  0
 15 16  2  0  0  0  0
 16 17  1  0  0  0  0
 16 40  1  0  0  0  0
 17 18  1  0  0  0  0
 18 19  1  0  0  0  0
 18 41  1  0  0  0  0
 18 42  1  0  0  0  0
 19 24  1  0  0  0  0
 19 20  1  0  0  0  0
 19 21  1  0  0  0  0
 20 43  1  0  0  0  0
 21 22  1  0  0  0  0
 21 44  1  0  0  0  0
 21 45  1  0  0  0  0
 22 23  1  0  0  0  0
 22 46  1  0  0  0  0
 22 47  1  0  0  0  0
 23 24  1  0  0  0  0
 24 48  1  0  0  0  0
 24 49  1  0  0  0  0
 25 26  1  0  0  0  0
 25 50  1  0  0  0  0
 25 51  1  0  0  0  0
 26 27  1  0  0  0  0
 26 52  1  0  0  0  0
 27 53  1  0  0  0  0
 27 54  1  0  0  0  0
 27 55  1  0  0  0  0
M  CHG  1   5   1
M  END
> <s_m_source_file>
AV-unprocessed.smi

> <i_m_source_file_index>
224

> <i_lp_mmshare_version>
43012

> <i_f3d_flags>
0

> <s_epik_input>
W0NIM11bQ0BIXShbT0hdKVtDSDJdTjFbQ0gyXVtDSDJdTihbQ0gyXVtDQEhdMVtDSDNdKWMobltjSF1uMiljKGMyMyluW2NIXW4zW0NIMl1bQ0BAXTQoW09IXSlbQ0gyXVtDSDJdT1tDSDJdNA==

> <s_epik_cmdline>
J2VwaWtfcHl0aG9uJywgJy1waCcsICc3LjAnLCAnLXRuJywgJzgnLCAnLW1hJywgJzIwMCcsICctbWV0YWxfYmluZGluZycsICctaW1hZScsICc8aW5maWxlLm1hZT4nLCAnLW9tYWUnLCAnPG91dGZpbGUubWFlPic=

> <r_lp_tautomer_probability>
1

> <r_epik_Ionization_Penalty>
0.00516958

> <r_epik_Ionization_Penalty_Charging>
0.00509693

> <r_epik_Ionization_Penalty_Neutral>
7.26542e-05

> <r_epik_State_Penalty>
-0

> <r_epik_Charging_Adjusted_Penalty>
0.00509693

> <i_epik_Tot_Q>
1

> <i_epik_Tot_abs_Q>
1

> <r_epik_Metal_State_Penalty>
-0

> <b_epik_Metal_Only>
0

> <s_lp_Force_Field>
OPLS_2005

> <r_lp_Energy>
50.435

> <b_lp_Chiralities_Consistent>
1

> <s_lp_Variant>
AV-unprocessed.smi:224-16

> <Gold.Version>
5.8.1

> <Gold.Id.Protein>
6NUR|6NUR_protein|mol2

> <Gold.PLP.Fitness>
44.2802

> <Gold.PLP.PLP>
-32.5354

> <Gold.PLP.part.hbond>
-3.9185

> <Gold.PLP.part.metal>
0.0000

> <Gold.PLP.part.buried>
-7.3067

> <Gold.PLP.part.nonpolar>
-24.3888

> <Gold.PLP.part.repulsive>
1.2272

> <Gold.PLP.ligand.clash>
0.0000

> <Gold.PLP.ligand.torsion>
1.9175

> <Gold.PLP.Chemscore.Hbond>
4.0000

> <Gold.PLP.Chemscore.CHOScore>
1.0000

> <Gold.PLP.Chemscore.Metal>
0.0000

> <Gold.Chemscore.Hbonds>
donor molecule, donor type, donor heavy atom, donor atom, acceptor molecule, acceptor atom, score
      L1  H     3    32       P1 10186  0.68
      L1  H     5    56       P1 10957  1.59
      L1  H    20    43       P1  8028  1.00
      L1  C    11    39       P1 10171  1.00

> <Gold.PLP.Chemscore.Internal.Correction>
0.5798

> <Gold.Rescore>
     Score         DG    S(hbond)    S(metal)    S(lipo)     H(rot)  DE(clash)    DE(int)     intcor
     12.52     -14.34       2.93        0.00      65.65       3.36       0.01       1.81       ----

> <Gold.Chemscore.Fitness>
12.5153

> <Gold.Chemscore.DG>
-14.3403

> <Gold.Chemscore.ZeroCoef>
-5.4800

> <Gold.Chemscore.Hbond>
2.9292

> <Gold.Chemscore.Metal>
0.0000

> <Gold.Chemscore.Lipo>
65.6529

> <Gold.Chemscore.Internal_Hbond>
0.0000

> <Gold.Chemscore.DEClash>
0.0126

> <Gold.Chemscore.DEInternal>
1.8124

> <Gold.Chemscore.Rot>
3.3611

> <Gold.Chemscore.Internal.Correction>
   9.000000E+99

> <Gold.Chemscore.Hbonds>
donor molecule, donor type, donor heavy atom, donor atom, acceptor molecule, acceptor atom, score
      L1  H     3    32       P1 10186  0.68
      L1  H     5    56       P1 10957  0.69
      L1  H    20    43       P1  8028  1.00

> <Gold.Chemscore.Hbond.Weighted>
-9.7834

> <Gold.Chemscore.Metal.Weighted>
-0.0000

> <Gold.Chemscore.Lipo.Weighted>
-7.6814

> <Gold.Chemscore.Internal_Hbond.Weighted>
0.0000

> <Gold.Chemscore.DEClash.Weighted>
0.0126

> <Gold.Chemscore.DEInternal.Weighted>
1.8124

> <Gold.Chemscore.Rot.Weighted>
8.6045

> <Gold.Chemscore.Internal.Correction.Weighted>
   9.000000E+99

> <Gold.Protein.RotatedTorsions>
[ 6907 6896 6895 6894 ] final -171.07 input  -60.11 | X-H torsion
[ 7974 7965 7964 7962 ] final  115.84 input  175.53 | X-H torsion
[ 8008 7997 7996 7995 ] final -178.87 input   59.86 | X-H torsion
[ 10167 10162 10161 10158 ] final  -94.38 input  -65.29 | X-H torsion
[ 10718 10713 10712 10709 ] final   48.98 input   66.30 | X-H torsion
[ 10763 10752 10751 10750 ] final   35.41 input  -60.55 | X-H torsion
[ 11005 11000 10999 10996 ] final  -88.68 input  -57.11 | X-H torsion

> <Gold.Protein.ActiveResidues>
 VAL166  LYS551  ARG553  GLY616  TRP617  ASP618  TYR619  PRO620  LYS621  CYS622 
 ASP623  PHE694  ASN695  SER759  ASP760  ASP761  ALA762  ILE779  LEU786  VAL792 
 PHE793  MET794  SER795  GLU796  ALA797  LYS798  CYS799  TRP800  GLU811  SER814 

> <Gold.Protein.RotatedAtoms>
  151.5180  133.3472  159.2896 H   0  0  0  0  0  0  0  0  0  0  0  0  # atno 6907 bound_to 6896
  150.8670  134.8038  159.7137 H   0  0  0  0  0  0  0  0  0  0  0  0  # atno 6908 bound_to 6896
  152.4671  134.5058  159.9790 H   0  0  0  0  0  0  0  0  0  0  0  0  # atno 6909 bound_to 6896
  145.1871  139.3019  143.4388 H   0  0  0  0  0  0  0  0  0  0  0  0  # atno 7974 bound_to 7965
  156.0239  140.1267  157.0329 H   0  0  0  0  0  0  0  0  0  0  0  0  # atno 8008 bound_to 7997
  154.4322  140.1063  156.6073 H   0  0  0  0  0  0  0  0  0  0  0  0  # atno 8009 bound_to 7997
  155.5905  140.3469  155.4567 H   0  0  0  0  0  0  0  0  0  0  0  0  # atno 8010 bound_to 7997
  140.3150  143.3082  152.0107 H   0  0  0  0  0  0  0  0  0  0  0  0  # atno 10167 bound_to 10162
  157.4741  130.8274  149.8020 H   0  0  0  0  0  0  0  0  0  0  0  0  # atno 10718 bound_to 10713
  153.0120  135.6334  154.1823 H   0  0  0  0  0  0  0  0  0  0  0  0  # atno 10763 bound_to 10752
  154.1564  135.2826  155.3122 H   0  0  0  0  0  0  0  0  0  0  0  0  # atno 10764 bound_to 10752
  154.6014  135.5586  153.7439 H   0  0  0  0  0  0  0  0  0  0  0  0  # atno 10765 bound_to 10752
  141.1597  133.7584  156.9486 H   0  0  0  0  0  0  0  0  0  0  0  0  # atno 11005 bound_to 11000
  146.3443  140.2070  142.8589 LP  0  0  0  0  0  0  0  0  0  0  0  0  # atno 17320 bound_to 7965
  145.0079  140.8688  143.5242 LP  0  0  0  0  0  0  0  0  0  0  0  0  # atno 17321 bound_to 7965
  139.4886  144.6355  151.6984 LP  0  0  0  0  0  0  0  0  0  0  0  0  # atno 17342 bound_to 10162
  140.5534  144.0387  150.6137 LP  0  0  0  0  0  0  0  0  0  0  0  0  # atno 17343 bound_to 10162
  156.0088  130.3843  150.2336 LP  0  0  0  0  0  0  0  0  0  0  0  0  # atno 17370 bound_to 10713
  157.0520  131.0065  151.3250 LP  0  0  0  0  0  0  0  0  0  0  0  0  # atno 17371 bound_to 10713
  140.1272  134.9379  157.2287 LP  0  0  0  0  0  0  0  0  0  0  0  0  # atno 17394 bound_to 11000
  140.2998  134.3145  155.7293 LP  0  0  0  0  0  0  0  0  0  0  0  0  # atno 17395 bound_to 11000

$$$$
