#       Name:                AV-unprocessed.smi:160
#       Creating user name   scv26
#       Creation time:       Thu Mar 26 19:06:11 2020


#       File generated by GOLD software.
#

@<TRIPOS>MOLECULE
AV-unprocessed.smi:160
    41    42     1
SMALL
NO_CHARGES


@<TRIPOS>ATOM
      1 ****        -4.3048   2.4001  -0.5535 N.am           1 S1                 0.0000
      2 ****        -4.3089   1.2533   0.1340 C.2            1 S1                 0.0000
      3 ****        -5.3502   0.6932   0.4730 O.2            1 S1                 0.0000
      4 ****        -2.9616   0.6784   0.4757 C.2            1 S1                 0.0000
      5 ****        -2.8502  -0.4829   1.1862 N.2            1 S1                 0.0000
      6 ****        -1.5272  -0.5716   1.2354 C.2            1 S1                 0.0000
      7 ****        -0.8882   0.4228   0.6071 N.pl3          1 S1                 0.0000
      8 ****         0.5710   0.7168   0.4483 C.3            1 S1                 0.0000
      9 ****         1.2875  -0.2963   1.0882 O.3            1 S1                 0.0000
     10 ****         1.6397  -1.2972   0.1393 C.3            1 S1                 0.0000
     11 ****         2.7486  -2.2174   0.6795 C.3            1 S1                 0.0000
     12 ****         2.1860  -3.2332   1.4824 O.3            1 S1                 0.0000
     13 ****         2.0155  -0.4463  -1.0801 C.3            1 S1                 0.0000
     14 ****         3.3394   0.0480  -0.9518 O.3            1 S1                 0.0000
     15 ****         0.9649   0.6649  -1.0417 C.3            1 S1                 0.0000
     16 ****         1.4511   1.8986  -1.5370 O.3            1 S1                 0.0000
     17 ****        -1.8227   1.2692   0.1082 N.2            1 S1                 0.0000
     18 ****         0.7181   1.6821   0.9344 H              1 S1                 0.0000
     19 ****         0.7546  -1.8855  -0.1116 H              1 S1                 0.0000
     20 ****         1.9569  -1.0199  -2.0057 H              1 S1                 0.0000
     21 ****         0.1029   0.3625  -1.6387 H              1 S1                 0.0000
     22 ****        -5.1781   2.8362  -0.8104 H              1 S1                 0.0000
     23 ****        -3.4247   2.8238  -0.8094 H              1 S1                 0.0000
     24 ****        -1.0162  -1.3792   1.7393 H              1 S1                 0.0000
     25 ****         3.2679  -2.7042  -0.1465 H              1 S1                 0.0000
     26 ****         3.4918  -1.6563   1.2471 H              1 S1                 0.0000
     27 ****         2.8845  -3.7827   1.8038 H              1 S1                 0.0000
     28 ****         3.4879   0.6796  -1.6394 H              1 S1                 0.0000
     29 ****         0.7652   2.5439  -1.4571 H              1 S1                 0.0000
     30 ****        -6.2345   1.0949   0.2349 LP             1 S1                 0.0000
     31 ****        -5.3126  -0.1640   0.9868 LP             1 S1                 0.0000
     32 ****        -3.5555  -1.0864   1.5584 LP             1 S1                 0.0000
     33 ****         0.7226  -0.7018   1.8069 LP             1 S1                 0.0000
     34 ****         2.1178   0.0867   1.4931 LP             1 S1                 0.0000
     35 ****         1.5499  -3.7800   0.9380 LP             1 S1                 0.0000
     36 ****         1.6979  -2.8229   2.2528 LP             1 S1                 0.0000
     37 ****         3.9915  -0.7053  -1.0377 LP             1 S1                 0.0000
     38 ****         3.4519   0.4861  -0.0599 LP             1 S1                 0.0000
     39 ****         1.7099   1.7982  -2.4977 LP             1 S1                 0.0000
     40 ****         2.2480   2.1853  -1.0052 LP             1 S1                 0.0000
     41 ****        -1.6921   2.1182  -0.4037 LP             1 S1                 0.0000
@<TRIPOS>BOND
    1    1    2 am    
    2    1   22 1     
    3    1   23 1     
    4    2    3 2     
    5    2    4 1     
    6    4   17 2     
    7    4    5 1     
    8    5    6 2     
    9    6    7 1     
   10    6   24 1     
   11    7    8 1     
   12    7   17 1     
   13    8   18 1     
   14    8   15 1     
   15    8    9 1     
   16    9   10 1     
   17   10   19 1     
   18   10   11 1     
   19   10   13 1     
   20   11   12 1     
   21   11   25 1     
   22   11   26 1     
   23   12   27 1     
   24   13   20 1     
   25   13   14 1     
   26   13   15 1     
   27   14   28 1     
   28   15   21 1     
   29   15   16 1     
   30   16   29 1     
   31    3   30 1     
   32    3   31 1     
   33    5   32 1     
   34    9   33 1     
   35    9   34 1     
   36   12   35 1     
   37   12   36 1     
   38   14   37 1     
   39   14   38 1     
   40   16   39 1     
   41   16   40 1     
   42   17   41 1     
@<TRIPOS>SUBSTRUCTURE
      1 S1             1
@<TRIPOS>SET
LONE_PAIRS      STATIC     ATOMS    <user>   **** ""
12 30 31 32 33 34 35 36 37 38 39 40 41
DONOR_HYDROGENS      STATIC     ATOMS    <user>   **** ""
5 22 23 27 28 29
ATOM$BLUE        STATIC     ATOMS    COLORGROUP SYSTEM
12 30 31 32 33 34 35 36 37 38 39 40 41
ATOM$RED        STATIC     ATOMS    COLORGROUP SYSTEM
5 22 23 27 28 29
