AV-unprocessed.smi:2582|AV-procd|sdf|10133|dock2
  -GOLD-   2272014143D 1   1.00000     0.00000
 Structure written by MMmdl.
 36 38  0  0  0  0  0  0  0  0  2 V2000
  151.8306  139.7562  155.0789 O   0  0  0  0  0  0  0  0  0  0  0  0
  151.2368  140.4502  155.9040 C   0  0  0  0  0  0  0  0  0  0  0  0
  151.8301  140.8459  157.1835 C   0  0  0  0  0  0  0  0  0  0  0  0
  151.1691  141.5718  158.1169 C   0  0  0  0  0  0  0  0  0  0  0  0
  151.8026  141.9066  159.3202 N   0  0  0  0  0  0  0  0  0  0  0  0
  153.2004  141.5404  159.5305 C   0  0  0  0  0  0  0  0  0  0  0  0
  153.3198  142.8127  160.3622 C   0  0  0  0  0  0  0  0  0  0  0  0
  152.0920  143.3082  159.6063 C   0  0  0  0  0  0  0  0  0  0  0  0
  149.8020  141.9428  157.7828 C   0  0  0  0  0  0  0  0  0  0  0  0
  149.2459  141.6225  156.6646 N   0  0  0  0  0  0  0  0  0  0  0  0
  149.9606  140.9070  155.7161 N   0  0  0  0  0  0  0  0  0  0  0  0
  149.2219  140.5873  154.4764 C   0  0  2  0  0  0  0  0  0  0  0  0
  147.7887  141.1714  154.4395 C   0  0  0  0  0  0  0  0  0  0  0  0
  147.0958  140.7896  153.1232 C   0  0  0  0  0  0  0  0  0  0  0  0
  147.1051  139.2640  152.9271 C   0  0  0  0  0  0  0  0  0  0  0  0
  148.4860  138.7364  152.9799 N   0  3  0  0  0  0  0  0  0  0  0  0
  149.1862  139.0615  154.2424 C   0  0  0  0  0  0  0  0  0  0  0  0
  152.8465  140.5387  157.3855 H   0  0  0  0  0  0  0  0  0  0  0  0
  153.3332  140.6185  160.0971 H   0  0  0  0  0  0  0  0  0  0  0  0
  153.8069  141.5615  158.6240 H   0  0  0  0  0  0  0  0  0  0  0  0
  153.1421  142.6560  161.4279 H   0  0  0  0  0  0  0  0  0  0  0  0
  154.2263  143.3893  160.1766 H   0  0  0  0  0  0  0  0  0  0  0  0
  152.3403  143.8961  158.7211 H   0  0  0  0  0  0  0  0  0  0  0  0
  151.3425  143.7942  160.2316 H   0  0  0  0  0  0  0  0  0  0  0  0
  149.2660  142.5134  158.5413 H   0  0  0  0  0  0  0  0  0  0  0  0
  149.7409  141.0395  153.6288 H   0  0  0  0  0  0  0  0  0  0  0  0
  147.1870  140.7902  155.2656 H   0  0  0  0  0  0  0  0  0  0  0  0
  147.8189  142.2565  154.5457 H   0  0  0  0  0  0  0  0  0  0  0  0
  146.0700  141.1598  153.1210 H   0  0  0  0  0  0  0  0  0  0  0  0
  147.6017  141.2733  152.2863 H   0  0  0  0  0  0  0  0  0  0  0  0
  146.5066  138.7784  153.6991 H   0  0  0  0  0  0  0  0  0  0  0  0
  146.6600  139.0031  151.9666 H   0  0  0  0  0  0  0  0  0  0  0  0
  148.4589  137.7328  152.8693 H   0  0  0  0  0  0  0  0  0  0  0  0
  150.1979  138.6582  154.1911 H   0  0  0  0  0  0  0  0  0  0  0  0
  148.6843  138.5572  155.0695 H   0  0  0  0  0  0  0  0  0  0  0  0
  149.0099  139.1337  152.2129 H   0  0  0  0  0  0  0  0  0  0  0  0
  1  2  2  0  0  0  0
  2 11  1  0  0  0  0
  2  3  1  0  0  0  0
  3  4  2  0  0  0  0
  3 18  1  0  0  0  0
  4  5  1  0  0  0  0
  4  9  1  0  0  0  0
  5  8  1  0  0  0  0
  5  6  1  0  0  0  0
  6  7  1  0  0  0  0
  6 19  1  0  0  0  0
  6 20  1  0  0  0  0
  7  8  1  0  0  0  0
  7 21  1  0  0  0  0
  7 22  1  0  0  0  0
  8 23  1  0  0  0  0
  8 24  1  0  0  0  0
  9 10  2  0  0  0  0
  9 25  1  0  0  0  0
 10 11  1  0  0  0  0
 11 12  1  0  0  0  0
 12 17  1  0  0  0  0
 12 13  1  0  0  0  0
 12 26  1  0  0  0  0
 13 14  1  0  0  0  0
 13 27  1  0  0  0  0
 13 28  1  0  0  0  0
 14 15  1  0  0  0  0
 14 29  1  0  0  0  0
 14 30  1  0  0  0  0
 15 16  1  0  0  0  0
 15 31  1  0  0  0  0
 15 32  1  0  0  0  0
 16 17  1  0  0  0  0
 16 33  1  0  0  0  0
 16 36  1  0  0  0  0
 17 34  1  0  0  0  0
 17 35  1  0  0  0  0
M  CHG  1  16   1
M  END
> <s_m_source_file>
AV-unprocessed.smi

> <i_m_source_file_index>
2582

> <i_lp_mmshare_version>
43012

> <i_f3d_flags>
0

> <s_epik_input>
W0NIMl0xW0NIMl1bQ0gyXU4xYyhbY0hdYzI9TylbY0hdbm4yW0NAQEhdM1tDSDJdW0NIMl1bQ0gyXVtOSF1bQ0gyXTM=

> <s_epik_cmdline>
J2VwaWtfcHl0aG9uJywgJy1waCcsICc3LjAnLCAnLXRuJywgJzgnLCAnLW1hJywgJzIwMCcsICctbWV0YWxfYmluZGluZycsICctaW1hZScsICc8aW5maWxlLm1hZT4nLCAnLW9tYWUnLCAnPG91dGZpbGUubWFlPic=

> <r_lp_tautomer_probability>
1

> <r_epik_Ionization_Penalty>
0.00148886

> <r_epik_Ionization_Penalty_Charging>
0.0014053

> <r_epik_Ionization_Penalty_Neutral>
8.35615e-05

> <r_epik_State_Penalty>
-0

> <r_epik_Charging_Adjusted_Penalty>
0.0014053

> <i_epik_Tot_Q>
1

> <i_epik_Tot_abs_Q>
1

> <r_epik_Metal_State_Penalty>
-0

> <b_epik_Metal_Only>
0

> <s_lp_Force_Field>
OPLS_2005

> <r_lp_Energy>
54.701

> <b_lp_Chiralities_Consistent>
1

> <s_lp_Variant>
AV-unprocessed.smi:2582-1

> <Gold.Version>
5.8.1

> <Gold.Id.Protein>
6NUR|6NUR_protein|mol2

> <Gold.PLP.Fitness>
49.2315

> <Gold.PLP.PLP>
-37.8757

> <Gold.PLP.part.hbond>
-2.8917

> <Gold.PLP.part.metal>
0.0000

> <Gold.PLP.part.buried>
-5.1117

> <Gold.PLP.part.nonpolar>
-29.9837

> <Gold.PLP.part.repulsive>
0.2181

> <Gold.PLP.ligand.clash>
0.0000

> <Gold.PLP.ligand.torsion>
0.0706

> <Gold.PLP.Chemscore.Hbond>
3.7905

> <Gold.PLP.Chemscore.CHOScore>
0.0000

> <Gold.PLP.Chemscore.Metal>
0.0000

> <Gold.Chemscore.Hbonds>
donor molecule, donor type, donor heavy atom, donor atom, acceptor molecule, acceptor atom, score
      L1  H    16    33       P1  7948  1.86
      L1  H    16    36       P1  7957  0.91
      P1  H  7989  7998       L1     1  0.99

> <Gold.PLP.Chemscore.Internal.Correction>
0.1256

> <Gold.Rescore>
     Score         DG    S(hbond)    S(metal)    S(lipo)     H(rot)  DE(clash)    DE(int)     intcor
     19.73     -21.12       2.62        0.00      85.08       1.20       0.07       1.33       ----

> <Gold.Chemscore.Fitness>
19.7253

> <Gold.Chemscore.DG>
-21.1225

> <Gold.Chemscore.ZeroCoef>
-5.4800

> <Gold.Chemscore.Hbond>
2.6244

> <Gold.Chemscore.Metal>
0.0000

> <Gold.Chemscore.Lipo>
85.0809

> <Gold.Chemscore.Internal_Hbond>
0.0000

> <Gold.Chemscore.DEClash>
0.0688

> <Gold.Chemscore.DEInternal>
1.3284

> <Gold.Chemscore.Rot>
1.2022

> <Gold.Chemscore.Internal.Correction>
   9.000000E+99

> <Gold.Chemscore.Hbonds>
donor molecule, donor type, donor heavy atom, donor atom, acceptor molecule, acceptor atom, score
      L1  H    16    33       P1  7948  0.91
      L1  H    16    36       P1  7957  0.87
      P1  H  7989  7998       L1     1  0.28

> <Gold.Chemscore.Hbond.Weighted>
-8.7657

> <Gold.Chemscore.Metal.Weighted>
-0.0000

> <Gold.Chemscore.Lipo.Weighted>
-9.9545

> <Gold.Chemscore.Internal_Hbond.Weighted>
0.0000

> <Gold.Chemscore.DEClash.Weighted>
0.0688

> <Gold.Chemscore.DEInternal.Weighted>
1.3284

> <Gold.Chemscore.Rot.Weighted>
3.0777

> <Gold.Chemscore.Internal.Correction.Weighted>
   9.000000E+99

> <Gold.Protein.RotatedTorsions>
[ 6907 6896 6895 6894 ] final  143.89 input  -60.11 | X-H torsion
[ 7974 7965 7964 7962 ] final  -37.85 input  175.53 | X-H torsion
[ 8008 7997 7996 7995 ] final   73.88 input   59.86 | X-H torsion
[ 10167 10162 10161 10158 ] final   48.57 input  -65.29 | X-H torsion
[ 10718 10713 10712 10709 ] final -135.94 input   66.30 | X-H torsion
[ 10763 10752 10751 10750 ] final  146.76 input  -60.55 | X-H torsion
[ 11005 11000 10999 10996 ] final   40.44 input  -57.11 | X-H torsion

> <Gold.Protein.ActiveResidues>
 VAL166  LYS551  ARG553  GLY616  TRP617  ASP618  TYR619  PRO620  LYS621  CYS622 
 ASP623  PHE694  ASN695  SER759  ASP760  ASP761  ALA762  ILE779  LEU786  VAL792 
 PHE793  MET794  SER795  GLU796  ALA797  LYS798  CYS799  TRP800  GLU811  SER814 

> <Gold.Protein.RotatedAtoms>
  152.2005  133.4838  159.5055 H   0  0  0  0  0  0  0  0  0  0  0  0  # atno 6907 bound_to 6896
  150.6969  134.1596  159.4180 H   0  0  0  0  0  0  0  0  0  0  0  0  # atno 6908 bound_to 6896
  151.9513  135.0167  160.0593 H   0  0  0  0  0  0  0  0  0  0  0  0  # atno 6909 bound_to 6896
  146.0538  140.6444  142.9029 H   0  0  0  0  0  0  0  0  0  0  0  0  # atno 7974 bound_to 7965
  155.7902  140.3479  155.5345 H   0  0  0  0  0  0  0  0  0  0  0  0  # atno 8008 bound_to 7997
  155.8642  140.0976  157.1614 H   0  0  0  0  0  0  0  0  0  0  0  0  # atno 8009 bound_to 7997
  154.4013  140.1353  156.3985 H   0  0  0  0  0  0  0  0  0  0  0  0  # atno 8010 bound_to 7997
  140.2919  144.3036  150.6238 H   0  0  0  0  0  0  0  0  0  0  0  0  # atno 10167 bound_to 10162
  156.2716  130.7269  151.1238 H   0  0  0  0  0  0  0  0  0  0  0  0  # atno 10718 bound_to 10713
  154.0272  135.2901  155.3373 H   0  0  0  0  0  0  0  0  0  0  0  0  # atno 10763 bound_to 10752
  154.7010  135.5188  153.8530 H   0  0  0  0  0  0  0  0  0  0  0  0  # atno 10764 bound_to 10752
  153.0655  135.6629  154.0489 H   0  0  0  0  0  0  0  0  0  0  0  0  # atno 10765 bound_to 10752
  140.1930  134.3963  155.8136 H   0  0  0  0  0  0  0  0  0  0  0  0  # atno 11005 bound_to 11000
  144.7137  140.4132  143.7061 LP  0  0  0  0  0  0  0  0  0  0  0  0  # atno 17320 bound_to 7965
  145.6678  139.1593  143.2771 LP  0  0  0  0  0  0  0  0  0  0  0  0  # atno 17321 bound_to 7965
  140.5725  143.2179  151.7574 LP  0  0  0  0  0  0  0  0  0  0  0  0  # atno 17342 bound_to 10162
  139.4936  144.4196  151.9992 LP  0  0  0  0  0  0  0  0  0  0  0  0  # atno 17343 bound_to 10162
  157.7286  131.0631  150.5814 LP  0  0  0  0  0  0  0  0  0  0  0  0  # atno 17370 bound_to 10713
  156.5911  130.4329  149.5936 LP  0  0  0  0  0  0  0  0  0  0  0  0  # atno 17371 bound_to 10713
  141.2226  133.7056  156.8128 LP  0  0  0  0  0  0  0  0  0  0  0  0  # atno 17394 bound_to 11000
  140.2138  134.8808  157.3303 LP  0  0  0  0  0  0  0  0  0  0  0  0  # atno 17395 bound_to 11000

$$$$
