#       Name:                AV-unprocessed.smi:311
#       Creating user name   scv26
#       Creation time:       Thu Mar 26 22:19:53 2020


#       File generated by GOLD software.
#

@<TRIPOS>MOLECULE
AV-unprocessed.smi:311
    49    51     1
SMALL
NO_CHARGES


@<TRIPOS>ATOM
      1 ****        -2.0232   3.9640  -2.5249 C.3            1 S1                 0.0000
      2 ****        -2.1764   2.4762  -2.6627 C.2            1 S1                 0.0000
      3 ****        -3.3858   1.9435  -2.7113 N.2            1 S1                 0.0000
      4 ****        -3.1926   0.5637  -2.8275 O.3            1 S1                 0.0000
      5 ****        -1.8582   0.3168  -2.8451 C.2            1 S1                 0.0000
      6 ****        -1.4445  -1.1121  -2.9516 C.3            1 S1                 0.0000
      7 ****        -1.1554   1.4864  -2.7443 C.2            1 S1                 0.0000
      8 ****         0.3368   1.6928  -2.7102 C.3            1 S1                 0.0000
      9 ****         0.8361   1.4761  -1.2833 C.2            1 S1                 0.0000
     10 ****         0.7745   2.3922  -0.4636 O.2            1 S1                 0.0000
     11 ****         1.2961   0.2497  -0.9923 N.am           1 S1                 0.0000
     12 ****         1.7072  -0.2015   0.3326 C.3            1 S1                 0.0000
     13 ****         2.7814  -1.2822   0.2973 C.3            1 S1                 0.0000
     14 ****         2.6485  -1.9099   1.6859 C.3            1 S1                 0.0000
     15 ****         1.2069  -1.8528   2.0177 N.4            1 S1                 1.0000
     16 ****         0.9061  -1.6736   3.4591 C.3            1 S1                 0.0000
     17 ****        -0.6154  -1.6284   3.6892 C.3            1 S1                 0.0000
     18 ****        -1.3298  -0.5950   2.7928 C.3            1 S1                 0.0000
     19 ****        -0.3656   0.1216   1.8337 C.3            1 S1                 0.0000
     20 ****         0.5558  -0.8775   1.0979 C.3            1 S1                 0.0000
     21 ****        -1.5771   4.2202  -1.5638 H              1 S1                 0.0000
     22 ****        -2.9825   4.4787  -2.5933 H              1 S1                 0.0000
     23 ****        -1.3781   4.3639  -3.3071 H              1 S1                 0.0000
     24 ****        -0.5248  -1.2089  -3.5284 H              1 S1                 0.0000
     25 ****        -2.2143  -1.7068  -3.4442 H              1 S1                 0.0000
     26 ****        -1.2702  -1.5362  -1.9627 H              1 S1                 0.0000
     27 ****         0.8500   1.0111  -3.3898 H              1 S1                 0.0000
     28 ****         0.6094   2.6993  -3.0291 H              1 S1                 0.0000
     29 ****         1.3165  -0.4341  -1.7353 H              1 S1                 0.0000
     30 ****         2.0987   0.6353   0.9154 H              1 S1                 0.0000
     31 ****         2.5557  -2.0232  -0.4714 H              1 S1                 0.0000
     32 ****         3.7790  -0.8857   0.1059 H              1 S1                 0.0000
     33 ****         3.0272  -2.9316   1.7227 H              1 S1                 0.0000
     34 ****         3.2178  -1.3169   2.4037 H              1 S1                 0.0000
     35 ****         1.3457  -2.4953   4.0254 H              1 S1                 0.0000
     36 ****         1.3701  -0.7559   3.8245 H              1 S1                 0.0000
     37 ****        -1.0351  -2.6166   3.4960 H              1 S1                 0.0000
     38 ****        -0.8215  -1.4163   4.7388 H              1 S1                 0.0000
     39 ****        -2.1044  -1.0989   2.2136 H              1 S1                 0.0000
     40 ****        -1.8463   0.1421   3.4086 H              1 S1                 0.0000
     41 ****        -0.9330   0.7116   1.1133 H              1 S1                 0.0000
     42 ****         0.2357   0.8356   2.3985 H              1 S1                 0.0000
     43 ****        -0.0440  -1.4715   0.4060 H              1 S1                 0.0000
     44 ****         0.8225  -2.7513   1.7628 H              1 S1                 0.0000
     45 ****        -4.2596   2.4283  -2.6728 LP             1 S1                 0.0000
     46 ****        -3.6079   0.2350  -3.6757 LP             1 S1                 0.0000
     47 ****        -3.6119   0.0974  -2.0485 LP             1 S1                 0.0000
     48 ****         0.3974   3.2787  -0.7319 LP             1 S1                 0.0000
     49 ****         1.1015   2.2500   0.4707 LP             1 S1                 0.0000
@<TRIPOS>BOND
    1    1    2 1     
    2    1   21 1     
    3    1   22 1     
    4    1   23 1     
    5    2    7 1     
    6    2    3 2     
    7    3    4 1     
    8    4    5 1     
    9    5    6 1     
   10    5    7 2     
   11    6   24 1     
   12    6   25 1     
   13    6   26 1     
   14    7    8 1     
   15    8    9 1     
   16    8   27 1     
   17    8   28 1     
   18    9   10 2     
   19    9   11 am    
   20   11   12 1     
   21   11   29 1     
   22   12   20 1     
   23   12   13 1     
   24   12   30 1     
   25   13   14 1     
   26   13   31 1     
   27   13   32 1     
   28   14   15 1     
   29   14   33 1     
   30   14   34 1     
   31   15   20 1     
   32   15   16 1     
   33   15   44 1     
   34   16   17 1     
   35   16   35 1     
   36   16   36 1     
   37   17   18 1     
   38   17   37 1     
   39   17   38 1     
   40   18   19 1     
   41   18   39 1     
   42   18   40 1     
   43   19   20 1     
   44   19   41 1     
   45   19   42 1     
   46   20   43 1     
   47    3   45 1     
   48    4   46 1     
   49    4   47 1     
   50   10   48 1     
   51   10   49 1     
@<TRIPOS>SUBSTRUCTURE
      1 S1             1
@<TRIPOS>SET
LONE_PAIRS      STATIC     ATOMS    <user>   **** ""
5 45 46 47 48 49
DONOR_HYDROGENS      STATIC     ATOMS    <user>   **** ""
2 29 44
ATOM$BLUE        STATIC     ATOMS    COLORGROUP SYSTEM
5 45 46 47 48 49
ATOM$RED        STATIC     ATOMS    COLORGROUP SYSTEM
2 29 44
