AV-unprocessed.smi:2804|AV-procd|sdf|10812|dock8
  -GOLD-   2272015253D 1   1.00000     0.00000
 Structure written by MMmdl.
 34 35  0  0  0  0  0  0  0  0  2 V2000
  149.5024  140.6150  154.4874 C   0  0  0  0  0  0  0  0  0  0  0  0
  150.5135  140.8521  155.6137 C   0  0  0  0  0  0  0  0  0  0  0  0
  149.8507  141.3762  156.8969 C   0  0  0  0  0  0  0  0  0  0  0  0
  150.8287  141.5421  157.9692 N   0  0  0  0  0  0  0  0  0  0  0  0
  151.5908  140.5692  158.5222 C   0  0  0  0  0  0  0  0  0  0  0  0
  151.5910  139.3833  158.1907 O   0  0  0  0  0  0  0  0  0  0  0  0
  152.3718  141.1342  159.4788 N   0  0  0  0  0  0  0  0  0  0  0  0
  153.3777  140.4524  160.3097 C   0  0  0  0  0  0  0  0  0  0  0  0
  153.8212  139.0621  159.7677 C   0  0  1  0  0  0  0  0  0  0  0  0
  154.5364  139.2769  158.6891 O   0  5  0  0  0  0  0  0  0  0  0  0
  154.7221  138.3204  160.7856 C   0  0  0  0  0  0  0  0  0  0  0  0
  154.0418  138.0581  161.9033 F   0  0  0  0  0  0  0  0  0  0  0  0
  155.1971  137.1778  160.2842 F   0  0  0  0  0  0  0  0  0  0  0  0
  155.7572  139.0952  161.1137 F   0  0  0  0  0  0  0  0  0  0  0  0
  152.1328  142.5208  159.4949 C   0  0  0  0  0  0  0  0  0  0  0  0
  152.7030  143.5499  160.2655 C   0  0  0  0  0  0  0  0  0  0  0  0
  152.2376  144.8658  160.0374 C   0  0  0  0  0  0  0  0  0  0  0  0
  151.2374  145.1241  159.0649 C   0  0  0  0  0  0  0  0  0  0  0  0
  150.6821  144.0715  158.3006 C   0  0  0  0  0  0  0  0  0  0  0  0
  151.1605  142.7732  158.5502 C   0  0  0  0  0  0  0  0  0  0  0  0
  149.9997  140.2470  153.5899 H   0  0  0  0  0  0  0  0  0  0  0  0
  148.9821  141.5366  154.2255 H   0  0  0  0  0  0  0  0  0  0  0  0
  148.7543  139.8778  154.7794 H   0  0  0  0  0  0  0  0  0  0  0  0
  151.0391  139.9203  155.8260 H   0  0  0  0  0  0  0  0  0  0  0  0
  151.2686  141.5618  155.2739 H   0  0  0  0  0  0  0  0  0  0  0  0
  149.3573  142.3296  156.7059 H   0  0  0  0  0  0  0  0  0  0  0  0
  149.0656  140.6905  157.2193 H   0  0  0  0  0  0  0  0  0  0  0  0
  154.2443  141.1021  160.4487 H   0  0  0  0  0  0  0  0  0  0  0  0
  152.9519  140.3342  161.3064 H   0  0  0  0  0  0  0  0  0  0  0  0
  152.9094  138.4658  159.7079 H   0  0  0  0  0  0  0  0  0  0  0  0
  153.4637  143.3472  161.0048 H   0  0  0  0  0  0  0  0  0  0  0  0
  152.6490  145.6833  160.6107 H   0  0  0  0  0  0  0  0  0  0  0  0
  150.8966  146.1364  158.9053 H   0  0  0  0  0  0  0  0  0  0  0  0
  149.9239  144.2624  157.5559 H   0  0  0  0  0  0  0  0  0  0  0  0
  1  2  1  0  0  0  0
  1 21  1  0  0  0  0
  1 22  1  0  0  0  0
  1 23  1  0  0  0  0
  2  3  1  0  0  0  0
  2 24  1  0  0  0  0
  2 25  1  0  0  0  0
  3  4  1  0  0  0  0
  3 26  1  0  0  0  0
  3 27  1  0  0  0  0
  4 20  1  0  0  0  0
  4  5  1  0  0  0  0
  5  6  2  0  0  0  0
  5  7  1  0  0  0  0
  7  8  1  0  0  0  0
  7 15  1  0  0  0  0
  8  9  1  0  0  0  0
  8 28  1  0  0  0  0
  8 29  1  0  0  0  0
  9 10  1  0  0  0  0
  9 11  1  0  0  0  0
  9 30  1  0  0  0  0
 11 12  1  0  0  0  0
 11 13  1  0  0  0  0
 11 14  1  0  0  0  0
 15 20  2  0  0  0  0
 15 16  1  0  0  0  0
 16 17  2  0  0  0  0
 16 31  1  0  0  0  0
 17 18  1  0  0  0  0
 17 32  1  0  0  0  0
 18 19  2  0  0  0  0
 18 33  1  0  0  0  0
 19 20  1  0  0  0  0
 19 34  1  0  0  0  0
M  CHG  1  10  -1
M  END
> <s_m_source_file>
AV-unprocessed.smi

> <i_m_source_file_index>
2804

> <i_lp_mmshare_version>
43012

> <i_f3d_flags>
0

> <s_epik_input>
W2NIXTFbY0hdW2NIXVtjSF1jKGMxMiluKFtDSDJdW0NIMl1bQ0gzXSljKD1PKW4yW0NIMl1bQ0BIXShbT0hdKUMoRikoRilG

> <s_epik_cmdline>
J2VwaWtfcHl0aG9uJywgJy1waCcsICc3LjAnLCAnLXRuJywgJzgnLCAnLW1hJywgJzIwMCcsICctbWV0YWxfYmluZGluZycsICctaW1hZScsICc8aW5maWxlLm1hZT4nLCAnLW9tYWUnLCAnPG91dGZpbGUubWFlPic=

> <r_epik_Ionization_Penalty>
2.32651

> <r_epik_Ionization_Penalty_Charging>
2.32651

> <r_epik_Ionization_Penalty_Neutral>
0

> <r_epik_State_Penalty>
2.47909

> <r_epik_Charging_Adjusted_Penalty>
4.8056

> <i_epik_Tot_Q>
-1

> <i_epik_Tot_abs_Q>
1

> <r_epik_Metal_State_Penalty>
2.47909

> <b_epik_Metal_Only>
0

> <s_lp_Force_Field>
OPLS_2005

> <r_lp_Energy>
44.9553

> <b_lp_Chiralities_Consistent>
1

> <s_lp_Variant>
AV-unprocessed.smi:2804-4

> <Gold.Version>
5.8.1

> <Gold.Id.Protein>
6NUR|6NUR_protein|mol2

> <Gold.PLP.Fitness>
45.8248

> <Gold.PLP.PLP>
-40.4425

> <Gold.PLP.part.hbond>
-1.0000

> <Gold.PLP.part.metal>
0.0000

> <Gold.PLP.part.buried>
-3.8917

> <Gold.PLP.part.nonpolar>
-35.0851

> <Gold.PLP.part.repulsive>
0.0000

> <Gold.PLP.ligand.clash>
0.0000

> <Gold.PLP.ligand.torsion>
0.3350

> <Gold.PLP.Chemscore.Hbond>
2.0000

> <Gold.PLP.Chemscore.CHOScore>
0.0000

> <Gold.PLP.Chemscore.Metal>
0.0000

> <Gold.Chemscore.Hbonds>
donor molecule, donor type, donor heavy atom, donor atom, acceptor molecule, acceptor atom, score
      P1  H  7997  8010       L1    10  2.00

> <Gold.PLP.Chemscore.Internal.Correction>
0.0524

> <Gold.Rescore>
     Score         DG    S(hbond)    S(metal)    S(lipo)     H(rot)  DE(clash)    DE(int)     intcor
     14.89     -16.78       1.00        0.00     105.70       1.72       0.01       1.88       ----

> <Gold.Chemscore.Fitness>
14.8882

> <Gold.Chemscore.DG>
-16.7796

> <Gold.Chemscore.ZeroCoef>
-5.4800

> <Gold.Chemscore.Hbond>
0.9975

> <Gold.Chemscore.Metal>
0.0000

> <Gold.Chemscore.Lipo>
105.7014

> <Gold.Chemscore.Internal_Hbond>
0.0000

> <Gold.Chemscore.DEClash>
0.0127

> <Gold.Chemscore.DEInternal>
1.8787

> <Gold.Chemscore.Rot>
1.7185

> <Gold.Chemscore.Internal.Correction>
   9.000000E+99

> <Gold.Chemscore.Hbonds>
donor molecule, donor type, donor heavy atom, donor atom, acceptor molecule, acceptor atom, score
      P1  H  7997  8010       L1    10  1.00

> <Gold.Chemscore.Hbond.Weighted>
-3.3318

> <Gold.Chemscore.Metal.Weighted>
-0.0000

> <Gold.Chemscore.Lipo.Weighted>
-12.3671

> <Gold.Chemscore.Internal_Hbond.Weighted>
0.0000

> <Gold.Chemscore.DEClash.Weighted>
0.0127

> <Gold.Chemscore.DEInternal.Weighted>
1.8787

> <Gold.Chemscore.Rot.Weighted>
4.3992

> <Gold.Chemscore.Internal.Correction.Weighted>
   9.000000E+99

> <Gold.Protein.RotatedTorsions>
[ 6907 6896 6895 6894 ] final  -82.78 input  -60.11 | X-H torsion
[ 7974 7965 7964 7962 ] final  -21.46 input  175.53 | X-H torsion
[ 8008 7997 7996 7995 ] final    3.85 input   59.86 | X-H torsion
[ 10167 10162 10161 10158 ] final -112.17 input  -65.29 | X-H torsion
[ 10718 10713 10712 10709 ] final  129.78 input   66.30 | X-H torsion
[ 10763 10752 10751 10750 ] final   21.82 input  -60.55 | X-H torsion
[ 11005 11000 10999 10996 ] final  -92.92 input  -57.11 | X-H torsion

> <Gold.Protein.ActiveResidues>
 VAL166  LYS551  ARG553  GLY616  TRP617  ASP618  TYR619  PRO620  LYS621  CYS622 
 ASP623  PHE694  ASN695  SER759  ASP760  ASP761  ALA762  ILE779  LEU786  VAL792 
 PHE793  MET794  SER795  GLU796  ALA797  LYS798  CYS799  TRP800  GLU811  SER814 

> <Gold.Protein.RotatedAtoms>
  150.6893  134.3613  159.4951 H   0  0  0  0  0  0  0  0  0  0  0  0  # atno 6907 bound_to 6896
  152.1442  134.9036  160.0561 H   0  0  0  0  0  0  0  0  0  0  0  0  # atno 6908 bound_to 6896
  152.0159  133.3844  159.4275 H   0  0  0  0  0  0  0  0  0  0  0  0  # atno 6909 bound_to 6896
  146.1731  140.4344  142.8524 H   0  0  0  0  0  0  0  0  0  0  0  0  # atno 7974 bound_to 7965
  154.7087  140.2688  155.6649 H   0  0  0  0  0  0  0  0  0  0  0  0  # atno 8008 bound_to 7997
  156.2788  140.2757  156.1646 H   0  0  0  0  0  0  0  0  0  0  0  0  # atno 8009 bound_to 7997
  155.0664  140.0372  157.2584 H   0  0  0  0  0  0  0  0  0  0  0  0  # atno 8010 bound_to 7997
  140.1257  143.4405  152.1661 H   0  0  0  0  0  0  0  0  0  0  0  0  # atno 10167 bound_to 10162
  157.5123  131.1097  150.9275 H   0  0  0  0  0  0  0  0  0  0  0  0  # atno 10718 bound_to 10713
  153.0964  135.6661  153.9755 H   0  0  0  0  0  0  0  0  0  0  0  0  # atno 10763 bound_to 10752
  153.9338  135.3001  155.3446 H   0  0  0  0  0  0  0  0  0  0  0  0  # atno 10764 bound_to 10752
  154.7383  135.5091  153.9153 H   0  0  0  0  0  0  0  0  0  0  0  0  # atno 10765 bound_to 10752
  141.1510  133.7853  157.0087 H   0  0  0  0  0  0  0  0  0  0  0  0  # atno 11005 bound_to 11000
  144.8194  140.6524  143.6363 LP  0  0  0  0  0  0  0  0  0  0  0  0  # atno 17320 bound_to 7965
  145.4285  139.1553  143.4035 LP  0  0  0  0  0  0  0  0  0  0  0  0  # atno 17321 bound_to 7965
  139.5546  144.7363  151.4334 LP  0  0  0  0  0  0  0  0  0  0  0  0  # atno 17342 bound_to 10162
  140.6846  143.8002  150.7169 LP  0  0  0  0  0  0  0  0  0  0  0  0  # atno 17343 bound_to 10162
  156.9911  130.5564  149.5303 LP  0  0  0  0  0  0  0  0  0  0  0  0  # atno 17370 bound_to 10713
  156.0297  130.5389  150.8502 LP  0  0  0  0  0  0  0  0  0  0  0  0  # atno 17371 bound_to 10713
  140.0892  134.9602  157.1749 LP  0  0  0  0  0  0  0  0  0  0  0  0  # atno 17394 bound_to 11000
  140.3469  134.2641  155.7204 LP  0  0  0  0  0  0  0  0  0  0  0  0  # atno 17395 bound_to 11000

$$$$
