AV-unprocessed.smi:76|AV-procd|sdf|767|dock3
  -GOLD-   2262017113D 1   1.00000     0.00000
 Structure written by MMmdl.
 55 58  0  0  0  0  0  0  0  0  1 V2000
  151.9180  139.6244  159.3717 C   0  0  0  0  0  0  0  0  0  0  0  0
  152.5535  140.5953  158.3563 C   0  0  2  0  0  0  0  0  0  0  0  0
  152.7850  142.0009  158.9503 C   0  0  0  0  0  0  0  0  0  0  0  0
  151.4755  142.8048  159.1066 C   0  0  1  0  0  0  0  0  0  0  0  0
  151.7224  144.2159  159.6771 C   0  0  0  0  0  0  0  0  0  0  0  0
  152.2848  144.1505  160.8841 F   0  0  0  0  0  0  0  0  0  0  0  0
  152.5262  144.9013  158.8642 F   0  0  0  0  0  0  0  0  0  0  0  0
  150.5681  144.8756  159.7745 F   0  0  0  0  0  0  0  0  0  0  0  0
  150.7427  142.8465  157.7510 C   0  0  0  0  0  0  0  0  0  0  0  0
  150.5155  141.4341  157.1905 C   0  0  0  0  0  0  0  0  0  0  0  0
  151.7768  140.6932  157.1148 N   0  0  0  0  0  0  0  0  0  0  0  0
  151.8172  139.6057  156.3013 C   0  0  0  0  0  0  0  0  0  0  0  0
  152.5390  139.6536  155.1494 N   0  0  0  0  0  0  0  0  0  0  0  0
  152.5826  138.5965  154.3341 C   0  0  0  0  0  0  0  0  0  0  0  0
  151.9898  137.4103  154.4758 N   0  0  0  0  0  0  0  0  0  0  0  0
  151.2647  137.3527  155.6289 C   0  0  0  0  0  0  0  0  0  0  0  0
  151.1290  138.3932  156.5914 C   0  0  0  0  0  0  0  0  0  0  0  0
  150.3357  137.9573  157.6460 N   0  0  0  0  0  0  0  0  0  0  0  0
  150.0171  136.7342  157.3226 C   0  0  0  0  0  0  0  0  0  0  0  0
  150.5168  136.2945  156.1171 N   0  0  0  0  0  0  0  0  0  0  0  0
  150.3287  134.9796  155.5201 C   0  0  0  0  0  0  0  0  0  0  0  0
  149.0327  134.2288  155.9638 C   0  0  0  0  0  0  0  0  0  0  0  0
  149.1060  133.8326  157.4624 C   0  0  0  0  0  0  0  0  0  0  0  0
  150.1792  132.9539  157.7339 O   0  0  0  0  0  0  0  0  0  0  0  0
  147.7923  135.1269  155.7294 C   0  0  0  0  0  0  0  0  0  0  0  0
  147.4545  135.3020  154.2369 C   0  0  0  0  0  0  0  0  0  0  0  0
  147.2701  134.0320  153.6242 O   0  0  0  0  0  0  0  0  0  0  0  0
  148.4324  133.2147  153.6788 C   0  0  0  0  0  0  0  0  0  0  0  0
  148.8016  132.9327  155.1460 C   0  0  0  0  0  0  0  0  0  0  0  0
  152.5197  139.5626  160.2785 H   0  0  0  0  0  0  0  0  0  0  0  0
  151.8471  138.6164  158.9620 H   0  0  0  0  0  0  0  0  0  0  0  0
  150.9139  139.9310  159.6641 H   0  0  0  0  0  0  0  0  0  0  0  0
  153.5403  140.1984  158.1230 H   0  0  0  0  0  0  0  0  0  0  0  0
  153.2967  141.9177  159.9094 H   0  0  0  0  0  0  0  0  0  0  0  0
  153.4632  142.5488  158.2949 H   0  0  0  0  0  0  0  0  0  0  0  0
  150.8358  142.2787  159.8163 H   0  0  0  0  0  0  0  0  0  0  0  0
  149.7838  143.3547  157.8542 H   0  0  0  0  0  0  0  0  0  0  0  0
  151.3244  143.4283  157.0351 H   0  0  0  0  0  0  0  0  0  0  0  0
  149.8066  140.8906  157.8160 H   0  0  0  0  0  0  0  0  0  0  0  0
  150.0693  141.5143  156.1980 H   0  0  0  0  0  0  0  0  0  0  0  0
  153.1775  138.7190  153.4410 H   0  0  0  0  0  0  0  0  0  0  0  0
  149.4025  136.1152  157.9599 H   0  0  0  0  0  0  0  0  0  0  0  0
  150.3353  135.1004  154.4363 H   0  0  0  0  0  0  0  0  0  0  0  0
  151.2193  134.3944  155.7436 H   0  0  0  0  0  0  0  0  0  0  0  0
  149.2394  134.7177  158.0853 H   0  0  0  0  0  0  0  0  0  0  0  0
  148.1781  133.3652  157.7927 H   0  0  0  0  0  0  0  0  0  0  0  0
  149.8742  132.0659  157.6210 H   0  0  0  0  0  0  0  0  0  0  0  0
  146.9250  134.6870  156.2242 H   0  0  0  0  0  0  0  0  0  0  0  0
  147.9349  136.1057  156.1887 H   0  0  0  0  0  0  0  0  0  0  0  0
  146.5325  135.8741  154.1324 H   0  0  0  0  0  0  0  0  0  0  0  0
  148.2270  135.8648  153.7124 H   0  0  0  0  0  0  0  0  0  0  0  0
  148.2200  132.2774  153.1642 H   0  0  0  0  0  0  0  0  0  0  0  0
  149.2539  133.6863  153.1392 H   0  0  0  0  0  0  0  0  0  0  0  0
  149.6654  132.2714  155.1982 H   0  0  0  0  0  0  0  0  0  0  0  0
  147.9801  132.3682  155.5896 H   0  0  0  0  0  0  0  0  0  0  0  0
  1  2  1  0  0  0  0
  1 30  1  0  0  0  0
  1 31  1  0  0  0  0
  1 32  1  0  0  0  0
  2 11  1  0  0  0  0
  2  3  1  0  0  0  0
  2 33  1  0  0  0  0
  3  4  1  0  0  0  0
  3 34  1  0  0  0  0
  3 35  1  0  0  0  0
  4  5  1  0  0  0  0
  4  9  1  0  0  0  0
  4 36  1  0  0  0  0
  5  6  1  0  0  0  0
  5  7  1  0  0  0  0
  5  8  1  0  0  0  0
  9 10  1  0  0  0  0
  9 37  1  0  0  0  0
  9 38  1  0  0  0  0
 10 11  1  0  0  0  0
 10 39  1  0  0  0  0
 10 40  1  0  0  0  0
 11 12  1  0  0  0  0
 12 17  1  0  0  0  0
 12 13  2  0  0  0  0
 13 14  1  0  0  0  0
 14 15  2  0  0  0  0
 14 41  1  0  0  0  0
 15 16  1  0  0  0  0
 16 20  1  0  0  0  0
 16 17  2  0  0  0  0
 17 18  1  0  0  0  0
 18 19  2  0  0  0  0
 19 20  1  0  0  0  0
 19 42  1  0  0  0  0
 20 21  1  0  0  0  0
 21 22  1  0  0  0  0
 21 43  1  0  0  0  0
 21 44  1  0  0  0  0
 22 29  1  0  0  0  0
 22 23  1  0  0  0  0
 22 25  1  0  0  0  0
 23 24  1  0  0  0  0
 23 45  1  0  0  0  0
 23 46  1  0  0  0  0
 24 47  1  0  0  0  0
 25 26  1  0  0  0  0
 25 48  1  0  0  0  0
 25 49  1  0  0  0  0
 26 27  1  0  0  0  0
 26 50  1  0  0  0  0
 26 51  1  0  0  0  0
 27 28  1  0  0  0  0
 28 29  1  0  0  0  0
 28 52  1  0  0  0  0
 28 53  1  0  0  0  0
 29 54  1  0  0  0  0
 29 55  1  0  0  0  0
M  END
> <s_m_source_file>
AV-unprocessed.smi

> <i_m_source_file_index>
76

> <i_lp_mmshare_version>
43012

> <i_f3d_flags>
0

> <s_epik_input>
W0NIM11bQ0BASF0xW0NIMl1bQ0BASF0oQyhGKShGKUYpW0NIMl1bQ0gyXU4xYyhuW2NIXW4yKWMoYzIzKW5bY0hdbjNbQ0gyXUM0KFtDSDJdW09IXSlbQ0gyXVtDSDJdT1tDSDJdW0NIMl00

> <s_epik_cmdline>
J2VwaWtfcHl0aG9uJywgJy1waCcsICc3LjAnLCAnLXRuJywgJzgnLCAnLW1hJywgJzIwMCcsICctbWV0YWxfYmluZGluZycsICctaW1hZScsICc8aW5maWxlLm1hZT4nLCAnLW9tYWUnLCAnPG91dGZpbGUubWFlPic=

> <r_lp_tautomer_probability>
1

> <r_epik_Ionization_Penalty>
0.00244097

> <r_epik_Ionization_Penalty_Charging>
0

> <r_epik_Ionization_Penalty_Neutral>
0.00244097

> <r_epik_State_Penalty>
0.00151846

> <r_epik_Charging_Adjusted_Penalty>
0.00151846

> <i_epik_Tot_Q>
0

> <i_epik_Tot_abs_Q>
0

> <r_epik_Metal_State_Penalty>
-0

> <b_epik_Metal_Only>
0

> <s_lp_Force_Field>
OPLS_2005

> <r_lp_Energy>
36.8654

> <b_lp_Chiralities_Consistent>
1

> <s_lp_Variant>
AV-unprocessed.smi:76-1

> <Gold.Version>
5.8.1

> <Gold.Id.Protein>
6NUR|6NUR_protein|mol2

> <Gold.PLP.Fitness>
53.9327

> <Gold.PLP.PLP>
-45.7287

> <Gold.PLP.part.hbond>
-4.0000

> <Gold.PLP.part.metal>
0.0000

> <Gold.PLP.part.buried>
-5.2456

> <Gold.PLP.part.nonpolar>
-37.7194

> <Gold.PLP.part.repulsive>
0.2618

> <Gold.PLP.ligand.clash>
0.0000

> <Gold.PLP.ligand.torsion>
0.6653

> <Gold.PLP.Chemscore.Hbond>
2.9907

> <Gold.PLP.Chemscore.CHOScore>
0.0000

> <Gold.PLP.Chemscore.Metal>
0.0000

> <Gold.Chemscore.Hbonds>
donor molecule, donor type, donor heavy atom, donor atom, acceptor molecule, acceptor atom, score
      P1  H  6896  6909       L1    24  1.00
      P1  H  7989  7998       L1    13  0.16
      P1  H  7997  8008       L1    13  0.80
      P1  H 10752 10765       L1    15  0.91

> <Gold.PLP.Chemscore.Internal.Correction>
0.5626

> <Gold.Rescore>
     Score         DG    S(hbond)    S(metal)    S(lipo)     H(rot)  DE(clash)    DE(int)     intcor
     14.74     -17.55       2.56        0.00      84.10       2.47       0.97       1.84       ----

> <Gold.Chemscore.Fitness>
14.7392

> <Gold.Chemscore.DG>
-17.5524

> <Gold.Chemscore.ZeroCoef>
-5.4800

> <Gold.Chemscore.Hbond>
2.5590

> <Gold.Chemscore.Metal>
0.0000

> <Gold.Chemscore.Lipo>
84.0978

> <Gold.Chemscore.Internal_Hbond>
0.0000

> <Gold.Chemscore.DEClash>
0.9683

> <Gold.Chemscore.DEInternal>
1.8449

> <Gold.Chemscore.Rot>
2.4665

> <Gold.Chemscore.Internal.Correction>
   9.000000E+99

> <Gold.Chemscore.Hbonds>
donor molecule, donor type, donor heavy atom, donor atom, acceptor molecule, acceptor atom, score
      P1  H  6896  6909       L1    24  0.45
      P1  H  7989  7998       L1    13  0.01
      P1  H  7997  8008       L1    13  0.17
      P1  H 10752 10765       L1    15  0.55

> <Gold.Chemscore.Hbond.Weighted>
-8.5471

> <Gold.Chemscore.Metal.Weighted>
-0.0000

> <Gold.Chemscore.Lipo.Weighted>
-9.8394

> <Gold.Chemscore.Internal_Hbond.Weighted>
0.0000

> <Gold.Chemscore.DEClash.Weighted>
0.9683

> <Gold.Chemscore.DEInternal.Weighted>
1.8449

> <Gold.Chemscore.Rot.Weighted>
6.3142

> <Gold.Chemscore.Internal.Correction.Weighted>
   9.000000E+99

> <Gold.Protein.RotatedTorsions>
[ 6907 6896 6895 6894 ] final  -12.06 input  -60.11 | X-H torsion
[ 7974 7965 7964 7962 ] final   12.71 input  175.53 | X-H torsion
[ 8008 7997 7996 7995 ] final  -18.17 input   59.86 | X-H torsion
[ 10167 10162 10161 10158 ] final  117.56 input  -65.29 | X-H torsion
[ 10718 10713 10712 10709 ] final  -79.82 input   66.30 | X-H torsion
[ 10763 10752 10751 10750 ] final  161.41 input  -60.55 | X-H torsion
[ 11005 11000 10999 10996 ] final  116.92 input  -57.11 | X-H torsion

> <Gold.Protein.ActiveResidues>
 VAL166  LYS551  ARG553  GLY616  TRP617  ASP618  TYR619  PRO620  LYS621  CYS622 
 ASP623  PHE694  ASN695  SER759  ASP760  ASP761  ALA762  ILE779  LEU786  VAL792 
 PHE793  MET794  SER795  GLU796  ALA797  LYS798  CYS799  TRP800  GLU811  SER814 

> <Gold.Protein.RotatedAtoms>
  151.3764  135.0932  159.9481 H   0  0  0  0  0  0  0  0  0  0  0  0  # atno 6907 bound_to 6896
  152.5121  133.9115  159.7500 H   0  0  0  0  0  0  0  0  0  0  0  0  # atno 6908 bound_to 6896
  150.9539  133.6464  159.2796 H   0  0  0  0  0  0  0  0  0  0  0  0  # atno 6909 bound_to 6896
  146.2345  139.9296  142.8498 H   0  0  0  0  0  0  0  0  0  0  0  0  # atno 7974 bound_to 7965
  154.4925  140.2123  155.9517 H   0  0  0  0  0  0  0  0  0  0  0  0  # atno 8008 bound_to 7997
  156.1325  140.3194  155.8339 H   0  0  0  0  0  0  0  0  0  0  0  0  # atno 8009 bound_to 7997
  155.4270  140.0501  157.3012 H   0  0  0  0  0  0  0  0  0  0  0  0  # atno 8010 bound_to 7997
  139.6170  144.7094  151.2717 H   0  0  0  0  0  0  0  0  0  0  0  0  # atno 10167 bound_to 10162
  156.0084  130.4556  150.3706 H   0  0  0  0  0  0  0  0  0  0  0  0  # atno 10718 bound_to 10713
  154.2625  135.2768  155.2772 H   0  0  0  0  0  0  0  0  0  0  0  0  # atno 10763 bound_to 10752
  154.5372  135.5713  153.6812 H   0  0  0  0  0  0  0  0  0  0  0  0  # atno 10764 bound_to 10752
  152.9960  135.6242  154.2776 H   0  0  0  0  0  0  0  0  0  0  0  0  # atno 10765 bound_to 10752
  139.9057  134.9604  156.7271 H   0  0  0  0  0  0  0  0  0  0  0  0  # atno 11005 bound_to 11000
  145.2057  140.9874  143.4130 LP  0  0  0  0  0  0  0  0  0  0  0  0  # atno 17320 bound_to 7965
  144.9735  139.3856  143.6297 LP  0  0  0  0  0  0  0  0  0  0  0  0  # atno 17321 bound_to 7965
  140.7357  143.6727  150.8067 LP  0  0  0  0  0  0  0  0  0  0  0  0  # atno 17342 bound_to 10162
  140.0332  143.5422  152.2751 LP  0  0  0  0  0  0  0  0  0  0  0  0  # atno 17343 bound_to 10162
  157.1790  131.0387  151.2758 LP  0  0  0  0  0  0  0  0  0  0  0  0  # atno 17370 bound_to 10713
  157.4162  130.7412  149.6877 LP  0  0  0  0  0  0  0  0  0  0  0  0  # atno 17371 bound_to 10713
  140.6954  133.9353  155.7992 LP  0  0  0  0  0  0  0  0  0  0  0  0  # atno 17394 bound_to 11000
  141.0411  134.0620  157.3901 LP  0  0  0  0  0  0  0  0  0  0  0  0  # atno 17395 bound_to 11000

$$$$
