AV-unprocessed.smi:2517|AV-procd|sdf|9900|dock5
  -GOLD-   2272013533D 1   1.00000     0.00000
 Structure written by MMmdl.
 41 42  0  0  0  0  0  0  0  0  1 V2000
  144.2092  134.5067  151.4373 C   0  0  0  0  0  0  0  0  0  0  0  0
  145.6517  134.1816  151.0344 C   0  0  0  0  0  0  0  0  0  0  0  0
  146.1173  132.8751  151.6160 C   0  0  0  0  0  0  0  0  0  0  0  0
  145.4562  131.7575  151.3458 N   0  0  0  0  0  0  0  0  0  0  0  0
  146.1265  130.7803  152.0017 N   0  0  0  0  0  0  0  0  0  0  0  0
  145.6550  129.4153  151.9120 C   0  0  0  0  0  0  0  0  0  0  0  0
  147.2180  131.2668  152.6917 C   0  0  0  0  0  0  0  0  0  0  0  0
  147.2337  132.6125  152.4554 C   0  0  0  0  0  0  0  0  0  0  0  0
  148.1518  133.5913  152.9147 N   0  0  0  0  0  0  0  0  0  0  0  0
  149.0272  133.4793  153.9266 C   0  0  0  0  0  0  0  0  0  0  0  0
  149.1530  132.4914  154.6503 O   0  0  0  0  0  0  0  0  0  0  0  0
  149.7604  134.5912  154.0596 N   0  0  0  0  0  0  0  0  0  0  0  0
  150.8071  134.7751  155.0560 C   0  0  0  0  0  0  0  0  0  0  0  0
  151.1562  136.2620  155.2082 C   0  0  0  0  0  0  0  0  0  0  0  0
  151.8056  136.7786  154.0461 O   0  0  0  0  0  0  0  0  0  0  0  0
  152.2253  138.1350  154.1185 C   0  0  0  0  0  0  0  0  0  0  0  0
  150.0200  137.2303  155.5885 C   0  0  0  0  0  0  0  0  0  0  0  0
  150.4963  137.1589  157.0403 C   0  0  0  0  0  0  0  0  0  0  0  0
  151.8604  136.7306  156.4975 C   0  0  0  0  0  0  0  0  0  0  0  0
  143.8893  135.4549  151.0054 H   0  0  0  0  0  0  0  0  0  0  0  0
  144.1095  134.5835  152.5203 H   0  0  0  0  0  0  0  0  0  0  0  0
  143.5223  133.7339  151.0912 H   0  0  0  0  0  0  0  0  0  0  0  0
  145.7258  134.1540  149.9471 H   0  0  0  0  0  0  0  0  0  0  0  0
  146.3089  134.9896  151.3584 H   0  0  0  0  0  0  0  0  0  0  0  0
  146.3319  128.7494  152.4481 H   0  0  0  0  0  0  0  0  0  0  0  0
  145.6099  129.1078  150.8668 H   0  0  0  0  0  0  0  0  0  0  0  0
  144.6604  129.3394  152.3520 H   0  0  0  0  0  0  0  0  0  0  0  0
  147.8663  130.6233  153.2678 H   0  0  0  0  0  0  0  0  0  0  0  0
  148.1479  134.4668  152.4121 H   0  0  0  0  0  0  0  0  0  0  0  0
  149.5973  135.3570  153.4223 H   0  0  0  0  0  0  0  0  0  0  0  0
  150.4536  134.3689  156.0046 H   0  0  0  0  0  0  0  0  0  0  0  0
  151.6880  134.1899  154.7898 H   0  0  0  0  0  0  0  0  0  0  0  0
  152.5987  138.4459  153.1429 H   0  0  0  0  0  0  0  0  0  0  0  0
  153.0370  138.2696  154.8332 H   0  0  0  0  0  0  0  0  0  0  0  0
  151.4060  138.8019  154.3873 H   0  0  0  0  0  0  0  0  0  0  0  0
  150.1405  138.2265  155.1588 H   0  0  0  0  0  0  0  0  0  0  0  0
  149.0125  136.8462  155.4266 H   0  0  0  0  0  0  0  0  0  0  0  0
  150.4931  138.1117  157.5702 H   0  0  0  0  0  0  0  0  0  0  0  0
  150.0002  136.3729  157.6119 H   0  0  0  0  0  0  0  0  0  0  0  0
  152.3449  135.9380  157.0682 H   0  0  0  0  0  0  0  0  0  0  0  0
  152.5293  137.5792  156.3425 H   0  0  0  0  0  0  0  0  0  0  0  0
  1  2  1  0  0  0  0
  1 20  1  0  0  0  0
  1 21  1  0  0  0  0
  1 22  1  0  0  0  0
  2  3  1  0  0  0  0
  2 23  1  0  0  0  0
  2 24  1  0  0  0  0
  3  8  1  0  0  0  0
  3  4  2  0  0  0  0
  4  5  1  0  0  0  0
  5  6  1  0  0  0  0
  5  7  1  0  0  0  0
  6 25  1  0  0  0  0
  6 26  1  0  0  0  0
  6 27  1  0  0  0  0
  7  8  2  0  0  0  0
  7 28  1  0  0  0  0
  8  9  1  0  0  0  0
  9 10  1  0  0  0  0
  9 29  1  0  0  0  0
 10 11  2  0  0  0  0
 10 12  1  0  0  0  0
 12 13  1  0  0  0  0
 12 30  1  0  0  0  0
 13 14  1  0  0  0  0
 13 31  1  0  0  0  0
 13 32  1  0  0  0  0
 14 19  1  0  0  0  0
 14 15  1  0  0  0  0
 14 17  1  0  0  0  0
 15 16  1  0  0  0  0
 16 33  1  0  0  0  0
 16 34  1  0  0  0  0
 16 35  1  0  0  0  0
 17 18  1  0  0  0  0
 17 36  1  0  0  0  0
 17 37  1  0  0  0  0
 18 19  1  0  0  0  0
 18 38  1  0  0  0  0
 18 39  1  0  0  0  0
 19 40  1  0  0  0  0
 19 41  1  0  0  0  0
M  END
> <s_m_source_file>
AV-unprocessed.smi

> <i_m_source_file_index>
2517

> <i_lp_mmshare_version>
43012

> <i_f3d_flags>
0

> <s_epik_input>
W0NIM11bQ0gyXWMxbm4oW0NIM10pW2NIXWMxW05IXUMoPU8pW05IXVtDSDJdQzIoT1tDSDNdKVtDSDJdW0NIMl1bQ0gyXTI=

> <s_epik_cmdline>
J2VwaWtfcHl0aG9uJywgJy1waCcsICc3LjAnLCAnLXRuJywgJzgnLCAnLW1hJywgJzIwMCcsICctbWV0YWxfYmluZGluZycsICctaW1hZScsICc8aW5maWxlLm1hZT4nLCAnLW9tYWUnLCAnPG91dGZpbGUubWFlPic=

> <r_lp_tautomer_probability>
1

> <r_epik_Ionization_Penalty>
0.000729918

> <r_epik_Ionization_Penalty_Charging>
0

> <r_epik_Ionization_Penalty_Neutral>
0.000729918

> <r_epik_State_Penalty>
-0

> <r_epik_Charging_Adjusted_Penalty>
0

> <i_epik_Tot_Q>
0

> <i_epik_Tot_abs_Q>
0

> <r_epik_Metal_State_Penalty>
-0

> <b_epik_Metal_Only>
0

> <s_lp_Force_Field>
OPLS_2005

> <r_lp_Energy>
14.833

> <b_lp_Chiralities_Consistent>
1

> <s_lp_Variant>
AV-unprocessed.smi:2517-1

> <Gold.Version>
5.8.1

> <Gold.Id.Protein>
6NUR|6NUR_protein|mol2

> <Gold.PLP.Fitness>
39.6621

> <Gold.PLP.PLP>
-31.1628

> <Gold.PLP.part.hbond>
-3.0000

> <Gold.PLP.part.metal>
0.0000

> <Gold.PLP.part.buried>
-5.9854

> <Gold.PLP.part.nonpolar>
-22.8153

> <Gold.PLP.part.repulsive>
0.5360

> <Gold.PLP.ligand.clash>
0.0000

> <Gold.PLP.ligand.torsion>
0.3929

> <Gold.PLP.Chemscore.Hbond>
3.0000

> <Gold.PLP.Chemscore.CHOScore>
0.0000

> <Gold.PLP.Chemscore.Metal>
0.0000

> <Gold.Chemscore.Hbonds>
donor molecule, donor type, donor heavy atom, donor atom, acceptor molecule, acceptor atom, score
      L1  H     9    29       P1  7948  0.95
      L1  H    12    30       P1  7948  0.60
      P1  H 10752 10764       L1    15  0.30

> <Gold.PLP.Chemscore.Internal.Correction>
0.2851

> <Gold.Rescore>
     Score         DG    S(hbond)    S(metal)    S(lipo)     H(rot)  DE(clash)    DE(int)     intcor
     14.84     -16.26       2.26        0.00      61.45       1.55       0.05       1.37       ----

> <Gold.Chemscore.Fitness>
14.8399

> <Gold.Chemscore.DG>
-16.2552

> <Gold.Chemscore.ZeroCoef>
-5.4800

> <Gold.Chemscore.Hbond>
2.2610

> <Gold.Chemscore.Metal>
0.0000

> <Gold.Chemscore.Lipo>
61.4500

> <Gold.Chemscore.Internal_Hbond>
0.0000

> <Gold.Chemscore.DEClash>
0.0503

> <Gold.Chemscore.DEInternal>
1.3651

> <Gold.Chemscore.Rot>
1.5493

> <Gold.Chemscore.Internal.Correction>
   9.000000E+99

> <Gold.Chemscore.Hbonds>
donor molecule, donor type, donor heavy atom, donor atom, acceptor molecule, acceptor atom, score
      L1  H     9    29       P1  7948  0.21
      L1  H    12    30       P1  7948  0.04

> <Gold.Chemscore.Hbond.Weighted>
-7.5516

> <Gold.Chemscore.Metal.Weighted>
-0.0000

> <Gold.Chemscore.Lipo.Weighted>
-7.1897

> <Gold.Chemscore.Internal_Hbond.Weighted>
0.0000

> <Gold.Chemscore.DEClash.Weighted>
0.0503

> <Gold.Chemscore.DEInternal.Weighted>
1.3651

> <Gold.Chemscore.Rot.Weighted>
3.9661

> <Gold.Chemscore.Internal.Correction.Weighted>
   9.000000E+99

> <Gold.Protein.RotatedTorsions>
[ 6907 6896 6895 6894 ] final  120.90 input  -60.11 | X-H torsion
[ 7974 7965 7964 7962 ] final -165.10 input  175.53 | X-H torsion
[ 8008 7997 7996 7995 ] final   38.51 input   59.86 | X-H torsion
[ 10167 10162 10161 10158 ] final   30.06 input  -65.29 | X-H torsion
[ 10718 10713 10712 10709 ] final  -16.45 input   66.30 | X-H torsion
[ 10763 10752 10751 10750 ] final  -74.87 input  -60.55 | X-H torsion
[ 11005 11000 10999 10996 ] final   14.18 input  -57.11 | X-H torsion

> <Gold.Protein.ActiveResidues>
 VAL166  LYS551  ARG553  GLY616  TRP617  ASP618  TYR619  PRO620  LYS621  CYS622 
 ASP623  PHE694  ASN695  SER759  ASP760  ASP761  ALA762  ILE779  LEU786  VAL792 
 PHE793  MET794  SER795  GLU796  ALA797  LYS798  CYS799  TRP800  GLU811  SER814 

> <Gold.Protein.RotatedAtoms>
  152.4363  133.7366  159.6617 H   0  0  0  0  0  0  0  0  0  0  0  0  # atno 6907 bound_to 6896
  150.8247  133.8182  159.3130 H   0  0  0  0  0  0  0  0  0  0  0  0  # atno 6908 bound_to 6896
  151.5854  135.1058  160.0078 H   0  0  0  0  0  0  0  0  0  0  0  0  # atno 6909 bound_to 6896
  144.7279  140.2863  143.6227 H   0  0  0  0  0  0  0  0  0  0  0  0  # atno 7974 bound_to 7965
  155.2213  140.3331  155.4315 H   0  0  0  0  0  0  0  0  0  0  0  0  # atno 8008 bound_to 7997
  156.2332  140.1860  156.7236 H   0  0  0  0  0  0  0  0  0  0  0  0  # atno 8009 bound_to 7997
  154.6013  140.0622  156.9358 H   0  0  0  0  0  0  0  0  0  0  0  0  # atno 8010 bound_to 7997
  140.4711  144.0761  150.6237 H   0  0  0  0  0  0  0  0  0  0  0  0  # atno 10167 bound_to 10162
  156.5874  130.4790  149.6294 H   0  0  0  0  0  0  0  0  0  0  0  0  # atno 10718 bound_to 10713
  154.4790  135.5850  153.6375 H   0  0  0  0  0  0  0  0  0  0  0  0  # atno 10763 bound_to 10752
  152.9845  135.6085  154.3271 H   0  0  0  0  0  0  0  0  0  0  0  0  # atno 10764 bound_to 10752
  154.3160  135.2844  155.2522 H   0  0  0  0  0  0  0  0  0  0  0  0  # atno 10765 bound_to 10752
  140.4724  134.1018  155.7735 H   0  0  0  0  0  0  0  0  0  0  0  0  # atno 11005 bound_to 11000
  145.7899  139.1923  143.2109 LP  0  0  0  0  0  0  0  0  0  0  0  0  # atno 17320 bound_to 7965
  146.0764  140.7812  142.9663 LP  0  0  0  0  0  0  0  0  0  0  0  0  # atno 17321 bound_to 7965
  140.3976  143.2720  151.9986 LP  0  0  0  0  0  0  0  0  0  0  0  0  # atno 17342 bound_to 10162
  139.4818  144.6025  151.7581 LP  0  0  0  0  0  0  0  0  0  0  0  0  # atno 17343 bound_to 10162
  156.2579  130.6945  151.1704 LP  0  0  0  0  0  0  0  0  0  0  0  0  # atno 17370 bound_to 10713
  157.7312  131.0610  150.5690 LP  0  0  0  0  0  0  0  0  0  0  0  0  # atno 17371 bound_to 10713
  141.1571  133.8863  157.1949 LP  0  0  0  0  0  0  0  0  0  0  0  0  # atno 17394 bound_to 11000
  139.9877  135.0076  156.9901 LP  0  0  0  0  0  0  0  0  0  0  0  0  # atno 17395 bound_to 11000

$$$$
