#       Name:                AV-unprocessed.smi:1207
#       Creating user name   scv26
#       Creation time:       Fri Mar 27 04:07:49 2020


#       File generated by GOLD software.
#

@<TRIPOS>MOLECULE
AV-unprocessed.smi:1207
    58    60     1
SMALL
NO_CHARGES


@<TRIPOS>ATOM
      1 ****        -5.8327   3.3432  -2.3779 C.3            1 S1                 0.0000
      2 ****        -4.7386   2.7961  -1.4783 C.ar           1 S1                 0.0000
      3 ****        -5.0480   1.7540  -0.5754 C.ar           1 S1                 0.0000
      4 ****        -4.0587   1.2167   0.2772 C.ar           1 S1                 0.0000
      5 ****        -4.1388   0.2080   1.2222 N.2            1 S1                 0.0000
      6 ****        -2.8907   0.1707   1.6797 C.2            1 S1                 0.0000
      7 ****        -2.0104   1.0372   1.1431 N.pl3          1 S1                 0.0000
      8 ****        -0.6054   1.1751   1.4848 C.3            1 S1                 0.0000
      9 ****         0.2848   0.1528   0.7508 C.3            1 S1                 0.0000
     10 ****         0.1706   0.3743  -0.6423 O.3            1 S1                 0.0000
     11 ****         1.7688   0.2791   1.1603 C.3            1 S1                 0.0000
     12 ****         2.4957  -0.9866   1.2784 N.3            1 S1                 0.0000
     13 ****         3.7833  -0.7638   1.9309 C.3            1 S1                 0.0000
     14 ****         2.6682  -1.6500  -0.0168 C.3            1 S1                 0.0000
     15 ****         3.2186  -3.0481   0.1050 C.2            1 S1                 0.0000
     16 ****         4.4891  -3.5319  -0.3197 C.2            1 S1                 0.0000
     17 ****         5.5999  -2.7730  -0.9873 C.3            1 S1                 0.0000
     18 ****         4.6424  -4.8183  -0.0531 N.2            1 S1                 0.0000
     19 ****         3.4552  -5.2257   0.5633 O.3            1 S1                 0.0000
     20 ****         2.6249  -4.1551   0.6465 C.2            1 S1                 0.0000
     21 ****         1.2946  -4.3891   1.2787 C.3            1 S1                 0.0000
     22 ****        -2.7411   1.7561   0.2029 C.ar           1 S1                 0.0000
     23 ****        -2.4211   2.7926  -0.6916 C.ar           1 S1                 0.0000
     24 ****        -3.4209   3.3170  -1.5374 C.ar           1 S1                 0.0000
     25 ****        -3.0643   4.4348  -2.5012 C.3            1 S1                 0.0000
     26 ****        -6.7839   2.8409  -2.1988 H              1 S1                 0.0000
     27 ****        -5.5714   3.2006  -3.4267 H              1 S1                 0.0000
     28 ****        -5.9783   4.4086  -2.1983 H              1 S1                 0.0000
     29 ****        -6.0513   1.3564  -0.5305 H              1 S1                 0.0000
     30 ****        -2.5972  -0.5279   2.4497 H              1 S1                 0.0000
     31 ****        -0.2870   2.1942   1.2606 H              1 S1                 0.0000
     32 ****        -0.5090   1.0500   2.5642 H              1 S1                 0.0000
     33 ****        -0.0791  -0.8507   0.9775 H              1 S1                 0.0000
     34 ****         0.6758  -0.2846  -1.0932 H              1 S1                 0.0000
     35 ****         2.2963   0.9628   0.4928 H              1 S1                 0.0000
     36 ****         1.7925   0.7626   2.1380 H              1 S1                 0.0000
     37 ****         4.3090  -1.7030   2.1037 H              1 S1                 0.0000
     38 ****         3.6485  -0.2892   2.9033 H              1 S1                 0.0000
     39 ****         4.4251  -0.1212   1.3266 H              1 S1                 0.0000
     40 ****         1.7082  -1.7064  -0.5277 H              1 S1                 0.0000
     41 ****         3.3003  -1.0350  -0.6586 H              1 S1                 0.0000
     42 ****         5.2335  -2.2339  -1.8614 H              1 S1                 0.0000
     43 ****         6.4005  -3.4349  -1.3201 H              1 S1                 0.0000
     44 ****         6.0348  -2.0424  -0.3050 H              1 S1                 0.0000
     45 ****         0.8695  -3.4573   1.6522 H              1 S1                 0.0000
     46 ****         1.3790  -5.0796   2.1181 H              1 S1                 0.0000
     47 ****         0.5956  -4.8142   0.5585 H              1 S1                 0.0000
     48 ****        -1.4128   3.1778  -0.7281 H              1 S1                 0.0000
     49 ****        -2.0115   4.7074  -2.4221 H              1 S1                 0.0000
     50 ****        -3.6572   5.3250  -2.2901 H              1 S1                 0.0000
     51 ****        -3.2537   4.1273  -3.5299 H              1 S1                 0.0000
     52 ****        -4.9270  -0.3461   1.4900 LP             1 S1                 0.0000
     53 ****         0.5219   1.2826  -0.8693 LP             1 S1                 0.0000
     54 ****        -0.7889   0.3099  -0.9165 LP             1 S1                 0.0000
     55 ****         1.9467  -1.6024   1.8436 LP             1 S1                 0.0000
     56 ****         5.4430  -5.3836  -0.2516 LP             1 S1                 0.0000
     57 ****         3.6526  -5.5718   1.4805 LP             1 S1                 0.0000
     58 ****         3.0233  -5.9464   0.0210 LP             1 S1                 0.0000
@<TRIPOS>BOND
    1    1    2 1     
    2    1   26 1     
    3    1   27 1     
    4    1   28 1     
    5    2   24 ar    
    6    2    3 ar    
    7    3    4 ar    
    8    3   29 1     
    9    4   22 ar    
   10    4    5 1     
   11    5    6 2     
   12    6    7 1     
   13    6   30 1     
   14    7    8 1     
   15    7   22 1     
   16    8    9 1     
   17    8   31 1     
   18    8   32 1     
   19    9   10 1     
   20    9   11 1     
   21    9   33 1     
   22   10   34 1     
   23   11   12 1     
   24   11   35 1     
   25   11   36 1     
   26   12   13 1     
   27   12   14 1     
   28   13   37 1     
   29   13   38 1     
   30   13   39 1     
   31   14   15 1     
   32   14   40 1     
   33   14   41 1     
   34   15   20 2     
   35   15   16 1     
   36   16   17 1     
   37   16   18 2     
   38   17   42 1     
   39   17   43 1     
   40   17   44 1     
   41   18   19 1     
   42   19   20 1     
   43   20   21 1     
   44   21   45 1     
   45   21   46 1     
   46   21   47 1     
   47   22   23 ar    
   48   23   24 ar    
   49   23   48 1     
   50   24   25 1     
   51   25   49 1     
   52   25   50 1     
   53   25   51 1     
   54    5   52 1     
   55   10   53 1     
   56   10   54 1     
   57   12   55 1     
   58   18   56 1     
   59   19   57 1     
   60   19   58 1     
@<TRIPOS>SUBSTRUCTURE
      1 S1             1
@<TRIPOS>SET
LONE_PAIRS      STATIC     ATOMS    <user>   **** ""
7 52 53 54 55 56 57 58
DONOR_HYDROGENS      STATIC     ATOMS    <user>   **** ""
1 34
ATOM$BLUE        STATIC     ATOMS    COLORGROUP SYSTEM
7 52 53 54 55 56 57 58
ATOM$RED        STATIC     ATOMS    COLORGROUP SYSTEM
1 34
