AV-unprocessed.smi:1554|AV-procd|sdf|6248|dock4
  -GOLD-   22720 6433D 1   1.00000     0.00000
 Structure written by MMmdl.
 48 50  0  0  0  0  0  0  0  0  2 V2000
  153.7548  142.6879  163.5423 C   0  0  0  0  0  0  0  0  0  0  0  0
  153.1707  142.7158  162.1409 C   0  0  0  0  0  0  0  0  0  0  0  0
  152.4196  143.8407  161.7319 C   0  0  0  0  0  0  0  0  0  0  0  0
  151.8614  143.9073  160.4368 C   0  0  0  0  0  0  0  0  0  0  0  0
  151.1021  144.8956  159.8349 N   0  0  0  0  0  0  0  0  0  0  0  0
  150.8839  144.3717  158.6323 C   0  0  0  0  0  0  0  0  0  0  0  0
  151.4063  143.1546  158.3855 N   0  0  0  0  0  0  0  0  0  0  0  0
  151.2881  142.3827  157.1587 C   0  0  0  0  0  0  0  0  0  0  0  0
  149.9570  141.6071  157.0425 C   0  0  2  0  0  0  0  0  0  0  0  0
  148.8979  142.4614  157.4310 O   0  0  0  0  0  0  0  0  0  0  0  0
  149.9182  140.3328  157.9153 C   0  0  0  0  0  0  0  0  0  0  0  0
  150.5717  139.1651  157.2663 N   0  3  1  0  0  0  0  0  0  0  0  0
  151.9161  138.8311  157.8027 C   0  0  0  0  0  0  0  0  0  0  0  0
  151.8206  138.0745  159.1428 C   0  0  0  0  0  0  0  0  0  0  0  0
  150.9937  136.9266  158.9943 O   0  0  0  0  0  0  0  0  0  0  0  0
  149.6658  137.2580  158.6026 C   0  0  2  0  0  0  0  0  0  0  0  0
  148.8418  135.9665  158.5654 C   0  0  0  0  0  0  0  0  0  0  0  0
  149.7148  137.9545  157.2271 C   0  0  0  0  0  0  0  0  0  0  0  0
  152.0752  142.8079  159.5551 C   0  0  0  0  0  0  0  0  0  0  0  0
  152.8232  141.6842  159.9498 C   0  0  0  0  0  0  0  0  0  0  0  0
  153.3730  141.6336  161.2475 C   0  0  0  0  0  0  0  0  0  0  0  0
  154.1771  140.4148  161.6644 C   0  0  0  0  0  0  0  0  0  0  0  0
  153.5359  143.6090  164.0831 H   0  0  0  0  0  0  0  0  0  0  0  0
  154.8382  142.5744  163.5026 H   0  0  0  0  0  0  0  0  0  0  0  0
  153.3393  141.8574  164.1135 H   0  0  0  0  0  0  0  0  0  0  0  0
  152.2662  144.6657  162.4119 H   0  0  0  0  0  0  0  0  0  0  0  0
  150.3033  144.8988  157.8892 H   0  0  0  0  0  0  0  0  0  0  0  0
  151.4093  143.0585  156.3109 H   0  0  0  0  0  0  0  0  0  0  0  0
  152.1260  141.6864  157.1130 H   0  0  0  0  0  0  0  0  0  0  0  0
  149.8111  141.3569  155.9923 H   0  0  0  0  0  0  0  0  0  0  0  0
  148.9989  143.2943  156.9968 H   0  0  0  0  0  0  0  0  0  0  0  0
  150.3893  140.5257  158.8786 H   0  0  0  0  0  0  0  0  0  0  0  0
  148.8772  140.0906  158.1346 H   0  0  0  0  0  0  0  0  0  0  0  0
  152.4228  138.1988  157.0726 H   0  0  0  0  0  0  0  0  0  0  0  0
  152.5319  139.7230  157.9113 H   0  0  0  0  0  0  0  0  0  0  0  0
  152.8128  137.7512  159.4580 H   0  0  0  0  0  0  0  0  0  0  0  0
  151.4349  138.7135  159.9379 H   0  0  0  0  0  0  0  0  0  0  0  0
  149.2257  137.9243  159.3466 H   0  0  0  0  0  0  0  0  0  0  0  0
  147.8102  136.1680  158.2756 H   0  0  0  0  0  0  0  0  0  0  0  0
  148.8235  135.4873  159.5445 H   0  0  0  0  0  0  0  0  0  0  0  0
  149.2563  135.2528  157.8526 H   0  0  0  0  0  0  0  0  0  0  0  0
  148.7117  138.2071  156.8812 H   0  0  0  0  0  0  0  0  0  0  0  0
  150.1276  137.2684  156.4859 H   0  0  0  0  0  0  0  0  0  0  0  0
  152.9739  140.8677  159.2597 H   0  0  0  0  0  0  0  0  0  0  0  0
  154.2019  139.6642  160.8739 H   0  0  0  0  0  0  0  0  0  0  0  0
  153.7407  139.9524  162.5501 H   0  0  0  0  0  0  0  0  0  0  0  0
  155.2057  140.6961  161.8911 H   0  0  0  0  0  0  0  0  0  0  0  0
  150.7014  139.4390  156.3029 H   0  0  0  0  0  0  0  0  0  0  0  0
  1  2  1  0  0  0  0
  1 23  1  0  0  0  0
  1 24  1  0  0  0  0
  1 25  1  0  0  0  0
  2 21  1  0  0  0  0
  2  3  2  0  0  0  0
  3  4  1  0  0  0  0
  3 26  1  0  0  0  0
  4 19  2  0  0  0  0
  4  5  1  0  0  0  0
  5  6  2  0  0  0  0
  6  7  1  0  0  0  0
  6 27  1  0  0  0  0
  7  8  1  0  0  0  0
  7 19  1  0  0  0  0
  8  9  1  0  0  0  0
  8 28  1  0  0  0  0
  8 29  1  0  0  0  0
  9 10  1  0  0  0  0
  9 11  1  0  0  0  0
  9 30  1  0  0  0  0
 10 31  1  0  0  0  0
 11 12  1  0  0  0  0
 11 32  1  0  0  0  0
 11 33  1  0  0  0  0
 12 18  1  0  0  0  0
 12 13  1  0  0  0  0
 12 48  1  0  0  0  0
 13 14  1  0  0  0  0
 13 34  1  0  0  0  0
 13 35  1  0  0  0  0
 14 15  1  0  0  0  0
 14 36  1  0  0  0  0
 14 37  1  0  0  0  0
 15 16  1  0  0  0  0
 16 17  1  0  0  0  0
 16 18  1  0  0  0  0
 16 38  1  0  0  0  0
 17 39  1  0  0  0  0
 17 40  1  0  0  0  0
 17 41  1  0  0  0  0
 18 42  1  0  0  0  0
 18 43  1  0  0  0  0
 19 20  1  0  0  0  0
 20 21  2  0  0  0  0
 20 44  1  0  0  0  0
 21 22  1  0  0  0  0
 22 45  1  0  0  0  0
 22 46  1  0  0  0  0
 22 47  1  0  0  0  0
M  CHG  1  12   1
M  END
> <s_m_source_file>
AV-unprocessed.smi

> <i_m_source_file_index>
1554

> <i_lp_mmshare_version>
43012

> <i_f3d_flags>
0

> <s_epik_input>
W0NIM11jKFtjSF0xKWMoW0NIM10pW2NIXWMoYzEyKW4oW2NIXW4yKVtDSDJdW0NASF0oW09IXSlbQ0gyXU4zW0NIMl1bQ0gyXU9bQ0BASF0oW0NIM10pW0NIMl0z

> <s_epik_cmdline>
J2VwaWtfcHl0aG9uJywgJy1waCcsICc3LjAnLCAnLXRuJywgJzgnLCAnLW1hJywgJzIwMCcsICctbWV0YWxfYmluZGluZycsICctaW1hZScsICc8aW5maWxlLm1hZT4nLCAnLW9tYWUnLCAnPG91dGZpbGUubWFlPic=

> <r_epik_Ionization_Penalty>
0.695251

> <r_epik_Ionization_Penalty_Charging>
0.608065

> <r_epik_Ionization_Penalty_Neutral>
0.0871863

> <r_epik_State_Penalty>
0.731955

> <r_epik_Charging_Adjusted_Penalty>
1.34002

> <i_epik_Tot_Q>
1

> <i_epik_Tot_abs_Q>
1

> <r_epik_Metal_State_Penalty>
0.652186

> <b_epik_Metal_Only>
0

> <s_lp_Force_Field>
OPLS_2005

> <r_lp_Energy>
22.8588

> <b_lp_Chiralities_Consistent>
1

> <s_lp_Variant>
AV-unprocessed.smi:1554-9

> <Gold.Version>
5.8.1

> <Gold.Id.Protein>
6NUR|6NUR_protein|mol2

> <Gold.PLP.Fitness>
54.1677

> <Gold.PLP.PLP>
-47.8586

> <Gold.PLP.part.hbond>
-2.0000

> <Gold.PLP.part.metal>
0.0000

> <Gold.PLP.part.buried>
-7.6753

> <Gold.PLP.part.nonpolar>
-38.2450

> <Gold.PLP.part.repulsive>
0.1566

> <Gold.PLP.ligand.clash>
0.0000

> <Gold.PLP.ligand.torsion>
1.3534

> <Gold.PLP.Chemscore.Hbond>
2.0000

> <Gold.PLP.Chemscore.CHOScore>
0.9907

> <Gold.PLP.Chemscore.Metal>
0.0000

> <Gold.Chemscore.Hbonds>
donor molecule, donor type, donor heavy atom, donor atom, acceptor molecule, acceptor atom, score
      L1  H    10    31       P1  8028  1.00
      P1  H  6896  6909       L1    15  1.00
      L1  C     6    27       P1  8028  0.54
      L1  C     6    27       P1  8029  0.31

> <Gold.PLP.Chemscore.Internal.Correction>
0.0436

> <Gold.Rescore>
     Score         DG    S(hbond)    S(metal)    S(lipo)     H(rot)  DE(clash)    DE(int)     intcor
     18.72     -21.10       1.95        0.00     122.79       2.05       0.12       2.26       ----

> <Gold.Chemscore.Fitness>
18.7171

> <Gold.Chemscore.DG>
-21.0974

> <Gold.Chemscore.ZeroCoef>
-5.4800

> <Gold.Chemscore.Hbond>
1.9492

> <Gold.Chemscore.Metal>
0.0000

> <Gold.Chemscore.Lipo>
122.7922

> <Gold.Chemscore.Internal_Hbond>
0.0000

> <Gold.Chemscore.DEClash>
0.1229

> <Gold.Chemscore.DEInternal>
2.2574

> <Gold.Chemscore.Rot>
2.0546

> <Gold.Chemscore.Internal.Correction>
   9.000000E+99

> <Gold.Chemscore.Hbonds>
donor molecule, donor type, donor heavy atom, donor atom, acceptor molecule, acceptor atom, score
      L1  H    10    31       P1  8028  0.77
      P1  H  6896  6909       L1    15  0.86

> <Gold.Chemscore.Hbond.Weighted>
-6.5104

> <Gold.Chemscore.Metal.Weighted>
-0.0000

> <Gold.Chemscore.Lipo.Weighted>
-14.3667

> <Gold.Chemscore.Internal_Hbond.Weighted>
0.0000

> <Gold.Chemscore.DEClash.Weighted>
0.1229

> <Gold.Chemscore.DEInternal.Weighted>
2.2574

> <Gold.Chemscore.Rot.Weighted>
5.2597

> <Gold.Chemscore.Internal.Correction.Weighted>
   9.000000E+99

> <Gold.Protein.RotatedTorsions>
[ 6907 6896 6895 6894 ] final  101.49 input  -60.11 | X-H torsion
[ 7974 7965 7964 7962 ] final   57.47 input  175.53 | X-H torsion
[ 8008 7997 7996 7995 ] final  -30.75 input   59.86 | X-H torsion
[ 10167 10162 10161 10158 ] final  -30.28 input  -65.29 | X-H torsion
[ 10718 10713 10712 10709 ] final  -69.83 input   66.30 | X-H torsion
[ 10763 10752 10751 10750 ] final   -0.73 input  -60.55 | X-H torsion
[ 11005 11000 10999 10996 ] final  -30.17 input  -57.11 | X-H torsion

> <Gold.Protein.ActiveResidues>
 VAL166  LYS551  ARG553  GLY616  TRP617  ASP618  TYR619  PRO620  LYS621  CYS622 
 ASP623  PHE694  ASN695  SER759  ASP760  ASP761  ALA762  ILE779  LEU786  VAL792 
 PHE793  MET794  SER795  GLU796  ALA797  LYS798  CYS799  TRP800  GLU811  SER814 

> <Gold.Protein.RotatedAtoms>
  152.5348  134.0117  159.7941 H   0  0  0  0  0  0  0  0  0  0  0  0  # atno 6907 bound_to 6896
  151.0318  133.5775  159.2667 H   0  0  0  0  0  0  0  0  0  0  0  0  # atno 6908 bound_to 6896
  151.2777  135.0711  159.9211 H   0  0  0  0  0  0  0  0  0  0  0  0  # atno 6909 bound_to 6896
  145.9287  139.3789  143.0434 H   0  0  0  0  0  0  0  0  0  0  0  0  # atno 7974 bound_to 7965
  154.4239  140.1783  156.1456 H   0  0  0  0  0  0  0  0  0  0  0  0  # atno 8008 bound_to 7997
  155.9956  140.3365  155.6771 H   0  0  0  0  0  0  0  0  0  0  0  0  # atno 8009 bound_to 7997
  155.6313  140.0670  157.2639 H   0  0  0  0  0  0  0  0  0  0  0  0  # atno 8010 bound_to 7997
  140.7251  143.3861  151.1513 H   0  0  0  0  0  0  0  0  0  0  0  0  # atno 10167 bound_to 10162
  156.0436  130.4320  150.2206 H   0  0  0  0  0  0  0  0  0  0  0  0  # atno 10718 bound_to 10713
  153.3357  135.6978  153.6909 H   0  0  0  0  0  0  0  0  0  0  0  0  # atno 10763 bound_to 10752
  153.5694  135.3519  155.2832 H   0  0  0  0  0  0  0  0  0  0  0  0  # atno 10764 bound_to 10752
  154.8627  135.4268  154.2557 H   0  0  0  0  0  0  0  0  0  0  0  0  # atno 10765 bound_to 10752
  140.9360  133.7308  156.1005 H   0  0  0  0  0  0  0  0  0  0  0  0  # atno 11005 bound_to 11000
  145.8455  140.9557  143.0777 LP  0  0  0  0  0  0  0  0  0  0  0  0  # atno 17320 bound_to 7965
  144.6762  140.0340  143.7482 LP  0  0  0  0  0  0  0  0  0  0  0  0  # atno 17321 bound_to 7965
  139.7458  143.8854  152.3063 LP  0  0  0  0  0  0  0  0  0  0  0  0  # atno 17342 bound_to 10162
  139.8691  144.7078  150.9009 LP  0  0  0  0  0  0  0  0  0  0  0  0  # atno 17343 bound_to 10162
  157.0298  131.0004  151.3315 LP  0  0  0  0  0  0  0  0  0  0  0  0  # atno 17370 bound_to 10713
  157.5285  130.8043  149.7890 LP  0  0  0  0  0  0  0  0  0  0  0  0  # atno 17371 bound_to 10713
  140.7799  134.3737  157.5489 LP  0  0  0  0  0  0  0  0  0  0  0  0  # atno 17394 bound_to 11000
  139.8808  134.9075  156.2946 LP  0  0  0  0  0  0  0  0  0  0  0  0  # atno 17395 bound_to 11000

$$$$
