AV-unprocessed.smi:2607|AV-procd|sdf|10198|dock6
  -GOLD-   2272014213D 1   1.00000     0.00000
 Structure written by MMmdl.
 22 23  0  0  0  0  0  0  0  0  1 V2000
  147.3567  137.0908  155.2705 C   0  0  0  0  0  0  0  0  0  0  0  0
  147.6030  138.4074  154.5085 C   0  0  1  0  0  0  0  0  0  0  0  0
  148.7785  139.2019  155.1004 C   0  0  0  0  0  0  0  0  0  0  0  0
  149.9602  139.4745  154.3648 C   0  0  0  0  0  0  0  0  0  0  0  0
  150.9907  140.1718  154.8927 N   0  0  0  0  0  0  0  0  0  0  0  0
  150.8447  140.5995  156.1654 C   0  0  0  0  0  0  0  0  0  0  0  0
  149.6767  140.3299  156.9075 C   0  0  0  0  0  0  0  0  0  0  0  0
  148.6470  139.6325  156.3803 N   0  0  0  0  0  0  0  0  0  0  0  0
  147.7554  138.1316  153.0850 N   0  0  0  0  0  0  0  0  0  0  0  0
  146.8415  138.7502  152.3263 C   0  0  0  0  0  0  0  0  0  0  0  0
  146.7713  138.7073  151.1005 O   0  0  0  0  0  0  0  0  0  0  0  0
  146.0147  139.4114  153.1399 N   0  0  0  0  0  0  0  0  0  0  0  0
  146.3378  139.2625  154.4232 C   0  0  0  0  0  0  0  0  0  0  0  0
  145.7230  139.7179  155.3866 O   0  0  0  0  0  0  0  0  0  0  0  0
  147.1627  137.2701  156.3286 H   0  0  0  0  0  0  0  0  0  0  0  0
  148.2234  136.4325  155.2029 H   0  0  0  0  0  0  0  0  0  0  0  0
  146.4997  136.5475  154.8694 H   0  0  0  0  0  0  0  0  0  0  0  0
  150.0942  139.1379  153.3478 H   0  0  0  0  0  0  0  0  0  0  0  0
  151.6632  141.1579  156.5946 H   0  0  0  0  0  0  0  0  0  0  0  0
  149.5680  140.6738  157.9253 H   0  0  0  0  0  0  0  0  0  0  0  0
  148.5009  137.5576  152.7185 H   0  0  0  0  0  0  0  0  0  0  0  0
  145.2211  139.9469  152.8196 H   0  0  0  0  0  0  0  0  0  0  0  0
  1  2  1  0  0  0  0
  1 15  1  0  0  0  0
  1 16  1  0  0  0  0
  1 17  1  0  0  0  0
  2 13  1  0  0  0  0
  2  3  1  0  0  0  0
  2  9  1  0  0  0  0
  3  8  1  0  0  0  0
  3  4  2  0  0  0  0
  4  5  1  0  0  0  0
  4 18  1  0  0  0  0
  5  6  2  0  0  0  0
  6  7  1  0  0  0  0
  6 19  1  0  0  0  0
  7  8  2  0  0  0  0
  7 20  1  0  0  0  0
  9 10  1  0  0  0  0
  9 21  1  0  0  0  0
 10 11  2  0  0  0  0
 10 12  1  0  0  0  0
 12 13  1  0  0  0  0
 12 22  1  0  0  0  0
 13 14  2  0  0  0  0
M  END
> <s_m_source_file>
AV-unprocessed.smi

> <i_m_source_file_index>
2607

> <i_lp_mmshare_version>
43012

> <i_f3d_flags>
0

> <s_epik_input>
Tz1DMVtOSF1DKD1PKVtOSF1bQ0BAXTEoW0NIM10pYzJbY0hdbltjSF1bY0hdbjI=

> <s_epik_cmdline>
J2VwaWtfcHl0aG9uJywgJy1waCcsICc3LjAnLCAnLXRuJywgJzgnLCAnLW1hJywgJzIwMCcsICctbWV0YWxfYmluZGluZycsICctaW1hZScsICc8aW5maWxlLm1hZT4nLCAnLW9tYWUnLCAnPG91dGZpbGUubWFlPic=

> <r_lp_tautomer_probability>
1

> <r_epik_Ionization_Penalty>
0.0333762

> <r_epik_Ionization_Penalty_Charging>
0

> <r_epik_Ionization_Penalty_Neutral>
0.0333762

> <r_epik_State_Penalty>
0.027503

> <r_epik_Charging_Adjusted_Penalty>
0.027503

> <i_epik_Tot_Q>
0

> <i_epik_Tot_abs_Q>
0

> <r_epik_Metal_State_Penalty>
0.445281

> <b_epik_Metal_Only>
0

> <s_lp_Force_Field>
OPLS_2005

> <r_lp_Energy>
24.1998

> <b_lp_Chiralities_Consistent>
1

> <s_lp_Variant>
AV-unprocessed.smi:2607-1

> <Gold.Version>
5.8.1

> <Gold.Id.Protein>
6NUR|6NUR_protein|mol2

> <Gold.PLP.Fitness>
32.0815

> <Gold.PLP.PLP>
-17.2127

> <Gold.PLP.part.hbond>
-4.2250

> <Gold.PLP.part.metal>
0.0000

> <Gold.PLP.part.buried>
-4.1067

> <Gold.PLP.part.nonpolar>
-10.6362

> <Gold.PLP.part.repulsive>
0.8492

> <Gold.PLP.ligand.clash>
0.0000

> <Gold.PLP.ligand.torsion>
0.0764

> <Gold.PLP.Chemscore.Hbond>
3.9680

> <Gold.PLP.Chemscore.CHOScore>
1.0000

> <Gold.PLP.Chemscore.Metal>
0.0000

> <Gold.Chemscore.Hbonds>
donor molecule, donor type, donor heavy atom, donor atom, acceptor molecule, acceptor atom, score
      L1  H     9    21       P1  7948  0.99
      L1  H    12    22       P1 10175  1.00
      P1  H  7954  7966       L1    11  0.98
      P1  H  7989  7998       L1     5  1.00
      L1  C     4    18       P1  7957  1.00

> <Gold.PLP.Chemscore.Internal.Correction>
0.1176

> <Gold.Rescore>
     Score         DG    S(hbond)    S(metal)    S(lipo)     H(rot)  DE(clash)    DE(int)     intcor
     16.06     -17.24       3.53        0.00      21.55       1.00       1.12       0.06       ----

> <Gold.Chemscore.Fitness>
16.0565

> <Gold.Chemscore.DG>
-17.2434

> <Gold.Chemscore.ZeroCoef>
-5.4800

> <Gold.Chemscore.Hbond>
3.5335

> <Gold.Chemscore.Metal>
0.0000

> <Gold.Chemscore.Lipo>
21.5521

> <Gold.Chemscore.Internal_Hbond>
0.0000

> <Gold.Chemscore.DEClash>
1.1221

> <Gold.Chemscore.DEInternal>
0.0648

> <Gold.Chemscore.Rot>
1.0000

> <Gold.Chemscore.Internal.Correction>
   9.000000E+99

> <Gold.Chemscore.Hbonds>
donor molecule, donor type, donor heavy atom, donor atom, acceptor molecule, acceptor atom, score
      L1  H     9    21       P1  7948  0.93
      L1  H    12    22       P1 10175  1.00
      P1  H  7954  7966       L1    11  0.88
      P1  H  7989  7998       L1     5  0.30

> <Gold.Chemscore.Hbond.Weighted>
-11.8018

> <Gold.Chemscore.Metal.Weighted>
-0.0000

> <Gold.Chemscore.Lipo.Weighted>
-2.5216

> <Gold.Chemscore.Internal_Hbond.Weighted>
0.0000

> <Gold.Chemscore.DEClash.Weighted>
1.1221

> <Gold.Chemscore.DEInternal.Weighted>
0.0648

> <Gold.Chemscore.Rot.Weighted>
2.5600

> <Gold.Chemscore.Internal.Correction.Weighted>
   9.000000E+99

> <Gold.Protein.RotatedTorsions>
[ 6907 6896 6895 6894 ] final   23.12 input  -60.11 | X-H torsion
[ 7974 7965 7964 7962 ] final   55.66 input  175.53 | X-H torsion
[ 8008 7997 7996 7995 ] final   62.29 input   59.86 | X-H torsion
[ 10167 10162 10161 10158 ] final -155.81 input  -65.29 | X-H torsion
[ 10718 10713 10712 10709 ] final  175.36 input   66.30 | X-H torsion
[ 10763 10752 10751 10750 ] final   57.87 input  -60.55 | X-H torsion
[ 11005 11000 10999 10996 ] final -161.25 input  -57.11 | X-H torsion

> <Gold.Protein.ActiveResidues>
 VAL166  LYS551  ARG553  GLY616  TRP617  ASP618  TYR619  PRO620  LYS621  CYS622 
 ASP623  PHE694  ASN695  SER759  ASP760  ASP761  ALA762  ILE779  LEU786  VAL792 
 PHE793  MET794  SER795  GLU796  ALA797  LYS798  CYS799  TRP800  GLU811  SER814 

> <Gold.Protein.RotatedAtoms>
  151.9375  135.0229  160.0533 H   0  0  0  0  0  0  0  0  0  0  0  0  # atno 6907 bound_to 6896
  152.2065  133.4875  159.5095 H   0  0  0  0  0  0  0  0  0  0  0  0  # atno 6908 bound_to 6896
  150.6966  134.1439  159.4158 H   0  0  0  0  0  0  0  0  0  0  0  0  # atno 6909 bound_to 6896
  145.9480  139.3947  143.0323 H   0  0  0  0  0  0  0  0  0  0  0  0  # atno 7974 bound_to 7965
  155.6120  140.3495  155.4625 H   0  0  0  0  0  0  0  0  0  0  0  0  # atno 8008 bound_to 7997
  156.0147  140.1240  157.0443 H   0  0  0  0  0  0  0  0  0  0  0  0  # atno 8009 bound_to 7997
  154.4293  140.1074  156.5864 H   0  0  0  0  0  0  0  0  0  0  0  0  # atno 8010 bound_to 7997
  139.6901  143.9435  152.2381 H   0  0  0  0  0  0  0  0  0  0  0  0  # atno 10167 bound_to 10162
  156.9360  130.9986  151.2978 H   0  0  0  0  0  0  0  0  0  0  0  0  # atno 10718 bound_to 10713
  152.9858  135.5626  154.5460 H   0  0  0  0  0  0  0  0  0  0  0  0  # atno 10763 bound_to 10752
  154.4906  135.2792  155.1502 H   0  0  0  0  0  0  0  0  0  0  0  0  # atno 10764 bound_to 10752
  154.2973  135.6314  153.5463 H   0  0  0  0  0  0  0  0  0  0  0  0  # atno 10765 bound_to 10752
  140.6225  134.4736  157.5224 H   0  0  0  0  0  0  0  0  0  0  0  0  # atno 11005 bound_to 11000
  145.8210  140.9679  143.0899 LP  0  0  0  0  0  0  0  0  0  0  0  0  # atno 17320 bound_to 7965
  144.6790  140.0041  143.7484 LP  0  0  0  0  0  0  0  0  0  0  0  0  # atno 17321 bound_to 7965
  139.9249  144.6777  150.8423 LP  0  0  0  0  0  0  0  0  0  0  0  0  # atno 17342 bound_to 10162
  140.7680  143.3349  151.2330 LP  0  0  0  0  0  0  0  0  0  0  0  0  # atno 17343 bound_to 10162
  157.5816  130.8380  149.8530 LP  0  0  0  0  0  0  0  0  0  0  0  0  # atno 17370 bound_to 10713
  156.0425  130.3735  150.1399 LP  0  0  0  0  0  0  0  0  0  0  0  0  # atno 17371 bound_to 10713
  139.9148  134.8270  156.1405 LP  0  0  0  0  0  0  0  0  0  0  0  0  # atno 17394 bound_to 11000
  141.0732  133.6787  156.2183 LP  0  0  0  0  0  0  0  0  0  0  0  0  # atno 17395 bound_to 11000

$$$$
