#       Name:                AV-unprocessed.smi:2413
#       Creating user name   scv26
#       Creation time:       Fri Mar 27 13:16:45 2020


#       File generated by GOLD software.
#

@<TRIPOS>MOLECULE
AV-unprocessed.smi:2413
    52    53     1
SMALL
NO_CHARGES


@<TRIPOS>ATOM
      1 ****        -4.3349   5.6257   0.6156 C.3            1 S1                 0.0000
      2 ****        -3.9352   4.2402   1.1141 C.2            1 S1                 0.0000
      3 ****        -3.8467   4.0281   2.3228 O.2            1 S1                 0.0000
      4 ****        -3.6954   3.3102   0.1769 N.am           1 S1                 0.0000
      5 ****        -3.2871   1.9336   0.4388 C.3            1 S1                 0.0000
      6 ****        -1.7565   1.7834   0.4279 C.3            1 S1                 0.0000
      7 ****        -1.3263   0.3066   0.5312 C.3            1 S1                 0.0000
      8 ****         0.1269   0.2117   0.5907 N.3            1 S1                 0.0000
      9 ****         0.6176  -1.1000   0.5688 C.ar           1 S1                 0.0000
     10 ****         0.2516  -2.0598   1.5384 C.ar           1 S1                 0.0000
     11 ****         0.8209  -3.3392   1.3947 C.ar           1 S1                 0.0000
     12 ****         1.6725  -3.6290   0.3885 N.ar           1 S1                 0.0000
     13 ****         1.9907  -2.6413  -0.4592 C.ar           1 S1                 0.0000
     14 ****         2.8388  -3.0137  -1.6875 C.3            1 S1                 0.0000
     15 ****         3.6594  -1.8005  -2.1854 C.3            1 S1                 0.0000
     16 ****         1.9155  -3.5094  -2.8155 C.3            1 S1                 0.0000
     17 ****         3.8692  -4.1137  -1.3397 C.3            1 S1                 0.0000
     18 ****         1.4740  -1.4053  -0.4291 N.ar           1 S1                 0.0000
     19 ****         0.6985   1.0087   1.6671 C.3            1 S1                 0.0000
     20 ****         0.2133   2.4632   1.5576 C.3            1 S1                 0.0000
     21 ****        -1.2107   2.4888   1.5421 O.3            1 S1                 0.0000
     22 ****        -4.4117   5.6559  -0.4720 H              1 S1                 0.0000
     23 ****        -3.5952   6.3639   0.9261 H              1 S1                 0.0000
     24 ****        -5.3004   5.9119   1.0332 H              1 S1                 0.0000
     25 ****        -3.7935   3.5793  -0.7913 H              1 S1                 0.0000
     26 ****        -3.7036   1.5723   1.3806 H              1 S1                 0.0000
     27 ****        -3.7195   1.3122  -0.3458 H              1 S1                 0.0000
     28 ****        -1.3657   2.2107  -0.4979 H              1 S1                 0.0000
     29 ****        -1.7662  -0.1454   1.4210 H              1 S1                 0.0000
     30 ****        -1.6929  -0.2527  -0.3306 H              1 S1                 0.0000
     31 ****        -0.4273  -1.8343   2.3474 H              1 S1                 0.0000
     32 ****         0.5887  -4.1349   2.0871 H              1 S1                 0.0000
     33 ****         4.3010  -2.0722  -3.0244 H              1 S1                 0.0000
     34 ****         4.3009  -1.4044  -1.3972 H              1 S1                 0.0000
     35 ****         3.0191  -0.9878  -2.5305 H              1 S1                 0.0000
     36 ****         1.1965  -2.7419  -3.1043 H              1 S1                 0.0000
     37 ****         1.3499  -4.3891  -2.5060 H              1 S1                 0.0000
     38 ****         2.4838  -3.7799  -3.7059 H              1 S1                 0.0000
     39 ****         4.5049  -4.3467  -2.1947 H              1 S1                 0.0000
     40 ****         3.3876  -5.0463  -1.0438 H              1 S1                 0.0000
     41 ****         4.5208  -3.8035  -0.5220 H              1 S1                 0.0000
     42 ****         0.4035   0.5906   2.6306 H              1 S1                 0.0000
     43 ****         1.7875   0.9723   1.6178 H              1 S1                 0.0000
     44 ****         0.5704   3.0444   2.4078 H              1 S1                 0.0000
     45 ****         0.6068   2.9391   0.6578 H              1 S1                 0.0000
     46 ****        -4.0365   4.7624   2.9745 LP             1 S1                 0.0000
     47 ****        -3.5850   3.1213   2.6534 LP             1 S1                 0.0000
     48 ****         0.4457   0.6181  -0.2656 LP             1 S1                 0.0000
     49 ****         2.0522  -4.5477   0.2795 LP             1 S1                 0.0000
     50 ****         1.7156  -0.7292  -1.1252 LP             1 S1                 0.0000
     51 ****        -1.5485   2.0689   2.3845 LP             1 S1                 0.0000
     52 ****        -1.5142   3.4406   1.4992 LP             1 S1                 0.0000
@<TRIPOS>BOND
    1    1    2 1     
    2    1   22 1     
    3    1   23 1     
    4    1   24 1     
    5    2    3 2     
    6    2    4 am    
    7    4    5 1     
    8    4   25 1     
    9    5    6 1     
   10    5   26 1     
   11    5   27 1     
   12    6   21 1     
   13    6    7 1     
   14    6   28 1     
   15    7    8 1     
   16    7   29 1     
   17    7   30 1     
   18    8    9 1     
   19    8   19 1     
   20    9   18 ar    
   21    9   10 ar    
   22   10   11 ar    
   23   10   31 1     
   24   11   12 ar    
   25   11   32 1     
   26   12   13 ar    
   27   13   14 1     
   28   13   18 ar    
   29   14   15 1     
   30   14   16 1     
   31   14   17 1     
   32   15   33 1     
   33   15   34 1     
   34   15   35 1     
   35   16   36 1     
   36   16   37 1     
   37   16   38 1     
   38   17   39 1     
   39   17   40 1     
   40   17   41 1     
   41   19   20 1     
   42   19   42 1     
   43   19   43 1     
   44   20   21 1     
   45   20   44 1     
   46   20   45 1     
   47    3   46 1     
   48    3   47 1     
   49    8   48 1     
   50   12   49 1     
   51   18   50 1     
   52   21   51 1     
   53   21   52 1     
@<TRIPOS>SUBSTRUCTURE
      1 S1             1
@<TRIPOS>SET
LONE_PAIRS      STATIC     ATOMS    <user>   **** ""
7 46 47 48 49 50 51 52
DONOR_HYDROGENS      STATIC     ATOMS    <user>   **** ""
1 25
ATOM$BLUE        STATIC     ATOMS    COLORGROUP SYSTEM
7 46 47 48 49 50 51 52
ATOM$RED        STATIC     ATOMS    COLORGROUP SYSTEM
1 25
