AV-unprocessed.smi:3127|AV-procd|sdf|11917|dock2
  -GOLD-   2272017293D 1   1.00000     0.00000
 Structure written by MMmdl.
 33 34  0  0  0  0  0  0  0  0  1 V2000
  152.5274  145.0156  158.3132 C   0  0  0  0  0  0  0  0  0  0  0  0
  151.7888  144.2170  159.4055 C   0  0  0  0  0  0  0  0  0  0  0  0
  152.1530  144.7715  160.7968 C   0  0  0  0  0  0  0  0  0  0  0  0
  150.2721  144.4146  159.1964 C   0  0  0  0  0  0  0  0  0  0  0  0
  152.1666  142.7515  159.3192 C   0  0  0  0  0  0  0  0  0  0  0  0
  152.7963  141.9791  160.2683 C   0  0  0  0  0  0  0  0  0  0  0  0
  153.0249  140.3353  159.7391 S   0  0  0  0  0  0  0  0  0  0  0  0
  152.2643  140.7528  158.2111 C   0  0  0  0  0  0  0  0  0  0  0  0
  152.0338  139.7572  157.1197 C   0  0  1  0  0  0  0  0  0  0  0  0
  151.4554  140.4074  155.8480 C   0  0  0  0  0  0  0  0  0  0  0  0
  151.3237  139.4120  154.7854 N   0  0  0  0  0  0  0  0  0  0  0  0
  152.5967  138.7390  154.5311 C   0  0  0  0  0  0  0  0  0  0  0  0
  153.1522  138.1334  155.8331 C   0  0  0  0  0  0  0  0  0  0  0  0
  153.2897  139.1552  156.8147 O   0  0  0  0  0  0  0  0  0  0  0  0
  151.8655  142.0270  158.1585 N   0  0  0  0  0  0  0  0  0  0  0  0
  152.2583  146.0721  158.3422 H   0  0  0  0  0  0  0  0  0  0  0  0
  152.2857  144.6419  157.3176 H   0  0  0  0  0  0  0  0  0  0  0  0
  153.6096  144.9549  158.4328 H   0  0  0  0  0  0  0  0  0  0  0  0
  153.2240  144.6993  160.9908 H   0  0  0  0  0  0  0  0  0  0  0  0
  151.6385  144.2249  161.5881 H   0  0  0  0  0  0  0  0  0  0  0  0
  151.8780  145.8226  160.8904 H   0  0  0  0  0  0  0  0  0  0  0  0
  149.9963  145.4678  159.2626 H   0  0  0  0  0  0  0  0  0  0  0  0
  149.6908  143.8807  159.9492 H   0  0  0  0  0  0  0  0  0  0  0  0
  149.9534  144.0581  158.2162 H   0  0  0  0  0  0  0  0  0  0  0  0
  153.1386  142.2709  161.2498 H   0  0  0  0  0  0  0  0  0  0  0  0
  151.3492  138.9954  157.4974 H   0  0  0  0  0  0  0  0  0  0  0  0
  150.4854  140.8560  156.0630 H   0  0  0  0  0  0  0  0  0  0  0  0
  152.1091  141.2155  155.5170 H   0  0  0  0  0  0  0  0  0  0  0  0
  151.0017  139.8634  153.9351 H   0  0  0  0  0  0  0  0  0  0  0  0
  152.4648  137.9587  153.7813 H   0  0  0  0  0  0  0  0  0  0  0  0
  153.3167  139.4486  154.1219 H   0  0  0  0  0  0  0  0  0  0  0  0
  152.5021  137.3390  156.2033 H   0  0  0  0  0  0  0  0  0  0  0  0
  154.1293  137.6858  155.6511 H   0  0  0  0  0  0  0  0  0  0  0  0
  1  2  1  0  0  0  0
  1 16  1  0  0  0  0
  1 17  1  0  0  0  0
  1 18  1  0  0  0  0
  2  3  1  0  0  0  0
  2  4  1  0  0  0  0
  2  5  1  0  0  0  0
  3 19  1  0  0  0  0
  3 20  1  0  0  0  0
  3 21  1  0  0  0  0
  4 22  1  0  0  0  0
  4 23  1  0  0  0  0
  4 24  1  0  0  0  0
  5 15  1  0  0  0  0
  5  6  2  0  0  0  0
  6  7  1  0  0  0  0
  6 25  1  0  0  0  0
  7  8  1  0  0  0  0
  8  9  1  0  0  0  0
  8 15  2  0  0  0  0
  9 14  1  0  0  0  0
  9 10  1  0  0  0  0
  9 26  1  0  0  0  0
 10 11  1  0  0  0  0
 10 27  1  0  0  0  0
 10 28  1  0  0  0  0
 11 12  1  0  0  0  0
 11 29  1  0  0  0  0
 12 13  1  0  0  0  0
 12 30  1  0  0  0  0
 12 31  1  0  0  0  0
 13 14  1  0  0  0  0
 13 32  1  0  0  0  0
 13 33  1  0  0  0  0
M  END
> <s_m_source_file>
AV-unprocessed.smi

> <i_m_source_file_index>
3127

> <i_lp_mmshare_version>
43012

> <i_f3d_flags>
0

> <s_epik_input>
W0NIM11DKFtDSDNdKShbQ0gzXSljMVtjSF1zYyhuMSlbQ0BASF0yW0NIMl1bTkhdW0NIMl1bQ0gyXU8y

> <s_epik_cmdline>
J2VwaWtfcHl0aG9uJywgJy1waCcsICc3LjAnLCAnLXRuJywgJzgnLCAnLW1hJywgJzIwMCcsICctbWV0YWxfYmluZGluZycsICctaW1hZScsICc8aW5maWxlLm1hZT4nLCAnLW9tYWUnLCAnPG91dGZpbGUubWFlPic=

> <r_epik_Ionization_Penalty>
0.982256

> <r_epik_Ionization_Penalty_Charging>
0

> <r_epik_Ionization_Penalty_Neutral>
0.982256

> <r_epik_State_Penalty>
2.16535

> <r_epik_Charging_Adjusted_Penalty>
2.16535

> <i_epik_Tot_Q>
0

> <i_epik_Tot_abs_Q>
0

> <r_epik_Metal_State_Penalty>
2.16345

> <b_epik_Metal_Only>
0

> <s_lp_Force_Field>
OPLS_2005

> <r_lp_Energy>
6.45536

> <b_lp_Chiralities_Consistent>
1

> <s_lp_Variant>
AV-unprocessed.smi:3127-4

> <Gold.Version>
5.8.1

> <Gold.Id.Protein>
6NUR|6NUR_protein|mol2

> <Gold.PLP.Fitness>
40.1639

> <Gold.PLP.PLP>
-37.3532

> <Gold.PLP.part.hbond>
-1.8799

> <Gold.PLP.part.metal>
0.0000

> <Gold.PLP.part.buried>
-5.3635

> <Gold.PLP.part.nonpolar>
-30.2518

> <Gold.PLP.part.repulsive>
0.0122

> <Gold.PLP.ligand.clash>
0.0000

> <Gold.PLP.ligand.torsion>
0.1008

> <Gold.PLP.Chemscore.Hbond>
1.0000

> <Gold.PLP.Chemscore.CHOScore>
0.0000

> <Gold.PLP.Chemscore.Metal>
0.0000

> <Gold.Chemscore.Hbonds>
donor molecule, donor type, donor heavy atom, donor atom, acceptor molecule, acceptor atom, score
      P1  H  7997  8008       L1    14  0.81

> <Gold.PLP.Chemscore.Internal.Correction>
0.0122

> <Gold.Rescore>
     Score         DG    S(hbond)    S(metal)    S(lipo)     H(rot)  DE(clash)    DE(int)     intcor
     18.37     -18.43       0.91        0.00     109.14       1.12       0.00       0.06       ----

> <Gold.Chemscore.Fitness>
18.3667

> <Gold.Chemscore.DG>
-18.4255

> <Gold.Chemscore.ZeroCoef>
-5.4800

> <Gold.Chemscore.Hbond>
0.9088

> <Gold.Chemscore.Metal>
0.0000

> <Gold.Chemscore.Lipo>
109.1357

> <Gold.Chemscore.Internal_Hbond>
0.0000

> <Gold.Chemscore.DEClash>
0.0000

> <Gold.Chemscore.DEInternal>
0.0589

> <Gold.Chemscore.Rot>
1.1167

> <Gold.Chemscore.Internal.Correction>
   9.000000E+99

> <Gold.Chemscore.Hbonds>
donor molecule, donor type, donor heavy atom, donor atom, acceptor molecule, acceptor atom, score
      P1  H  7997  8008       L1    14  0.70

> <Gold.Chemscore.Hbond.Weighted>
-3.0355

> <Gold.Chemscore.Metal.Weighted>
-0.0000

> <Gold.Chemscore.Lipo.Weighted>
-12.7689

> <Gold.Chemscore.Internal_Hbond.Weighted>
0.0000

> <Gold.Chemscore.DEClash.Weighted>
0.0000

> <Gold.Chemscore.DEInternal.Weighted>
0.0589

> <Gold.Chemscore.Rot.Weighted>
2.8588

> <Gold.Chemscore.Internal.Correction.Weighted>
   9.000000E+99

> <Gold.Protein.RotatedTorsions>
[ 6907 6896 6895 6894 ] final  -54.69 input  -60.11 | X-H torsion
[ 7974 7965 7964 7962 ] final   60.04 input  175.53 | X-H torsion
[ 8008 7997 7996 7995 ] final  -69.36 input   59.86 | X-H torsion
[ 10167 10162 10161 10158 ] final   74.12 input  -65.29 | X-H torsion
[ 10718 10713 10712 10709 ] final  110.67 input   66.30 | X-H torsion
[ 10763 10752 10751 10750 ] final  -11.66 input  -60.55 | X-H torsion
[ 11005 11000 10999 10996 ] final  121.12 input  -57.11 | X-H torsion

> <Gold.Protein.ActiveResidues>
 VAL166  LYS551  ARG553  GLY616  TRP617  ASP618  TYR619  PRO620  LYS621  CYS622 
 ASP623  PHE694  ASN695  SER759  ASP760  ASP761  ALA762  ILE779  LEU786  VAL792 
 PHE793  MET794  SER795  GLU796  ALA797  LYS798  CYS799  TRP800  GLU811  SER814 

> <Gold.Protein.RotatedAtoms>
  150.8316  134.7572  159.6858 H   0  0  0  0  0  0  0  0  0  0  0  0  # atno 6907 bound_to 6896
  152.4420  134.5569  159.9892 H   0  0  0  0  0  0  0  0  0  0  0  0  # atno 6908 bound_to 6896
  151.5728  133.3350  159.3029 H   0  0  0  0  0  0  0  0  0  0  0  0  # atno 6909 bound_to 6896
  145.9005  139.3577  143.0595 H   0  0  0  0  0  0  0  0  0  0  0  0  # atno 7974 bound_to 7965
  154.4933  140.0855  156.7642 H   0  0  0  0  0  0  0  0  0  0  0  0  # atno 8008 bound_to 7997
  155.4177  140.3444  155.4250 H   0  0  0  0  0  0  0  0  0  0  0  0  # atno 8009 bound_to 7997
  156.1360  140.1515  156.8982 H   0  0  0  0  0  0  0  0  0  0  0  0  # atno 8010 bound_to 7997
  140.0172  144.5569  150.7611 H   0  0  0  0  0  0  0  0  0  0  0  0  # atno 10167 bound_to 10162
  157.6483  131.0937  150.6636 H   0  0  0  0  0  0  0  0  0  0  0  0  # atno 10718 bound_to 10713
  153.4870  135.7017  153.5906 H   0  0  0  0  0  0  0  0  0  0  0  0  # atno 10763 bound_to 10752
  153.4094  135.3852  155.2041 H   0  0  0  0  0  0  0  0  0  0  0  0  # atno 10764 bound_to 10752
  154.8719  135.3901  154.4326 H   0  0  0  0  0  0  0  0  0  0  0  0  # atno 10765 bound_to 10752
  139.9213  134.9637  156.7910 H   0  0  0  0  0  0  0  0  0  0  0  0  # atno 11005 bound_to 11000
  145.8797  140.9370  143.0607 LP  0  0  0  0  0  0  0  0  0  0  0  0  # atno 17320 bound_to 7965
  144.6735  140.0764  143.7471 LP  0  0  0  0  0  0  0  0  0  0  0  0  # atno 17321 bound_to 7965
  140.7357  143.2744  151.3786 LP  0  0  0  0  0  0  0  0  0  0  0  0  # atno 17342 bound_to 10162
  139.6165  144.0993  152.2350 LP  0  0  0  0  0  0  0  0  0  0  0  0  # atno 17343 bound_to 10162
  156.6950  130.4606  149.5589 LP  0  0  0  0  0  0  0  0  0  0  0  0  # atno 17370 bound_to 10713
  156.1835  130.6514  151.0979 LP  0  0  0  0  0  0  0  0  0  0  0  0  # atno 17371 bound_to 10713
  140.6467  133.9769  155.7734 LP  0  0  0  0  0  0  0  0  0  0  0  0  # atno 17394 bound_to 11000
  141.0735  134.0169  157.3491 LP  0  0  0  0  0  0  0  0  0  0  0  0  # atno 17395 bound_to 11000

$$$$
