AV-unprocessed.smi:3029|AV-procd|sdf|11530|dock3
  -GOLD-   2272016473D 1   1.00000     0.00000
 Structure written by MMmdl.
 41 42  0  0  0  0  0  0  0  0  3 V2000
  147.7757  132.9827  153.1396 O   0  0  0  0  0  0  0  0  0  0  0  0
  148.5175  132.5627  154.0279 C   0  0  0  0  0  0  0  0  0  0  0  0
  148.8493  131.1396  154.1505 C   0  0  0  0  0  0  0  0  0  0  0  0
  149.6513  130.6808  155.1312 C   0  0  0  0  0  0  0  0  0  0  0  0
  150.2167  131.5935  156.1056 C   0  0  0  0  0  0  0  0  0  0  0  0
  151.0654  131.1099  157.1723 N   0  3  0  0  0  0  0  0  0  0  0  0
  151.5484  131.9166  157.9613 O   0  0  0  0  0  0  0  0  0  0  0  0
  151.2764  129.9043  157.2554 O   0  5  0  0  0  0  0  0  0  0  0  0
  149.9163  132.9016  155.9867 C   0  0  0  0  0  0  0  0  0  0  0  0
  149.0786  133.3876  154.9642 N   0  0  0  0  0  0  0  0  0  0  0  0
  148.8037  134.8327  154.9698 C   0  0  0  0  0  0  0  0  0  0  0  0
  147.2930  135.1289  154.9581 C   0  0  0  0  0  0  0  0  0  0  0  0
  146.8491  135.4517  153.6098 N   0  0  0  0  0  0  0  0  0  0  0  0
  145.6441  136.2748  153.6023 C   0  0  1  0  0  0  0  0  0  0  0  0
  145.9895  137.6466  154.2201 C   0  0  0  0  0  0  0  0  0  0  0  0
  146.8459  138.5217  153.2875 C   0  0  0  0  0  0  0  0  0  0  0  0
  146.1992  138.6714  151.9043 C   0  0  0  0  0  0  0  0  0  0  0  0
  145.9221  137.3000  151.2711 C   0  0  0  0  0  0  0  0  0  0  0  0
  145.0324  136.4247  152.1800 C   0  0  1  0  0  0  0  0  0  0  0  0
  144.6137  135.0995  151.5026 C   0  0  0  0  0  0  0  0  0  0  0  0
  145.6597  134.3026  151.2847 F   0  0  0  0  0  0  0  0  0  0  0  0
  143.7242  134.4580  152.2602 F   0  0  0  0  0  0  0  0  0  0  0  0
  144.0379  135.3630  150.3296 F   0  0  0  0  0  0  0  0  0  0  0  0
  148.4381  130.4422  153.4354 H   0  0  0  0  0  0  0  0  0  0  0  0
  149.8653  129.6232  155.1806 H   0  0  0  0  0  0  0  0  0  0  0  0
  150.2789  133.6617  156.6639 H   0  0  0  0  0  0  0  0  0  0  0  0
  149.2412  135.2657  155.8704 H   0  0  0  0  0  0  0  0  0  0  0  0
  149.2984  135.3510  154.1465 H   0  0  0  0  0  0  0  0  0  0  0  0
  146.7387  134.2786  155.3542 H   0  0  0  0  0  0  0  0  0  0  0  0
  147.0816  135.9792  155.6074 H   0  0  0  0  0  0  0  0  0  0  0  0
  147.5924  135.9295  153.1202 H   0  0  0  0  0  0  0  0  0  0  0  0
  144.8987  135.8129  154.2518 H   0  0  0  0  0  0  0  0  0  0  0  0
  145.0610  138.1757  154.4378 H   0  0  0  0  0  0  0  0  0  0  0  0
  146.4917  137.5187  155.1801 H   0  0  0  0  0  0  0  0  0  0  0  0
  146.9945  139.5046  153.7353 H   0  0  0  0  0  0  0  0  0  0  0  0
  147.8385  138.0826  153.1787 H   0  0  0  0  0  0  0  0  0  0  0  0
  145.2664  139.2293  151.9941 H   0  0  0  0  0  0  0  0  0  0  0  0
  146.8479  139.2573  151.2526 H   0  0  0  0  0  0  0  0  0  0  0  0
  145.4425  137.4436  150.3027 H   0  0  0  0  0  0  0  0  0  0  0  0
  146.8653  136.7895  151.0721 H   0  0  0  0  0  0  0  0  0  0  0  0
  144.1044  136.9816  152.3205 H   0  0  0  0  0  0  0  0  0  0  0  0
  1  2  2  0  0  0  0
  2 10  1  0  0  0  0
  2  3  1  0  0  0  0
  3  4  2  0  0  0  0
  3 24  1  0  0  0  0
  4  5  1  0  0  0  0
  4 25  1  0  0  0  0
  5  6  1  0  0  0  0
  5  9  2  0  0  0  0
  6  7  2  0  0  0  0
  6  8  1  0  0  0  0
  9 10  1  0  0  0  0
  9 26  1  0  0  0  0
 10 11  1  0  0  0  0
 11 12  1  0  0  0  0
 11 27  1  0  0  0  0
 11 28  1  0  0  0  0
 12 13  1  0  0  0  0
 12 29  1  0  0  0  0
 12 30  1  0  0  0  0
 13 14  1  0  0  0  0
 13 31  1  0  0  0  0
 14 19  1  0  0  0  0
 14 15  1  0  0  0  0
 14 32  1  0  0  0  0
 15 16  1  0  0  0  0
 15 33  1  0  0  0  0
 15 34  1  0  0  0  0
 16 17  1  0  0  0  0
 16 35  1  0  0  0  0
 16 36  1  0  0  0  0
 17 18  1  0  0  0  0
 17 37  1  0  0  0  0
 17 38  1  0  0  0  0
 18 19  1  0  0  0  0
 18 39  1  0  0  0  0
 18 40  1  0  0  0  0
 19 20  1  0  0  0  0
 19 41  1  0  0  0  0
 20 21  1  0  0  0  0
 20 22  1  0  0  0  0
 20 23  1  0  0  0  0
M  CHG  1   6   1
M  CHG  1   8  -1
M  END
> <s_m_source_file>
AV-unprocessed.smi

> <i_m_source_file_index>
3029

> <i_lp_mmshare_version>
43012

> <i_f3d_flags>
0

> <s_epik_input>
Tz1jMVtjSF1bY0hdYyhbTitdKD1PKVtPLV0pW2NIXW4xW0NIMl1bQ0gyXVtOSF1bQ0BASF0yW0NIMl1bQ0gyXVtDSDJdW0NIMl1bQ0BIXTJDKEYpKEYpRg==

> <s_epik_cmdline>
J2VwaWtfcHl0aG9uJywgJy1waCcsICc3LjAnLCAnLXRuJywgJzgnLCAnLW1hJywgJzIwMCcsICctbWV0YWxfYmluZGluZycsICctaW1hZScsICc8aW5maWxlLm1hZT4nLCAnLW9tYWUnLCAnPG91dGZpbGUubWFlPic=

> <r_lp_tautomer_probability>
1

> <r_epik_Ionization_Penalty>
1.65565

> <r_epik_Ionization_Penalty_Charging>
3.32684e-10

> <r_epik_Ionization_Penalty_Neutral>
1.65565

> <r_epik_State_Penalty>
1.75811

> <r_epik_Charging_Adjusted_Penalty>
1.75811

> <i_epik_Tot_Q>
0

> <i_epik_Tot_abs_Q>
2

> <r_epik_Metal_State_Penalty>
1.75811

> <b_epik_Metal_Only>
0

> <s_lp_Force_Field>
OPLS_2005

> <r_lp_Energy>
39.0204

> <b_lp_Chiralities_Consistent>
1

> <s_lp_Variant>
AV-unprocessed.smi:3029-6

> <Gold.Version>
5.8.1

> <Gold.Id.Protein>
6NUR|6NUR_protein|mol2

> <Gold.PLP.Fitness>
42.7066

> <Gold.PLP.PLP>
-37.6346

> <Gold.PLP.part.hbond>
-1.7830

> <Gold.PLP.part.metal>
0.0000

> <Gold.PLP.part.buried>
0.4019

> <Gold.PLP.part.nonpolar>
-37.5395

> <Gold.PLP.part.repulsive>
0.1947

> <Gold.PLP.ligand.clash>
0.0000

> <Gold.PLP.ligand.torsion>
0.5296

> <Gold.PLP.Chemscore.Hbond>
1.9750

> <Gold.PLP.Chemscore.CHOScore>
0.0000

> <Gold.PLP.Chemscore.Metal>
0.0000

> <Gold.Chemscore.Hbonds>
donor molecule, donor type, donor heavy atom, donor atom, acceptor molecule, acceptor atom, score
      L1  H    13    31       P1  7948  1.00
      P1  H  6896  6909       L1     7  1.00

> <Gold.PLP.Chemscore.Internal.Correction>
0.2063

> <Gold.Rescore>
     Score         DG    S(hbond)    S(metal)    S(lipo)     H(rot)  DE(clash)    DE(int)     intcor
     11.22     -14.88       1.98        0.00      64.39       1.86       0.85       2.81       ----

> <Gold.Chemscore.Fitness>
11.2217

> <Gold.Chemscore.DG>
-14.8786

> <Gold.Chemscore.ZeroCoef>
-5.4800

> <Gold.Chemscore.Hbond>
1.9827

> <Gold.Chemscore.Metal>
0.0000

> <Gold.Chemscore.Lipo>
64.3917

> <Gold.Chemscore.Internal_Hbond>
0.0000

> <Gold.Chemscore.DEClash>
0.8487

> <Gold.Chemscore.DEInternal>
2.8081

> <Gold.Chemscore.Rot>
1.8584

> <Gold.Chemscore.Internal.Correction>
   9.000000E+99

> <Gold.Chemscore.Hbonds>
donor molecule, donor type, donor heavy atom, donor atom, acceptor molecule, acceptor atom, score
      L1  H    13    31       P1  7948  0.99
      P1  H  6896  6909       L1     7  1.00

> <Gold.Chemscore.Hbond.Weighted>
-6.6223

> <Gold.Chemscore.Metal.Weighted>
-0.0000

> <Gold.Chemscore.Lipo.Weighted>
-7.5338

> <Gold.Chemscore.Internal_Hbond.Weighted>
0.0000

> <Gold.Chemscore.DEClash.Weighted>
0.8487

> <Gold.Chemscore.DEInternal.Weighted>
2.8081

> <Gold.Chemscore.Rot.Weighted>
4.7576

> <Gold.Chemscore.Internal.Correction.Weighted>
   9.000000E+99

> <Gold.Protein.RotatedTorsions>
[ 6907 6896 6895 6894 ] final  -57.71 input  -60.11 | X-H torsion
[ 7974 7965 7964 7962 ] final  -23.61 input  175.53 | X-H torsion
[ 8008 7997 7996 7995 ] final -173.96 input   59.86 | X-H torsion
[ 10167 10162 10161 10158 ] final   38.90 input  -65.29 | X-H torsion
[ 10718 10713 10712 10709 ] final -132.85 input   66.30 | X-H torsion
[ 10763 10752 10751 10750 ] final   79.06 input  -60.55 | X-H torsion
[ 11005 11000 10999 10996 ] final  -61.74 input  -57.11 | X-H torsion

> <Gold.Protein.ActiveResidues>
 VAL166  LYS551  ARG553  GLY616  TRP617  ASP618  TYR619  PRO620  LYS621  CYS622 
 ASP623  PHE694  ASN695  SER759  ASP760  ASP761  ALA762  ILE779  LEU786  VAL792 
 PHE793  MET794  SER795  GLU796  ALA797  LYS798  CYS799  TRP800  GLU811  SER814 

> <Gold.Protein.RotatedAtoms>
  150.8064  134.7192  159.6648 H   0  0  0  0  0  0  0  0  0  0  0  0  # atno 6907 bound_to 6896
  152.4184  134.5997  160.0006 H   0  0  0  0  0  0  0  0  0  0  0  0  # atno 6908 bound_to 6896
  151.6219  133.3301  159.3126 H   0  0  0  0  0  0  0  0  0  0  0  0  # atno 6909 bound_to 6896
  146.1606  140.4639  142.8573 H   0  0  0  0  0  0  0  0  0  0  0  0  # atno 7974 bound_to 7965
  155.9641  140.1150  157.0870 H   0  0  0  0  0  0  0  0  0  0  0  0  # atno 8008 bound_to 7997
  154.4139  140.1176  156.5285 H   0  0  0  0  0  0  0  0  0  0  0  0  # atno 8009 bound_to 7997
  155.6682  140.3473  155.4810 H   0  0  0  0  0  0  0  0  0  0  0  0  # atno 8010 bound_to 7997
  140.3892  144.1876  150.6130 H   0  0  0  0  0  0  0  0  0  0  0  0  # atno 10167 bound_to 10162
  156.2389  130.7083  151.0936 H   0  0  0  0  0  0  0  0  0  0  0  0  # atno 10718 bound_to 10713
  153.0922  135.4854  154.8712 H   0  0  0  0  0  0  0  0  0  0  0  0  # atno 10763 bound_to 10752
  154.7283  135.3054  154.8936 H   0  0  0  0  0  0  0  0  0  0  0  0  # atno 10764 bound_to 10752
  153.9580  135.6815  153.4798 H   0  0  0  0  0  0  0  0  0  0  0  0  # atno 10765 bound_to 10752
  141.1335  133.6633  156.5421 H   0  0  0  0  0  0  0  0  0  0  0  0  # atno 11005 bound_to 11000
  144.8021  140.6233  143.6471 LP  0  0  0  0  0  0  0  0  0  0  0  0  # atno 17320 bound_to 7965
  145.4598  139.1514  143.3872 LP  0  0  0  0  0  0  0  0  0  0  0  0  # atno 17321 bound_to 7965
  140.4857  143.2364  151.8891 LP  0  0  0  0  0  0  0  0  0  0  0  0  # atno 17342 bound_to 10162
  139.4790  144.5221  151.8787 LP  0  0  0  0  0  0  0  0  0  0  0  0  # atno 17343 bound_to 10162
  157.7166  131.0706  150.6301 LP  0  0  0  0  0  0  0  0  0  0  0  0  # atno 17370 bound_to 10713
  156.6373  130.4448  149.5765 LP  0  0  0  0  0  0  0  0  0  0  0  0  # atno 17371 bound_to 10713
  140.4131  134.7254  157.4847 LP  0  0  0  0  0  0  0  0  0  0  0  0  # atno 17394 bound_to 11000
  140.0413  134.6263  155.8977 LP  0  0  0  0  0  0  0  0  0  0  0  0  # atno 17395 bound_to 11000

$$$$
