AV-unprocessed.smi:1215|AV-procd|sdf|5094|dock4
  -GOLD-   22720 4143D 1   1.00000     0.00000
 Structure written by MMmdl.
 46 47  0  0  0  0  0  0  0  0  2 V2000
  152.1273  142.1594  158.6988 C   0  0  0  0  0  0  0  0  0  0  0  0
  151.3436  142.6884  157.4917 C   0  0  0  0  0  0  0  0  0  0  0  0
  150.9873  141.6238  156.5747 N   0  0  0  0  0  0  0  0  0  0  0  0
  150.0618  141.6552  155.5507 C   0  0  0  0  0  0  0  0  0  0  0  0
  150.0933  140.4115  154.9857 C   0  0  0  0  0  0  0  0  0  0  0  0
  149.3437  139.8993  153.8967 N   0  0  0  0  0  0  0  0  0  0  0  0
  148.0923  139.4130  153.9278 C   0  0  0  0  0  0  0  0  0  0  0  0
  147.3854  139.3380  154.9331 O   0  0  0  0  0  0  0  0  0  0  0  0
  147.6901  139.0147  152.7124 N   0  0  0  0  0  0  0  0  0  0  0  0
  146.3854  138.4320  152.4185 C   0  0  0  0  0  0  0  0  0  0  0  0
  146.1061  137.1953  153.2994 C   0  0  0  0  0  0  0  0  0  0  0  0
  145.9683  135.9310  152.5189 N   0  3  2  0  0  0  0  0  0  0  0  0
  144.9410  136.0529  151.4431 C   0  0  0  0  0  0  0  0  0  0  0  0
  144.8795  134.8023  150.5550 C   0  0  0  0  0  0  0  0  0  0  0  0
  144.5995  133.5583  151.3968 C   0  0  0  0  0  0  0  0  0  0  0  0
  145.6626  133.4416  152.4908 C   0  0  0  0  0  0  0  0  0  0  0  0
  145.7362  134.7131  153.3658 C   0  0  1  0  0  0  0  0  0  0  0  0
  146.8186  134.5014  154.4457 C   0  0  0  0  0  0  0  0  0  0  0  0
  151.0596  139.6769  155.7214 C   0  0  0  0  0  0  0  0  0  0  0  0
  151.5963  140.4168  156.6797 N   0  0  0  0  0  0  0  0  0  0  0  0
  152.3726  142.9691  159.3861 H   0  0  0  0  0  0  0  0  0  0  0  0
  153.0620  141.6911  158.3889 H   0  0  0  0  0  0  0  0  0  0  0  0
  151.5472  141.4188  159.2502 H   0  0  0  0  0  0  0  0  0  0  0  0
  150.4297  143.1821  157.8243 H   0  0  0  0  0  0  0  0  0  0  0  0
  151.9300  143.4351  156.9543 H   0  0  0  0  0  0  0  0  0  0  0  0
  149.4830  142.5395  155.3292 H   0  0  0  0  0  0  0  0  0  0  0  0
  149.8102  139.9055  153.0013 H   0  0  0  0  0  0  0  0  0  0  0  0
  148.3346  139.1106  151.9409 H   0  0  0  0  0  0  0  0  0  0  0  0
  145.6522  139.2176  152.5927 H   0  0  0  0  0  0  0  0  0  0  0  0
  146.3232  138.1719  151.3603 H   0  0  0  0  0  0  0  0  0  0  0  0
  146.9381  137.1177  153.9943 H   0  0  0  0  0  0  0  0  0  0  0  0
  145.2130  137.3507  153.9065 H   0  0  0  0  0  0  0  0  0  0  0  0
  143.9645  136.2388  151.8935 H   0  0  0  0  0  0  0  0  0  0  0  0
  145.1549  136.9016  150.7965 H   0  0  0  0  0  0  0  0  0  0  0  0
  144.1037  134.9206  149.7979 H   0  0  0  0  0  0  0  0  0  0  0  0
  145.8214  134.6827  150.0179 H   0  0  0  0  0  0  0  0  0  0  0  0
  143.6071  133.6246  151.8448 H   0  0  0  0  0  0  0  0  0  0  0  0
  144.6027  132.6669  150.7685 H   0  0  0  0  0  0  0  0  0  0  0  0
  145.4423  132.5713  153.1103 H   0  0  0  0  0  0  0  0  0  0  0  0
  146.6346  133.2530  152.0322 H   0  0  0  0  0  0  0  0  0  0  0  0
  144.7761  134.8341  153.8704 H   0  0  0  0  0  0  0  0  0  0  0  0
  146.7165  133.5208  154.9121 H   0  0  0  0  0  0  0  0  0  0  0  0
  146.7452  135.2245  155.2572 H   0  0  0  0  0  0  0  0  0  0  0  0
  147.8220  134.5591  154.0227 H   0  0  0  0  0  0  0  0  0  0  0  0
  151.3832  138.6542  155.5958 H   0  0  0  0  0  0  0  0  0  0  0  0
  146.8556  135.7845  152.0589 H   0  0  0  0  0  0  0  0  0  0  0  0
  1  2  1  0  0  0  0
  1 21  1  0  0  0  0
  1 22  1  0  0  0  0
  1 23  1  0  0  0  0
  2  3  1  0  0  0  0
  2 24  1  0  0  0  0
  2 25  1  0  0  0  0
  3 20  1  0  0  0  0
  3  4  1  0  0  0  0
  4  5  2  0  0  0  0
  4 26  1  0  0  0  0
  5  6  1  0  0  0  0
  5 19  1  0  0  0  0
  6  7  1  0  0  0  0
  6 27  1  0  0  0  0
  7  8  2  0  0  0  0
  7  9  1  0  0  0  0
  9 10  1  0  0  0  0
  9 28  1  0  0  0  0
 10 11  1  0  0  0  0
 10 29  1  0  0  0  0
 10 30  1  0  0  0  0
 11 12  1  0  0  0  0
 11 31  1  0  0  0  0
 11 32  1  0  0  0  0
 12 17  1  0  0  0  0
 12 13  1  0  0  0  0
 12 46  1  0  0  0  0
 13 14  1  0  0  0  0
 13 33  1  0  0  0  0
 13 34  1  0  0  0  0
 14 15  1  0  0  0  0
 14 35  1  0  0  0  0
 14 36  1  0  0  0  0
 15 16  1  0  0  0  0
 15 37  1  0  0  0  0
 15 38  1  0  0  0  0
 16 17  1  0  0  0  0
 16 39  1  0  0  0  0
 16 40  1  0  0  0  0
 17 18  1  0  0  0  0
 17 41  1  0  0  0  0
 18 42  1  0  0  0  0
 18 43  1  0  0  0  0
 18 44  1  0  0  0  0
 19 20  2  0  0  0  0
 19 45  1  0  0  0  0
M  CHG  1  12   1
M  END
> <s_m_source_file>
AV-unprocessed.smi

> <i_m_source_file_index>
1215

> <i_lp_mmshare_version>
43012

> <i_f3d_flags>
0

> <s_epik_input>
W0NIM11bQ0gyXW4xW2NIXWMoW2NIXW4xKVtOSF1DKD1PKVtOSF1bQ0gyXVtDSDJdTjJbQ0gyXVtDSDJdW0NIMl1bQ0gyXVtDQEhdMltDSDNd

> <s_epik_cmdline>
J2VwaWtfcHl0aG9uJywgJy1waCcsICc3LjAnLCAnLXRuJywgJzgnLCAnLW1hJywgJzIwMCcsICctbWV0YWxfYmluZGluZycsICctaW1hZScsICc8aW5maWxlLm1hZT4nLCAnLW9tYWUnLCAnPG91dGZpbGUubWFlPic=

> <r_lp_tautomer_probability>
1

> <r_epik_Ionization_Penalty>
0.00247187

> <r_epik_Ionization_Penalty_Charging>
0.00232067

> <r_epik_Ionization_Penalty_Neutral>
0.000151201

> <r_epik_State_Penalty>
0.00160128

> <r_epik_Charging_Adjusted_Penalty>
0.00392194

> <i_epik_Tot_Q>
1

> <i_epik_Tot_abs_Q>
1

> <r_epik_Metal_State_Penalty>
-0

> <b_epik_Metal_Only>
0

> <s_lp_Force_Field>
OPLS_2005

> <r_lp_Energy>
23.5711

> <b_lp_Chiralities_Consistent>
1

> <s_lp_Variant>
AV-unprocessed.smi:1215-1

> <Gold.Version>
5.8.1

> <Gold.Id.Protein>
6NUR|6NUR_protein|mol2

> <Gold.PLP.Fitness>
46.7829

> <Gold.PLP.PLP>
-34.4092

> <Gold.PLP.part.hbond>
-3.5413

> <Gold.PLP.part.metal>
0.0000

> <Gold.PLP.part.buried>
-1.5152

> <Gold.PLP.part.nonpolar>
-29.0049

> <Gold.PLP.part.repulsive>
0.2759

> <Gold.PLP.ligand.clash>
0.0000

> <Gold.PLP.ligand.torsion>
1.3130

> <Gold.PLP.Chemscore.Hbond>
3.9840

> <Gold.PLP.Chemscore.CHOScore>
1.0000

> <Gold.PLP.Chemscore.Metal>
0.0000

> <Gold.Chemscore.Hbonds>
donor molecule, donor type, donor heavy atom, donor atom, acceptor molecule, acceptor atom, score
      L1  H     6    27       P1  7957  0.93
      L1  H     9    28       P1  7957  0.99
      L1  H    12    46       P1  7948  1.53
      L1  C     4    26       P1  8028  1.00

> <Gold.PLP.Chemscore.Internal.Correction>
0.0477

> <Gold.Rescore>
     Score         DG    S(hbond)    S(metal)    S(lipo)     H(rot)  DE(clash)    DE(int)     intcor
     17.85     -20.36       2.86        0.00      80.44       1.59       0.51       2.00       ----

> <Gold.Chemscore.Fitness>
17.8500

> <Gold.Chemscore.DG>
-20.3583

> <Gold.Chemscore.ZeroCoef>
-5.4800

> <Gold.Chemscore.Hbond>
2.8563

> <Gold.Chemscore.Metal>
0.0000

> <Gold.Chemscore.Lipo>
80.4354

> <Gold.Chemscore.Internal_Hbond>
0.0000

> <Gold.Chemscore.DEClash>
0.5126

> <Gold.Chemscore.DEInternal>
1.9957

> <Gold.Chemscore.Rot>
1.5909

> <Gold.Chemscore.Internal.Correction>
   9.000000E+99

> <Gold.Chemscore.Hbonds>
donor molecule, donor type, donor heavy atom, donor atom, acceptor molecule, acceptor atom, score
      L1  H     6    27       P1  7957  0.91
      L1  H     9    28       P1  7957  0.93
      L1  H    12    46       P1  7948  0.71

> <Gold.Chemscore.Hbond.Weighted>
-9.5401

> <Gold.Chemscore.Metal.Weighted>
-0.0000

> <Gold.Chemscore.Lipo.Weighted>
-9.4109

> <Gold.Chemscore.Internal_Hbond.Weighted>
0.0000

> <Gold.Chemscore.DEClash.Weighted>
0.5126

> <Gold.Chemscore.DEInternal.Weighted>
1.9957

> <Gold.Chemscore.Rot.Weighted>
4.0728

> <Gold.Chemscore.Internal.Correction.Weighted>
   9.000000E+99

> <Gold.Protein.RotatedTorsions>
[ 6907 6896 6895 6894 ] final  -13.58 input  -60.11 | X-H torsion
[ 7974 7965 7964 7962 ] final   29.73 input  175.53 | X-H torsion
[ 8008 7997 7996 7995 ] final   22.72 input   59.86 | X-H torsion
[ 10167 10162 10161 10158 ] final  144.34 input  -65.29 | X-H torsion
[ 10718 10713 10712 10709 ] final -158.89 input   66.30 | X-H torsion
[ 10763 10752 10751 10750 ] final  -48.22 input  -60.55 | X-H torsion
[ 11005 11000 10999 10996 ] final  -53.91 input  -57.11 | X-H torsion

> <Gold.Protein.ActiveResidues>
 VAL166  LYS551  ARG553  GLY616  TRP617  ASP618  TYR619  PRO620  LYS621  CYS622 
 ASP623  PHE694  ASN695  SER759  ASP760  ASP761  ALA762  ILE779  LEU786  VAL792 
 PHE793  MET794  SER795  GLU796  ALA797  LYS798  CYS799  TRP800  GLU811  SER814 

> <Gold.Protein.RotatedAtoms>
  151.3526  135.0887  159.9407 H   0  0  0  0  0  0  0  0  0  0  0  0  # atno 6907 bound_to 6896
  152.5183  133.9337  159.7603 H   0  0  0  0  0  0  0  0  0  0  0  0  # atno 6908 bound_to 6896
  150.9715  133.6285  159.2766 H   0  0  0  0  0  0  0  0  0  0  0  0  # atno 6909 bound_to 6896
  146.1654  139.6883  142.9004 H   0  0  0  0  0  0  0  0  0  0  0  0  # atno 7974 bound_to 7965
  154.9700  140.3089  155.4992 H   0  0  0  0  0  0  0  0  0  0  0  0  # atno 8008 bound_to 7997
  156.2967  140.2285  156.4731 H   0  0  0  0  0  0  0  0  0  0  0  0  # atno 8009 bound_to 7997
  154.7885  140.0441  157.1171 H   0  0  0  0  0  0  0  0  0  0  0  0  # atno 8010 bound_to 7997
  139.4949  144.5979  151.6544 H   0  0  0  0  0  0  0  0  0  0  0  0  # atno 10167 bound_to 10162
  156.5604  130.8644  151.2808 H   0  0  0  0  0  0  0  0  0  0  0  0  # atno 10718 bound_to 10713
  154.0743  135.6600  153.4828 H   0  0  0  0  0  0  0  0  0  0  0  0  # atno 10763 bound_to 10752
  153.0379  135.5164  154.7536 H   0  0  0  0  0  0  0  0  0  0  0  0  # atno 10764 bound_to 10752
  154.6612  135.3015  154.9832 H   0  0  0  0  0  0  0  0  0  0  0  0  # atno 10765 bound_to 10752
  141.1000  133.6619  156.4243 H   0  0  0  0  0  0  0  0  0  0  0  0  # atno 11005 bound_to 11000
  145.4481  141.0426  143.2820 LP  0  0  0  0  0  0  0  0  0  0  0  0  # atno 17320 bound_to 7965
  144.8085  139.6006  143.7040 LP  0  0  0  0  0  0  0  0  0  0  0  0  # atno 17321 bound_to 7965
  140.5621  144.0251  150.6175 LP  0  0  0  0  0  0  0  0  0  0  0  0  # atno 17342 bound_to 10162
  140.3340  143.3060  152.0657 LP  0  0  0  0  0  0  0  0  0  0  0  0  # atno 17343 bound_to 10162
  157.7369  130.9787  150.2165 LP  0  0  0  0  0  0  0  0  0  0  0  0  # atno 17370 bound_to 10713
  156.2804  130.3732  149.7941 LP  0  0  0  0  0  0  0  0  0  0  0  0  # atno 17371 bound_to 10713
  140.5046  134.6453  157.5261 LP  0  0  0  0  0  0  0  0  0  0  0  0  # atno 17394 bound_to 11000
  139.9848  134.7079  155.9794 LP  0  0  0  0  0  0  0  0  0  0  0  0  # atno 17395 bound_to 11000

$$$$
