AV-unprocessed.smi:3298|AV-procd|sdf|12645|dock3
  -GOLD-   2272018583D 1   1.00000     0.00000
 Structure written by MMmdl.
 36 37  0  0  0  0  0  0  0  0  2 V2000
  146.2595  143.1212  154.0590 C   0  0  0  0  0  0  0  0  0  0  0  0
  147.2814  142.0084  154.1584 C   0  0  0  0  0  0  0  0  0  0  0  0
  147.0172  140.6985  153.7038 C   0  0  0  0  0  0  0  0  0  0  0  0
  148.0081  139.7004  153.8352 C   0  0  0  0  0  0  0  0  0  0  0  0
  147.7055  138.4000  153.3486 N   0  0  0  0  0  0  0  0  0  0  0  0
  146.5356  137.7408  153.4085 C   0  0  0  0  0  0  0  0  0  0  0  0
  145.4891  138.1933  153.8726 O   0  0  0  0  0  0  0  0  0  0  0  0
  146.6391  136.5156  152.8748 N   0  0  0  0  0  0  0  0  0  0  0  0
  145.5472  135.5527  152.7834 C   0  0  1  0  0  0  0  0  0  0  0  0
  144.4021  136.1252  151.9943 C   0  0  0  0  0  0  0  0  0  0  0  0
  144.1010  135.3966  150.9219 C   0  0  0  0  0  0  0  0  0  0  0  0
  144.9977  134.1977  150.7560 C   0  0  2  0  0  0  0  0  0  0  0  0
  144.1974  132.8883  150.6633 C   0  0  0  0  0  0  0  0  0  0  0  0
  143.3815  132.8952  149.5112 O   0  0  0  0  0  0  0  0  0  0  0  0
  145.9343  134.2767  151.9903 C   0  0  0  0  0  0  0  0  0  0  0  0
  149.2588  140.0565  154.4002 C   0  0  0  0  0  0  0  0  0  0  0  0
  149.4668  141.3808  154.8357 C   0  0  0  0  0  0  0  0  0  0  0  0
  148.4834  142.2964  154.7040 N   0  3  0  0  0  0  0  0  0  0  0  0
  145.1863  135.2958  153.7808 H   0  0  0  0  0  0  0  0  0  0  0  0
  145.5733  134.3439  149.8408 H   0  0  0  0  0  0  0  0  0  0  0  0
  145.3781  142.7966  153.5054 H   0  0  0  0  0  0  0  0  0  0  0  0
  146.6838  143.9845  153.5457 H   0  0  0  0  0  0  0  0  0  0  0  0
  145.9414  143.4333  155.0542 H   0  0  0  0  0  0  0  0  0  0  0  0
  146.0591  140.4604  153.2645 H   0  0  0  0  0  0  0  0  0  0  0  0
  148.4515  137.9364  152.8507 H   0  0  0  0  0  0  0  0  0  0  0  0
  147.5348  136.2225  152.5132 H   0  0  0  0  0  0  0  0  0  0  0  0
  143.8887  137.0262  152.2963 H   0  0  0  0  0  0  0  0  0  0  0  0
  143.3132  135.6250  150.2193 H   0  0  0  0  0  0  0  0  0  0  0  0
  144.8628  132.0247  150.6310 H   0  0  0  0  0  0  0  0  0  0  0  0
  143.5569  132.7707  151.5382 H   0  0  0  0  0  0  0  0  0  0  0  0
  142.5629  133.3168  149.7247 H   0  0  0  0  0  0  0  0  0  0  0  0
  146.9772  134.2937  151.6710 H   0  0  0  0  0  0  0  0  0  0  0  0
  145.8218  133.3997  152.6291 H   0  0  0  0  0  0  0  0  0  0  0  0
  150.0642  139.3438  154.4953 H   0  0  0  0  0  0  0  0  0  0  0  0
  150.3875  141.7338  155.2767 H   0  0  0  0  0  0  0  0  0  0  0  0
  148.6580  143.2489  155.0260 H   0  0  0  0  0  0  0  0  0  0  0  0
  1  2  1  0  0  0  0
  1 21  1  0  0  0  0
  1 22  1  0  0  0  0
  1 23  1  0  0  0  0
  2 18  1  0  0  0  0
  2  3  2  0  0  0  0
  3  4  1  0  0  0  0
  3 24  1  0  0  0  0
  4  5  1  0  0  0  0
  4 16  2  0  0  0  0
  5  6  1  0  0  0  0
  5 25  1  0  0  0  0
  6  7  2  0  0  0  0
  6  8  1  0  0  0  0
  8  9  1  0  0  0  0
  8 26  1  0  0  0  0
  9 19  1  0  0  0  0
  9 15  1  0  0  0  0
  9 10  1  0  0  0  0
 10 11  2  0  0  0  0
 10 27  1  0  0  0  0
 11 12  1  0  0  0  0
 11 28  1  0  0  0  0
 12 20  1  0  0  0  0
 12 13  1  0  0  0  0
 12 15  1  0  0  0  0
 13 14  1  0  0  0  0
 13 29  1  0  0  0  0
 13 30  1  0  0  0  0
 14 31  1  0  0  0  0
 15 32  1  0  0  0  0
 15 33  1  0  0  0  0
 16 17  1  0  0  0  0
 16 34  1  0  0  0  0
 17 18  2  0  0  0  0
 17 35  1  0  0  0  0
 18 36  1  0  0  0  0
M  CHG  1  18   1
M  END
> <s_m_source_file>
AV-unprocessed.smi

> <i_m_source_file_index>
3298

> <i_lp_mmshare_version>
43012

> <i_f3d_flags>
0

> <s_epik_input>
W0NIM11jMVtjSF1jKFtjSF1bY0hdbjEpW05IXUMoPU8pW05IXVtDQEBIXTJbQ0hdPVtDSF1bQ0BASF0oW0NIMl0yKVtDSDJdW09IXQ==

> <s_epik_cmdline>
J2VwaWtfcHl0aG9uJywgJy1waCcsICc3LjAnLCAnLXRuJywgJzgnLCAnLW1hJywgJzIwMCcsICctbWV0YWxfYmluZGluZycsICctaW1hZScsICc8aW5maWxlLm1hZT4nLCAnLW9tYWUnLCAnPG91dGZpbGUubWFlPic=

> <r_epik_Ionization_Penalty>
0.443901

> <r_epik_Ionization_Penalty_Charging>
0.443881

> <r_epik_Ionization_Penalty_Neutral>
1.94967e-05

> <r_epik_State_Penalty>
0.446172

> <r_epik_Charging_Adjusted_Penalty>
0.890053

> <i_epik_Tot_Q>
1

> <i_epik_Tot_abs_Q>
1

> <r_epik_Metal_State_Penalty>
0.675842

> <b_epik_Metal_Only>
0

> <s_lp_Force_Field>
OPLS_2005

> <r_lp_Energy>
25.7998

> <b_lp_Chiralities_Consistent>
1

> <s_lp_Variant>
AV-unprocessed.smi:3298-6

> <Gold.Version>
5.8.1

> <Gold.Id.Protein>
6NUR|6NUR_protein|mol2

> <Gold.PLP.Fitness>
49.9852

> <Gold.PLP.PLP>
-35.8628

> <Gold.PLP.part.hbond>
-4.0484

> <Gold.PLP.part.metal>
0.0000

> <Gold.PLP.part.buried>
-5.6443

> <Gold.PLP.part.nonpolar>
-26.9160

> <Gold.PLP.part.repulsive>
0.4153

> <Gold.PLP.ligand.clash>
0.0000

> <Gold.PLP.ligand.torsion>
0.2905

> <Gold.PLP.Chemscore.Hbond>
4.8960

> <Gold.PLP.Chemscore.CHOScore>
0.0000

> <Gold.PLP.Chemscore.Metal>
0.0000

> <Gold.Chemscore.Hbonds>
donor molecule, donor type, donor heavy atom, donor atom, acceptor molecule, acceptor atom, score
      L1  H     5    25       P1  7948  0.90
      L1  H     8    26       P1  7948  1.00
      L1  H    14    31       P1 10186  1.00
      L1  H    18    36       P1  8028  2.00

> <Gold.PLP.Chemscore.Internal.Correction>
0.0154

> <Gold.Rescore>
     Score         DG    S(hbond)    S(metal)    S(lipo)     H(rot)  DE(clash)    DE(int)     intcor
     20.09     -22.45       3.93        0.00      72.29       1.81       0.01       2.35       ----

> <Gold.Chemscore.Fitness>
20.0895

> <Gold.Chemscore.DG>
-22.4463

> <Gold.Chemscore.ZeroCoef>
-5.4800

> <Gold.Chemscore.Hbond>
3.9319

> <Gold.Chemscore.Metal>
0.0000

> <Gold.Chemscore.Lipo>
72.2855

> <Gold.Chemscore.Internal_Hbond>
0.0000

> <Gold.Chemscore.DEClash>
0.0077

> <Gold.Chemscore.DEInternal>
2.3490

> <Gold.Chemscore.Rot>
1.8061

> <Gold.Chemscore.Internal.Correction>
   9.000000E+99

> <Gold.Chemscore.Hbonds>
donor molecule, donor type, donor heavy atom, donor atom, acceptor molecule, acceptor atom, score
      L1  H     5    25       P1  7948  0.84
      L1  H     8    26       P1  7948  0.95
      L1  H    14    31       P1 10186  0.99
      L1  H    18    36       P1  8028  0.98

> <Gold.Chemscore.Hbond.Weighted>
-13.1325

> <Gold.Chemscore.Metal.Weighted>
-0.0000

> <Gold.Chemscore.Lipo.Weighted>
-8.4574

> <Gold.Chemscore.Internal_Hbond.Weighted>
0.0000

> <Gold.Chemscore.DEClash.Weighted>
0.0077

> <Gold.Chemscore.DEInternal.Weighted>
2.3490

> <Gold.Chemscore.Rot.Weighted>
4.6237

> <Gold.Chemscore.Internal.Correction.Weighted>
   9.000000E+99

> <Gold.Protein.RotatedTorsions>
[ 6907 6896 6895 6894 ] final -136.06 input  -60.11 | X-H torsion
[ 7974 7965 7964 7962 ] final  -39.96 input  175.53 | X-H torsion
[ 8008 7997 7996 7995 ] final  146.76 input   59.86 | X-H torsion
[ 10167 10162 10161 10158 ] final  165.14 input  -65.29 | X-H torsion
[ 10718 10713 10712 10709 ] final  109.69 input   66.30 | X-H torsion
[ 10763 10752 10751 10750 ] final   58.76 input  -60.55 | X-H torsion
[ 11005 11000 10999 10996 ] final   14.39 input  -57.11 | X-H torsion

> <Gold.Protein.ActiveResidues>
 VAL166  LYS551  ARG553  GLY616  TRP617  ASP618  TYR619  PRO620  LYS621  CYS622 
 ASP623  PHE694  ASN695  SER759  ASP760  ASP761  ALA762  ILE779  LEU786  VAL792 
 PHE793  MET794  SER795  GLU796  ALA797  LYS798  CYS799  TRP800  GLU811  SER814 

> <Gold.Protein.RotatedAtoms>
  151.0054  133.6016  159.2689 H   0  0  0  0  0  0  0  0  0  0  0  0  # atno 6907 bound_to 6896
  151.3187  135.0812  159.9308 H   0  0  0  0  0  0  0  0  0  0  0  0  # atno 6908 bound_to 6896
  152.5285  133.9705  159.7814 H   0  0  0  0  0  0  0  0  0  0  0  0  # atno 6909 bound_to 6896
  146.0348  140.6685  142.9115 H   0  0  0  0  0  0  0  0  0  0  0  0  # atno 7974 bound_to 7965
  156.2845  140.2173  156.5429 H   0  0  0  0  0  0  0  0  0  0  0  0  # atno 8008 bound_to 7997
  154.7355  140.0492  157.0787 H   0  0  0  0  0  0  0  0  0  0  0  0  # atno 8009 bound_to 7997
  155.0298  140.3133  155.4765 H   0  0  0  0  0  0  0  0  0  0  0  0  # atno 8010 bound_to 7997
  139.4901  144.4162  151.9240 H   0  0  0  0  0  0  0  0  0  0  0  0  # atno 10167 bound_to 10162
  157.6530  131.0918  150.6491 H   0  0  0  0  0  0  0  0  0  0  0  0  # atno 10718 bound_to 10713
  152.9878  135.5595  154.5605 H   0  0  0  0  0  0  0  0  0  0  0  0  # atno 10763 bound_to 10752
  154.5025  135.2798  155.1411 H   0  0  0  0  0  0  0  0  0  0  0  0  # atno 10764 bound_to 10752
  154.2836  135.6340  153.5410 H   0  0  0  0  0  0  0  0  0  0  0  0  # atno 10765 bound_to 10752
  140.4701  134.1040  155.7731 H   0  0  0  0  0  0  0  0  0  0  0  0  # atno 11005 bound_to 11000
  144.7047  140.3801  143.7128 LP  0  0  0  0  0  0  0  0  0  0  0  0  # atno 17320 bound_to 7965
  145.6982  139.1655  143.2608 LP  0  0  0  0  0  0  0  0  0  0  0  0  # atno 17321 bound_to 7965
  140.3605  144.2978  150.5934 LP  0  0  0  0  0  0  0  0  0  0  0  0  # atno 17342 bound_to 10162
  140.5407  143.2224  151.8090 LP  0  0  0  0  0  0  0  0  0  0  0  0  # atno 17343 bound_to 10162
  156.6800  130.4564  149.5631 LP  0  0  0  0  0  0  0  0  0  0  0  0  # atno 17370 bound_to 10713
  156.1936  130.6575  151.1089 LP  0  0  0  0  0  0  0  0  0  0  0  0  # atno 17371 bound_to 10713
  141.1581  133.8845  157.1923 LP  0  0  0  0  0  0  0  0  0  0  0  0  # atno 17394 bound_to 11000
  139.9891  135.0071  156.9932 LP  0  0  0  0  0  0  0  0  0  0  0  0  # atno 17395 bound_to 11000

$$$$
