AV-unprocessed.smi:3263|AV-procd|sdf|12493|dock2
  -GOLD-   2272018393D 1   1.00000     0.00000
 Structure written by MMmdl.
 42 44  0  0  0  0  0  0  0  0  2 V2000
  144.3719  136.1035  151.7230 O   0  0  0  0  0  0  0  0  0  0  0  0
  145.5866  135.9687  151.5731 C   0  0  0  0  0  0  0  0  0  0  0  0
  146.1478  134.7234  150.8789 C   0  0  0  0  0  0  0  0  0  0  0  0
  145.4780  133.4160  151.3587 C   0  0  1  0  0  0  0  0  0  0  0  0
  143.9413  133.3654  151.2011 C   0  0  0  0  0  0  0  0  0  0  0  0
  143.7137  132.0145  150.4967 C   0  0  1  0  0  0  0  0  0  0  0  0
  144.1414  132.1378  149.0231 C   0  0  0  0  0  0  0  0  0  0  0  0
  145.6772  132.1841  149.1205 C   0  0  0  0  0  0  0  0  0  0  0  0
  145.9277  132.1210  150.6417 C   0  0  2  0  0  0  0  0  0  0  0  0
  144.8307  131.1537  151.0773 C   0  0  0  0  0  0  0  0  0  0  0  0
  146.4822  136.8768  151.9906 N   0  0  0  0  0  0  0  0  0  0  0  0
  146.1487  138.1338  152.6494 C   0  0  0  0  0  0  0  0  0  0  0  0
  146.9044  139.3175  152.0218 C   0  0  0  0  0  0  0  0  0  0  0  0
  148.0883  139.7532  152.8624 C   0  0  0  0  0  0  0  0  0  0  0  0
  148.1796  141.0455  153.4234 C   0  0  0  0  0  0  0  0  0  0  0  0
  149.3132  141.3842  154.1915 C   0  0  0  0  0  0  0  0  0  0  0  0
  150.3306  140.4259  154.3810 C   0  0  0  0  0  0  0  0  0  0  0  0
  150.1885  139.1510  153.7964 C   0  0  0  0  0  0  0  0  0  0  0  0
  149.0874  138.8642  153.0675 N   0  3  0  0  0  0  0  0  0  0  0  0
  146.0356  134.8387  149.8006 H   0  0  0  0  0  0  0  0  0  0  0  0
  147.2192  134.6797  151.0774 H   0  0  0  0  0  0  0  0  0  0  0  0
  145.7132  133.2857  152.4169 H   0  0  0  0  0  0  0  0  0  0  0  0
  143.4572  133.3855  152.1784 H   0  0  0  0  0  0  0  0  0  0  0  0
  143.5430  134.1970  150.6180 H   0  0  0  0  0  0  0  0  0  0  0  0
  142.7072  131.6166  150.6275 H   0  0  0  0  0  0  0  0  0  0  0  0
  143.8207  131.2676  148.4490 H   0  0  0  0  0  0  0  0  0  0  0  0
  143.7275  133.0255  148.5437 H   0  0  0  0  0  0  0  0  0  0  0  0
  146.1097  131.3107  148.6305 H   0  0  0  0  0  0  0  0  0  0  0  0
  146.1065  133.0635  148.6429 H   0  0  0  0  0  0  0  0  0  0  0  0
  146.9389  131.8080  150.9039 H   0  0  0  0  0  0  0  0  0  0  0  0
  144.7626  131.0288  152.1596 H   0  0  0  0  0  0  0  0  0  0  0  0
  144.9068  130.1705  150.6092 H   0  0  0  0  0  0  0  0  0  0  0  0
  147.4616  136.6869  151.8324 H   0  0  0  0  0  0  0  0  0  0  0  0
  145.0708  138.2986  152.6069 H   0  0  0  0  0  0  0  0  0  0  0  0
  146.4077  138.0450  153.7049 H   0  0  0  0  0  0  0  0  0  0  0  0
  147.2515  139.0506  151.0225 H   0  0  0  0  0  0  0  0  0  0  0  0
  146.2367  140.1711  151.8956 H   0  0  0  0  0  0  0  0  0  0  0  0
  147.3933  141.7698  153.2674 H   0  0  0  0  0  0  0  0  0  0  0  0
  149.4021  142.3677  154.6295 H   0  0  0  0  0  0  0  0  0  0  0  0
  151.2066  140.6659  154.9658 H   0  0  0  0  0  0  0  0  0  0  0  0
  150.9164  138.3582  153.8884 H   0  0  0  0  0  0  0  0  0  0  0  0
  149.0050  137.9353  152.6529 H   0  0  0  0  0  0  0  0  0  0  0  0
  1  2  2  0  0  0  0
  2  3  1  0  0  0  0
  2 11  1  0  0  0  0
  3  4  1  0  0  0  0
  3 20  1  0  0  0  0
  3 21  1  0  0  0  0
  4  9  1  0  0  0  0
  4  5  1  0  0  0  0
  4 22  1  0  0  0  0
  5  6  1  0  0  0  0
  5 23  1  0  0  0  0
  5 24  1  0  0  0  0
  6 10  1  0  0  0  0
  6  7  1  0  0  0  0
  6 25  1  0  0  0  0
  7  8  1  0  0  0  0
  7 26  1  0  0  0  0
  7 27  1  0  0  0  0
  8  9  1  0  0  0  0
  8 28  1  0  0  0  0
  8 29  1  0  0  0  0
  9 10  1  0  0  0  0
  9 30  1  0  0  0  0
 10 31  1  0  0  0  0
 10 32  1  0  0  0  0
 11 12  1  0  0  0  0
 11 33  1  0  0  0  0
 12 13  1  0  0  0  0
 12 34  1  0  0  0  0
 12 35  1  0  0  0  0
 13 14  1  0  0  0  0
 13 36  1  0  0  0  0
 13 37  1  0  0  0  0
 14 19  1  0  0  0  0
 14 15  2  0  0  0  0
 15 16  1  0  0  0  0
 15 38  1  0  0  0  0
 16 17  2  0  0  0  0
 16 39  1  0  0  0  0
 17 18  1  0  0  0  0
 17 40  1  0  0  0  0
 18 19  2  0  0  0  0
 18 41  1  0  0  0  0
 19 42  1  0  0  0  0
M  CHG  1  19   1
M  END
> <s_m_source_file>
AV-unprocessed.smi

> <i_m_source_file_index>
3263

> <i_lp_mmshare_version>
43012

> <i_f3d_flags>
0

> <s_epik_input>
W0NIMl0xW0NIMl1bQ0BASF0oW0NIMl0yKVtDQEBIXShbQ0gyXVtDQEhdMTIpW0NIMl1DKD1PKVtOSF1bQ0gyXVtDSDJdYzNbY0hdW2NIXVtjSF1bY0hdbjM=

> <s_epik_cmdline>
J2VwaWtfcHl0aG9uJywgJy1waCcsICc3LjAnLCAnLXRuJywgJzgnLCAnLW1hJywgJzIwMCcsICctbWV0YWxfYmluZGluZycsICctaW1hZScsICc8aW5maWxlLm1hZT4nLCAnLW9tYWUnLCAnPG91dGZpbGUubWFlPic=

> <r_epik_Ionization_Penalty>
1.83579

> <r_epik_Ionization_Penalty_Charging>
1.83579

> <r_epik_Ionization_Penalty_Neutral>
2.47288e-08

> <r_epik_State_Penalty>
1.95213

> <r_epik_Charging_Adjusted_Penalty>
3.78793

> <i_epik_Tot_Q>
1

> <i_epik_Tot_abs_Q>
1

> <r_epik_Metal_State_Penalty>
1.97847

> <b_epik_Metal_Only>
0

> <s_lp_Force_Field>
OPLS_2005

> <r_lp_Energy>
51.7701

> <b_lp_Chiralities_Consistent>
1

> <s_lp_Variant>
AV-unprocessed.smi:3263-8

> <Gold.Version>
5.8.1

> <Gold.Id.Protein>
6NUR|6NUR_protein|mol2

> <Gold.PLP.Fitness>
50.6325

> <Gold.PLP.PLP>
-42.7342

> <Gold.PLP.part.hbond>
-3.0000

> <Gold.PLP.part.metal>
0.0000

> <Gold.PLP.part.buried>
0.8885

> <Gold.PLP.part.nonpolar>
-41.2233

> <Gold.PLP.part.repulsive>
0.2927

> <Gold.PLP.ligand.clash>
0.0000

> <Gold.PLP.ligand.torsion>
0.5754

> <Gold.PLP.Chemscore.Hbond>
3.0000

> <Gold.PLP.Chemscore.CHOScore>
0.0000

> <Gold.PLP.Chemscore.Metal>
0.0000

> <Gold.Chemscore.Hbonds>
donor molecule, donor type, donor heavy atom, donor atom, acceptor molecule, acceptor atom, score
      L1  H    11    33       P1  7948  1.00
      L1  H    19    42       P1  7948  2.00

> <Gold.PLP.Chemscore.Internal.Correction>
0.0492

> <Gold.Rescore>
     Score         DG    S(hbond)    S(metal)    S(lipo)     H(rot)  DE(clash)    DE(int)     intcor
     19.03     -22.80       1.98        0.00     125.63       1.56       1.82       1.95       ----

> <Gold.Chemscore.Fitness>
19.0328

> <Gold.Chemscore.DG>
-22.7973

> <Gold.Chemscore.ZeroCoef>
-5.4800

> <Gold.Chemscore.Hbond>
1.9828

> <Gold.Chemscore.Metal>
0.0000

> <Gold.Chemscore.Lipo>
125.6274

> <Gold.Chemscore.Internal_Hbond>
0.0000

> <Gold.Chemscore.DEClash>
1.8183

> <Gold.Chemscore.DEInternal>
1.9462

> <Gold.Chemscore.Rot>
1.5640

> <Gold.Chemscore.Internal.Correction>
   9.000000E+99

> <Gold.Chemscore.Hbonds>
donor molecule, donor type, donor heavy atom, donor atom, acceptor molecule, acceptor atom, score
      L1  H    11    33       P1  7948  0.93
      L1  H    19    42       P1  7948  0.99

> <Gold.Chemscore.Hbond.Weighted>
-6.6226

> <Gold.Chemscore.Metal.Weighted>
-0.0000

> <Gold.Chemscore.Lipo.Weighted>
-14.6984

> <Gold.Chemscore.Internal_Hbond.Weighted>
0.0000

> <Gold.Chemscore.DEClash.Weighted>
1.8183

> <Gold.Chemscore.DEInternal.Weighted>
1.9462

> <Gold.Chemscore.Rot.Weighted>
4.0038

> <Gold.Chemscore.Internal.Correction.Weighted>
   9.000000E+99

> <Gold.Protein.RotatedTorsions>
[ 6907 6896 6895 6894 ] final   69.54 input  -60.11 | X-H torsion
[ 7974 7965 7964 7962 ] final    9.12 input  175.53 | X-H torsion
[ 8008 7997 7996 7995 ] final    0.50 input   59.86 | X-H torsion
[ 10167 10162 10161 10158 ] final  -91.34 input  -65.29 | X-H torsion
[ 10718 10713 10712 10709 ] final   94.55 input   66.30 | X-H torsion
[ 10763 10752 10751 10750 ] final  -73.04 input  -60.55 | X-H torsion
[ 11005 11000 10999 10996 ] final  -11.84 input  -57.11 | X-H torsion

> <Gold.Protein.ActiveResidues>
 VAL166  LYS551  ARG553  GLY616  TRP617  ASP618  TYR619  PRO620  LYS621  CYS622 
 ASP623  PHE694  ASN695  SER759  ASP760  ASP761  ALA762  ILE779  LEU786  VAL792 
 PHE793  MET794  SER795  GLU796  ALA797  LYS798  CYS799  TRP800  GLU811  SER814 

> <Gold.Protein.RotatedAtoms>
  152.4693  134.5000  159.9721 H   0  0  0  0  0  0  0  0  0  0  0  0  # atno 6907 bound_to 6896
  151.5031  133.3494  159.2880 H   0  0  0  0  0  0  0  0  0  0  0  0  # atno 6908 bound_to 6896
  150.8693  134.8092  159.7204 H   0  0  0  0  0  0  0  0  0  0  0  0  # atno 6909 bound_to 6896
  146.2407  139.9831  142.8434 H   0  0  0  0  0  0  0  0  0  0  0  0  # atno 7974 bound_to 7965
  154.6688  140.2607  155.7029 H   0  0  0  0  0  0  0  0  0  0  0  0  # atno 8008 bound_to 7997
  156.2650  140.2833  156.1111 H   0  0  0  0  0  0  0  0  0  0  0  0  # atno 8009 bound_to 7997
  155.1199  140.0377  157.2737 H   0  0  0  0  0  0  0  0  0  0  0  0  # atno 8010 bound_to 7997
  140.3458  143.2917  151.9783 H   0  0  0  0  0  0  0  0  0  0  0  0  # atno 10167 bound_to 10162
  157.6947  131.0516  150.4203 H   0  0  0  0  0  0  0  0  0  0  0  0  # atno 10718 bound_to 10713
  154.4541  135.5910  153.6211 H   0  0  0  0  0  0  0  0  0  0  0  0  # atno 10763 bound_to 10752
  152.9816  135.6028  154.3568 H   0  0  0  0  0  0  0  0  0  0  0  0  # atno 10764 bound_to 10752
  154.3433  135.2841  155.2390 H   0  0  0  0  0  0  0  0  0  0  0  0  # atno 10765 bound_to 10752
  140.7595  133.8527  155.9112 H   0  0  0  0  0  0  0  0  0  0  0  0  # atno 11005 bound_to 11000
  145.1573  140.9654  143.4398 LP  0  0  0  0  0  0  0  0  0  0  0  0  # atno 17320 bound_to 7965
  145.0149  139.3476  143.6101 LP  0  0  0  0  0  0  0  0  0  0  0  0  # atno 17321 bound_to 7965
  139.4833  144.6118  151.7419 LP  0  0  0  0  0  0  0  0  0  0  0  0  # atno 17342 bound_to 10162
  140.5266  144.0796  150.6039 LP  0  0  0  0  0  0  0  0  0  0  0  0  # atno 17343 bound_to 10162
  156.4579  130.4025  149.6595 LP  0  0  0  0  0  0  0  0  0  0  0  0  # atno 17370 bound_to 10713
  156.3721  130.7535  151.2520 LP  0  0  0  0  0  0  0  0  0  0  0  0  # atno 17371 bound_to 10713
  140.9677  134.1573  157.4602 LP  0  0  0  0  0  0  0  0  0  0  0  0  # atno 17394 bound_to 11000
  139.8773  134.9967  156.5810 LP  0  0  0  0  0  0  0  0  0  0  0  0  # atno 17395 bound_to 11000

$$$$
