#       Name:                AV-unprocessed.smi:313
#       Creating user name   scv26
#       Creation time:       Thu Mar 26 22:21:25 2020


#       File generated by GOLD software.
#

@<TRIPOS>MOLECULE
AV-unprocessed.smi:313
    58    59     1
SMALL
NO_CHARGES


@<TRIPOS>ATOM
      1 ****        -3.6401   3.8155   5.0466 C.3            1 S1                 0.0000
      2 ****        -4.2084   3.9293   3.6246 C.3            1 S1                 0.0000
      3 ****        -3.8177   2.7570   2.7050 C.3            1 S1                 0.0000
      4 ****        -4.4928   2.8695   1.3288 C.3            1 S1                 0.0000
      5 ****        -2.3662   2.7027   2.5475 N.am           1 S1                 0.0000
      6 ****        -1.6476   1.5952   2.3072 C.2            1 S1                 0.0000
      7 ****        -2.1487   0.4755   2.1904 O.2            1 S1                 0.0000
      8 ****        -0.1262   1.7893   2.2021 C.3            1 S1                 0.0000
      9 ****         0.4919   1.4467   3.5678 C.3            1 S1                 0.0000
     10 ****         0.4478   0.8851   1.2069 N.am           1 S1                 0.0000
     11 ****         0.4524   1.0935  -0.1206 C.2            1 S1                 0.0000
     12 ****        -0.0478   2.0834  -0.6552 O.2            1 S1                 0.0000
     13 ****         1.0566  -0.0052  -0.9459 C.ar           1 S1                 0.0000
     14 ****         2.1297  -0.7886  -0.4698 C.ar           1 S1                 0.0000
     15 ****         2.6699  -1.7914  -1.2975 C.ar           1 S1                 0.0000
     16 ****         2.1277  -1.9889  -2.5931 C.ar           1 S1                 0.0000
     17 ****         2.6262  -2.9746  -3.4768 N.3            1 S1                 0.0000
     18 ****         1.6328  -3.7416  -4.2294 C.3            1 S1                 0.0000
     19 ****         2.3001  -4.5201  -5.3757 C.3            1 S1                 0.0000
     20 ****         3.3555  -5.3240  -4.8621 O.3            1 S1                 0.0000
     21 ****         4.3735  -4.5300  -4.2647 C.3            1 S1                 0.0000
     22 ****         3.7948  -3.7523  -3.0708 C.3            1 S1                 0.0000
     23 ****         1.1059  -1.2241  -3.0486 N.ar           1 S1                 0.0000
     24 ****         0.5923  -0.2626  -2.2526 C.ar           1 S1                 0.0000
     25 ****        -3.9830   4.6440   5.6665 H              1 S1                 0.0000
     26 ****        -2.5501   3.8343   5.0472 H              1 S1                 0.0000
     27 ****        -3.9600   2.8892   5.5245 H              1 S1                 0.0000
     28 ****        -5.2956   3.9859   3.6898 H              1 S1                 0.0000
     29 ****        -3.8834   4.8715   3.1813 H              1 S1                 0.0000
     30 ****        -4.1599   1.8346   3.1780 H              1 S1                 0.0000
     31 ****        -5.5783   2.8948   1.4263 H              1 S1                 0.0000
     32 ****        -4.2417   2.0195   0.6935 H              1 S1                 0.0000
     33 ****        -4.1845   3.7767   0.8079 H              1 S1                 0.0000
     34 ****        -1.8688   3.5773   2.6321 H              1 S1                 0.0000
     35 ****         0.1059   2.8242   1.9428 H              1 S1                 0.0000
     36 ****         0.1032   2.0963   4.3533 H              1 S1                 0.0000
     37 ****         1.5744   1.5758   3.5479 H              1 S1                 0.0000
     38 ****         0.2892   0.4147   3.8588 H              1 S1                 0.0000
     39 ****         0.8512   0.0269   1.5531 H              1 S1                 0.0000
     40 ****         2.5435  -0.6315   0.5157 H              1 S1                 0.0000
     41 ****         3.4826  -2.3894  -0.9150 H              1 S1                 0.0000
     42 ****         1.1339  -4.4321  -3.5484 H              1 S1                 0.0000
     43 ****         0.8620  -3.0979  -4.6528 H              1 S1                 0.0000
     44 ****         1.5699  -5.1644  -5.8653 H              1 S1                 0.0000
     45 ****         2.6827  -3.8382  -6.1370 H              1 S1                 0.0000
     46 ****         5.1825  -5.1803  -3.9317 H              1 S1                 0.0000
     47 ****         4.7982  -3.8480  -5.0037 H              1 S1                 0.0000
     48 ****         4.5710  -3.0944  -2.6789 H              1 S1                 0.0000
     49 ****         3.5101  -4.4416  -2.2747 H              1 S1                 0.0000
     50 ****        -0.2187   0.3113  -2.6770 H              1 S1                 0.0000
     51 ****        -3.1383   0.3594   2.2747 LP             1 S1                 0.0000
     52 ****        -1.5657  -0.3170   2.0114 LP             1 S1                 0.0000
     53 ****        -0.4875   2.7856  -0.0951 LP             1 S1                 0.0000
     54 ****        -0.0143   2.1853  -1.6494 LP             1 S1                 0.0000
     55 ****         3.0271  -2.3521  -4.1490 LP             1 S1                 0.0000
     56 ****         3.7542  -5.8537  -5.6107 LP             1 S1                 0.0000
     57 ****         2.9838  -5.9471  -4.1739 LP             1 S1                 0.0000
     58 ****         0.7359  -1.3707  -3.9659 LP             1 S1                 0.0000
@<TRIPOS>BOND
    1    1    2 1     
    2    1   25 1     
    3    1   26 1     
    4    1   27 1     
    5    2    3 1     
    6    2   28 1     
    7    2   29 1     
    8    3    4 1     
    9    3    5 1     
   10    3   30 1     
   11    4   31 1     
   12    4   32 1     
   13    4   33 1     
   14    5    6 am    
   15    5   34 1     
   16    6    7 2     
   17    6    8 1     
   18    8    9 1     
   19    8   10 1     
   20    8   35 1     
   21    9   36 1     
   22    9   37 1     
   23    9   38 1     
   24   10   11 am    
   25   10   39 1     
   26   11   12 2     
   27   11   13 1     
   28   13   24 ar    
   29   13   14 ar    
   30   14   15 ar    
   31   14   40 1     
   32   15   16 ar    
   33   15   41 1     
   34   16   17 1     
   35   16   23 ar    
   36   17   22 1     
   37   17   18 1     
   38   18   19 1     
   39   18   42 1     
   40   18   43 1     
   41   19   20 1     
   42   19   44 1     
   43   19   45 1     
   44   20   21 1     
   45   21   22 1     
   46   21   46 1     
   47   21   47 1     
   48   22   48 1     
   49   22   49 1     
   50   23   24 ar    
   51   24   50 1     
   52    7   51 1     
   53    7   52 1     
   54   12   53 1     
   55   12   54 1     
   56   17   55 1     
   57   20   56 1     
   58   20   57 1     
   59   23   58 1     
@<TRIPOS>SUBSTRUCTURE
      1 S1             1
@<TRIPOS>SET
LONE_PAIRS      STATIC     ATOMS    <user>   **** ""
8 51 52 53 54 55 56 57 58
DONOR_HYDROGENS      STATIC     ATOMS    <user>   **** ""
2 34 39
ATOM$BLUE        STATIC     ATOMS    COLORGROUP SYSTEM
8 51 52 53 54 55 56 57 58
ATOM$RED        STATIC     ATOMS    COLORGROUP SYSTEM
2 34 39
