AV-unprocessed.smi:1701|AV-procd|sdf|6823|dock1
  -GOLD-   22720 8 03D 1   1.00000     0.00000
 Structure written by MMmdl.
 55 57  0  0  0  0  0  0  0  0  3 V2000
  152.7804  141.3739  159.2811 C   0  0  0  0  0  0  0  0  0  0  0  0
  151.5039  140.7188  158.7309 C   0  0  0  0  0  0  0  0  0  0  0  0
  151.2409  141.0688  157.3352 N   0  0  0  0  0  0  0  0  0  0  0  0
  151.0013  142.4830  157.0385 C   0  0  0  0  0  0  0  0  0  0  0  0
  150.6924  143.3176  158.2919 C   0  0  0  0  0  0  0  0  0  0  0  0
  150.5331  140.0913  156.5995 C   0  0  0  0  0  0  0  0  0  0  0  0
  150.6115  140.0071  155.1896 C   0  0  0  0  0  0  0  0  0  0  0  0
  149.9007  138.9998  154.5064 C   0  0  0  0  0  0  0  0  0  0  0  0
  149.1184  138.0755  155.2300 C   0  0  0  0  0  0  0  0  0  0  0  0
  148.4227  137.0832  154.4853 N   0  0  0  0  0  0  0  0  0  0  0  0
  147.5773  136.1255  154.9170 C   0  0  0  0  0  0  0  0  0  0  0  0
  147.2477  135.9531  156.0875 O   0  0  0  0  0  0  0  0  0  0  0  0
  147.0998  135.3328  153.9410 N   0  0  0  0  0  0  0  0  0  0  0  0
  146.1713  134.2082  154.0633 C   0  0  2  0  0  0  0  0  0  0  0  0
  146.7931  132.9433  154.6884 C   0  0  0  0  0  0  0  0  0  0  0  0
  146.1975  131.7601  153.8990 C   0  0  0  0  0  0  0  0  0  0  0  0
  145.2132  132.3617  152.9796 N   0  3  2  0  0  0  0  0  0  0  0  0
  144.8778  131.6007  151.7564 C   0  0  0  0  0  0  0  0  0  0  0  0
  143.7838  132.3547  150.9733 C   0  0  0  0  0  0  0  0  0  0  0  0
  144.1826  133.8191  150.6976 C   0  0  0  0  0  0  0  0  0  0  0  0
  144.6106  134.5330  151.9945 C   0  0  0  0  0  0  0  0  0  0  0  0
  145.7103  133.7156  152.6916 C   0  0  1  0  0  0  0  0  0  0  0  0
  149.0661  138.2060  156.6391 C   0  0  0  0  0  0  0  0  0  0  0  0
  149.7625  139.1871  157.2523 N   0  3  0  0  0  0  0  0  0  0  0  0
  152.9524  141.0714  160.3142 H   0  0  0  0  0  0  0  0  0  0  0  0
  152.7098  142.4620  159.2646 H   0  0  0  0  0  0  0  0  0  0  0  0
  153.6586  141.0859  158.7025 H   0  0  0  0  0  0  0  0  0  0  0  0
  151.5988  139.6349  158.8021 H   0  0  0  0  0  0  0  0  0  0  0  0
  150.6544  140.9761  159.3623 H   0  0  0  0  0  0  0  0  0  0  0  0
  151.8580  142.9011  156.5084 H   0  0  0  0  0  0  0  0  0  0  0  0
  150.1573  142.5627  156.3524 H   0  0  0  0  0  0  0  0  0  0  0  0
  150.4877  144.3535  158.0208 H   0  0  0  0  0  0  0  0  0  0  0  0
  151.5202  143.3243  159.0004 H   0  0  0  0  0  0  0  0  0  0  0  0
  149.8131  142.9332  158.8096 H   0  0  0  0  0  0  0  0  0  0  0  0
  151.2007  140.7118  154.6217 H   0  0  0  0  0  0  0  0  0  0  0  0
  149.9609  138.9407  153.4293 H   0  0  0  0  0  0  0  0  0  0  0  0
  148.6155  137.0786  153.4947 H   0  0  0  0  0  0  0  0  0  0  0  0
  147.4124  135.5438  153.0038 H   0  0  0  0  0  0  0  0  0  0  0  0
  145.2926  134.5041  154.6402 H   0  0  0  0  0  0  0  0  0  0  0  0
  147.8796  132.9423  154.5896 H   0  0  0  0  0  0  0  0  0  0  0  0
  146.5613  132.8776  155.7520 H   0  0  0  0  0  0  0  0  0  0  0  0
  146.9824  131.2581  153.3311 H   0  0  0  0  0  0  0  0  0  0  0  0
  145.7233  131.0223  154.5467 H   0  0  0  0  0  0  0  0  0  0  0  0
  145.7694  131.4728  151.1407 H   0  0  0  0  0  0  0  0  0  0  0  0
  144.5273  130.6046  152.0287 H   0  0  0  0  0  0  0  0  0  0  0  0
  143.5745  131.8406  150.0348 H   0  0  0  0  0  0  0  0  0  0  0  0
  142.8553  132.3381  151.5456 H   0  0  0  0  0  0  0  0  0  0  0  0
  145.0063  133.8411  149.9829 H   0  0  0  0  0  0  0  0  0  0  0  0
  143.3542  134.3524  150.2303 H   0  0  0  0  0  0  0  0  0  0  0  0
  144.9705  135.5373  151.7683 H   0  0  0  0  0  0  0  0  0  0  0  0
  143.7501  134.6483  152.6550 H   0  0  0  0  0  0  0  0  0  0  0  0
  146.5761  133.6329  152.0297 H   0  0  0  0  0  0  0  0  0  0  0  0
  148.4992  137.5777  157.3085 H   0  0  0  0  0  0  0  0  0  0  0  0
  144.3588  132.4761  153.5061 H   0  0  0  0  0  0  0  0  0  0  0  0
  149.7058  139.2491  158.2692 H   0  0  0  0  0  0  0  0  0  0  0  0
  1  2  1  0  0  0  0
  1 25  1  0  0  0  0
  1 26  1  0  0  0  0
  1 27  1  0  0  0  0
  2  3  1  0  0  0  0
  2 28  1  0  0  0  0
  2 29  1  0  0  0  0
  3  4  1  0  0  0  0
  3  6  1  0  0  0  0
  4  5  1  0  0  0  0
  4 30  1  0  0  0  0
  4 31  1  0  0  0  0
  5 32  1  0  0  0  0
  5 33  1  0  0  0  0
  5 34  1  0  0  0  0
  6 24  1  0  0  0  0
  6  7  2  0  0  0  0
  7  8  1  0  0  0  0
  7 35  1  0  0  0  0
  8  9  2  0  0  0  0
  8 36  1  0  0  0  0
  9 10  1  0  0  0  0
  9 23  1  0  0  0  0
 10 11  1  0  0  0  0
 10 37  1  0  0  0  0
 11 12  2  0  0  0  0
 11 13  1  0  0  0  0
 13 14  1  0  0  0  0
 13 38  1  0  0  0  0
 14 22  1  0  0  0  0
 14 15  1  0  0  0  0
 14 39  1  0  0  0  0
 15 16  1  0  0  0  0
 15 40  1  0  0  0  0
 15 41  1  0  0  0  0
 16 17  1  0  0  0  0
 16 42  1  0  0  0  0
 16 43  1  0  0  0  0
 17 22  1  0  0  0  0
 17 18  1  0  0  0  0
 17 54  1  0  0  0  0
 18 19  1  0  0  0  0
 18 44  1  0  0  0  0
 18 45  1  0  0  0  0
 19 20  1  0  0  0  0
 19 46  1  0  0  0  0
 19 47  1  0  0  0  0
 20 21  1  0  0  0  0
 20 48  1  0  0  0  0
 20 49  1  0  0  0  0
 21 22  1  0  0  0  0
 21 50  1  0  0  0  0
 21 51  1  0  0  0  0
 22 52  1  0  0  0  0
 23 24  2  0  0  0  0
 23 53  1  0  0  0  0
 24 55  1  0  0  0  0
M  CHG  1  17   1
M  CHG  1  24   1
M  END
> <s_m_source_file>
AV-unprocessed.smi

> <i_m_source_file_index>
1701

> <i_lp_mmshare_version>
43012

> <i_f3d_flags>
0

> <s_epik_input>
W0NIM11bQ0gyXU4oW0NIMl1bQ0gzXSljMVtjSF1bY0hdYyhbY0hdbjEpW05IXUMoPU8pW05IXVtDQEhdKFtDSDJdW0NIMl0yKVtDQEBIXShOMjMpW0NIMl1bQ0gyXVtDSDJdW0NIMl0z

> <s_epik_cmdline>
J2VwaWtfcHl0aG9uJywgJy1waCcsICc3LjAnLCAnLXRuJywgJzgnLCAnLW1hJywgJzIwMCcsICctbWV0YWxfYmluZGluZycsICctaW1hZScsICc8aW5maWxlLm1hZT4nLCAnLW9tYWUnLCAnPG91dGZpbGUubWFlPic=

> <r_lp_tautomer_probability>
0.999994

> <r_epik_Ionization_Penalty>
0.302862

> <r_epik_Ionization_Penalty_Charging>
0.302842

> <r_epik_Ionization_Penalty_Neutral>
1.95166e-05

> <r_epik_State_Penalty>
0.019791

> <r_epik_Charging_Adjusted_Penalty>
0.322633

> <i_epik_Tot_Q>
2

> <i_epik_Tot_abs_Q>
2

> <r_epik_Metal_State_Penalty>
0.0536763

> <b_epik_Metal_Only>
0

> <s_lp_Force_Field>
OPLS_2005

> <r_lp_Energy>
62.5639

> <b_lp_Chiralities_Consistent>
1

> <s_lp_Variant>
AV-unprocessed.smi:1701-3

> <Gold.Version>
5.8.1

> <Gold.Id.Protein>
6NUR|6NUR_protein|mol2

> <Gold.PLP.Fitness>
40.7389

> <Gold.PLP.PLP>
-33.0329

> <Gold.PLP.part.hbond>
-2.5915

> <Gold.PLP.part.metal>
0.0000

> <Gold.PLP.part.buried>
-5.5365

> <Gold.PLP.part.nonpolar>
-26.7647

> <Gold.PLP.part.repulsive>
0.0597

> <Gold.PLP.ligand.clash>
0.0000

> <Gold.PLP.ligand.torsion>
1.1046

> <Gold.PLP.Chemscore.Hbond>
3.0005

> <Gold.PLP.Chemscore.CHOScore>
0.0000

> <Gold.PLP.Chemscore.Metal>
0.0000

> <Gold.Chemscore.Hbonds>
donor molecule, donor type, donor heavy atom, donor atom, acceptor molecule, acceptor atom, score
      L1  H    10    37       P1  7948  1.00
      L1  H    13    38       P1  7948  0.93
      L1  H    17    54       P1 10957  1.04

> <Gold.PLP.Chemscore.Internal.Correction>
0.9137

> <Gold.Rescore>
     Score         DG    S(hbond)    S(metal)    S(lipo)     H(rot)  DE(clash)    DE(int)     intcor
     16.96     -19.26       2.09        0.00      86.54       1.30       0.04       2.27       ----

> <Gold.Chemscore.Fitness>
16.9550

> <Gold.Chemscore.DG>
-19.2613

> <Gold.Chemscore.ZeroCoef>
-5.4800

> <Gold.Chemscore.Hbond>
2.0927

> <Gold.Chemscore.Metal>
0.0000

> <Gold.Chemscore.Lipo>
86.5364

> <Gold.Chemscore.Internal_Hbond>
0.0000

> <Gold.Chemscore.DEClash>
0.0361

> <Gold.Chemscore.DEInternal>
2.2702

> <Gold.Chemscore.Rot>
1.3020

> <Gold.Chemscore.Internal.Correction>
   9.000000E+99

> <Gold.Chemscore.Hbonds>
donor molecule, donor type, donor heavy atom, donor atom, acceptor molecule, acceptor atom, score
      L1  H    10    37       P1  7948  0.98
      L1  H    13    38       P1  7948  0.84
      L1  H    17    54       P1 10957  0.13

> <Gold.Chemscore.Hbond.Weighted>
-6.9895

> <Gold.Chemscore.Metal.Weighted>
-0.0000

> <Gold.Chemscore.Lipo.Weighted>
-10.1248

> <Gold.Chemscore.Internal_Hbond.Weighted>
0.0000

> <Gold.Chemscore.DEClash.Weighted>
0.0361

> <Gold.Chemscore.DEInternal.Weighted>
2.2702

> <Gold.Chemscore.Rot.Weighted>
3.3330

> <Gold.Chemscore.Internal.Correction.Weighted>
   9.000000E+99

> <Gold.Protein.RotatedTorsions>
[ 6907 6896 6895 6894 ] final  -75.72 input  -60.11 | X-H torsion
[ 7974 7965 7964 7962 ] final  149.96 input  175.53 | X-H torsion
[ 8008 7997 7996 7995 ] final -113.13 input   59.86 | X-H torsion
[ 10167 10162 10161 10158 ] final -107.57 input  -65.29 | X-H torsion
[ 10718 10713 10712 10709 ] final  -52.35 input   66.30 | X-H torsion
[ 10763 10752 10751 10750 ] final  -64.13 input  -60.55 | X-H torsion
[ 11005 11000 10999 10996 ] final  112.13 input  -57.11 | X-H torsion

> <Gold.Protein.ActiveResidues>
 VAL166  LYS551  ARG553  GLY616  TRP617  ASP618  TYR619  PRO620  LYS621  CYS622 
 ASP623  PHE694  ASN695  SER759  ASP760  ASP761  ALA762  ILE779  LEU786  VAL792 
 PHE793  MET794  SER795  GLU796  ALA797  LYS798  CYS799  TRP800  GLU811  SER814 

> <Gold.Protein.RotatedAtoms>
  150.7050  134.4679  159.5411 H   0  0  0  0  0  0  0  0  0  0  0  0  # atno 6907 bound_to 6896
  152.2341  134.8290  160.0478 H   0  0  0  0  0  0  0  0  0  0  0  0  # atno 6908 bound_to 6896
  151.9095  133.3522  159.3895 H   0  0  0  0  0  0  0  0  0  0  0  0  # atno 6909 bound_to 6896
  144.8399  139.6347  143.6021 H   0  0  0  0  0  0  0  0  0  0  0  0  # atno 7974 bound_to 7965
  155.0160  140.0393  157.2418 H   0  0  0  0  0  0  0  0  0  0  0  0  # atno 8008 bound_to 7997
  154.7419  140.2750  155.6342 H   0  0  0  0  0  0  0  0  0  0  0  0  # atno 8009 bound_to 7997
  156.2866  140.2664  156.2149 H   0  0  0  0  0  0  0  0  0  0  0  0  # atno 8010 bound_to 7997
  140.1755  143.4008  152.1322 H   0  0  0  0  0  0  0  0  0  0  0  0  # atno 10167 bound_to 10162
  156.1629  130.4149  149.9764 H   0  0  0  0  0  0  0  0  0  0  0  0  # atno 10718 bound_to 10713
  154.3255  135.6187  153.5527 H   0  0  0  0  0  0  0  0  0  0  0  0  # atno 10763 bound_to 10752
  152.9816  135.5734  154.5021 H   0  0  0  0  0  0  0  0  0  0  0  0  # atno 10764 bound_to 10752
  154.4698  135.2859  155.1628 H   0  0  0  0  0  0  0  0  0  0  0  0  # atno 10765 bound_to 10752
  139.8920  134.9523  156.6538 H   0  0  0  0  0  0  0  0  0  0  0  0  # atno 11005 bound_to 11000
  146.2693  139.6596  142.9307 LP  0  0  0  0  0  0  0  0  0  0  0  0  # atno 17320 bound_to 7965
  145.4716  141.0436  143.2696 LP  0  0  0  0  0  0  0  0  0  0  0  0  # atno 17321 bound_to 7965
  139.5319  144.7168  151.5026 LP  0  0  0  0  0  0  0  0  0  0  0  0  # atno 17342 bound_to 10162
  140.6554  143.8610  150.6830 LP  0  0  0  0  0  0  0  0  0  0  0  0  # atno 17343 bound_to 10162
  156.7588  130.9143  151.3640 LP  0  0  0  0  0  0  0  0  0  0  0  0  # atno 17370 bound_to 10713
  157.6746  130.9083  150.0121 LP  0  0  0  0  0  0  0  0  0  0  0  0  # atno 17371 bound_to 10713
  140.7499  133.8906  155.8339 LP  0  0  0  0  0  0  0  0  0  0  0  0  # atno 17394 bound_to 11000
  141.0009  134.1152  157.4318 LP  0  0  0  0  0  0  0  0  0  0  0  0  # atno 17395 bound_to 11000

$$$$
