#       Name:                AV-unprocessed.smi:49
#       Creating user name   scv26
#       Creation time:       Thu Mar 26 16:34:18 2020


#       File generated by GOLD software.
#

@<TRIPOS>MOLECULE
AV-unprocessed.smi:49
    32    33     1
SMALL
NO_CHARGES


@<TRIPOS>ATOM
      1 ****        -4.0605   1.3641  -0.8848 C.3            1 S1                 0.0000
      2 ****        -3.2984   0.1405  -1.4059 C.3            1 S1                 0.0000
      3 ****        -1.8187   0.3332  -1.3571 C.2            1 S1                 0.0000
      4 ****        -1.0691   0.0194  -0.2579 N.2            1 S1                 0.0000
      5 ****         0.1349   0.4015  -0.6752 C.2            1 S1                 0.0000
      6 ****         1.4075   0.2893   0.1061 C.3            1 S1                 0.0000
      7 ****         1.9713  -1.1385   0.1287 C.3            1 S1                 0.0000
      8 ****         2.7138  -1.1836   1.4564 C.3            1 S1                 0.0000
      9 ****         2.8975  -2.4964   1.9418 O.3            1 S1                 0.0000
     10 ****         1.8034  -0.3536   2.3562 C.3            1 S1                 0.0000
     11 ****         1.2686   0.7075   1.5064 N.3            1 S1                 0.0000
     12 ****         0.1073   0.9027  -1.9121 N.pl3          1 S1                 0.0000
     13 ****        -1.1595   0.8804  -2.3773 N.2            1 S1                 0.0000
     14 ****         2.1492   0.9358  -0.3651 H              1 S1                 0.0000
     15 ****         3.6842  -0.6949   1.3571 H              1 S1                 0.0000
     16 ****         0.8849   1.2614  -2.4474 H              1 S1                 0.0000
     17 ****        -5.1371   1.1991  -0.9302 H              1 S1                 0.0000
     18 ****        -3.8335   2.2508  -1.4773 H              1 S1                 0.0000
     19 ****        -3.7995   1.5774   0.1523 H              1 S1                 0.0000
     20 ****        -3.5624  -0.7379  -0.8159 H              1 S1                 0.0000
     21 ****        -3.5998  -0.0747  -2.4319 H              1 S1                 0.0000
     22 ****         1.1556  -1.8638   0.1464 H              1 S1                 0.0000
     23 ****         2.6011  -1.3639  -0.7323 H              1 S1                 0.0000
     24 ****         3.4320  -2.9732   1.3255 H              1 S1                 0.0000
     25 ****         0.9806  -0.9725   2.7170 H              1 S1                 0.0000
     26 ****         2.3239   0.0442   3.2277 H              1 S1                 0.0000
     27 ****         1.8239   1.5450   1.6483 H              1 S1                 0.0000
     28 ****        -1.3473  -0.3837   0.6140 LP             1 S1                 0.0000
     29 ****         2.0101  -2.9474   2.0379 LP             1 S1                 0.0000
     30 ****         3.3540  -2.4661   2.8310 LP             1 S1                 0.0000
     31 ****         0.3095   0.8845   1.7275 LP             1 S1                 0.0000
     32 ****        -1.5120   1.1935  -3.2592 LP             1 S1                 0.0000
@<TRIPOS>BOND
    1    1    2 1     
    2    1   17 1     
    3    1   18 1     
    4    1   19 1     
    5    2   20 1     
    6    2   21 1     
    7    2    3 1     
    8    3    4 1     
    9    3   13 2     
   10    4    5 2     
   11    5    6 1     
   12    5   12 1     
   13    6   14 1     
   14    6   11 1     
   15    6    7 1     
   16    7    8 1     
   17    7   22 1     
   18    7   23 1     
   19    8   15 1     
   20    8    9 1     
   21    8   10 1     
   22    9   24 1     
   23   10   11 1     
   24   10   25 1     
   25   10   26 1     
   26   11   27 1     
   27   12   13 1     
   28   12   16 1     
   29    4   28 1     
   30    9   29 1     
   31    9   30 1     
   32   11   31 1     
   33   13   32 1     
@<TRIPOS>SUBSTRUCTURE
      1 S1             1
@<TRIPOS>SET
LONE_PAIRS      STATIC     ATOMS    <user>   **** ""
5 28 29 30 31 32
DONOR_HYDROGENS      STATIC     ATOMS    <user>   **** ""
3 24 27 16
ATOM$BLUE        STATIC     ATOMS    COLORGROUP SYSTEM
5 28 29 30 31 32
ATOM$RED        STATIC     ATOMS    COLORGROUP SYSTEM
3 24 27 16
