AV-unprocessed.smi:3034|AV-procd|sdf|11579|dock4
  -GOLD-   2272016543D 1   1.00000     0.00000
 Structure written by MMmdl.
 31 31  0  0  0  0  0  0  0  0  2 V2000
  152.5534  143.9612  159.8866 C   0  0  0  0  0  0  0  0  0  0  0  0
  152.7441  142.4497  160.0512 C   0  0  0  0  0  0  0  0  0  0  0  0
  151.7523  141.6446  159.2029 C   0  0  0  0  0  0  0  0  0  0  0  0
  152.4695  140.0199  158.6858 S   0  0  0  0  0  0  0  0  0  0  0  0
  153.8124  139.9525  159.2867 O   0  0  0  0  0  0  0  0  0  0  0  0
  151.4997  139.0120  159.1403 O   0  0  0  0  0  0  0  0  0  0  0  0
  152.4790  140.1325  157.0626 N   0  5  0  0  0  0  0  0  0  0  0  0
  151.3893  140.7768  156.3369 C   0  0  0  0  0  0  0  0  0  0  0  0
  150.6440  139.7520  155.4414 C   0  0  2  0  0  0  0  0  0  0  0  0
  151.5472  139.2914  154.4540 O   0  0  0  0  0  0  0  0  0  0  0  0
  149.3385  140.2681  154.8260 C   0  0  0  0  0  0  0  0  0  0  0  0
  148.5429  139.4145  154.0270 C   0  0  0  0  0  0  0  0  0  0  0  0
  147.3433  139.9147  153.4861 C   0  0  0  0  0  0  0  0  0  0  0  0
  146.9837  141.2494  153.7515 C   0  0  0  0  0  0  0  0  0  0  0  0
  147.8465  142.0292  154.5459 C   0  0  0  0  0  0  0  0  0  0  0  0
  148.9992  141.5600  155.0686 N   0  0  0  0  0  0  0  0  0  0  0  0
  153.2673  144.5125  160.4987 H   0  0  0  0  0  0  0  0  0  0  0  0
  151.5504  144.2656  160.1878 H   0  0  0  0  0  0  0  0  0  0  0  0
  152.6985  144.2647  158.8496 H   0  0  0  0  0  0  0  0  0  0  0  0
  153.7639  142.1808  159.7738 H   0  0  0  0  0  0  0  0  0  0  0  0
  152.6291  142.1839  161.1024 H   0  0  0  0  0  0  0  0  0  0  0  0
  150.8412  141.4472  159.7667 H   0  0  0  0  0  0  0  0  0  0  0  0
  151.4813  142.2050  158.3087 H   0  0  0  0  0  0  0  0  0  0  0  0
  150.6695  141.2520  157.0046 H   0  0  0  0  0  0  0  0  0  0  0  0
  151.7774  141.5807  155.7100 H   0  0  0  0  0  0  0  0  0  0  0  0
  150.4019  138.8786  156.0487 H   0  0  0  0  0  0  0  0  0  0  0  0
  152.2702  138.8680  154.8898 H   0  0  0  0  0  0  0  0  0  0  0  0
  148.8378  138.3911  153.8475 H   0  0  0  0  0  0  0  0  0  0  0  0
  146.7088  139.2844  152.8811 H   0  0  0  0  0  0  0  0  0  0  0  0
  146.0694  141.6656  153.3557 H   0  0  0  0  0  0  0  0  0  0  0  0
  147.6044  143.0579  154.7676 H   0  0  0  0  0  0  0  0  0  0  0  0
  1  2  1  0  0  0  0
  1 17  1  0  0  0  0
  1 18  1  0  0  0  0
  1 19  1  0  0  0  0
  2  3  1  0  0  0  0
  2 20  1  0  0  0  0
  2 21  1  0  0  0  0
  3  4  1  0  0  0  0
  3 22  1  0  0  0  0
  3 23  1  0  0  0  0
  4  5  2  0  0  0  0
  4  6  2  0  0  0  0
  4  7  1  0  0  0  0
  7  8  1  0  0  0  0
  8  9  1  0  0  0  0
  8 24  1  0  0  0  0
  8 25  1  0  0  0  0
  9 10  1  0  0  0  0
  9 11  1  0  0  0  0
  9 26  1  0  0  0  0
 10 27  1  0  0  0  0
 11 16  1  0  0  0  0
 11 12  2  0  0  0  0
 12 13  1  0  0  0  0
 12 28  1  0  0  0  0
 13 14  2  0  0  0  0
 13 29  1  0  0  0  0
 14 15  1  0  0  0  0
 14 30  1  0  0  0  0
 15 16  2  0  0  0  0
 15 31  1  0  0  0  0
M  CHG  1   7  -1
M  END
> <s_m_source_file>
AV-unprocessed.smi

> <i_m_source_file_index>
3034

> <i_lp_mmshare_version>
43012

> <i_f3d_flags>
0

> <s_epik_input>
W0NIM11bQ0gyXVtDSDJdUyg9TykoPU8pW05IXVtDSDJdW0NASF0oW09IXSljMVtjSF1bY0hdW2NIXVtjSF1uMQ==

> <s_epik_cmdline>
J2VwaWtfcHl0aG9uJywgJy1waCcsICc3LjAnLCAnLXRuJywgJzgnLCAnLW1hJywgJzIwMCcsICctbWV0YWxfYmluZGluZycsICctaW1hZScsICc8aW5maWxlLm1hZT4nLCAnLW9tYWUnLCAnPG91dGZpbGUubWFlPic=

> <r_epik_Ionization_Penalty>
6.18156

> <r_epik_Ionization_Penalty_Charging>
6.17474

> <r_epik_Ionization_Penalty_Neutral>
0.0068235

> <r_epik_State_Penalty>
6.17598

> <r_epik_Charging_Adjusted_Penalty>
12.3507

> <i_epik_Tot_Q>
-1

> <i_epik_Tot_abs_Q>
1

> <r_epik_Metal_State_Penalty>
2.11803

> <b_epik_Metal_Only>
1

> <s_lp_Force_Field>
OPLS_2005

> <r_lp_Energy>
-0.388479

> <b_lp_Chiralities_Consistent>
1

> <s_lp_Variant>
AV-unprocessed.smi:3034-3

> <Gold.Version>
5.8.1

> <Gold.Id.Protein>
6NUR|6NUR_protein|mol2

> <Gold.PLP.Fitness>
41.6790

> <Gold.PLP.PLP>
-30.5689

> <Gold.PLP.part.hbond>
-2.3910

> <Gold.PLP.part.metal>
0.0000

> <Gold.PLP.part.buried>
-1.4153

> <Gold.PLP.part.nonpolar>
-26.3733

> <Gold.PLP.part.repulsive>
0.1356

> <Gold.PLP.ligand.clash>
0.0000

> <Gold.PLP.ligand.torsion>
0.8221

> <Gold.PLP.Chemscore.Hbond>
2.9000

> <Gold.PLP.Chemscore.CHOScore>
1.0000

> <Gold.PLP.Chemscore.Metal>
0.0000

> <Gold.Chemscore.Hbonds>
donor molecule, donor type, donor heavy atom, donor atom, acceptor molecule, acceptor atom, score
      P1  H  7989  7998       L1    10  0.90
      P1  H  7997  8010       L1     7  2.00
      L1  C    15    31       P1  8028  1.00

> <Gold.PLP.Chemscore.Internal.Correction>
1.0543

> <Gold.Rescore>
     Score         DG    S(hbond)    S(metal)    S(lipo)     H(rot)  DE(clash)    DE(int)     intcor
     11.65     -12.55       1.34        0.00      72.15       2.29       0.00       0.91       ----

> <Gold.Chemscore.Fitness>
11.6468

> <Gold.Chemscore.DG>
-12.5520

> <Gold.Chemscore.ZeroCoef>
-5.4800

> <Gold.Chemscore.Hbond>
1.3449

> <Gold.Chemscore.Metal>
0.0000

> <Gold.Chemscore.Lipo>
72.1470

> <Gold.Chemscore.Internal_Hbond>
0.0000

> <Gold.Chemscore.DEClash>
0.0000

> <Gold.Chemscore.DEInternal>
0.9051

> <Gold.Chemscore.Rot>
2.2895

> <Gold.Chemscore.Internal.Correction>
   9.000000E+99

> <Gold.Chemscore.Hbonds>
donor molecule, donor type, donor heavy atom, donor atom, acceptor molecule, acceptor atom, score
      P1  H  7989  7998       L1    10  0.18
      P1  H  7997  8010       L1     7  0.44

> <Gold.Chemscore.Hbond.Weighted>
-4.4920

> <Gold.Chemscore.Metal.Weighted>
-0.0000

> <Gold.Chemscore.Lipo.Weighted>
-8.4412

> <Gold.Chemscore.Internal_Hbond.Weighted>
0.0000

> <Gold.Chemscore.DEClash.Weighted>
0.0000

> <Gold.Chemscore.DEInternal.Weighted>
0.9051

> <Gold.Chemscore.Rot.Weighted>
5.8612

> <Gold.Chemscore.Internal.Correction.Weighted>
   9.000000E+99

> <Gold.Protein.RotatedTorsions>
[ 6907 6896 6895 6894 ] final  -53.39 input  -60.11 | X-H torsion
[ 7974 7965 7964 7962 ] final   58.25 input  175.53 | X-H torsion
[ 8008 7997 7996 7995 ] final   62.30 input   59.86 | X-H torsion
[ 10167 10162 10161 10158 ] final   94.81 input  -65.29 | X-H torsion
[ 10718 10713 10712 10709 ] final  -23.84 input   66.30 | X-H torsion
[ 10763 10752 10751 10750 ] final  -91.16 input  -60.55 | X-H torsion
[ 11005 11000 10999 10996 ] final  152.66 input  -57.11 | X-H torsion

> <Gold.Protein.ActiveResidues>
 VAL166  LYS551  ARG553  GLY616  TRP617  ASP618  TYR619  PRO620  LYS621  CYS622 
 ASP623  PHE694  ASN695  SER759  ASP760  ASP761  ALA762  ILE779  LEU786  VAL792 
 PHE793  MET794  SER795  GLU796  ALA797  LYS798  CYS799  TRP800  GLU811  SER814 

> <Gold.Protein.RotatedAtoms>
  150.8431  134.7730  159.6948 H   0  0  0  0  0  0  0  0  0  0  0  0  # atno 6907 bound_to 6896
  152.4514  134.5382  159.9841 H   0  0  0  0  0  0  0  0  0  0  0  0  # atno 6908 bound_to 6896
  151.5518  133.3378  159.2990 H   0  0  0  0  0  0  0  0  0  0  0  0  # atno 6909 bound_to 6896
  145.9202  139.3723  143.0483 H   0  0  0  0  0  0  0  0  0  0  0  0  # atno 7974 bound_to 7965
  155.6121  140.3495  155.4625 H   0  0  0  0  0  0  0  0  0  0  0  0  # atno 8008 bound_to 7997
  156.0146  140.1240  157.0443 H   0  0  0  0  0  0  0  0  0  0  0  0  # atno 8009 bound_to 7997
  154.4293  140.1074  156.5864 H   0  0  0  0  0  0  0  0  0  0  0  0  # atno 8010 bound_to 7997
  139.8048  144.6799  150.9717 H   0  0  0  0  0  0  0  0  0  0  0  0  # atno 10167 bound_to 10162
  156.4857  130.4555  149.6785 H   0  0  0  0  0  0  0  0  0  0  0  0  # atno 10718 bound_to 10713
  154.6732  135.5278  153.8165 H   0  0  0  0  0  0  0  0  0  0  0  0  # atno 10763 bound_to 10752
  153.0515  135.6534  154.0692 H   0  0  0  0  0  0  0  0  0  0  0  0  # atno 10764 bound_to 10752
  154.0588  135.2963  155.3308 H   0  0  0  0  0  0  0  0  0  0  0  0  # atno 10765 bound_to 10752
  140.1328  134.8791  157.2226 H   0  0  0  0  0  0  0  0  0  0  0  0  # atno 11005 bound_to 11000
  145.8560  140.9502  143.0725 LP  0  0  0  0  0  0  0  0  0  0  0  0  # atno 17320 bound_to 7965
  144.6752  140.0468  143.7479 LP  0  0  0  0  0  0  0  0  0  0  0  0  # atno 17321 bound_to 7965
  140.7819  143.4245  151.0790 LP  0  0  0  0  0  0  0  0  0  0  0  0  # atno 17342 bound_to 10162
  139.7915  143.8212  152.3152 LP  0  0  0  0  0  0  0  0  0  0  0  0  # atno 17343 bound_to 10162
  156.3477  130.7415  151.2370 LP  0  0  0  0  0  0  0  0  0  0  0  0  # atno 17370 bound_to 10713
  157.7479  131.0386  150.4510 LP  0  0  0  0  0  0  0  0  0  0  0  0  # atno 17371 bound_to 10713
  140.2820  134.3338  155.7340 LP  0  0  0  0  0  0  0  0  0  0  0  0  # atno 17394 bound_to 11000
  141.2173  133.7484  156.9378 LP  0  0  0  0  0  0  0  0  0  0  0  0  # atno 17395 bound_to 11000

$$$$
