AV-unprocessed.smi:283|AV-procd|sdf|2152|dock8
  -GOLD-   2262021493D 1   1.00000     0.00000
 Structure written by MMmdl.
 48 51  0  0  0  0  0  0  0  0  1 V2000
  151.7001  140.8404  157.5698 C   0  0  0  0  0  0  0  0  0  0  0  0
  151.2455  142.1142  156.8307 C   0  0  1  0  0  0  0  0  0  0  0  0
  150.1441  141.8513  155.9065 N   0  0  0  0  0  0  0  0  0  0  0  0
  149.9800  140.6449  155.3203 C   0  0  0  0  0  0  0  0  0  0  0  0
  151.0333  139.8141  155.1060 N   0  0  0  0  0  0  0  0  0  0  0  0
  150.8397  138.6283  154.5223 C   0  0  0  0  0  0  0  0  0  0  0  0
  149.6996  138.0908  154.0834 N   0  0  0  0  0  0  0  0  0  0  0  0
  148.6379  138.9227  154.2899 C   0  0  0  0  0  0  0  0  0  0  0  0
  148.6984  140.2087  154.8963 C   0  0  0  0  0  0  0  0  0  0  0  0
  147.4298  140.7703  154.9385 N   0  0  0  0  0  0  0  0  0  0  0  0
  146.6668  139.8653  154.3876 C   0  0  0  0  0  0  0  0  0  0  0  0
  147.3083  138.7179  153.9753 N   0  0  0  0  0  0  0  0  0  0  0  0
  146.6883  137.5276  153.3125 C   0  0  1  0  0  0  0  0  0  0  0  0
  145.8805  136.8774  154.2518 O   0  0  0  0  0  0  0  0  0  0  0  0
  144.5387  136.8274  153.7786 C   0  0  2  0  0  0  0  0  0  0  0  0
  143.7123  135.6891  154.4137 C   0  0  0  0  0  0  0  0  0  0  0  0
  144.2761  134.4076  154.2281 O   0  0  0  0  0  0  0  0  0  0  0  0
  144.6279  136.9694  152.2526 C   0  0  2  0  0  0  0  0  0  0  0  0
  144.8980  135.7305  151.6175 O   0  0  0  0  0  0  0  0  0  0  0  0
  145.7990  137.9411  152.1251 C   0  0  2  0  0  0  0  0  0  0  0  0
  146.4419  137.8231  150.8701 O   0  0  0  0  0  0  0  0  0  0  0  0
  150.9347  143.2411  157.8149 C   0  0  0  0  0  0  0  0  0  0  0  0
  151.9383  144.2063  158.0559 C   0  0  0  0  0  0  0  0  0  0  0  0
  151.7160  145.2715  158.9484 C   0  0  0  0  0  0  0  0  0  0  0  0
  150.4840  145.3818  159.6164 C   0  0  0  0  0  0  0  0  0  0  0  0
  149.4782  144.4246  159.3909 C   0  0  0  0  0  0  0  0  0  0  0  0
  149.6924  143.3557  158.4970 C   0  0  0  0  0  0  0  0  0  0  0  0
  148.4079  142.2167  158.2806 Cl  0  0  0  0  0  0  0  0  0  0  0  0
  147.5208  136.8797  153.0341 H   0  0  0  0  0  0  0  0  0  0  0  0
  144.0756  137.7468  154.1361 H   0  0  0  0  0  0  0  0  0  0  0  0
  143.7101  137.3803  151.8308 H   0  0  0  0  0  0  0  0  0  0  0  0
  145.4458  138.9634  152.2638 H   0  0  0  0  0  0  0  0  0  0  0  0
  152.5525  141.0514  158.2160 H   0  0  0  0  0  0  0  0  0  0  0  0
  152.0086  140.0587  156.8761 H   0  0  0  0  0  0  0  0  0  0  0  0
  150.9089  140.4261  158.1938 H   0  0  0  0  0  0  0  0  0  0  0  0
  152.0879  142.4592  156.2299 H   0  0  0  0  0  0  0  0  0  0  0  0
  149.4479  142.5808  155.8478 H   0  0  0  0  0  0  0  0  0  0  0  0
  151.7243  138.0238  154.3874 H   0  0  0  0  0  0  0  0  0  0  0  0
  145.6029  140.0110  154.2686 H   0  0  0  0  0  0  0  0  0  0  0  0
  143.5932  135.8684  155.4826 H   0  0  0  0  0  0  0  0  0  0  0  0
  142.7110  135.6807  153.9824 H   0  0  0  0  0  0  0  0  0  0  0  0
  143.6041  133.7596  154.3751 H   0  0  0  0  0  0  0  0  0  0  0  0
  145.2939  135.9059  150.7768 H   0  0  0  0  0  0  0  0  0  0  0  0
  145.8073  138.0112  150.1951 H   0  0  0  0  0  0  0  0  0  0  0  0
  152.8908  144.1361  157.5511 H   0  0  0  0  0  0  0  0  0  0  0  0
  152.4913  146.0039  159.1196 H   0  0  0  0  0  0  0  0  0  0  0  0
  150.3103  146.1985  160.3015 H   0  0  0  0  0  0  0  0  0  0  0  0
  148.5344  144.5115  159.9091 H   0  0  0  0  0  0  0  0  0  0  0  0
  1  2  1  0  0  0  0
  1 33  1  0  0  0  0
  1 34  1  0  0  0  0
  1 35  1  0  0  0  0
  2  3  1  0  0  0  0
  2 22  1  0  0  0  0
  2 36  1  0  0  0  0
  3  4  1  0  0  0  0
  3 37  1  0  0  0  0
  4  9  1  0  0  0  0
  4  5  2  0  0  0  0
  5  6  1  0  0  0  0
  6  7  2  0  0  0  0
  6 38  1  0  0  0  0
  7  8  1  0  0  0  0
  8 12  1  0  0  0  0
  8  9  2  0  0  0  0
  9 10  1  0  0  0  0
 10 11  2  0  0  0  0
 11 12  1  0  0  0  0
 11 39  1  0  0  0  0
 12 13  1  0  0  0  0
 13 29  1  0  0  0  0
 13 20  1  0  0  0  0
 13 14  1  0  0  0  0
 14 15  1  0  0  0  0
 15 30  1  0  0  0  0
 15 16  1  0  0  0  0
 15 18  1  0  0  0  0
 16 17  1  0  0  0  0
 16 40  1  0  0  0  0
 16 41  1  0  0  0  0
 17 42  1  0  0  0  0
 18 31  1  0  0  0  0
 18 19  1  0  0  0  0
 18 20  1  0  0  0  0
 19 43  1  0  0  0  0
 20 32  1  0  0  0  0
 20 21  1  0  0  0  0
 21 44  1  0  0  0  0
 22 27  1  0  0  0  0
 22 23  2  0  0  0  0
 23 24  1  0  0  0  0
 23 45  1  0  0  0  0
 24 25  2  0  0  0  0
 24 46  1  0  0  0  0
 25 26  1  0  0  0  0
 25 47  1  0  0  0  0
 26 27  2  0  0  0  0
 26 48  1  0  0  0  0
 27 28  1  0  0  0  0
M  END
> <s_m_source_file>
AV-unprocessed.smi

> <i_m_source_file_index>
283

> <i_lp_mmshare_version>
43012

> <i_f3d_flags>
0

> <s_epik_input>
Q2xjMVtjSF1bY0hdW2NIXVtjSF1jMVtDQEhdKFtDSDNdKVtOSF1jKG5bY0hdbjIpYyhjMjMpbltjSF1uM1tDQEBIXTRPW0NASF0oW0NIMl1bT0hdKVtDQEBIXShbT0hdKVtDQEhdNFtPSF0=

> <s_epik_cmdline>
J2VwaWtfcHl0aG9uJywgJy1waCcsICc3LjAnLCAnLXRuJywgJzgnLCAnLW1hJywgJzIwMCcsICctbWV0YWxfYmluZGluZycsICctaW1hZScsICc8aW5maWxlLm1hZT4nLCAnLW9tYWUnLCAnPG91dGZpbGUubWFlPic=

> <r_lp_tautomer_probability>
1

> <r_epik_Ionization_Penalty>
0.000266407

> <r_epik_Ionization_Penalty_Charging>
0

> <r_epik_Ionization_Penalty_Neutral>
0.000266407

> <r_epik_State_Penalty>
-0

> <r_epik_Charging_Adjusted_Penalty>
0

> <i_epik_Tot_Q>
0

> <i_epik_Tot_abs_Q>
0

> <r_epik_Metal_State_Penalty>
-0

> <b_epik_Metal_Only>
0

> <s_epik_Chemistry_Notes>
This compound contains an acetal/aminal-like group ( X-CH(R)-Y where X, Y are N, S, or O) that may be acid/base labile, releasing an aldehyde.

> <s_lp_Force_Field>
OPLS_2005

> <r_lp_Energy>
54.2889

> <b_lp_Chiralities_Consistent>
1

> <s_lp_Variant>
AV-unprocessed.smi:283-28

> <Gold.Version>
5.8.1

> <Gold.Id.Protein>
6NUR|6NUR_protein|mol2

> <Gold.PLP.Fitness>
50.0051

> <Gold.PLP.PLP>
-41.0164

> <Gold.PLP.part.hbond>
-4.6632

> <Gold.PLP.part.metal>
0.0000

> <Gold.PLP.part.buried>
-4.6943

> <Gold.PLP.part.nonpolar>
-34.2632

> <Gold.PLP.part.repulsive>
1.7784

> <Gold.PLP.ligand.clash>
0.0000

> <Gold.PLP.ligand.torsion>
1.2254

> <Gold.PLP.Chemscore.Hbond>
3.3063

> <Gold.PLP.Chemscore.CHOScore>
0.4691

> <Gold.PLP.Chemscore.Metal>
0.0000

> <Gold.Chemscore.Hbonds>
donor molecule, donor type, donor heavy atom, donor atom, acceptor molecule, acceptor atom, score
      L1  H     3    37       P1  8028  0.54
      L1  H    17    42       P1 10957  0.47
      L1  H    21    44       P1 10171  0.90
      P1  H  7954  7966       L1    21  1.00
      P1  H  7989  7998       L1     5  0.57
      L1  C    11    39       P1 10175  0.66

> <Gold.PLP.Chemscore.Internal.Correction>
0.1136

> <Gold.Rescore>
     Score         DG    S(hbond)    S(metal)    S(lipo)     H(rot)  DE(clash)    DE(int)     intcor
      9.51     -12.67       1.99        0.00      94.22       4.10       0.92       2.24       ----

> <Gold.Chemscore.Fitness>
9.5134

> <Gold.Chemscore.DG>
-12.6737

> <Gold.Chemscore.ZeroCoef>
-5.4800

> <Gold.Chemscore.Hbond>
1.9932

> <Gold.Chemscore.Metal>
0.0000

> <Gold.Chemscore.Lipo>
94.2249

> <Gold.Chemscore.Internal_Hbond>
0.0000

> <Gold.Chemscore.DEClash>
0.9236

> <Gold.Chemscore.DEInternal>
2.2366

> <Gold.Chemscore.Rot>
4.0968

> <Gold.Chemscore.Internal.Correction>
   9.000000E+99

> <Gold.Chemscore.Hbonds>
donor molecule, donor type, donor heavy atom, donor atom, acceptor molecule, acceptor atom, score
      L1  H     3    37       P1  8028  0.50
      L1  H    17    42       P1 10957  0.47
      L1  H    21    44       P1 10171  0.83
      P1  H  7954  7966       L1    21  0.38
      P1  H  7989  7998       L1     5  0.01

> <Gold.Chemscore.Hbond.Weighted>
-6.6573

> <Gold.Chemscore.Metal.Weighted>
-0.0000

> <Gold.Chemscore.Lipo.Weighted>
-11.0243

> <Gold.Chemscore.Internal_Hbond.Weighted>
0.0000

> <Gold.Chemscore.DEClash.Weighted>
0.9236

> <Gold.Chemscore.DEInternal.Weighted>
2.2366

> <Gold.Chemscore.Rot.Weighted>
10.4879

> <Gold.Chemscore.Internal.Correction.Weighted>
   9.000000E+99

> <Gold.Protein.RotatedTorsions>
[ 6907 6896 6895 6894 ] final -179.32 input  -60.11 | X-H torsion
[ 7974 7965 7964 7962 ] final  152.97 input  175.53 | X-H torsion
[ 8008 7997 7996 7995 ] final -109.68 input   59.86 | X-H torsion
[ 10167 10162 10161 10158 ] final  155.22 input  -65.29 | X-H torsion
[ 10718 10713 10712 10709 ] final  -80.92 input   66.30 | X-H torsion
[ 10763 10752 10751 10750 ] final  -21.48 input  -60.55 | X-H torsion
[ 11005 11000 10999 10996 ] final   71.74 input  -57.11 | X-H torsion

> <Gold.Protein.ActiveResidues>
 VAL166  LYS551  ARG553  GLY616  TRP617  ASP618  TYR619  PRO620  LYS621  CYS622 
 ASP623  PHE694  ASN695  SER759  ASP760  ASP761  ALA762  ILE779  LEU786  VAL792 
 PHE793  MET794  SER795  GLU796  ALA797  LYS798  CYS799  TRP800  GLU811  SER814 

> <Gold.Protein.RotatedAtoms>
  151.6515  133.3321  159.3152 H   0  0  0  0  0  0  0  0  0  0  0  0  # atno 6907 bound_to 6896
  150.7958  134.7020  159.6565 H   0  0  0  0  0  0  0  0  0  0  0  0  # atno 6908 bound_to 6896
  152.4045  134.6235  160.0108 H   0  0  0  0  0  0  0  0  0  0  0  0  # atno 6909 bound_to 6896
  144.8186  139.6738  143.6110 H   0  0  0  0  0  0  0  0  0  0  0  0  # atno 7974 bound_to 7965
  154.9630  140.0399  157.2199 H   0  0  0  0  0  0  0  0  0  0  0  0  # atno 8008 bound_to 7997
  154.7871  140.2829  155.5997 H   0  0  0  0  0  0  0  0  0  0  0  0  # atno 8009 bound_to 7997
  156.2944  140.2580  156.2710 H   0  0  0  0  0  0  0  0  0  0  0  0  # atno 8010 bound_to 7997
  139.4821  144.5118  151.8012 H   0  0  0  0  0  0  0  0  0  0  0  0  # atno 10167 bound_to 10162
  156.0060  130.4588  150.3874 H   0  0  0  0  0  0  0  0  0  0  0  0  # atno 10718 bound_to 10713
  153.6368  135.6987  153.5255 H   0  0  0  0  0  0  0  0  0  0  0  0  # atno 10763 bound_to 10752
  153.2814  135.4184  155.1082 H   0  0  0  0  0  0  0  0  0  0  0  0  # atno 10764 bound_to 10752
  154.8509  135.3603  154.5912 H   0  0  0  0  0  0  0  0  0  0  0  0  # atno 10765 bound_to 10752
  139.9527  134.7198  156.0824 H   0  0  0  0  0  0  0  0  0  0  0  0  # atno 11005 bound_to 11000
  146.2491  139.6160  142.9439 LP  0  0  0  0  0  0  0  0  0  0  0  0  # atno 17320 bound_to 7965
  145.5157  141.0434  143.2463 LP  0  0  0  0  0  0  0  0  0  0  0  0  # atno 17321 bound_to 7965
  140.4622  144.1706  150.5907 LP  0  0  0  0  0  0  0  0  0  0  0  0  # atno 17342 bound_to 10162
  140.4472  143.2501  151.9395 LP  0  0  0  0  0  0  0  0  0  0  0  0  # atno 17343 bound_to 10162
  157.1950  131.0424  151.2680 LP  0  0  0  0  0  0  0  0  0  0  0  0  # atno 17370 bound_to 10713
  157.4027  130.7342  149.6779 LP  0  0  0  0  0  0  0  0  0  0  0  0  # atno 17371 bound_to 10713
  141.1193  133.6618  156.3175 LP  0  0  0  0  0  0  0  0  0  0  0  0  # atno 17394 bound_to 11000
  140.5680  134.5868  157.5450 LP  0  0  0  0  0  0  0  0  0  0  0  0  # atno 17395 bound_to 11000

$$$$
