#       Name:                AV-unprocessed.smi:177
#       Creating user name   scv26
#       Creation time:       Thu Mar 26 19:22:47 2020


#       File generated by GOLD software.
#

@<TRIPOS>MOLECULE
AV-unprocessed.smi:177
    73    77     1
SMALL
NO_CHARGES


@<TRIPOS>ATOM
      1 ****        -1.5557  -2.2355   4.2784 C.3            1 S1                 0.0000
      2 ****        -2.0484  -0.9119   4.1381 O.3            1 S1                 0.0000
      3 ****        -2.7016  -0.6635   2.9002 C.3            1 S1                 0.0000
      4 ****        -4.1582  -1.1646   2.9339 C.3            1 S1                 0.0000
      5 ****        -4.8867  -0.8111   1.6297 C.3            1 S1                 0.0000
      6 ****        -4.8349   0.7076   1.3481 C.3            1 S1                 0.0000
      7 ****        -5.5123   1.0567   0.1392 O.3            1 S1                 0.0000
      8 ****        -4.8446   0.6500  -1.0532 C.3            1 S1                 0.0000
      9 ****        -3.4258   1.2343  -1.0841 C.3            1 S1                 0.0000
     10 ****        -2.6944   0.8601   0.1210 N.3            1 S1                 0.0000
     11 ****        -1.3917   1.2138   0.0456 C.ar           1 S1                 0.0000
     12 ****        -1.0405   2.5269   0.0413 N.ar           1 S1                 0.0000
     13 ****         0.2502   2.8698  -0.0073 C.ar           1 S1                 0.0000
     14 ****         1.3236   2.0772  -0.0527 N.ar           1 S1                 0.0000
     15 ****         0.9705   0.7592  -0.0557 C.ar           1 S1                 0.0000
     16 ****        -0.3553   0.2461  -0.0079 C.ar           1 S1                 0.0000
     17 ****        -0.3320  -1.1420  -0.0103 N.2            1 S1                 0.0000
     18 ****         0.9392  -1.4345  -0.0471 C.2            1 S1                 0.0000
     19 ****         1.7932  -0.3543  -0.0943 N.pl3          1 S1                 0.0000
     20 ****         3.2484  -0.3970  -0.1268 C.3            1 S1                 0.0000
     21 ****         3.9007  -0.3525  -1.5424 C.3            1 S1                 0.0000
     22 ****         3.5419  -1.6287  -2.3613 C.3            1 S1                 0.0000
     23 ****         2.2127  -1.6445  -2.8410 O.3            1 S1                 0.0000
     24 ****         3.5119   0.9454  -2.2961 C.3            1 S1                 0.0000
     25 ****         4.3754   1.1851  -3.5460 C.3            1 S1                 0.0000
     26 ****         5.7465   1.2511  -3.1763 O.3            1 S1                 0.0000
     27 ****         6.2239   0.0378  -2.6105 C.3            1 S1                 0.0000
     28 ****         5.4358  -0.3000  -1.3293 C.3            1 S1                 0.0000
     29 ****        -3.3902   1.2678   1.3472 C.3            1 S1                 0.0000
     30 ****        -2.6646   0.8552   2.6535 C.3            1 S1                 0.0000
     31 ****        -1.0541  -2.3356   5.2408 H              1 S1                 0.0000
     32 ****        -0.8301  -2.4707   3.4986 H              1 S1                 0.0000
     33 ****        -2.3573  -2.9730   4.2442 H              1 S1                 0.0000
     34 ****        -2.1610  -1.1593   2.0931 H              1 S1                 0.0000
     35 ****        -4.1913  -2.2439   3.0808 H              1 S1                 0.0000
     36 ****        -4.6828  -0.7200   3.7806 H              1 S1                 0.0000
     37 ****        -4.4239  -1.3738   0.8197 H              1 S1                 0.0000
     38 ****        -5.9240  -1.1422   1.6829 H              1 S1                 0.0000
     39 ****        -5.3826   1.2022   2.1514 H              1 S1                 0.0000
     40 ****        -4.8212  -0.4363  -1.1376 H              1 S1                 0.0000
     41 ****        -5.4125   1.0112  -1.9105 H              1 S1                 0.0000
     42 ****        -2.8967   0.8779  -1.9690 H              1 S1                 0.0000
     43 ****        -3.4807   2.3216  -1.1584 H              1 S1                 0.0000
     44 ****         0.4520   3.9307  -0.0065 H              1 S1                 0.0000
     45 ****         1.2921  -2.4554  -0.0516 H              1 S1                 0.0000
     46 ****         3.6080   0.4375   0.4770 H              1 S1                 0.0000
     47 ****         3.5681  -1.2973   0.3996 H              1 S1                 0.0000
     48 ****         4.1820  -1.7357  -3.2351 H              1 S1                 0.0000
     49 ****         3.7038  -2.5227  -1.7583 H              1 S1                 0.0000
     50 ****         2.0817  -2.4382  -3.3373 H              1 S1                 0.0000
     51 ****         2.4577   0.9416  -2.5734 H              1 S1                 0.0000
     52 ****         3.6414   1.7996  -1.6305 H              1 S1                 0.0000
     53 ****         4.2197   0.4076  -4.2947 H              1 S1                 0.0000
     54 ****         4.0962   2.1300  -4.0126 H              1 S1                 0.0000
     55 ****         6.1722  -0.7653  -3.3457 H              1 S1                 0.0000
     56 ****         7.2796   0.1630  -2.3698 H              1 S1                 0.0000
     57 ****         5.6746   0.4630  -0.5869 H              1 S1                 0.0000
     58 ****         5.7938  -1.2429  -0.9141 H              1 S1                 0.0000
     59 ****        -3.4546   2.3570   1.3305 H              1 S1                 0.0000
     60 ****        -3.1506   1.3564   3.4915 H              1 S1                 0.0000
     61 ****        -1.6345   1.2119   2.6650 H              1 S1                 0.0000
     62 ****        -1.2778  -0.2798   4.2189 LP             1 S1                 0.0000
     63 ****        -2.6998  -0.7394   4.8770 LP             1 S1                 0.0000
     64 ****        -5.6156   2.0510   0.1154 LP             1 S1                 0.0000
     65 ****        -6.4157   0.6280   0.1528 LP             1 S1                 0.0000
     66 ****        -2.6794  -0.1381   0.1794 LP             1 S1                 0.0000
     67 ****        -1.7463   3.2346   0.0745 LP             1 S1                 0.0000
     68 ****         2.2670   2.4076  -0.0809 LP             1 S1                 0.0000
     69 ****        -1.1088  -1.7714   0.0112 LP             1 S1                 0.0000
     70 ****         2.0566  -0.8502  -3.4280 LP             1 S1                 0.0000
     71 ****         1.5758  -1.6198  -2.0704 LP             1 S1                 0.0000
     72 ****         5.8614   1.9834  -2.5051 LP             1 S1                 0.0000
     73 ****         6.2875   1.4580  -3.9914 LP             1 S1                 0.0000
@<TRIPOS>BOND
    1    1    2 1     
    2    1   31 1     
    3    1   32 1     
    4    1   33 1     
    5    2    3 1     
    6    3   30 1     
    7    3    4 1     
    8    3   34 1     
    9    4    5 1     
   10    4   35 1     
   11    4   36 1     
   12    5    6 1     
   13    5   37 1     
   14    5   38 1     
   15    6   29 1     
   16    6    7 1     
   17    6   39 1     
   18    7    8 1     
   19    8    9 1     
   20    8   40 1     
   21    8   41 1     
   22    9   10 1     
   23    9   42 1     
   24    9   43 1     
   25   10   11 1     
   26   10   29 1     
   27   11   16 ar    
   28   11   12 ar    
   29   12   13 ar    
   30   13   14 ar    
   31   13   44 1     
   32   14   15 ar    
   33   15   19 1     
   34   15   16 ar    
   35   16   17 1     
   36   17   18 2     
   37   18   19 1     
   38   18   45 1     
   39   19   20 1     
   40   20   21 1     
   41   20   46 1     
   42   20   47 1     
   43   21   28 1     
   44   21   22 1     
   45   21   24 1     
   46   22   23 1     
   47   22   48 1     
   48   22   49 1     
   49   23   50 1     
   50   24   25 1     
   51   24   51 1     
   52   24   52 1     
   53   25   26 1     
   54   25   53 1     
   55   25   54 1     
   56   26   27 1     
   57   27   28 1     
   58   27   55 1     
   59   27   56 1     
   60   28   57 1     
   61   28   58 1     
   62   29   30 1     
   63   29   59 1     
   64   30   60 1     
   65   30   61 1     
   66    2   62 1     
   67    2   63 1     
   68    7   64 1     
   69    7   65 1     
   70   10   66 1     
   71   12   67 1     
   72   14   68 1     
   73   17   69 1     
   74   23   70 1     
   75   23   71 1     
   76   26   72 1     
   77   26   73 1     
@<TRIPOS>SUBSTRUCTURE
      1 S1             1
@<TRIPOS>SET
LONE_PAIRS      STATIC     ATOMS    <user>   **** ""
12 62 63 64 65 66 67 68 69 70 71 72 73
DONOR_HYDROGENS      STATIC     ATOMS    <user>   **** ""
1 50
ATOM$BLUE        STATIC     ATOMS    COLORGROUP SYSTEM
12 62 63 64 65 66 67 68 69 70 71 72 73
ATOM$RED        STATIC     ATOMS    COLORGROUP SYSTEM
1 50
