AV-unprocessed.smi:2566|AV-procd|sdf|10075|dock1
  -GOLD-   2272014103D 1   1.00000     0.00000
 Structure written by MMmdl.
 20 21  0  0  0  0  0  0  0  0  1 V2000
  151.0710  137.8274  154.3291 C   0  0  0  0  0  0  0  0  0  0  0  0
  150.7732  139.0909  154.6135 N   0  0  0  0  0  0  0  0  0  0  0  0
  151.4902  139.2732  155.7594 C   0  0  0  0  0  0  0  0  0  0  0  0
  151.5443  140.5732  156.5008 C   0  0  1  0  0  0  0  0  0  0  0  0
  150.4809  141.5716  156.0027 C   0  0  0  0  0  0  0  0  0  0  0  0
  150.5086  142.7868  156.8157 N   0  0  0  0  0  0  0  0  0  0  0  0
  150.3476  142.4753  158.2353 C   0  0  0  0  0  0  0  0  0  0  0  0
  151.4043  141.4488  158.6823 C   0  0  0  0  0  0  0  0  0  0  0  0
  151.3079  140.2793  157.8760 O   0  0  0  0  0  0  0  0  0  0  0  0
  152.2131  138.2322  156.1591 N   0  0  0  0  0  0  0  0  0  0  0  0
  151.9247  137.2468  155.2035 O   0  0  0  0  0  0  0  0  0  0  0  0
  150.6865  137.2871  153.4766 H   0  0  0  0  0  0  0  0  0  0  0  0
  152.5436  140.9991  156.3890 H   0  0  0  0  0  0  0  0  0  0  0  0
  150.6561  141.8180  154.9552 H   0  0  0  0  0  0  0  0  0  0  0  0
  149.4919  141.1146  156.0568 H   0  0  0  0  0  0  0  0  0  0  0  0
  149.7663  143.4121  156.5183 H   0  0  0  0  0  0  0  0  0  0  0  0
  150.4329  143.3847  158.8302 H   0  0  0  0  0  0  0  0  0  0  0  0
  149.3495  142.0745  158.4161 H   0  0  0  0  0  0  0  0  0  0  0  0
  152.4095  141.8689  158.6198 H   0  0  0  0  0  0  0  0  0  0  0  0
  151.2403  141.1727  159.7238 H   0  0  0  0  0  0  0  0  0  0  0  0
  1 11  1  0  0  0  0
  1  2  2  0  0  0  0
  1 12  1  0  0  0  0
  2  3  1  0  0  0  0
  3  4  1  0  0  0  0
  3 10  2  0  0  0  0
  4  9  1  0  0  0  0
  4  5  1  0  0  0  0
  4 13  1  0  0  0  0
  5  6  1  0  0  0  0
  5 14  1  0  0  0  0
  5 15  1  0  0  0  0
  6  7  1  0  0  0  0
  6 16  1  0  0  0  0
  7  8  1  0  0  0  0
  7 17  1  0  0  0  0
  7 18  1  0  0  0  0
  8  9  1  0  0  0  0
  8 19  1  0  0  0  0
  8 20  1  0  0  0  0
 10 11  1  0  0  0  0
M  END
> <s_m_source_file>
AV-unprocessed.smi

> <i_m_source_file_index>
2566

> <i_lp_mmshare_version>
43012

> <i_f3d_flags>
0

> <s_epik_input>
bjFvW2NIXW5jMVtDQEBIXTJbQ0gyXVtOSF1bQ0gyXVtDSDJdTzI=

> <s_epik_cmdline>
J2VwaWtfcHl0aG9uJywgJy1waCcsICc3LjAnLCAnLXRuJywgJzgnLCAnLW1hJywgJzIwMCcsICctbWV0YWxfYmluZGluZycsICctaW1hZScsICc8aW5maWxlLm1hZT4nLCAnLW9tYWUnLCAnPG91dGZpbGUubWFlPic=

> <r_lp_tautomer_probability>
1

> <r_epik_Ionization_Penalty>
0.861744

> <r_epik_Ionization_Penalty_Charging>
0

> <r_epik_Ionization_Penalty_Neutral>
0.861744

> <r_epik_State_Penalty>
0.898282

> <r_epik_Charging_Adjusted_Penalty>
0.898282

> <i_epik_Tot_Q>
0

> <i_epik_Tot_abs_Q>
0

> <r_epik_Metal_State_Penalty>
0.898282

> <b_epik_Metal_Only>
0

> <s_lp_Force_Field>
OPLS_2005

> <r_lp_Energy>
10.916

> <b_lp_Chiralities_Consistent>
1

> <s_lp_Variant>
AV-unprocessed.smi:2566-4

> <Gold.Version>
5.8.1

> <Gold.Id.Protein>
6NUR|6NUR_protein|mol2

> <Gold.PLP.Fitness>
29.8668

> <Gold.PLP.PLP>
-19.7348

> <Gold.PLP.part.hbond>
-3.0000

> <Gold.PLP.part.metal>
0.0000

> <Gold.PLP.part.buried>
-4.4250

> <Gold.PLP.part.nonpolar>
-12.0913

> <Gold.PLP.part.repulsive>
0.2187

> <Gold.PLP.ligand.clash>
0.0000

> <Gold.PLP.ligand.torsion>
0.2028

> <Gold.PLP.Chemscore.Hbond>
2.4008

> <Gold.PLP.Chemscore.CHOScore>
1.1073

> <Gold.PLP.Chemscore.Metal>
0.0000

> <Gold.Chemscore.Hbonds>
donor molecule, donor type, donor heavy atom, donor atom, acceptor molecule, acceptor atom, score
      L1  H     6    16       P1  8028  1.00
      P1  H  7989  7998       L1     2  0.36
      P1  H 10752 10763       L1    11  0.29
      L1  C     1    12       P1  7948  0.44
      L1  C     1    12       P1  7949  0.71

> <Gold.PLP.Chemscore.Internal.Correction>
0.0132

> <Gold.Rescore>
     Score         DG    S(hbond)    S(metal)    S(lipo)     H(rot)  DE(clash)    DE(int)     intcor
     12.32     -12.40       1.86        0.00      27.97       1.00       0.02       0.06       ----

> <Gold.Chemscore.Fitness>
12.3192

> <Gold.Chemscore.DG>
-12.3994

> <Gold.Chemscore.ZeroCoef>
-5.4800

> <Gold.Chemscore.Hbond>
1.8583

> <Gold.Chemscore.Metal>
0.0000

> <Gold.Chemscore.Lipo>
27.9724

> <Gold.Chemscore.Internal_Hbond>
0.0000

> <Gold.Chemscore.DEClash>
0.0174

> <Gold.Chemscore.DEInternal>
0.0628

> <Gold.Chemscore.Rot>
1.0000

> <Gold.Chemscore.Internal.Correction>
   9.000000E+99

> <Gold.Chemscore.Hbonds>
donor molecule, donor type, donor heavy atom, donor atom, acceptor molecule, acceptor atom, score
      L1  H     6    16       P1  8028  1.00
      P1  H  7989  7998       L1     2  0.06
      P1  H 10752 10763       L1    11  0.16

> <Gold.Chemscore.Hbond.Weighted>
-6.2066

> <Gold.Chemscore.Metal.Weighted>
-0.0000

> <Gold.Chemscore.Lipo.Weighted>
-3.2728

> <Gold.Chemscore.Internal_Hbond.Weighted>
0.0000

> <Gold.Chemscore.DEClash.Weighted>
0.0174

> <Gold.Chemscore.DEInternal.Weighted>
0.0628

> <Gold.Chemscore.Rot.Weighted>
2.5600

> <Gold.Chemscore.Internal.Correction.Weighted>
   9.000000E+99

> <Gold.Protein.RotatedTorsions>
[ 6907 6896 6895 6894 ] final   37.79 input  -60.11 | X-H torsion
[ 7974 7965 7964 7962 ] final -161.08 input  175.53 | X-H torsion
[ 8008 7997 7996 7995 ] final   35.30 input   59.86 | X-H torsion
[ 10167 10162 10161 10158 ] final  -56.69 input  -65.29 | X-H torsion
[ 10718 10713 10712 10709 ] final   76.76 input   66.30 | X-H torsion
[ 10763 10752 10751 10750 ] final   25.73 input  -60.55 | X-H torsion
[ 11005 11000 10999 10996 ] final -167.71 input  -57.11 | X-H torsion

> <Gold.Protein.ActiveResidues>
 VAL166  LYS551  ARG553  GLY616  TRP617  ASP618  TYR619  PRO620  LYS621  CYS622 
 ASP623  PHE694  ASN695  SER759  ASP760  ASP761  ALA762  ILE779  LEU786  VAL792 
 PHE793  MET794  SER795  GLU796  ALA797  LYS798  CYS799  TRP800  GLU811  SER814 

> <Gold.Protein.RotatedAtoms>
  152.1478  134.9012  160.0549 H   0  0  0  0  0  0  0  0  0  0  0  0  # atno 6907 bound_to 6896
  152.0055  133.3836  159.4207 H   0  0  0  0  0  0  0  0  0  0  0  0  # atno 6908 bound_to 6896
  150.6872  134.3709  159.5035 H   0  0  0  0  0  0  0  0  0  0  0  0  # atno 6909 bound_to 6896
  144.7404  140.3449  143.6127 H   0  0  0  0  0  0  0  0  0  0  0  0  # atno 7974 bound_to 7965
  155.1688  140.3290  155.4397 H   0  0  0  0  0  0  0  0  0  0  0  0  # atno 8008 bound_to 7997
  156.2517  140.1947  156.6743 H   0  0  0  0  0  0  0  0  0  0  0  0  # atno 8009 bound_to 7997
  154.6352  140.0577  156.9766 H   0  0  0  0  0  0  0  0  0  0  0  0  # atno 8010 bound_to 7997
  140.6302  143.2456  151.5260 H   0  0  0  0  0  0  0  0  0  0  0  0  # atno 10167 bound_to 10162
  157.6686  130.9790  150.1544 H   0  0  0  0  0  0  0  0  0  0  0  0  # atno 10718 bound_to 10713
  153.0671  135.6576  154.0329 H   0  0  0  0  0  0  0  0  0  0  0  0  # atno 10763 bound_to 10752
  153.9983  135.2939  155.3406 H   0  0  0  0  0  0  0  0  0  0  0  0  # atno 10764 bound_to 10752
  154.7033  135.5235  153.8628 H   0  0  0  0  0  0  0  0  0  0  0  0  # atno 10765 bound_to 10752
  140.5502  134.5435  157.5120 H   0  0  0  0  0  0  0  0  0  0  0  0  # atno 11005 bound_to 11000
  145.7336  139.1743  143.2416 LP  0  0  0  0  0  0  0  0  0  0  0  0  # atno 17320 bound_to 7965
  146.1187  140.7336  142.9468 LP  0  0  0  0  0  0  0  0  0  0  0  0  # atno 17321 bound_to 7965
  139.5517  144.2378  152.1542 LP  0  0  0  0  0  0  0  0  0  0  0  0  # atno 17342 bound_to 10162
  140.1620  144.5017  150.6627 LP  0  0  0  0  0  0  0  0  0  0  0  0  # atno 17343 bound_to 10162
  156.2335  130.3684  149.8417 LP  0  0  0  0  0  0  0  0  0  0  0  0  # atno 17370 bound_to 10713
  156.6237  130.8637  151.3481 LP  0  0  0  0  0  0  0  0  0  0  0  0  # atno 17371 bound_to 10713
  139.9459  134.7703  156.0564 LP  0  0  0  0  0  0  0  0  0  0  0  0  # atno 17394 bound_to 11000
  141.1176  133.6623  156.3133 LP  0  0  0  0  0  0  0  0  0  0  0  0  # atno 17395 bound_to 11000

$$$$
