AV-unprocessed.smi:1504|AV-procd|sdf|6074|dock6
  -GOLD-   22720 6193D 1   1.00000     0.00000
 Structure written by MMmdl.
 40 41  0  0  0  0  0  0  0  0  2 V2000
  150.0053  137.8245  156.5492 O   0  0  0  0  0  0  0  0  0  0  0  0
  149.6121  138.3955  157.5665 C   0  0  0  0  0  0  0  0  0  0  0  0
  150.0580  139.5925  157.9728 N   0  0  0  0  0  0  0  0  0  0  0  0
  151.0681  140.3830  157.2790 C   0  0  0  0  0  0  0  0  0  0  0  0
  150.5900  141.8246  157.0358 C   0  0  0  0  0  0  0  0  0  0  0  0
  151.1342  142.7925  158.0681 C   0  0  0  0  0  0  0  0  0  0  0  0
  151.9929  142.3749  159.1082 C   0  0  0  0  0  0  0  0  0  0  0  0
  152.4691  143.3275  160.0330 C   0  0  0  0  0  0  0  0  0  0  0  0
  152.0787  144.6760  159.8976 C   0  0  0  0  0  0  0  0  0  0  0  0
  151.2211  145.0383  158.8387 C   0  0  0  0  0  0  0  0  0  0  0  0
  150.7857  144.0962  157.9734 N   0  3  0  0  0  0  0  0  0  0  0  0
  148.6944  137.8961  158.4046 N   0  0  0  0  0  0  0  0  0  0  0  0
  148.0362  136.6030  158.2530 C   0  0  0  0  0  0  0  0  0  0  0  0
  147.1083  136.3147  159.4455 C   0  0  1  0  0  0  0  0  0  0  0  0
  147.8497  136.3723  160.7952 C   0  0  0  0  0  0  0  0  0  0  0  0
  146.8128  136.3505  161.9223 C   0  0  0  0  0  0  0  0  0  0  0  0
  145.3707  137.2788  161.2809 S   0  0  0  0  0  0  0  0  0  0  0  0
  144.1634  136.4522  161.4296 O   0  0  0  0  0  0  0  0  0  0  0  0
  145.4110  138.6588  161.7874 O   0  0  0  0  0  0  0  0  0  0  0  0
  145.9071  137.2738  159.5276 C   0  0  0  0  0  0  0  0  0  0  0  0
  149.6727  139.9832  158.8205 H   0  0  0  0  0  0  0  0  0  0  0  0
  151.9987  140.3802  157.8496 H   0  0  0  0  0  0  0  0  0  0  0  0
  151.2853  139.8952  156.3284 H   0  0  0  0  0  0  0  0  0  0  0  0
  150.8944  142.1574  156.0424 H   0  0  0  0  0  0  0  0  0  0  0  0
  149.5002  141.8703  157.0531 H   0  0  0  0  0  0  0  0  0  0  0  0
  152.2853  141.3385  159.1969 H   0  0  0  0  0  0  0  0  0  0  0  0
  153.1269  143.0273  160.8357 H   0  0  0  0  0  0  0  0  0  0  0  0
  152.4325  145.4211  160.5953 H   0  0  0  0  0  0  0  0  0  0  0  0
  150.8730  146.0450  158.6589 H   0  0  0  0  0  0  0  0  0  0  0  0
  148.4376  138.4447  159.2124 H   0  0  0  0  0  0  0  0  0  0  0  0
  147.4626  136.6143  157.3255 H   0  0  0  0  0  0  0  0  0  0  0  0
  148.7711  135.8013  158.1595 H   0  0  0  0  0  0  0  0  0  0  0  0
  146.7132  135.3028  159.3404 H   0  0  0  0  0  0  0  0  0  0  0  0
  148.5663  135.5571  160.8984 H   0  0  0  0  0  0  0  0  0  0  0  0
  148.4153  137.3032  160.8558 H   0  0  0  0  0  0  0  0  0  0  0  0
  146.4909  135.3303  162.1317 H   0  0  0  0  0  0  0  0  0  0  0  0
  147.1737  136.8011  162.8468 H   0  0  0  0  0  0  0  0  0  0  0  0
  146.1993  138.2919  159.2680 H   0  0  0  0  0  0  0  0  0  0  0  0
  145.0795  136.9769  158.8834 H   0  0  0  0  0  0  0  0  0  0  0  0
  150.1659  144.3811  157.2146 H   0  0  0  0  0  0  0  0  0  0  0  0
  1  2  2  0  0  0  0
  2  3  1  0  0  0  0
  2 12  1  0  0  0  0
  3  4  1  0  0  0  0
  3 21  1  0  0  0  0
  4  5  1  0  0  0  0
  4 22  1  0  0  0  0
  4 23  1  0  0  0  0
  5  6  1  0  0  0  0
  5 24  1  0  0  0  0
  5 25  1  0  0  0  0
  6 11  1  0  0  0  0
  6  7  2  0  0  0  0
  7  8  1  0  0  0  0
  7 26  1  0  0  0  0
  8  9  2  0  0  0  0
  8 27  1  0  0  0  0
  9 10  1  0  0  0  0
  9 28  1  0  0  0  0
 10 11  2  0  0  0  0
 10 29  1  0  0  0  0
 11 40  1  0  0  0  0
 12 13  1  0  0  0  0
 12 30  1  0  0  0  0
 13 14  1  0  0  0  0
 13 31  1  0  0  0  0
 13 32  1  0  0  0  0
 14 20  1  0  0  0  0
 14 15  1  0  0  0  0
 14 33  1  0  0  0  0
 15 16  1  0  0  0  0
 15 34  1  0  0  0  0
 15 35  1  0  0  0  0
 16 17  1  0  0  0  0
 16 36  1  0  0  0  0
 16 37  1  0  0  0  0
 17 18  2  0  0  0  0
 17 19  2  0  0  0  0
 17 20  1  0  0  0  0
 20 38  1  0  0  0  0
 20 39  1  0  0  0  0
M  CHG  1  11   1
M  END
> <s_m_source_file>
AV-unprocessed.smi

> <i_m_source_file_index>
1504

> <i_lp_mmshare_version>
43012

> <i_f3d_flags>
0

> <s_epik_input>
Tz1TMSg9TylbQ0gyXVtDSDJdW0NASF0oW0NIMl0xKVtDSDJdW05IXUMoPU8pW05IXVtDSDJdW0NIMl1jMltjSF1bY0hdW2NIXVtjSF1uMg==

> <s_epik_cmdline>
J2VwaWtfcHl0aG9uJywgJy1waCcsICc3LjAnLCAnLXRuJywgJzgnLCAnLW1hJywgJzIwMCcsICctbWV0YWxfYmluZGluZycsICctaW1hZScsICc8aW5maWxlLm1hZT4nLCAnLW9tYWUnLCAnPG91dGZpbGUubWFlPic=

> <r_epik_Ionization_Penalty>
1.57393

> <r_epik_Ionization_Penalty_Charging>
1.57388

> <r_epik_Ionization_Penalty_Neutral>
4.82054e-05

> <r_epik_State_Penalty>
1.66991

> <r_epik_Charging_Adjusted_Penalty>
3.24379

> <i_epik_Tot_Q>
1

> <i_epik_Tot_abs_Q>
1

> <r_epik_Metal_State_Penalty>
1.71052

> <b_epik_Metal_Only>
0

> <s_lp_Force_Field>
OPLS_2005

> <r_lp_Energy>
6.78157

> <b_lp_Chiralities_Consistent>
1

> <s_lp_Variant>
AV-unprocessed.smi:1504-4

> <Gold.Version>
5.8.1

> <Gold.Id.Protein>
6NUR|6NUR_protein|mol2

> <Gold.PLP.Fitness>
41.9335

> <Gold.PLP.PLP>
-35.9700

> <Gold.PLP.part.hbond>
-2.0277

> <Gold.PLP.part.metal>
0.0000

> <Gold.PLP.part.buried>
-5.0416

> <Gold.PLP.part.nonpolar>
-28.2453

> <Gold.PLP.part.repulsive>
0.3283

> <Gold.PLP.ligand.clash>
0.0000

> <Gold.PLP.ligand.torsion>
0.3254

> <Gold.PLP.Chemscore.Hbond>
2.2016

> <Gold.PLP.Chemscore.CHOScore>
0.0000

> <Gold.PLP.Chemscore.Metal>
0.0000

> <Gold.Chemscore.Hbonds>
donor molecule, donor type, donor heavy atom, donor atom, acceptor molecule, acceptor atom, score
      L1  H    11    40       P1  8028  2.00
      P1  H  6934  6947       L1    19  0.23

> <Gold.PLP.Chemscore.Internal.Correction>
0.0095

> <Gold.Rescore>
     Score         DG    S(hbond)    S(metal)    S(lipo)     H(rot)  DE(clash)    DE(int)     intcor
     17.18     -17.57       1.95        0.00      91.83       2.01       0.03       0.36       ----

> <Gold.Chemscore.Fitness>
17.1781

> <Gold.Chemscore.DG>
-17.5726

> <Gold.Chemscore.ZeroCoef>
-5.4800

> <Gold.Chemscore.Hbond>
1.9479

> <Gold.Chemscore.Metal>
0.0000

> <Gold.Chemscore.Lipo>
91.8275

> <Gold.Chemscore.Internal_Hbond>
0.0000

> <Gold.Chemscore.DEClash>
0.0332

> <Gold.Chemscore.DEInternal>
0.3613

> <Gold.Chemscore.Rot>
2.0146

> <Gold.Chemscore.Internal.Correction>
   9.000000E+99

> <Gold.Chemscore.Hbonds>
donor molecule, donor type, donor heavy atom, donor atom, acceptor molecule, acceptor atom, score
      L1  H    11    40       P1  8028  0.62
      P1  H  6934  6947       L1    19  0.03

> <Gold.Chemscore.Hbond.Weighted>
-6.5061

> <Gold.Chemscore.Metal.Weighted>
-0.0000

> <Gold.Chemscore.Lipo.Weighted>
-10.7438

> <Gold.Chemscore.Internal_Hbond.Weighted>
0.0000

> <Gold.Chemscore.DEClash.Weighted>
0.0332

> <Gold.Chemscore.DEInternal.Weighted>
0.3613

> <Gold.Chemscore.Rot.Weighted>
5.1573

> <Gold.Chemscore.Internal.Correction.Weighted>
   9.000000E+99

> <Gold.Protein.RotatedTorsions>
[ 6907 6896 6895 6894 ] final  109.45 input  -60.11 | X-H torsion
[ 7974 7965 7964 7962 ] final   93.19 input  175.53 | X-H torsion
[ 8008 7997 7996 7995 ] final   59.74 input   59.86 | X-H torsion
[ 10167 10162 10161 10158 ] final  134.63 input  -65.29 | X-H torsion
[ 10718 10713 10712 10709 ] final  -62.09 input   66.30 | X-H torsion
[ 10763 10752 10751 10750 ] final  159.02 input  -60.55 | X-H torsion
[ 11005 11000 10999 10996 ] final -151.37 input  -57.11 | X-H torsion

> <Gold.Protein.ActiveResidues>
 VAL166  LYS551  ARG553  GLY616  TRP617  ASP618  TYR619  PRO620  LYS621  CYS622 
 ASP623  PHE694  ASN695  SER759  ASP760  ASP761  ALA762  ILE779  LEU786  VAL792 
 PHE793  MET794  SER795  GLU796  ALA797  LYS798  CYS799  TRP800  GLU811  SER814 

> <Gold.Protein.RotatedAtoms>
  152.5067  133.8943  159.7408 H   0  0  0  0  0  0  0  0  0  0  0  0  # atno 6907 bound_to 6896
  150.9374  133.6687  159.2804 H   0  0  0  0  0  0  0  0  0  0  0  0  # atno 6908 bound_to 6896
  151.4011  135.0976  159.9609 H   0  0  0  0  0  0  0  0  0  0  0  0  # atno 6909 bound_to 6896
  145.4822  139.2278  143.2876 H   0  0  0  0  0  0  0  0  0  0  0  0  # atno 7974 bound_to 7965
  155.5711  140.3490  155.4515 H   0  0  0  0  0  0  0  0  0  0  0  0  # atno 8008 bound_to 7997
  156.0443  140.1303  157.0146 H   0  0  0  0  0  0  0  0  0  0  0  0  # atno 8009 bound_to 7997
  154.4405  140.1017  156.6268 H   0  0  0  0  0  0  0  0  0  0  0  0  # atno 8010 bound_to 7997
  139.5249  144.6558  151.5167 H   0  0  0  0  0  0  0  0  0  0  0  0  # atno 10167 bound_to 10162
  156.0878  130.4205  150.1085 H   0  0  0  0  0  0  0  0  0  0  0  0  # atno 10718 bound_to 10713
  154.2252  135.2780  155.2910 H   0  0  0  0  0  0  0  0  0  0  0  0  # atno 10763 bound_to 10752
  154.5669  135.5630  153.7062 H   0  0  0  0  0  0  0  0  0  0  0  0  # atno 10764 bound_to 10752
  153.0032  135.6311  154.2393 H   0  0  0  0  0  0  0  0  0  0  0  0  # atno 10765 bound_to 10752
  140.7303  134.3628  157.5168 H   0  0  0  0  0  0  0  0  0  0  0  0  # atno 11005 bound_to 11000
  146.2334  140.5609  142.8965 LP  0  0  0  0  0  0  0  0  0  0  0  0  # atno 17320 bound_to 7965
  144.7882  140.5979  143.6559 LP  0  0  0  0  0  0  0  0  0  0  0  0  # atno 17321 bound_to 7965
  140.6383  143.8941  150.6667 LP  0  0  0  0  0  0  0  0  0  0  0  0  # atno 17342 bound_to 10162
  140.2267  143.3767  152.1599 LP  0  0  0  0  0  0  0  0  0  0  0  0  # atno 17343 bound_to 10162
  156.9102  130.9649  151.3564 LP  0  0  0  0  0  0  0  0  0  0  0  0  # atno 17370 bound_to 10713
  157.6018  130.8518  149.8814 LP  0  0  0  0  0  0  0  0  0  0  0  0  # atno 17371 bound_to 10713
  139.8828  134.9014  156.2809 LP  0  0  0  0  0  0  0  0  0  0  0  0  # atno 17394 bound_to 11000
  140.9927  133.7199  156.0838 LP  0  0  0  0  0  0  0  0  0  0  0  0  # atno 17395 bound_to 11000

$$$$
