#       Name:                AV-unprocessed.smi:2243
#       Creating user name   scv26
#       Creation time:       Fri Mar 27 12:27:42 2020


#       File generated by GOLD software.
#

@<TRIPOS>MOLECULE
AV-unprocessed.smi:2243
    41    42     1
SMALL
NO_CHARGES


@<TRIPOS>ATOM
      1 ****        -1.9166  -1.0946   1.9009 C.3            1 S1                 0.0000
      2 ****        -1.1222  -0.3377   0.8225 C.3            1 S1                 0.0000
      3 ****         0.2965  -0.4124   1.1787 N.am           1 S1                 0.0000
      4 ****         1.1561   0.6124   1.2914 C.2            1 S1                 0.0000
      5 ****         0.7794   1.7650   1.0674 O.2            1 S1                 0.0000
      6 ****         2.4040   0.2352   1.6500 N.pl3          1 S1                -1.0000
      7 ****         3.3682   1.1598   1.7866 C.2            1 S1                 0.0000
      8 ****         3.8113   1.6778   2.9335 N.2            1 S1                 0.0000
      9 ****         4.8029   2.5811   2.5833 C.2            1 S1                 0.0000
     10 ****         4.9243   2.5639   1.2207 C.2            1 S1                 0.0000
     11 ****         4.0278   1.6681   0.7072 O.3            1 S1                 0.0000
     12 ****        -1.3600  -0.8858  -0.6110 C.3            1 S1                 0.0000
     13 ****        -0.5067  -0.1650  -1.6766 C.3            1 S1                 0.0000
     14 ****        -0.8184  -0.6845  -3.0889 C.3            1 S1                 0.0000
     15 ****        -2.2034  -0.5274  -3.3716 O.3            1 S1                 0.0000
     16 ****        -3.0292  -1.2780  -2.4904 C.3            1 S1                 0.0000
     17 ****        -2.8378  -0.7939  -1.0436 C.3            1 S1                 0.0000
     18 ****        -2.9913  -0.9625   1.7807 H              1 S1                 0.0000
     19 ****        -1.6639  -0.7306   2.8974 H              1 S1                 0.0000
     20 ****        -1.7031  -2.1636   1.8750 H              1 S1                 0.0000
     21 ****        -1.4555   0.7010   0.8493 H              1 S1                 0.0000
     22 ****         0.6618  -1.3336   1.3705 H              1 S1                 0.0000
     23 ****         5.3383   3.1574   3.3231 H              1 S1                 0.0000
     24 ****         5.5511   3.0858   0.5136 H              1 S1                 0.0000
     25 ****        -1.0757  -1.9394  -0.6185 H              1 S1                 0.0000
     26 ****        -0.6950   0.9087  -1.6357 H              1 S1                 0.0000
     27 ****         0.5567  -0.3015  -1.4801 H              1 S1                 0.0000
     28 ****        -0.2436  -0.1260  -3.8279 H              1 S1                 0.0000
     29 ****        -0.5312  -1.7323  -3.1897 H              1 S1                 0.0000
     30 ****        -4.0690  -1.1513  -2.7920 H              1 S1                 0.0000
     31 ****        -2.8013  -2.3415  -2.5776 H              1 S1                 0.0000
     32 ****        -3.4707  -1.3929  -0.3897 H              1 S1                 0.0000
     33 ****        -3.1848   0.2367  -0.9579 H              1 S1                 0.0000
     34 ****        -0.1687   1.9383   0.8010 LP             1 S1                 0.0000
     35 ****         1.4221   2.5265   1.1522 LP             1 S1                 0.0000
     36 ****         2.6085  -0.7299   1.8131 LP             1 S1                 0.0000
     37 ****         3.4935   1.4594   3.8561 LP             1 S1                 0.0000
     38 ****         3.3885   2.1271   0.0903 LP             1 S1                 0.0000
     39 ****         4.5037   0.9406   0.2130 LP             1 S1                 0.0000
     40 ****        -2.3756  -0.8310  -4.3087 LP             1 S1                 0.0000
     41 ****        -2.4401   0.4405  -3.2861 LP             1 S1                 0.0000
@<TRIPOS>BOND
    1    1    2 1     
    2    1   18 1     
    3    1   19 1     
    4    1   20 1     
    5    2    3 1     
    6    2   12 1     
    7    2   21 1     
    8    3   22 1     
    9    3    4 am    
   10    4    6 1     
   11    4    5 2     
   12    6    7 1     
   13    7   11 1     
   14    7    8 2     
   15    8    9 1     
   16    9   23 1     
   17    9   10 2     
   18   10   24 1     
   19   10   11 1     
   20   12   17 1     
   21   12   13 1     
   22   12   25 1     
   23   13   14 1     
   24   13   26 1     
   25   13   27 1     
   26   14   15 1     
   27   14   28 1     
   28   14   29 1     
   29   15   16 1     
   30   16   17 1     
   31   16   30 1     
   32   16   31 1     
   33   17   32 1     
   34   17   33 1     
   35    5   34 1     
   36    5   35 1     
   37    6   36 1     
   38    8   37 1     
   39   11   38 1     
   40   11   39 1     
   41   15   40 1     
   42   15   41 1     
@<TRIPOS>SUBSTRUCTURE
      1 S1             1
@<TRIPOS>SET
LONE_PAIRS      STATIC     ATOMS    <user>   **** ""
8 34 35 36 37 38 39 40 41
DONOR_HYDROGENS      STATIC     ATOMS    <user>   **** ""
1 22
ATOM$BLUE        STATIC     ATOMS    COLORGROUP SYSTEM
8 34 35 36 37 38 39 40 41
ATOM$RED        STATIC     ATOMS    COLORGROUP SYSTEM
1 22
