AV-unprocessed.smi:864|AV-procd|sdf|3986|dock4
  -GOLD-   22720 1463D 1   1.00000     0.00000
 Structure written by MMmdl.
 44 46  0  0  0  0  0  0  0  0  1 V2000
  144.3968  134.6066  150.1799 C   0  0  0  0  0  0  0  0  0  0  0  0
  144.7725  135.6862  151.1731 C   0  0  0  0  0  0  0  0  0  0  0  0
  143.8997  136.0400  152.2236 C   0  0  0  0  0  0  0  0  0  0  0  0
  144.2993  137.0542  153.1152 C   0  0  0  0  0  0  0  0  0  0  0  0
  145.5517  137.6722  152.9242 C   0  0  0  0  0  0  0  0  0  0  0  0
  146.0222  138.7820  153.8493 C   0  0  0  0  0  0  0  0  0  0  0  0
  147.4419  139.2937  153.5270 C   0  0  0  0  0  0  0  0  0  0  0  0
  148.0436  140.0398  154.6284 N   0  0  0  0  0  0  0  0  0  0  0  0
  149.3602  140.1657  154.8417 C   0  0  0  0  0  0  0  0  0  0  0  0
  150.2258  139.6138  154.1622 O   0  0  0  0  0  0  0  0  0  0  0  0
  149.6215  140.9988  155.8579 N   0  0  0  0  0  0  0  0  0  0  0  0
  150.9589  141.4377  156.2453 C   0  0  2  0  0  0  0  0  0  0  0  0
  151.8929  140.2525  156.5228 C   0  0  0  0  0  0  0  0  0  0  0  0
  152.4995  140.5789  157.8771 C   0  0  0  0  0  0  0  0  0  0  0  0
  153.3469  139.8638  158.4105 O   0  0  0  0  0  0  0  0  0  0  0  0
  151.9894  141.7070  158.3854 N   0  0  0  0  0  0  0  0  0  0  0  0
  152.2552  142.2005  159.7063 C   0  0  0  0  0  0  0  0  0  0  0  0
  152.7075  143.6300  159.9398 C   0  0  0  0  0  0  0  0  0  0  0  0
  153.6909  142.4948  160.0785 C   0  0  0  0  0  0  0  0  0  0  0  0
  150.9248  142.2503  157.5542 C   0  0  0  0  0  0  0  0  0  0  0  0
  146.3525  137.2389  151.8455 C   0  0  0  0  0  0  0  0  0  0  0  0
  145.9758  136.2710  150.9831 N   0  0  0  0  0  0  0  0  0  0  0  0
  143.3926  134.2266  150.3696 H   0  0  0  0  0  0  0  0  0  0  0  0
  145.0952  133.7719  150.2460 H   0  0  0  0  0  0  0  0  0  0  0  0
  144.4250  134.9996  149.1631 H   0  0  0  0  0  0  0  0  0  0  0  0
  142.9452  135.5491  152.3450 H   0  0  0  0  0  0  0  0  0  0  0  0
  143.6538  137.3540  153.9277 H   0  0  0  0  0  0  0  0  0  0  0  0
  145.3142  139.6097  153.7992 H   0  0  0  0  0  0  0  0  0  0  0  0
  145.9845  138.4209  154.8778 H   0  0  0  0  0  0  0  0  0  0  0  0
  148.0931  138.4436  153.3216 H   0  0  0  0  0  0  0  0  0  0  0  0
  147.4326  139.9014  152.6209 H   0  0  0  0  0  0  0  0  0  0  0  0
  147.4119  140.5372  155.2388 H   0  0  0  0  0  0  0  0  0  0  0  0
  148.8434  141.4028  156.3585 H   0  0  0  0  0  0  0  0  0  0  0  0
  151.3942  142.0438  155.4481 H   0  0  0  0  0  0  0  0  0  0  0  0
  151.3568  139.3045  156.5873 H   0  0  0  0  0  0  0  0  0  0  0  0
  152.6690  140.1600  155.7625 H   0  0  0  0  0  0  0  0  0  0  0  0
  151.6343  141.7837  160.4981 H   0  0  0  0  0  0  0  0  0  0  0  0
  152.8379  144.2982  159.0916 H   0  0  0  0  0  0  0  0  0  0  0  0
  152.3729  144.1136  160.8551 H   0  0  0  0  0  0  0  0  0  0  0  0
  154.0132  142.2281  161.0829 H   0  0  0  0  0  0  0  0  0  0  0  0
  154.4480  142.3914  159.3036 H   0  0  0  0  0  0  0  0  0  0  0  0
  151.0828  143.3105  157.3536 H   0  0  0  0  0  0  0  0  0  0  0  0
  149.9734  142.1426  158.0790 H   0  0  0  0  0  0  0  0  0  0  0  0
  147.3168  137.6892  151.6601 H   0  0  0  0  0  0  0  0  0  0  0  0
  1  2  1  0  0  0  0
  1 23  1  0  0  0  0
  1 24  1  0  0  0  0
  1 25  1  0  0  0  0
  2 22  1  0  0  0  0
  2  3  2  0  0  0  0
  3  4  1  0  0  0  0
  3 26  1  0  0  0  0
  4  5  2  0  0  0  0
  4 27  1  0  0  0  0
  5  6  1  0  0  0  0
  5 21  1  0  0  0  0
  6  7  1  0  0  0  0
  6 28  1  0  0  0  0
  6 29  1  0  0  0  0
  7  8  1  0  0  0  0
  7 30  1  0  0  0  0
  7 31  1  0  0  0  0
  8  9  1  0  0  0  0
  8 32  1  0  0  0  0
  9 10  2  0  0  0  0
  9 11  1  0  0  0  0
 11 12  1  0  0  0  0
 11 33  1  0  0  0  0
 12 20  1  0  0  0  0
 12 13  1  0  0  0  0
 12 34  1  0  0  0  0
 13 14  1  0  0  0  0
 13 35  1  0  0  0  0
 13 36  1  0  0  0  0
 14 15  2  0  0  0  0
 14 16  1  0  0  0  0
 16 17  1  0  0  0  0
 16 20  1  0  0  0  0
 17 19  1  0  0  0  0
 17 18  1  0  0  0  0
 17 37  1  0  0  0  0
 18 19  1  0  0  0  0
 18 38  1  0  0  0  0
 18 39  1  0  0  0  0
 19 40  1  0  0  0  0
 19 41  1  0  0  0  0
 20 42  1  0  0  0  0
 20 43  1  0  0  0  0
 21 22  2  0  0  0  0
 21 44  1  0  0  0  0
M  END
> <s_m_source_file>
AV-unprocessed.smi

> <i_m_source_file_index>
864

> <i_lp_mmshare_version>
43012

> <i_f3d_flags>
0

> <s_epik_input>
W0NIM11jMVtjSF1bY0hdYyhbY0hdbjEpW0NIMl1bQ0gyXVtOSF1DKD1PKVtOSF1bQ0BASF0yW0NIMl1DKD1PKU4oW0NIMl0yKVtDSF0zW0NIMl1bQ0gyXTM=

> <s_epik_cmdline>
J2VwaWtfcHl0aG9uJywgJy1waCcsICc3LjAnLCAnLXRuJywgJzgnLCAnLW1hJywgJzIwMCcsICctbWV0YWxfYmluZGluZycsICctaW1hZScsICc8aW5maWxlLm1hZT4nLCAnLW9tYWUnLCAnPG91dGZpbGUubWFlPic=

> <r_epik_Ionization_Penalty>
0.0559435

> <r_epik_Ionization_Penalty_Charging>
0

> <r_epik_Ionization_Penalty_Neutral>
0.0559435

> <r_epik_State_Penalty>
0.0481757

> <r_epik_Charging_Adjusted_Penalty>
0.0481757

> <i_epik_Tot_Q>
0

> <i_epik_Tot_abs_Q>
0

> <r_epik_Metal_State_Penalty>
0.0439988

> <b_epik_Metal_Only>
0

> <s_lp_Force_Field>
OPLS_2005

> <r_lp_Energy>
33.3792

> <b_lp_Chiralities_Consistent>
1

> <s_lp_Variant>
AV-unprocessed.smi:864-1

> <Gold.Version>
5.8.1

> <Gold.Id.Protein>
6NUR|6NUR_protein|mol2

> <Gold.PLP.Fitness>
44.4186

> <Gold.PLP.PLP>
-36.9523

> <Gold.PLP.part.hbond>
-2.0000

> <Gold.PLP.part.metal>
0.0000

> <Gold.PLP.part.buried>
-0.6818

> <Gold.PLP.part.nonpolar>
-34.5195

> <Gold.PLP.part.repulsive>
1.0723

> <Gold.PLP.ligand.clash>
0.0000

> <Gold.PLP.ligand.torsion>
0.4210

> <Gold.PLP.Chemscore.Hbond>
2.0000

> <Gold.PLP.Chemscore.CHOScore>
0.6745

> <Gold.PLP.Chemscore.Metal>
0.0000

> <Gold.Chemscore.Hbonds>
donor molecule, donor type, donor heavy atom, donor atom, acceptor molecule, acceptor atom, score
      P1  H  7989  7998       L1    10  1.00
      P1  H  7997  8008       L1    15  0.95
      L1  C    21    44       P1  7948  0.65

> <Gold.PLP.Chemscore.Internal.Correction>
0.2846

> <Gold.Rescore>
     Score         DG    S(hbond)    S(metal)    S(lipo)     H(rot)  DE(clash)    DE(int)     intcor
     14.15     -17.17       1.45        0.00      96.82       1.75       1.36       1.66       ----

> <Gold.Chemscore.Fitness>
14.1486

> <Gold.Chemscore.DG>
-17.1680

> <Gold.Chemscore.ZeroCoef>
-5.4800

> <Gold.Chemscore.Hbond>
1.4507

> <Gold.Chemscore.Metal>
0.0000

> <Gold.Chemscore.Lipo>
96.8151

> <Gold.Chemscore.Internal_Hbond>
0.0000

> <Gold.Chemscore.DEClash>
1.3583

> <Gold.Chemscore.DEInternal>
1.6611

> <Gold.Chemscore.Rot>
1.7518

> <Gold.Chemscore.Internal.Correction>
   9.000000E+99

> <Gold.Chemscore.Hbonds>
donor molecule, donor type, donor heavy atom, donor atom, acceptor molecule, acceptor atom, score
      P1  H  7989  7998       L1    10  0.84
      P1  H  7997  8008       L1    15  0.21

> <Gold.Chemscore.Hbond.Weighted>
-4.8452

> <Gold.Chemscore.Metal.Weighted>
-0.0000

> <Gold.Chemscore.Lipo.Weighted>
-11.3274

> <Gold.Chemscore.Internal_Hbond.Weighted>
0.0000

> <Gold.Chemscore.DEClash.Weighted>
1.3583

> <Gold.Chemscore.DEInternal.Weighted>
1.6611

> <Gold.Chemscore.Rot.Weighted>
4.4846

> <Gold.Chemscore.Internal.Correction.Weighted>
   9.000000E+99

> <Gold.Protein.RotatedTorsions>
[ 6907 6896 6895 6894 ] final -168.58 input  -60.11 | X-H torsion
[ 7974 7965 7964 7962 ] final  147.34 input  175.53 | X-H torsion
[ 8008 7997 7996 7995 ] final  -95.04 input   59.86 | X-H torsion
[ 10167 10162 10161 10158 ] final   15.51 input  -65.29 | X-H torsion
[ 10718 10713 10712 10709 ] final  -60.97 input   66.30 | X-H torsion
[ 10763 10752 10751 10750 ] final  -86.16 input  -60.55 | X-H torsion
[ 11005 11000 10999 10996 ] final  -94.47 input  -57.11 | X-H torsion

> <Gold.Protein.ActiveResidues>
 VAL166  LYS551  ARG553  GLY616  TRP617  ASP618  TYR619  PRO620  LYS621  CYS622 
 ASP623  PHE694  ASN695  SER759  ASP760  ASP761  ALA762  ILE779  LEU786  VAL792 
 PHE793  MET794  SER795  GLU796  ALA797  LYS798  CYS799  TRP800  GLU811  SER814 

> <Gold.Protein.RotatedAtoms>
  151.4778  133.3553  159.2833 H   0  0  0  0  0  0  0  0  0  0  0  0  # atno 6907 bound_to 6896
  150.8917  134.8324  159.7309 H   0  0  0  0  0  0  0  0  0  0  0  0  # atno 6908 bound_to 6896
  152.4827  134.4689  159.9681 H   0  0  0  0  0  0  0  0  0  0  0  0  # atno 6909 bound_to 6896
  144.8599  139.6016  143.5935 H   0  0  0  0  0  0  0  0  0  0  0  0  # atno 7974 bound_to 7965
  154.7562  140.0483  157.0935 H   0  0  0  0  0  0  0  0  0  0  0  0  # atno 8008 bound_to 7997
  154.9995  140.3123  155.4853 H   0  0  0  0  0  0  0  0  0  0  0  0  # atno 8009 bound_to 7997
  156.2895  140.2204  156.5104 H   0  0  0  0  0  0  0  0  0  0  0  0  # atno 8010 bound_to 7997
  140.5862  143.8885  150.6832 H   0  0  0  0  0  0  0  0  0  0  0  0  # atno 10167 bound_to 10162
  156.0953  130.4194  150.0929 H   0  0  0  0  0  0  0  0  0  0  0  0  # atno 10718 bound_to 10713
  154.6193  135.5459  153.7558 H   0  0  0  0  0  0  0  0  0  0  0  0  # atno 10763 bound_to 10752
  153.0231  135.6409  154.1463 H   0  0  0  0  0  0  0  0  0  0  0  0  # atno 10764 bound_to 10752
  154.1398  135.2909  155.3143 H   0  0  0  0  0  0  0  0  0  0  0  0  # atno 10765 bound_to 10752
  141.1469  133.7958  157.0303 H   0  0  0  0  0  0  0  0  0  0  0  0  # atno 11005 bound_to 11000
  146.2852  139.6986  142.9200 LP  0  0  0  0  0  0  0  0  0  0  0  0  # atno 17320 bound_to 7965
  145.4332  141.0417  143.2899 LP  0  0  0  0  0  0  0  0  0  0  0  0  # atno 17321 bound_to 7965
  140.2396  143.3673  152.1497 LP  0  0  0  0  0  0  0  0  0  0  0  0  # atno 17342 bound_to 10162
  139.5199  144.7026  151.5450 LP  0  0  0  0  0  0  0  0  0  0  0  0  # atno 17343 bound_to 10162
  156.8929  130.9594  151.3586 LP  0  0  0  0  0  0  0  0  0  0  0  0  # atno 17370 bound_to 10713
  157.6113  130.8585  149.8956 LP  0  0  0  0  0  0  0  0  0  0  0  0  # atno 17371 bound_to 10713
  140.0758  134.9676  157.1544 LP  0  0  0  0  0  0  0  0  0  0  0  0  # atno 17394 bound_to 11000
  140.3645  134.2457  155.7183 LP  0  0  0  0  0  0  0  0  0  0  0  0  # atno 17395 bound_to 11000

$$$$
