AV-unprocessed.smi:50|AV-procd|sdf|493|dock2
  -GOLD-   2262016353D 1   1.00000     0.00000
 Structure written by MMmdl.
 43 44  0  0  0  0  0  0  0  0  1 V2000
  151.3226  141.9621  158.5874 C   0  0  0  0  0  0  0  0  0  0  0  0
  150.2855  142.3933  157.5357 C   0  0  0  0  0  0  0  0  0  0  0  0
  148.8584  142.2506  158.1010 C   0  0  0  0  0  0  0  0  0  0  0  0
  150.5174  141.6865  156.1708 C   0  0  2  0  0  0  0  0  0  0  0  0
  149.6116  142.2148  155.1496 N   0  0  0  0  0  0  0  0  0  0  0  0
  150.5012  140.1472  156.2451 C   0  0  0  0  0  0  0  0  0  0  0  0
  149.6991  139.4479  155.6254 O   0  0  0  0  0  0  0  0  0  0  0  0
  151.4743  139.6792  157.0499 O   0  0  0  0  0  0  0  0  0  0  0  0
  151.6332  138.2812  157.2224 C   0  0  0  0  0  0  0  0  0  0  0  0
  152.3705  137.7041  156.0112 C   0  0  0  0  0  0  0  0  0  0  0  0
  151.5322  136.7507  155.3794 O   0  0  0  0  0  0  0  0  0  0  0  0
  151.0752  135.7658  156.2455 C   0  0  0  0  0  0  0  0  0  0  0  0
  150.7279  134.6075  155.4459 N   0  0  0  0  0  0  0  0  0  0  0  0
  150.0105  134.5563  154.2768 C   0  0  0  0  0  0  0  0  0  0  0  0
  149.8629  133.3519  153.7990 N   0  0  0  0  0  0  0  0  0  0  0  0
  150.5251  132.5383  154.7141 C   0  0  0  0  0  0  0  0  0  0  0  0
  150.7033  131.1140  154.7266 C   0  0  0  0  0  0  0  0  0  0  0  0
  150.2993  130.2885  153.9105 O   0  0  0  0  0  0  0  0  0  0  0  0
  151.4390  130.6839  155.8384 N   0  0  0  0  0  0  0  0  0  0  0  0
  151.9416  131.5343  156.8206 C   0  0  0  0  0  0  0  0  0  0  0  0
  152.6245  130.9615  157.8206 N   0  0  0  0  0  0  0  0  0  0  0  0
  151.7774  132.8457  156.8079 N   0  0  0  0  0  0  0  0  0  0  0  0
  151.0619  133.3015  155.7329 C   0  0  0  0  0  0  0  0  0  0  0  0
  151.5198  141.9697  155.8479 H   0  0  0  0  0  0  0  0  0  0  0  0
  151.6062  129.6916  155.9185 H   0  0  0  0  0  0  0  0  0  0  0  0
  151.2122  140.9111  158.8556 H   0  0  0  0  0  0  0  0  0  0  0  0
  151.2190  142.5469  159.5018 H   0  0  0  0  0  0  0  0  0  0  0  0
  152.3391  142.1070  158.2204 H   0  0  0  0  0  0  0  0  0  0  0  0
  150.4501  143.4589  157.3688 H   0  0  0  0  0  0  0  0  0  0  0  0
  148.6426  141.2276  158.4099 H   0  0  0  0  0  0  0  0  0  0  0  0
  148.1073  142.5456  157.3681 H   0  0  0  0  0  0  0  0  0  0  0  0
  148.7245  142.8861  158.9767 H   0  0  0  0  0  0  0  0  0  0  0  0
  149.3949  143.1874  155.3135 H   0  0  0  0  0  0  0  0  0  0  0  0
  150.0253  142.1672  154.2295 H   0  0  0  0  0  0  0  0  0  0  0  0
  152.1957  138.0799  158.1352 H   0  0  0  0  0  0  0  0  0  0  0  0
  150.6545  137.8104  157.3260 H   0  0  0  0  0  0  0  0  0  0  0  0
  152.6225  138.5030  155.3120 H   0  0  0  0  0  0  0  0  0  0  0  0
  153.3024  137.2351  156.3307 H   0  0  0  0  0  0  0  0  0  0  0  0
  151.8537  135.4764  156.9539 H   0  0  0  0  0  0  0  0  0  0  0  0
  150.1947  136.1035  156.7952 H   0  0  0  0  0  0  0  0  0  0  0  0
  149.6016  135.4317  153.7935 H   0  0  0  0  0  0  0  0  0  0  0  0
  152.7506  129.9597  157.8319 H   0  0  0  0  0  0  0  0  0  0  0  0
  153.0128  131.5269  158.5617 H   0  0  0  0  0  0  0  0  0  0  0  0
  1  2  1  0  0  0  0
  1 26  1  0  0  0  0
  1 27  1  0  0  0  0
  1 28  1  0  0  0  0
  2  3  1  0  0  0  0
  2  4  1  0  0  0  0
  2 29  1  0  0  0  0
  3 30  1  0  0  0  0
  3 31  1  0  0  0  0
  3 32  1  0  0  0  0
  4 24  1  0  0  0  0
  4  5  1  0  0  0  0
  4  6  1  0  0  0  0
  5 33  1  0  0  0  0
  5 34  1  0  0  0  0
  6  7  2  0  0  0  0
  6  8  1  0  0  0  0
  8  9  1  0  0  0  0
  9 10  1  0  0  0  0
  9 35  1  0  0  0  0
  9 36  1  0  0  0  0
 10 11  1  0  0  0  0
 10 37  1  0  0  0  0
 10 38  1  0  0  0  0
 11 12  1  0  0  0  0
 12 13  1  0  0  0  0
 12 39  1  0  0  0  0
 12 40  1  0  0  0  0
 13 23  1  0  0  0  0
 13 14  1  0  0  0  0
 14 15  2  0  0  0  0
 14 41  1  0  0  0  0
 15 16  1  0  0  0  0
 16 23  2  0  0  0  0
 16 17  1  0  0  0  0
 17 18  2  0  0  0  0
 17 19  1  0  0  0  0
 19 25  1  0  0  0  0
 19 20  1  0  0  0  0
 20 21  1  0  0  0  0
 20 22  2  0  0  0  0
 21 42  1  0  0  0  0
 21 43  1  0  0  0  0
 22 23  1  0  0  0  0
M  END
> <s_m_source_file>
AV-unprocessed.smi

> <i_m_source_file_index>
50

> <i_lp_mmshare_version>
43012

> <i_f3d_flags>
0

> <s_epik_input>
W0NIM11bQ0hdKFtDSDNdKVtDQEhdKFtOSDJdKUMoPU8pT1tDSDJdW0NIMl1PW0NIMl1uKFtjSF1uMSljKGMxMiluYyhbTkgyXSlbbkhdYzI9Tw==

> <s_epik_cmdline>
J2VwaWtfcHl0aG9uJywgJy1waCcsICc3LjAnLCAnLXRuJywgJzgnLCAnLW1hJywgJzIwMCcsICctbWV0YWxfYmluZGluZycsICctaW1hZScsICc8aW5maWxlLm1hZT4nLCAnLW9tYWUnLCAnPG91dGZpbGUubWFlPic=

> <r_lp_tautomer_probability>
0.99994

> <r_epik_Ionization_Penalty>
0.704142

> <r_epik_Ionization_Penalty_Charging>
0.00148332

> <r_epik_Ionization_Penalty_Neutral>
0.702658

> <r_epik_State_Penalty>
0.725442

> <r_epik_Charging_Adjusted_Penalty>
0.726926

> <i_epik_Tot_Q>
0

> <i_epik_Tot_abs_Q>
0

> <r_epik_Metal_State_Penalty>
1.04557

> <b_epik_Metal_Only>
0

> <s_epik_Chemistry_Notes>
This compound has an ester and may undergo hydrolysis at high or low pH. This compound contains an acetal/aminal-like group ( X-CH(R)-Y where X, Y are N, S, or O) that may be acid/base labile, releasing an aldehyde.

> <s_lp_Force_Field>
OPLS_2005

> <r_lp_Energy>
11.3413

> <b_lp_Chiralities_Consistent>
1

> <s_lp_Variant>
AV-unprocessed.smi:50-3

> <Gold.Version>
5.8.1

> <Gold.Id.Protein>
6NUR|6NUR_protein|mol2

> <Gold.PLP.Fitness>
38.2517

> <Gold.PLP.PLP>
-28.0079

> <Gold.PLP.part.hbond>
-3.3039

> <Gold.PLP.part.metal>
0.0000

> <Gold.PLP.part.buried>
-4.9886

> <Gold.PLP.part.nonpolar>
-20.1739

> <Gold.PLP.part.repulsive>
0.3391

> <Gold.PLP.ligand.clash>
0.0000

> <Gold.PLP.ligand.torsion>
0.8734

> <Gold.PLP.Chemscore.Hbond>
2.8300

> <Gold.PLP.Chemscore.CHOScore>
1.0000

> <Gold.PLP.Chemscore.Metal>
0.0000

> <Gold.Chemscore.Hbonds>
donor molecule, donor type, donor heavy atom, donor atom, acceptor molecule, acceptor atom, score
      L1  H     5    33       P1  8028  1.00
      P1  H 10752 10763       L1    11  0.58
      L1  C    14    41       P1  7948  0.86

> <Gold.PLP.Chemscore.Internal.Correction>
0.5006

> <Gold.Rescore>
     Score         DG    S(hbond)    S(metal)    S(lipo)     H(rot)  DE(clash)    DE(int)     intcor
      1.40      -3.81       1.78        0.00      38.84       4.75       0.01       2.40       ----

> <Gold.Chemscore.Fitness>
1.4008

> <Gold.Chemscore.DG>
-3.8108

> <Gold.Chemscore.ZeroCoef>
-5.4800

> <Gold.Chemscore.Hbond>
1.7803

> <Gold.Chemscore.Metal>
0.0000

> <Gold.Chemscore.Lipo>
38.8444

> <Gold.Chemscore.Internal_Hbond>
0.0000

> <Gold.Chemscore.DEClash>
0.0069

> <Gold.Chemscore.DEInternal>
2.4030

> <Gold.Chemscore.Rot>
4.7501

> <Gold.Chemscore.Internal.Correction>
   9.000000E+99

> <Gold.Chemscore.Hbonds>
donor molecule, donor type, donor heavy atom, donor atom, acceptor molecule, acceptor atom, score
      L1  H     5    33       P1  8028  1.00
      P1  H  6896  6907       L1    22  0.01
      P1  H 10752 10763       L1    11  0.01

> <Gold.Chemscore.Hbond.Weighted>
-5.9463

> <Gold.Chemscore.Metal.Weighted>
-0.0000

> <Gold.Chemscore.Lipo.Weighted>
-4.5448

> <Gold.Chemscore.Internal_Hbond.Weighted>
0.0000

> <Gold.Chemscore.DEClash.Weighted>
0.0069

> <Gold.Chemscore.DEInternal.Weighted>
2.4030

> <Gold.Chemscore.Rot.Weighted>
12.1603

> <Gold.Chemscore.Internal.Correction.Weighted>
   9.000000E+99

> <Gold.Protein.RotatedTorsions>
[ 6907 6896 6895 6894 ] final -169.80 input  -60.11 | X-H torsion
[ 7974 7965 7964 7962 ] final  -44.36 input  175.53 | X-H torsion
[ 8008 7997 7996 7995 ] final  147.41 input   59.86 | X-H torsion
[ 10167 10162 10161 10158 ] final  -99.40 input  -65.29 | X-H torsion
[ 10718 10713 10712 10709 ] final  121.81 input   66.30 | X-H torsion
[ 10763 10752 10751 10750 ] final   62.49 input  -60.55 | X-H torsion
[ 11005 11000 10999 10996 ] final -110.94 input  -57.11 | X-H torsion

> <Gold.Protein.ActiveResidues>
 VAL166  LYS551  ARG553  GLY616  TRP617  ASP618  TYR619  PRO620  LYS621  CYS622 
 ASP623  PHE694  ASN695  SER759  ASP760  ASP761  ALA762  ILE779  LEU786  VAL792 
 PHE793  MET794  SER795  GLU796  ALA797  LYS798  CYS799  TRP800  GLU811  SER814 

> <Gold.Protein.RotatedAtoms>
  151.4974  133.3511  159.2863 H   0  0  0  0  0  0  0  0  0  0  0  0  # atno 6907 bound_to 6896
  150.8795  134.8185  159.7225 H   0  0  0  0  0  0  0  0  0  0  0  0  # atno 6908 bound_to 6896
  152.4753  134.4870  159.9735 H   0  0  0  0  0  0  0  0  0  0  0  0  # atno 6909 bound_to 6896
  145.9928  140.7162  142.9309 H   0  0  0  0  0  0  0  0  0  0  0  0  # atno 7974 bound_to 7965
  156.2825  140.2156  156.5533 H   0  0  0  0  0  0  0  0  0  0  0  0  # atno 8008 bound_to 7997
  154.7273  140.0498  157.0717 H   0  0  0  0  0  0  0  0  0  0  0  0  # atno 8009 bound_to 7997
  155.0399  140.3144  155.4731 H   0  0  0  0  0  0  0  0  0  0  0  0  # atno 8010 bound_to 7997
  140.2629  143.3395  152.0608 H   0  0  0  0  0  0  0  0  0  0  0  0  # atno 10167 bound_to 10162
  157.5790  131.1076  150.8224 H   0  0  0  0  0  0  0  0  0  0  0  0  # atno 10718 bound_to 10713
  152.9985  135.5463  154.6202 H   0  0  0  0  0  0  0  0  0  0  0  0  # atno 10763 bound_to 10752
  154.5503  135.2826  155.1017 H   0  0  0  0  0  0  0  0  0  0  0  0  # atno 10764 bound_to 10752
  154.2259  135.6442  153.5212 H   0  0  0  0  0  0  0  0  0  0  0  0  # atno 10765 bound_to 10752
  141.0763  133.9295  157.2382 H   0  0  0  0  0  0  0  0  0  0  0  0  # atno 11005 bound_to 11000
  144.6894  140.3098  143.7250 LP  0  0  0  0  0  0  0  0  0  0  0  0  # atno 17320 bound_to 7965
  145.7605  139.1823  143.2270 LP  0  0  0  0  0  0  0  0  0  0  0  0  # atno 17321 bound_to 7965
  139.5011  144.6707  151.6249 LP  0  0  0  0  0  0  0  0  0  0  0  0  # atno 17342 bound_to 10162
  140.5951  143.9709  150.6349 LP  0  0  0  0  0  0  0  0  0  0  0  0  # atno 17343 bound_to 10162
  156.8675  130.5134  149.5299 LP  0  0  0  0  0  0  0  0  0  0  0  0  # atno 17370 bound_to 10713
  156.0835  130.5840  150.9606 LP  0  0  0  0  0  0  0  0  0  0  0  0  # atno 17371 bound_to 10713
  139.9575  135.0162  156.9170 LP  0  0  0  0  0  0  0  0  0  0  0  0  # atno 17394 bound_to 11000
  140.5566  134.0575  155.7385 LP  0  0  0  0  0  0  0  0  0  0  0  0  # atno 17395 bound_to 11000

$$$$
