AV-unprocessed.smi:2297|AV-procd|sdf|9223|dock1
  -GOLD-   2272012443D 1   1.00000     0.00000
 Structure written by MMmdl.
 44 45  0  0  0  0  0  0  0  0  1 V2000
  151.3241  145.5307  160.1531 C   0  0  0  0  0  0  0  0  0  0  0  0
  151.7262  144.0948  159.8849 C   0  0  0  0  0  0  0  0  0  0  0  0
  152.6598  143.4494  160.7200 C   0  0  0  0  0  0  0  0  0  0  0  0
  153.0282  142.1137  160.4674 C   0  0  0  0  0  0  0  0  0  0  0  0
  154.0348  141.4272  161.3678 C   0  0  0  0  0  0  0  0  0  0  0  0
  152.4584  141.4254  159.3766 C   0  0  0  0  0  0  0  0  0  0  0  0
  151.5240  142.0571  158.5306 C   0  0  0  0  0  0  0  0  0  0  0  0
  151.0188  141.3080  157.4898 O   0  0  0  0  0  0  0  0  0  0  0  0
  150.5916  141.9862  156.3155 C   0  0  0  0  0  0  0  0  0  0  0  0
  149.9937  140.9608  155.3398 C   0  0  1  0  0  0  0  0  0  0  0  0
  151.0177  140.0372  155.0301 O   0  0  0  0  0  0  0  0  0  0  0  0
  148.7948  140.1999  155.9511 C   0  0  0  0  0  0  0  0  0  0  0  0
  147.5888  141.0407  156.0304 N   0  0  0  0  0  0  0  0  0  0  0  0
  147.0016  141.1689  157.3006 C   0  0  0  0  0  0  0  0  0  0  0  0
  145.9414  141.8839  157.4902 N   0  0  0  0  0  0  0  0  0  0  0  0
  145.3538  142.5569  156.4152 C   0  0  0  0  0  0  0  0  0  0  0  0
  144.1133  143.3669  156.7479 C   0  0  0  0  0  0  0  0  0  0  0  0
  145.8769  142.4793  155.1611 C   0  0  0  0  0  0  0  0  0  0  0  0
  145.2794  143.1898  153.9529 C   0  0  0  0  0  0  0  0  0  0  0  0
  147.0847  141.6702  154.9302 C   0  0  0  0  0  0  0  0  0  0  0  0
  147.6126  141.5608  153.8220 O   0  0  0  0  0  0  0  0  0  0  0  0
  151.1614  143.4018  158.7949 C   0  0  0  0  0  0  0  0  0  0  0  0
  151.8888  145.9546  160.9841 H   0  0  0  0  0  0  0  0  0  0  0  0
  150.2629  145.5862  160.3981 H   0  0  0  0  0  0  0  0  0  0  0  0
  151.5052  146.1456  159.2710 H   0  0  0  0  0  0  0  0  0  0  0  0
  153.0955  143.9774  161.5561 H   0  0  0  0  0  0  0  0  0  0  0  0
  154.1694  140.3809  161.0917 H   0  0  0  0  0  0  0  0  0  0  0  0
  153.7021  141.4646  162.4055 H   0  0  0  0  0  0  0  0  0  0  0  0
  155.0024  141.9248  161.2987 H   0  0  0  0  0  0  0  0  0  0  0  0
  152.7392  140.4007  159.1813 H   0  0  0  0  0  0  0  0  0  0  0  0
  149.8331  142.7247  156.5812 H   0  0  0  0  0  0  0  0  0  0  0  0
  151.4265  142.5102  155.8465 H   0  0  0  0  0  0  0  0  0  0  0  0
  149.7034  141.4759  154.4231 H   0  0  0  0  0  0  0  0  0  0  0  0
  151.2386  139.5580  155.8140 H   0  0  0  0  0  0  0  0  0  0  0  0
  148.6098  139.2713  155.4081 H   0  0  0  0  0  0  0  0  0  0  0  0
  149.0504  139.8657  156.9588 H   0  0  0  0  0  0  0  0  0  0  0  0
  147.5048  140.6308  158.1059 H   0  0  0  0  0  0  0  0  0  0  0  0
  143.2549  143.0006  156.1842 H   0  0  0  0  0  0  0  0  0  0  0  0
  144.2680  144.4185  156.5055 H   0  0  0  0  0  0  0  0  0  0  0  0
  143.8692  143.3018  157.8091 H   0  0  0  0  0  0  0  0  0  0  0  0
  146.0123  143.8682  153.5151 H   0  0  0  0  0  0  0  0  0  0  0  0
  144.3937  143.7753  154.1933 H   0  0  0  0  0  0  0  0  0  0  0  0
  144.9947  142.4623  153.1922 H   0  0  0  0  0  0  0  0  0  0  0  0
  150.4477  143.9232  158.1751 H   0  0  0  0  0  0  0  0  0  0  0  0
  1  2  1  0  0  0  0
  1 23  1  0  0  0  0
  1 24  1  0  0  0  0
  1 25  1  0  0  0  0
  2 22  1  0  0  0  0
  2  3  2  0  0  0  0
  3  4  1  0  0  0  0
  3 26  1  0  0  0  0
  4  5  1  0  0  0  0
  4  6  2  0  0  0  0
  5 27  1  0  0  0  0
  5 28  1  0  0  0  0
  5 29  1  0  0  0  0
  6  7  1  0  0  0  0
  6 30  1  0  0  0  0
  7  8  1  0  0  0  0
  7 22  2  0  0  0  0
  8  9  1  0  0  0  0
  9 10  1  0  0  0  0
  9 31  1  0  0  0  0
  9 32  1  0  0  0  0
 10 11  1  0  0  0  0
 10 12  1  0  0  0  0
 10 33  1  0  0  0  0
 11 34  1  0  0  0  0
 12 13  1  0  0  0  0
 12 35  1  0  0  0  0
 12 36  1  0  0  0  0
 13 20  1  0  0  0  0
 13 14  1  0  0  0  0
 14 15  2  0  0  0  0
 14 37  1  0  0  0  0
 15 16  1  0  0  0  0
 16 17  1  0  0  0  0
 16 18  2  0  0  0  0
 17 38  1  0  0  0  0
 17 39  1  0  0  0  0
 17 40  1  0  0  0  0
 18 19  1  0  0  0  0
 18 20  1  0  0  0  0
 19 41  1  0  0  0  0
 19 42  1  0  0  0  0
 19 43  1  0  0  0  0
 20 21  2  0  0  0  0
 22 44  1  0  0  0  0
M  END
> <s_m_source_file>
AV-unprocessed.smi

> <i_m_source_file_index>
2297

> <i_lp_mmshare_version>
43012

> <i_f3d_flags>
0

> <s_epik_input>
W0NIM11jMVtjSF1jKFtDSDNdKVtjSF1jKFtjSF0xKU9bQ0gyXVtDQEhdKFtPSF0pW0NIMl1uMltjSF1uYyhbQ0gzXSljKFtDSDNdKWMyPU8=

> <s_epik_cmdline>
J2VwaWtfcHl0aG9uJywgJy1waCcsICc3LjAnLCAnLXRuJywgJzgnLCAnLW1hJywgJzIwMCcsICctbWV0YWxfYmluZGluZycsICctaW1hZScsICc8aW5maWxlLm1hZT4nLCAnLW9tYWUnLCAnPG91dGZpbGUubWFlPic=

> <r_lp_tautomer_probability>
1

> <r_epik_Ionization_Penalty>
3.72236e-05

> <r_epik_Ionization_Penalty_Charging>
8.38864e-08

> <r_epik_Ionization_Penalty_Neutral>
3.71397e-05

> <r_epik_State_Penalty>
-0

> <r_epik_Charging_Adjusted_Penalty>
8.38864e-08

> <i_epik_Tot_Q>
0

> <i_epik_Tot_abs_Q>
0

> <r_epik_Metal_State_Penalty>
-0

> <b_epik_Metal_Only>
0

> <s_lp_Force_Field>
OPLS_2005

> <r_lp_Energy>
22.4286

> <b_lp_Chiralities_Consistent>
1

> <s_lp_Variant>
AV-unprocessed.smi:2297-2

> <Gold.Version>
5.8.1

> <Gold.Id.Protein>
6NUR|6NUR_protein|mol2

> <Gold.PLP.Fitness>
48.5739

> <Gold.PLP.PLP>
-47.4134

> <Gold.PLP.part.hbond>
-1.6012

> <Gold.PLP.part.metal>
0.0000

> <Gold.PLP.part.buried>
-6.0320

> <Gold.PLP.part.nonpolar>
-40.2772

> <Gold.PLP.part.repulsive>
0.3067

> <Gold.PLP.ligand.clash>
0.0000

> <Gold.PLP.ligand.torsion>
0.4833

> <Gold.PLP.Chemscore.Hbond>
0.6500

> <Gold.PLP.Chemscore.CHOScore>
0.0000

> <Gold.PLP.Chemscore.Metal>
0.0000

> <Gold.Chemscore.Hbonds>
donor molecule, donor type, donor heavy atom, donor atom, acceptor molecule, acceptor atom, score
      P1  H  7989  7998       L1    11  0.85

> <Gold.PLP.Chemscore.Internal.Correction>
0.1772

> <Gold.Rescore>
     Score         DG    S(hbond)    S(metal)    S(lipo)     H(rot)  DE(clash)    DE(int)     intcor
     13.90     -15.57       0.63        0.00     119.00       2.32       0.11       1.55       ----

> <Gold.Chemscore.Fitness>
13.8994

> <Gold.Chemscore.DG>
-15.5683

> <Gold.Chemscore.ZeroCoef>
-5.4800

> <Gold.Chemscore.Hbond>
0.6327

> <Gold.Chemscore.Metal>
0.0000

> <Gold.Chemscore.Lipo>
119.0047

> <Gold.Chemscore.Internal_Hbond>
0.0000

> <Gold.Chemscore.DEClash>
0.1146

> <Gold.Chemscore.DEInternal>
1.5543

> <Gold.Chemscore.Rot>
2.3236

> <Gold.Chemscore.Internal.Correction>
   9.000000E+99

> <Gold.Chemscore.Hbonds>
donor molecule, donor type, donor heavy atom, donor atom, acceptor molecule, acceptor atom, score
      P1  H  7989  7998       L1    11  0.15

> <Gold.Chemscore.Hbond.Weighted>
-2.1132

> <Gold.Chemscore.Metal.Weighted>
-0.0000

> <Gold.Chemscore.Lipo.Weighted>
-13.9235

> <Gold.Chemscore.Internal_Hbond.Weighted>
0.0000

> <Gold.Chemscore.DEClash.Weighted>
0.1146

> <Gold.Chemscore.DEInternal.Weighted>
1.5543

> <Gold.Chemscore.Rot.Weighted>
5.9484

> <Gold.Chemscore.Internal.Correction.Weighted>
   9.000000E+99

> <Gold.Protein.RotatedTorsions>
[ 6907 6896 6895 6894 ] final -148.07 input  -60.11 | X-H torsion
[ 7974 7965 7964 7962 ] final  141.40 input  175.53 | X-H torsion
[ 8008 7997 7996 7995 ] final  149.53 input   59.86 | X-H torsion
[ 10167 10162 10161 10158 ] final  -18.83 input  -65.29 | X-H torsion
[ 10718 10713 10712 10709 ] final  -71.62 input   66.30 | X-H torsion
[ 10763 10752 10751 10750 ] final -176.07 input  -60.55 | X-H torsion
[ 11005 11000 10999 10996 ] final   32.01 input  -57.11 | X-H torsion

> <Gold.Protein.ActiveResidues>
 VAL166  LYS551  ARG553  GLY616  TRP617  ASP618  TYR619  PRO620  LYS621  CYS622 
 ASP623  PHE694  ASN695  SER759  ASP760  ASP761  ALA762  ILE779  LEU786  VAL792 
 PHE793  MET794  SER795  GLU796  ALA797  LYS798  CYS799  TRP800  GLU811  SER814 

> <Gold.Protein.RotatedAtoms>
  151.1646  133.4823  159.2593 H   0  0  0  0  0  0  0  0  0  0  0  0  # atno 6907 bound_to 6896
  151.1419  135.0183  159.8639 H   0  0  0  0  0  0  0  0  0  0  0  0  # atno 6908 bound_to 6896
  152.5462  134.1539  159.8583 H   0  0  0  0  0  0  0  0  0  0  0  0  # atno 6909 bound_to 6896
  144.9099  139.5307  143.5713 H   0  0  0  0  0  0  0  0  0  0  0  0  # atno 7974 bound_to 7965
  156.2751  140.2099  156.5873 H   0  0  0  0  0  0  0  0  0  0  0  0  # atno 8008 bound_to 7997
  154.7010  140.0521  157.0481 H   0  0  0  0  0  0  0  0  0  0  0  0  # atno 8009 bound_to 7997
  155.0734  140.3179  155.4626 H   0  0  0  0  0  0  0  0  0  0  0  0  # atno 8010 bound_to 7997
  140.7262  143.4878  151.0032 H   0  0  0  0  0  0  0  0  0  0  0  0  # atno 10167 bound_to 10162
  156.0355  130.4355  150.2471 H   0  0  0  0  0  0  0  0  0  0  0  0  # atno 10718 bound_to 10713
  154.5768  135.2832  155.0772 H   0  0  0  0  0  0  0  0  0  0  0  0  # atno 10763 bound_to 10752
  154.2124  135.6405  153.5123 H   0  0  0  0  0  0  0  0  0  0  0  0  # atno 10764 bound_to 10752
  153.0075  135.5495  154.6409 H   0  0  0  0  0  0  0  0  0  0  0  0  # atno 10765 bound_to 10752
  140.2780  134.3006  155.7809 H   0  0  0  0  0  0  0  0  0  0  0  0  # atno 11005 bound_to 11000
  146.3153  139.7897  142.8988 LP  0  0  0  0  0  0  0  0  0  0  0  0  # atno 17320 bound_to 7965
  145.3472  141.0300  143.3359 LP  0  0  0  0  0  0  0  0  0  0  0  0  # atno 17321 bound_to 7965
  139.8580  143.7351  152.3175 LP  0  0  0  0  0  0  0  0  0  0  0  0  # atno 17342 bound_to 10162
  139.7557  144.7521  151.0439 LP  0  0  0  0  0  0  0  0  0  0  0  0  # atno 17343 bound_to 10162
  157.0570  131.0079  151.3235 LP  0  0  0  0  0  0  0  0  0  0  0  0  # atno 17370 bound_to 10713
  157.5098  130.7931  149.7693 LP  0  0  0  0  0  0  0  0  0  0  0  0  # atno 17371 bound_to 10713
  141.2167  133.7507  156.9436 LP  0  0  0  0  0  0  0  0  0  0  0  0  # atno 17394 bound_to 11000
  140.1310  134.9355  157.2337 LP  0  0  0  0  0  0  0  0  0  0  0  0  # atno 17395 bound_to 11000

$$$$
