AV-unprocessed.smi:274|AV-procd|sdf|2061|dock4
  -GOLD-   2262021303D 1   1.00000     0.00000
 Structure written by MMmdl.
 50 53  0  0  0  0  0  0  0  0  1 V2000
  151.4093  139.2320  154.3563 C   0  0  0  0  0  0  0  0  0  0  0  0
  150.7919  140.3703  155.1945 C   0  0  0  0  0  0  0  0  0  0  0  0
  151.7558  140.7190  156.3467 C   0  0  0  0  0  0  0  0  0  0  0  0
  149.3467  140.0260  155.6749 C   0  0  1  0  0  0  0  0  0  0  0  0
  148.7461  141.1158  156.5993 C   0  0  0  0  0  0  0  0  0  0  0  0
  149.1144  141.1988  157.7691 O   0  0  0  0  0  0  0  0  0  0  0  0
  147.7998  141.9400  156.1136 N   0  0  0  0  0  0  0  0  0  0  0  0
  147.2147  141.8872  154.7736 C   0  0  0  0  0  0  0  0  0  0  0  0
  147.9873  140.9714  153.8080 C   0  0  0  0  0  0  0  0  0  0  0  0
  148.4780  139.7883  154.5099 N   0  0  0  0  0  0  0  0  0  0  0  0
  147.6110  138.7438  154.5364 C   0  0  0  0  0  0  0  0  0  0  0  0
  147.4568  138.0102  155.6708 N   0  0  0  0  0  0  0  0  0  0  0  0
  146.5913  136.9927  155.7024 C   0  0  0  0  0  0  0  0  0  0  0  0
  145.7939  136.5451  154.7304 N   0  0  0  0  0  0  0  0  0  0  0  0
  145.9485  137.2741  153.5883 C   0  0  0  0  0  0  0  0  0  0  0  0
  146.8239  138.3818  153.4086 C   0  0  0  0  0  0  0  0  0  0  0  0
  146.7101  138.8718  152.1131 N   0  0  0  0  0  0  0  0  0  0  0  0
  145.8156  138.0998  151.5593 C   0  0  0  0  0  0  0  0  0  0  0  0
  145.3110  137.1084  152.3710 N   0  0  0  0  0  0  0  0  0  0  0  0
  144.3150  136.1103  152.0134 C   0  0  0  0  0  0  0  0  0  0  0  0
  144.6780  135.3054  150.7435 C   0  0  2  0  0  0  0  0  0  0  0  0
  144.4807  136.1242  149.6039 O   0  0  0  0  0  0  0  0  0  0  0  0
  143.8686  134.0238  150.5639 C   0  0  0  0  0  0  0  0  0  0  0  0
  144.8541  133.0942  149.8696 C   0  0  0  0  0  0  0  0  0  0  0  0
  146.0738  133.3954  150.5251 O   0  0  0  0  0  0  0  0  0  0  0  0
  146.1356  134.8023  150.7373 C   0  0  0  0  0  0  0  0  0  0  0  0
  151.4460  138.3009  154.9227 H   0  0  0  0  0  0  0  0  0  0  0  0
  152.4283  139.4743  154.0528 H   0  0  0  0  0  0  0  0  0  0  0  0
  150.8464  139.0441  153.4418 H   0  0  0  0  0  0  0  0  0  0  0  0
  150.7440  141.2495  154.5512 H   0  0  0  0  0  0  0  0  0  0  0  0
  151.7943  139.9183  157.0859 H   0  0  0  0  0  0  0  0  0  0  0  0
  151.4699  141.6372  156.8583 H   0  0  0  0  0  0  0  0  0  0  0  0
  152.7696  140.8751  155.9769 H   0  0  0  0  0  0  0  0  0  0  0  0
  149.4237  139.1111  156.2653 H   0  0  0  0  0  0  0  0  0  0  0  0
  147.4277  142.6389  156.7401 H   0  0  0  0  0  0  0  0  0  0  0  0
  146.1957  141.5147  154.8850 H   0  0  0  0  0  0  0  0  0  0  0  0
  147.1367  142.8948  154.3652 H   0  0  0  0  0  0  0  0  0  0  0  0
  147.3614  140.7187  152.9516 H   0  0  0  0  0  0  0  0  0  0  0  0
  148.8425  141.5087  153.3986 H   0  0  0  0  0  0  0  0  0  0  0  0
  146.5281  136.4618  156.6408 H   0  0  0  0  0  0  0  0  0  0  0  0
  145.5016  138.2304  150.5341 H   0  0  0  0  0  0  0  0  0  0  0  0
  144.1788  135.4378  152.8616 H   0  0  0  0  0  0  0  0  0  0  0  0
  143.3611  136.6206  151.8730 H   0  0  0  0  0  0  0  0  0  0  0  0
  144.7745  135.6515  148.8403 H   0  0  0  0  0  0  0  0  0  0  0  0
  143.6143  133.5986  151.5357 H   0  0  0  0  0  0  0  0  0  0  0  0
  142.9399  134.1615  150.0086 H   0  0  0  0  0  0  0  0  0  0  0  0
  144.5890  132.0420  149.9731 H   0  0  0  0  0  0  0  0  0  0  0  0
  144.9369  133.3298  148.8074 H   0  0  0  0  0  0  0  0  0  0  0  0
  146.7271  135.2649  149.9454 H   0  0  0  0  0  0  0  0  0  0  0  0
  146.6465  134.9975  151.6807 H   0  0  0  0  0  0  0  0  0  0  0  0
  1  2  1  0  0  0  0
  1 27  1  0  0  0  0
  1 28  1  0  0  0  0
  1 29  1  0  0  0  0
  2  3  1  0  0  0  0
  2  4  1  0  0  0  0
  2 30  1  0  0  0  0
  3 31  1  0  0  0  0
  3 32  1  0  0  0  0
  3 33  1  0  0  0  0
  4 10  1  0  0  0  0
  4  5  1  0  0  0  0
  4 34  1  0  0  0  0
  5  6  2  0  0  0  0
  5  7  1  0  0  0  0
  7  8  1  0  0  0  0
  7 35  1  0  0  0  0
  8  9  1  0  0  0  0
  8 36  1  0  0  0  0
  8 37  1  0  0  0  0
  9 10  1  0  0  0  0
  9 38  1  0  0  0  0
  9 39  1  0  0  0  0
 10 11  1  0  0  0  0
 11 16  1  0  0  0  0
 11 12  2  0  0  0  0
 12 13  1  0  0  0  0
 13 14  2  0  0  0  0
 13 40  1  0  0  0  0
 14 15  1  0  0  0  0
 15 19  1  0  0  0  0
 15 16  2  0  0  0  0
 16 17  1  0  0  0  0
 17 18  2  0  0  0  0
 18 19  1  0  0  0  0
 18 41  1  0  0  0  0
 19 20  1  0  0  0  0
 20 21  1  0  0  0  0
 20 42  1  0  0  0  0
 20 43  1  0  0  0  0
 21 26  1  0  0  0  0
 21 22  1  0  0  0  0
 21 23  1  0  0  0  0
 22 44  1  0  0  0  0
 23 24  1  0  0  0  0
 23 45  1  0  0  0  0
 23 46  1  0  0  0  0
 24 25  1  0  0  0  0
 24 47  1  0  0  0  0
 24 48  1  0  0  0  0
 25 26  1  0  0  0  0
 26 49  1  0  0  0  0
 26 50  1  0  0  0  0
M  END
> <s_m_source_file>
AV-unprocessed.smi

> <i_m_source_file_index>
274

> <i_lp_mmshare_version>
43012

> <i_f3d_flags>
0

> <s_epik_input>
W0NIM11bQ0hdKFtDSDNdKVtDQEBIXTFDKD1PKVtOSF1bQ0gyXVtDSDJdTjFjKG5bY0hdbjIpYyhjMjMpbltjSF1uM1tDSDJdW0NAQF00KFtPSF0pW0NIMl1bQ0gyXU9bQ0gyXTQ=

> <s_epik_cmdline>
J2VwaWtfcHl0aG9uJywgJy1waCcsICc3LjAnLCAnLXRuJywgJzgnLCAnLW1hJywgJzIwMCcsICctbWV0YWxfYmluZGluZycsICctaW1hZScsICc8aW5maWxlLm1hZT4nLCAnLW9tYWUnLCAnPG91dGZpbGUubWFlPic=

> <r_lp_tautomer_probability>
1

> <r_epik_Ionization_Penalty>
0.000690079

> <r_epik_Ionization_Penalty_Charging>
0

> <r_epik_Ionization_Penalty_Neutral>
0.000690079

> <r_epik_State_Penalty>
0.000321372

> <r_epik_Charging_Adjusted_Penalty>
0.000321372

> <i_epik_Tot_Q>
0

> <i_epik_Tot_abs_Q>
0

> <r_epik_Metal_State_Penalty>
-0

> <b_epik_Metal_Only>
0

> <s_lp_Force_Field>
OPLS_2005

> <r_lp_Energy>
41.7848

> <b_lp_Chiralities_Consistent>
1

> <s_lp_Variant>
AV-unprocessed.smi:274-4

> <Gold.Version>
5.8.1

> <Gold.Id.Protein>
6NUR|6NUR_protein|mol2

> <Gold.PLP.Fitness>
41.8067

> <Gold.PLP.PLP>
-37.3209

> <Gold.PLP.part.hbond>
-3.0000

> <Gold.PLP.part.metal>
0.0000

> <Gold.PLP.part.buried>
-1.1675

> <Gold.PLP.part.nonpolar>
-34.6003

> <Gold.PLP.part.repulsive>
0.9954

> <Gold.PLP.ligand.clash>
0.0000

> <Gold.PLP.ligand.torsion>
0.5513

> <Gold.PLP.Chemscore.Hbond>
1.0306

> <Gold.PLP.Chemscore.CHOScore>
0.7185

> <Gold.PLP.Chemscore.Metal>
0.0000

> <Gold.Chemscore.Hbonds>
donor molecule, donor type, donor heavy atom, donor atom, acceptor molecule, acceptor atom, score
      L1  H    22    44       P1  7921  1.00
      L1  C    18    41       P1 10171  0.44

> <Gold.PLP.Chemscore.Internal.Correction>
0.3413

> <Gold.Rescore>
     Score         DG    S(hbond)    S(metal)    S(lipo)     H(rot)  DE(clash)    DE(int)     intcor
      8.41     -12.01       0.99        0.00      74.45       2.14       1.01       2.59       ----

> <Gold.Chemscore.Fitness>
8.4115

> <Gold.Chemscore.DG>
-12.0120

> <Gold.Chemscore.ZeroCoef>
-5.4800

> <Gold.Chemscore.Hbond>
0.9903

> <Gold.Chemscore.Metal>
0.0000

> <Gold.Chemscore.Lipo>
74.4497

> <Gold.Chemscore.Internal_Hbond>
0.0000

> <Gold.Chemscore.DEClash>
1.0084

> <Gold.Chemscore.DEInternal>
2.5921

> <Gold.Chemscore.Rot>
2.1431

> <Gold.Chemscore.Internal.Correction>
   9.000000E+99

> <Gold.Chemscore.Hbonds>
donor molecule, donor type, donor heavy atom, donor atom, acceptor molecule, acceptor atom, score
      L1  H    22    44       P1  7921  0.95

> <Gold.Chemscore.Hbond.Weighted>
-3.3076

> <Gold.Chemscore.Metal.Weighted>
-0.0000

> <Gold.Chemscore.Lipo.Weighted>
-8.7106

> <Gold.Chemscore.Internal_Hbond.Weighted>
0.0000

> <Gold.Chemscore.DEClash.Weighted>
1.0084

> <Gold.Chemscore.DEInternal.Weighted>
2.5921

> <Gold.Chemscore.Rot.Weighted>
5.4863

> <Gold.Chemscore.Internal.Correction.Weighted>
   9.000000E+99

> <Gold.Protein.RotatedTorsions>
[ 6907 6896 6895 6894 ] final  -77.72 input  -60.11 | X-H torsion
[ 7974 7965 7964 7962 ] final   54.67 input  175.53 | X-H torsion
[ 8008 7997 7996 7995 ] final  -75.69 input   59.86 | X-H torsion
[ 10167 10162 10161 10158 ] final  -97.58 input  -65.29 | X-H torsion
[ 10718 10713 10712 10709 ] final  166.07 input   66.30 | X-H torsion
[ 10763 10752 10751 10750 ] final   25.31 input  -60.55 | X-H torsion
[ 11005 11000 10999 10996 ] final  171.37 input  -57.11 | X-H torsion

> <Gold.Protein.ActiveResidues>
 VAL166  LYS551  ARG553  GLY616  TRP617  ASP618  TYR619  PRO620  LYS621  CYS622 
 ASP623  PHE694  ASN695  SER759  ASP760  ASP761  ALA762  ILE779  LEU786  VAL792 
 PHE793  MET794  SER795  GLU796  ALA797  LYS798  CYS799  TRP800  GLU811  SER814 

> <Gold.Protein.RotatedAtoms>
  150.6991  134.4380  159.5278 H   0  0  0  0  0  0  0  0  0  0  0  0  # atno 6907 bound_to 6896
  152.2095  134.8512  160.0508 H   0  0  0  0  0  0  0  0  0  0  0  0  # atno 6908 bound_to 6896
  151.9403  133.3601  159.3999 H   0  0  0  0  0  0  0  0  0  0  0  0  # atno 6909 bound_to 6896
  145.9585  139.4037  143.0263 H   0  0  0  0  0  0  0  0  0  0  0  0  # atno 7974 bound_to 7965
  154.5439  140.0740  156.8556 H   0  0  0  0  0  0  0  0  0  0  0  0  # atno 8008 bound_to 7997
  155.3126  140.3391  155.4225 H   0  0  0  0  0  0  0  0  0  0  0  0  # atno 8009 bound_to 7997
  156.1900  140.1682  156.8097 H   0  0  0  0  0  0  0  0  0  0  0  0  # atno 8010 bound_to 7997
  140.2820  143.3276  152.0432 H   0  0  0  0  0  0  0  0  0  0  0  0  # atno 10167 bound_to 10162
  157.0711  131.0366  151.2611 H   0  0  0  0  0  0  0  0  0  0  0  0  # atno 10718 bound_to 10713
  153.0701  135.6586  154.0266 H   0  0  0  0  0  0  0  0  0  0  0  0  # atno 10763 bound_to 10752
  153.9914  135.2945  155.3413 H   0  0  0  0  0  0  0  0  0  0  0  0  # atno 10764 bound_to 10752
  154.7073  135.5220  153.8683 H   0  0  0  0  0  0  0  0  0  0  0  0  # atno 10765 bound_to 10752
  140.3182  134.7459  157.4044 H   0  0  0  0  0  0  0  0  0  0  0  0  # atno 11005 bound_to 11000
  145.8073  140.9742  143.0967 LP  0  0  0  0  0  0  0  0  0  0  0  0  # atno 17320 bound_to 7965
  144.6810  139.9877  143.7484 LP  0  0  0  0  0  0  0  0  0  0  0  0  # atno 17321 bound_to 7965
  139.4960  144.6585  151.6518 LP  0  0  0  0  0  0  0  0  0  0  0  0  # atno 17342 bound_to 10162
  140.5804  143.9956  150.6265 LP  0  0  0  0  0  0  0  0  0  0  0  0  # atno 17343 bound_to 10162
  157.4877  130.7803  149.7477 LP  0  0  0  0  0  0  0  0  0  0  0  0  # atno 17370 bound_to 10713
  155.9950  130.3914  150.2835 LP  0  0  0  0  0  0  0  0  0  0  0  0  # atno 17371 bound_to 10713
  140.0964  134.5531  155.8394 LP  0  0  0  0  0  0  0  0  0  0  0  0  # atno 17394 bound_to 11000
  141.2092  133.6682  156.6427 LP  0  0  0  0  0  0  0  0  0  0  0  0  # atno 17395 bound_to 11000

$$$$
