AV-unprocessed.smi:787|AV-procd|sdf|3725|dock8
  -GOLD-   22720 1153D 1   1.00000     0.00000
 Structure written by MMmdl.
 47 49  0  0  0  0  0  0  0  0  2 V2000
  143.7981  133.1734  150.5366 C   0  0  0  0  0  0  0  0  0  0  0  0
  144.0873  134.4314  151.2071 N   0  0  0  0  0  0  0  0  0  0  0  0
  143.1746  134.9696  152.1253 C   0  0  0  0  0  0  0  0  0  0  0  0
  142.0052  134.3319  152.3635 N   0  0  0  0  0  0  0  0  0  0  0  0
  141.1533  134.8876  153.2346 C   0  0  0  0  0  0  0  0  0  0  0  0
  141.2823  136.0261  153.9330 N   0  0  0  0  0  0  0  0  0  0  0  0
  142.4383  136.6640  153.7065 C   0  0  0  0  0  0  0  0  0  0  0  0
  142.8301  137.8591  154.2839 N   0  0  0  0  0  0  0  0  0  0  0  0
  144.0258  138.0455  153.7329 C   0  0  0  0  0  0  0  0  0  0  0  0
  144.4748  137.1032  152.8793 N   0  0  0  0  0  0  0  0  0  0  0  0
  145.7659  137.0950  152.2046 C   0  0  0  0  0  0  0  0  0  0  0  0
  146.4906  138.4615  152.2350 C   0  0  2  0  0  0  0  0  0  0  0  0
  147.5322  138.4636  151.2778 O   0  0  0  0  0  0  0  0  0  0  0  0
  147.1047  138.7990  153.6095 C   0  0  0  0  0  0  0  0  0  0  0  0
  147.9307  140.0340  153.5650 N   0  3  1  0  0  0  0  0  0  0  0  0
  147.1716  141.2124  153.0883 C   0  0  0  0  0  0  0  0  0  0  0  0
  148.6538  140.3094  154.8321 C   0  0  0  0  0  0  0  0  0  0  0  0
  149.9717  139.5553  154.9035 C   0  0  0  0  0  0  0  0  0  0  0  0
  150.9967  139.9844  155.7744 C   0  0  0  0  0  0  0  0  0  0  0  0
  152.2062  139.2672  155.8524 C   0  0  0  0  0  0  0  0  0  0  0  0
  152.3991  138.1225  155.0551 C   0  0  0  0  0  0  0  0  0  0  0  0
  151.3823  137.6957  154.1792 C   0  0  0  0  0  0  0  0  0  0  0  0
  150.1713  138.4108  154.1029 C   0  0  0  0  0  0  0  0  0  0  0  0
  143.4366  136.1738  152.8107 C   0  0  0  0  0  0  0  0  0  0  0  0
  144.5958  132.9342  149.8333 H   0  0  0  0  0  0  0  0  0  0  0  0
  142.8618  133.2376  149.9814 H   0  0  0  0  0  0  0  0  0  0  0  0
  143.7228  132.3586  151.2576 H   0  0  0  0  0  0  0  0  0  0  0  0
  144.8456  135.0024  150.8644 H   0  0  0  0  0  0  0  0  0  0  0  0
  140.2325  134.3464  153.3937 H   0  0  0  0  0  0  0  0  0  0  0  0
  144.6220  138.9113  153.9816 H   0  0  0  0  0  0  0  0  0  0  0  0
  146.3912  136.3189  152.6457 H   0  0  0  0  0  0  0  0  0  0  0  0
  145.6037  136.7924  151.1692 H   0  0  0  0  0  0  0  0  0  0  0  0
  145.7753  139.2325  151.9489 H   0  0  0  0  0  0  0  0  0  0  0  0
  148.2201  139.0398  151.5756 H   0  0  0  0  0  0  0  0  0  0  0  0
  146.3240  138.9059  154.3642 H   0  0  0  0  0  0  0  0  0  0  0  0
  147.7121  137.9560  153.9335 H   0  0  0  0  0  0  0  0  0  0  0  0
  146.3902  141.4867  153.7985 H   0  0  0  0  0  0  0  0  0  0  0  0
  146.7028  141.0150  152.1242 H   0  0  0  0  0  0  0  0  0  0  0  0
  147.8323  142.0707  152.9604 H   0  0  0  0  0  0  0  0  0  0  0  0
  148.8787  141.3744  154.9068 H   0  0  0  0  0  0  0  0  0  0  0  0
  148.0210  140.0635  155.6865 H   0  0  0  0  0  0  0  0  0  0  0  0
  150.8564  140.8589  156.3931 H   0  0  0  0  0  0  0  0  0  0  0  0
  152.9862  139.5943  156.5245 H   0  0  0  0  0  0  0  0  0  0  0  0
  153.3270  137.5727  155.1148 H   0  0  0  0  0  0  0  0  0  0  0  0
  151.5305  136.8182  153.5673 H   0  0  0  0  0  0  0  0  0  0  0  0
  149.3941  138.0740  153.4324 H   0  0  0  0  0  0  0  0  0  0  0  0
  148.6518  139.8601  152.8788 H   0  0  0  0  0  0  0  0  0  0  0  0
  1  2  1  0  0  0  0
  1 25  1  0  0  0  0
  1 26  1  0  0  0  0
  1 27  1  0  0  0  0
  2  3  1  0  0  0  0
  2 28  1  0  0  0  0
  3 24  1  0  0  0  0
  3  4  2  0  0  0  0
  4  5  1  0  0  0  0
  5  6  2  0  0  0  0
  5 29  1  0  0  0  0
  6  7  1  0  0  0  0
  7 24  2  0  0  0  0
  7  8  1  0  0  0  0
  8  9  2  0  0  0  0
  9 10  1  0  0  0  0
  9 30  1  0  0  0  0
 10 11  1  0  0  0  0
 10 24  1  0  0  0  0
 11 12  1  0  0  0  0
 11 31  1  0  0  0  0
 11 32  1  0  0  0  0
 12 13  1  0  0  0  0
 12 14  1  0  0  0  0
 12 33  1  0  0  0  0
 13 34  1  0  0  0  0
 14 15  1  0  0  0  0
 14 35  1  0  0  0  0
 14 36  1  0  0  0  0
 15 16  1  0  0  0  0
 15 17  1  0  0  0  0
 15 47  1  0  0  0  0
 16 37  1  0  0  0  0
 16 38  1  0  0  0  0
 16 39  1  0  0  0  0
 17 18  1  0  0  0  0
 17 40  1  0  0  0  0
 17 41  1  0  0  0  0
 18 23  1  0  0  0  0
 18 19  2  0  0  0  0
 19 20  1  0  0  0  0
 19 42  1  0  0  0  0
 20 21  2  0  0  0  0
 20 43  1  0  0  0  0
 21 22  1  0  0  0  0
 21 44  1  0  0  0  0
 22 23  2  0  0  0  0
 22 45  1  0  0  0  0
 23 46  1  0  0  0  0
M  CHG  1  15   1
M  END
> <s_m_source_file>
AV-unprocessed.smi

> <i_m_source_file_index>
787

> <i_lp_mmshare_version>
43012

> <i_f3d_flags>
0

> <s_epik_input>
bjFbY0hdbmMoW05IXVtDSDNdKWMoYzEyKW4oW2NIXW4yKVtDSDJdW0NASF0oW09IXSlbQ0gyXU4oW0NIM10pW0NIMl1jM1tjSF1bY0hdW2NIXVtjSF1bY0hdMw==

> <s_epik_cmdline>
J2VwaWtfcHl0aG9uJywgJy1waCcsICc3LjAnLCAnLXRuJywgJzgnLCAnLW1hJywgJzIwMCcsICctbWV0YWxfYmluZGluZycsICctaW1hZScsICc8aW5maWxlLm1hZT4nLCAnLW9tYWUnLCAnPG91dGZpbGUubWFlPic=

> <r_lp_tautomer_probability>
0.999987

> <r_epik_Ionization_Penalty>
0.0526284

> <r_epik_Ionization_Penalty_Charging>
0.0475377

> <r_epik_Ionization_Penalty_Neutral>
0.00509065

> <r_epik_State_Penalty>
0.0404888

> <r_epik_Charging_Adjusted_Penalty>
0.0880265

> <i_epik_Tot_Q>
1

> <i_epik_Tot_abs_Q>
1

> <r_epik_Metal_State_Penalty>
0.040507

> <b_epik_Metal_Only>
0

> <s_lp_Force_Field>
OPLS_2005

> <r_lp_Energy>
14.0859

> <b_lp_Chiralities_Consistent>
1

> <s_lp_Variant>
AV-unprocessed.smi:787-1

> <Gold.Version>
5.8.1

> <Gold.Id.Protein>
6NUR|6NUR_protein|mol2

> <Gold.PLP.Fitness>
51.8313

> <Gold.PLP.PLP>
-43.2354

> <Gold.PLP.part.hbond>
-4.3056

> <Gold.PLP.part.metal>
0.0000

> <Gold.PLP.part.buried>
-2.4278

> <Gold.PLP.part.nonpolar>
-37.0820

> <Gold.PLP.part.repulsive>
0.5238

> <Gold.PLP.ligand.clash>
0.0000

> <Gold.PLP.ligand.torsion>
1.0079

> <Gold.PLP.Chemscore.Hbond>
2.9760

> <Gold.PLP.Chemscore.CHOScore>
0.4504

> <Gold.PLP.Chemscore.Metal>
0.0000

> <Gold.Chemscore.Hbonds>
donor molecule, donor type, donor heavy atom, donor atom, acceptor molecule, acceptor atom, score
      L1  H    13    34       P1  7957  0.91
      L1  H    15    47       P1  7957  1.00
      P1  H  7954  7966       L1    13  1.00
      L1  C     9    30       P1 10175  0.38

> <Gold.PLP.Chemscore.Internal.Correction>
0.3326

> <Gold.Rescore>
     Score         DG    S(hbond)    S(metal)    S(lipo)     H(rot)  DE(clash)    DE(int)     intcor
     13.09     -14.29       2.03        0.00      87.32       3.19       0.34       0.85       ----

> <Gold.Chemscore.Fitness>
13.0939

> <Gold.Chemscore.DG>
-14.2872

> <Gold.Chemscore.ZeroCoef>
-5.4800

> <Gold.Chemscore.Hbond>
2.0253

> <Gold.Chemscore.Metal>
0.0000

> <Gold.Chemscore.Lipo>
87.3204

> <Gold.Chemscore.Internal_Hbond>
0.0000

> <Gold.Chemscore.DEClash>
0.3443

> <Gold.Chemscore.DEInternal>
0.8490

> <Gold.Chemscore.Rot>
3.1928

> <Gold.Chemscore.Internal.Correction>
   9.000000E+99

> <Gold.Chemscore.Hbonds>
donor molecule, donor type, donor heavy atom, donor atom, acceptor molecule, acceptor atom, score
      L1  H    13    34       P1  7957  0.74
      L1  H    15    47       P1  7957  0.97
      P1  H  7954  7966       L1    13  0.29

> <Gold.Chemscore.Hbond.Weighted>
-6.7644

> <Gold.Chemscore.Metal.Weighted>
-0.0000

> <Gold.Chemscore.Lipo.Weighted>
-10.2165

> <Gold.Chemscore.Internal_Hbond.Weighted>
0.0000

> <Gold.Chemscore.DEClash.Weighted>
0.3443

> <Gold.Chemscore.DEInternal.Weighted>
0.8490

> <Gold.Chemscore.Rot.Weighted>
8.1736

> <Gold.Chemscore.Internal.Correction.Weighted>
   9.000000E+99

> <Gold.Protein.RotatedTorsions>
[ 6907 6896 6895 6894 ] final  -86.91 input  -60.11 | X-H torsion
[ 7974 7965 7964 7962 ] final  100.68 input  175.53 | X-H torsion
[ 8008 7997 7996 7995 ] final   87.58 input   59.86 | X-H torsion
[ 10167 10162 10161 10158 ] final   53.10 input  -65.29 | X-H torsion
[ 10718 10713 10712 10709 ] final  -40.57 input   66.30 | X-H torsion
[ 10763 10752 10751 10750 ] final  -57.98 input  -60.55 | X-H torsion
[ 11005 11000 10999 10996 ] final  156.85 input  -57.11 | X-H torsion

> <Gold.Protein.ActiveResidues>
 VAL166  LYS551  ARG553  GLY616  TRP617  ASP618  TYR619  PRO620  LYS621  CYS622 
 ASP623  PHE694  ASN695  SER759  ASP760  ASP761  ALA762  ILE779  LEU786  VAL792 
 PHE793  MET794  SER795  GLU796  ALA797  LYS798  CYS799  TRP800  GLU811  SER814 

> <Gold.Protein.RotatedAtoms>
  150.6866  134.2977  159.4693 H   0  0  0  0  0  0  0  0  0  0  0  0  # atno 6907 bound_to 6896
  152.0876  134.9426  160.0581 H   0  0  0  0  0  0  0  0  0  0  0  0  # atno 6908 bound_to 6896
  152.0755  133.4092  159.4515 H   0  0  0  0  0  0  0  0  0  0  0  0  # atno 6909 bound_to 6896
  145.3824  139.2377  143.3396 H   0  0  0  0  0  0  0  0  0  0  0  0  # atno 7974 bound_to 7965
  155.9771  140.3380  155.6628 H   0  0  0  0  0  0  0  0  0  0  0  0  # atno 8008 bound_to 7997
  155.6598  140.0715  157.2576 H   0  0  0  0  0  0  0  0  0  0  0  0  # atno 8009 bound_to 7997
  154.4182  140.1710  156.1752 H   0  0  0  0  0  0  0  0  0  0  0  0  # atno 8010 bound_to 7997
  140.2443  144.3549  150.6369 H   0  0  0  0  0  0  0  0  0  0  0  0  # atno 10167 bound_to 10162
  156.2798  130.4216  149.8348 H   0  0  0  0  0  0  0  0  0  0  0  0  # atno 10718 bound_to 10713
  154.2309  135.6361  153.5175 H   0  0  0  0  0  0  0  0  0  0  0  0  # atno 10763 bound_to 10752
  152.9949  135.5519  154.6013 H   0  0  0  0  0  0  0  0  0  0  0  0  # atno 10764 bound_to 10752
  154.5496  135.2900  155.0995 H   0  0  0  0  0  0  0  0  0  0  0  0  # atno 10765 bound_to 10752
  140.1714  134.8540  157.2694 H   0  0  0  0  0  0  0  0  0  0  0  0  # atno 11005 bound_to 11000
  146.2836  140.4493  142.8767 LP  0  0  0  0  0  0  0  0  0  0  0  0  # atno 17320 bound_to 7965
  144.8498  140.6984  143.6175 LP  0  0  0  0  0  0  0  0  0  0  0  0  # atno 17321 bound_to 7965
  140.6089  143.2168  151.6925 LP  0  0  0  0  0  0  0  0  0  0  0  0  # atno 17342 bound_to 10162
  139.5067  144.3673  152.0504 LP  0  0  0  0  0  0  0  0  0  0  0  0  # atno 17343 bound_to 10162
  156.5800  130.8461  151.3380 LP  0  0  0  0  0  0  0  0  0  0  0  0  # atno 17370 bound_to 10713
  157.7311  130.9695  150.1863 LP  0  0  0  0  0  0  0  0  0  0  0  0  # atno 17371 bound_to 10713
  140.2373  134.3837  155.7495 LP  0  0  0  0  0  0  0  0  0  0  0  0  # atno 17394 bound_to 11000
  141.2217  133.7246  156.8734 LP  0  0  0  0  0  0  0  0  0  0  0  0  # atno 17395 bound_to 11000

$$$$
