#       Name:                AV-unprocessed.smi:2099
#       Creating user name   scv26
#       Creation time:       Fri Mar 27 11:30:04 2020


#       File generated by GOLD software.
#

@<TRIPOS>MOLECULE
AV-unprocessed.smi:2099
    36    37     1
SMALL
NO_CHARGES


@<TRIPOS>ATOM
      1 ****        -4.3260  -1.4122  -0.6496 C.3            1 S1                 0.0000
      2 ****        -2.8004  -1.3911  -0.4785 C.3            1 S1                 0.0000
      3 ****        -2.3786  -0.5132   0.7152 C.3            1 S1                 0.0000
      4 ****        -0.8513  -0.4864   0.8881 C.3            1 S1                 0.0000
      5 ****        -0.1459  -0.0203  -0.4015 C.3            1 S1                 0.0000
      6 ****         1.3055  -0.0715  -0.2452 N.am           1 S1                 0.0000
      7 ****         2.0705   0.8560   0.3490 C.2            1 S1                 0.0000
      8 ****         1.5523   1.8665   0.8300 O.2            1 S1                 0.0000
      9 ****         3.3893   0.5555   0.3487 N.pl3          1 S1                -1.0000
     10 ****         4.2695   1.3953   0.9183 C.2            1 S1                 0.0000
     11 ****         4.7473   1.2020   2.1580 N.2            1 S1                 0.0000
     12 ****         5.6469   2.1820   2.5555 N.2            1 S1                 0.0000
     13 ****         5.8326   3.0885   1.5966 C.2            1 S1                 0.0000
     14 ****         4.9284   2.8262   0.1202 S.3            1 S1                 0.0000
     15 ****        -0.5672  -0.8963  -1.5953 C.3            1 S1                 0.0000
     16 ****        -2.0949  -0.9207  -1.7647 C.3            1 S1                 0.0000
     17 ****        -4.7149  -0.4158  -0.8616 H              1 S1                 0.0000
     18 ****        -4.8171  -1.7765   0.2531 H              1 S1                 0.0000
     19 ****        -4.6197  -2.0662  -1.4710 H              1 S1                 0.0000
     20 ****        -2.4790  -2.4134  -0.2737 H              1 S1                 0.0000
     21 ****        -2.7437   0.5048   0.5722 H              1 S1                 0.0000
     22 ****        -2.8417  -0.8810   1.6314 H              1 S1                 0.0000
     23 ****        -0.5911   0.1703   1.7189 H              1 S1                 0.0000
     24 ****        -0.5003  -1.4826   1.1617 H              1 S1                 0.0000
     25 ****        -0.4435   1.0079  -0.6164 H              1 S1                 0.0000
     26 ****         1.7744  -0.8821  -0.6220 H              1 S1                 0.0000
     27 ****         6.5087   3.9147   1.7581 H              1 S1                 0.0000
     28 ****        -0.1031  -0.5277  -2.5109 H              1 S1                 0.0000
     29 ****        -0.2033  -1.9150  -1.4533 H              1 S1                 0.0000
     30 ****        -2.3585  -1.5754  -2.5961 H              1 S1                 0.0000
     31 ****        -2.4450   0.0766  -2.0346 H              1 S1                 0.0000
     32 ****         0.5619   1.9942   0.7769 LP             1 S1                 0.0000
     33 ****         2.1225   2.5583   1.2731 LP             1 S1                 0.0000
     34 ****         3.7090  -0.2917  -0.0755 LP             1 S1                 0.0000
     35 ****         4.4822   0.4305   2.7363 LP             1 S1                 0.0000
     36 ****         6.0980   2.2047   3.4477 LP             1 S1                 0.0000
@<TRIPOS>BOND
    1    1    2 1     
    2    1   17 1     
    3    1   18 1     
    4    1   19 1     
    5    2   16 1     
    6    2    3 1     
    7    2   20 1     
    8    3    4 1     
    9    3   21 1     
   10    3   22 1     
   11    4    5 1     
   12    4   23 1     
   13    4   24 1     
   14    5    6 1     
   15    5   15 1     
   16    5   25 1     
   17    6    7 am    
   18    6   26 1     
   19    7    8 2     
   20    7    9 1     
   21    9   10 1     
   22   10   14 1     
   23   10   11 2     
   24   11   12 1     
   25   12   13 2     
   26   13   14 1     
   27   13   27 1     
   28   15   16 1     
   29   15   28 1     
   30   15   29 1     
   31   16   30 1     
   32   16   31 1     
   33    8   32 1     
   34    8   33 1     
   35    9   34 1     
   36   11   35 1     
   37   12   36 1     
@<TRIPOS>SUBSTRUCTURE
      1 S1             1
@<TRIPOS>SET
LONE_PAIRS      STATIC     ATOMS    <user>   **** ""
5 32 33 34 35 36
DONOR_HYDROGENS      STATIC     ATOMS    <user>   **** ""
1 26
ATOM$BLUE        STATIC     ATOMS    COLORGROUP SYSTEM
5 32 33 34 35 36
ATOM$RED        STATIC     ATOMS    COLORGROUP SYSTEM
1 26
