AV-unprocessed.smi:3187|AV-procd|sdf|12176|dock3
  -GOLD-   2272018 13D 1   1.00000     0.00000
 Structure written by MMmdl.
 41 42  0  0  0  0  0  0  0  0  2 V2000
  151.5148  139.5541  158.5295 C   0  0  0  0  0  0  0  0  0  0  0  0
  152.0912  140.8636  159.0430 C   0  0  0  0  0  0  0  0  0  0  0  0
  153.1124  140.8446  159.9209 C   0  0  0  0  0  0  0  0  0  0  0  0
  153.7123  142.0771  160.5567 C   0  0  0  0  0  0  0  0  0  0  0  0
  152.7362  143.2542  160.4982 C   0  0  0  0  0  0  0  0  0  0  0  0
  152.1768  143.4497  159.0794 C   0  0  2  0  0  0  0  0  0  0  0  0
  151.2732  144.6979  159.0536 C   0  0  0  0  0  0  0  0  0  0  0  0
  151.4506  142.1760  158.5453 C   0  0  1  0  0  0  0  0  0  0  0  0
  151.3348  142.2405  156.9990 C   0  0  0  0  0  0  0  0  0  0  0  0
  149.9419  142.3926  156.5322 N   0  3  0  0  0  0  0  0  0  0  0  0
  149.5211  141.3832  155.5399 C   0  0  0  0  0  0  0  0  0  0  0  0
  148.0388  141.5421  155.1676 C   0  0  0  0  0  0  0  0  0  0  0  0
  147.5941  140.5152  154.2446 N   0  0  0  0  0  0  0  0  0  0  0  0
  147.7388  139.1413  154.3876 C   0  0  0  0  0  0  0  0  0  0  0  0
  147.1749  138.5683  153.2700 C   0  0  0  0  0  0  0  0  0  0  0  0
  146.6792  139.5648  152.4322 N   0  0  0  0  0  0  0  0  0  0  0  0
  146.9583  140.6896  153.0774 C   0  0  0  0  0  0  0  0  0  0  0  0
  150.4306  139.5428  158.6429 H   0  0  0  0  0  0  0  0  0  0  0  0
  151.9127  138.7028  159.0832 H   0  0  0  0  0  0  0  0  0  0  0  0
  151.7650  139.4031  157.4798 H   0  0  0  0  0  0  0  0  0  0  0  0
  153.5454  139.9025  160.2251 H   0  0  0  0  0  0  0  0  0  0  0  0
  153.9631  141.8580  161.5952 H   0  0  0  0  0  0  0  0  0  0  0  0
  154.6447  142.3177  160.0449 H   0  0  0  0  0  0  0  0  0  0  0  0
  151.9139  143.0793  161.1938 H   0  0  0  0  0  0  0  0  0  0  0  0
  153.2407  144.1590  160.8394 H   0  0  0  0  0  0  0  0  0  0  0  0
  153.0315  143.6477  158.4302 H   0  0  0  0  0  0  0  0  0  0  0  0
  150.3909  144.5599  159.6796 H   0  0  0  0  0  0  0  0  0  0  0  0
  150.9307  144.9447  158.0500 H   0  0  0  0  0  0  0  0  0  0  0  0
  151.8062  145.5723  159.4281 H   0  0  0  0  0  0  0  0  0  0  0  0
  150.4428  142.1817  158.9639 H   0  0  0  0  0  0  0  0  0  0  0  0
  151.8956  143.0836  156.5990 H   0  0  0  0  0  0  0  0  0  0  0  0
  151.7740  141.3443  156.5583 H   0  0  0  0  0  0  0  0  0  0  0  0
  149.3297  142.3296  157.3332 H   0  0  0  0  0  0  0  0  0  0  0  0
  150.1452  141.4635  154.6488 H   0  0  0  0  0  0  0  0  0  0  0  0
  149.6859  140.3888  155.9564 H   0  0  0  0  0  0  0  0  0  0  0  0
  147.4210  141.4822  156.0644 H   0  0  0  0  0  0  0  0  0  0  0  0
  147.8561  142.5228  154.7254 H   0  0  0  0  0  0  0  0  0  0  0  0
  148.2181  138.6963  155.2473 H   0  0  0  0  0  0  0  0  0  0  0  0
  147.0884  137.5242  153.0070 H   0  0  0  0  0  0  0  0  0  0  0  0
  146.7003  141.6636  152.6875 H   0  0  0  0  0  0  0  0  0  0  0  0
  149.8411  143.3095  156.1203 H   0  0  0  0  0  0  0  0  0  0  0  0
  1  2  1  0  0  0  0
  1 18  1  0  0  0  0
  1 19  1  0  0  0  0
  1 20  1  0  0  0  0
  2  8  1  0  0  0  0
  2  3  2  0  0  0  0
  3  4  1  0  0  0  0
  3 21  1  0  0  0  0
  4  5  1  0  0  0  0
  4 22  1  0  0  0  0
  4 23  1  0  0  0  0
  5  6  1  0  0  0  0
  5 24  1  0  0  0  0
  5 25  1  0  0  0  0
  6  7  1  0  0  0  0
  6  8  1  0  0  0  0
  6 26  1  0  0  0  0
  7 27  1  0  0  0  0
  7 28  1  0  0  0  0
  7 29  1  0  0  0  0
  8  9  1  0  0  0  0
  8 30  1  0  0  0  0
  9 10  1  0  0  0  0
  9 31  1  0  0  0  0
  9 32  1  0  0  0  0
 10 11  1  0  0  0  0
 10 33  1  0  0  0  0
 10 41  1  0  0  0  0
 11 12  1  0  0  0  0
 11 34  1  0  0  0  0
 11 35  1  0  0  0  0
 12 13  1  0  0  0  0
 12 36  1  0  0  0  0
 12 37  1  0  0  0  0
 13 17  1  0  0  0  0
 13 14  1  0  0  0  0
 14 15  2  0  0  0  0
 14 38  1  0  0  0  0
 15 16  1  0  0  0  0
 15 39  1  0  0  0  0
 16 17  2  0  0  0  0
 17 40  1  0  0  0  0
M  CHG  1  10   1
M  END
> <s_m_source_file>
AV-unprocessed.smi

> <i_m_source_file_index>
3187

> <i_lp_mmshare_version>
43012

> <i_f3d_flags>
0

> <s_epik_input>
W0NIM11DMT1bQ0hdW0NIMl1bQ0gyXVtDQEBIXShbQ0gzXSlbQ0BIXTFbQ0gyXVtOSF1bQ0gyXVtDSDJdbjJbY0hdW2NIXW5bY0hdMg==

> <s_epik_cmdline>
J2VwaWtfcHl0aG9uJywgJy1waCcsICc3LjAnLCAnLXRuJywgJzgnLCAnLW1hJywgJzIwMCcsICctbWV0YWxfYmluZGluZycsICctaW1hZScsICc8aW5maWxlLm1hZT4nLCAnLW9tYWUnLCAnPG91dGZpbGUubWFlPic=

> <r_lp_tautomer_probability>
1

> <r_epik_Ionization_Penalty>
0.0501625

> <r_epik_Ionization_Penalty_Charging>
0.0501625

> <r_epik_Ionization_Penalty_Neutral>
0

> <r_epik_State_Penalty>
0.0972392

> <r_epik_Charging_Adjusted_Penalty>
0.147402

> <i_epik_Tot_Q>
1

> <i_epik_Tot_abs_Q>
1

> <r_epik_Metal_State_Penalty>
0.000104376

> <b_epik_Metal_Only>
0

> <s_lp_Force_Field>
OPLS_2005

> <r_lp_Energy>
17.5131

> <b_lp_Chiralities_Consistent>
1

> <s_lp_Variant>
AV-unprocessed.smi:3187-2

> <Gold.Version>
5.8.1

> <Gold.Id.Protein>
6NUR|6NUR_protein|mol2

> <Gold.PLP.Fitness>
44.1893

> <Gold.PLP.PLP>
-37.4907

> <Gold.PLP.part.hbond>
-1.0000

> <Gold.PLP.part.metal>
0.0000

> <Gold.PLP.part.buried>
-4.3364

> <Gold.PLP.part.nonpolar>
-32.3623

> <Gold.PLP.part.repulsive>
1.3137

> <Gold.PLP.ligand.clash>
0.0000

> <Gold.PLP.ligand.torsion>
1.1669

> <Gold.PLP.Chemscore.Hbond>
2.0000

> <Gold.PLP.Chemscore.CHOScore>
0.9756

> <Gold.PLP.Chemscore.Metal>
0.0000

> <Gold.Chemscore.Hbonds>
donor molecule, donor type, donor heavy atom, donor atom, acceptor molecule, acceptor atom, score
      L1  H    10    41       P1  8028  2.00
      L1  C    15    39       P1  7948  0.84

> <Gold.PLP.Chemscore.Internal.Correction>
0.1057

> <Gold.Rescore>
     Score         DG    S(hbond)    S(metal)    S(lipo)     H(rot)  DE(clash)    DE(int)     intcor
     15.04     -16.46       0.97        0.00     107.51       1.89       0.27       1.16       ----

> <Gold.Chemscore.Fitness>
15.0419

> <Gold.Chemscore.DG>
-16.4647

> <Gold.Chemscore.ZeroCoef>
-5.4800

> <Gold.Chemscore.Hbond>
0.9676

> <Gold.Chemscore.Metal>
0.0000

> <Gold.Chemscore.Lipo>
107.5148

> <Gold.Chemscore.Internal_Hbond>
0.0000

> <Gold.Chemscore.DEClash>
0.2651

> <Gold.Chemscore.DEInternal>
1.1578

> <Gold.Chemscore.Rot>
1.8853

> <Gold.Chemscore.Internal.Correction>
   9.000000E+99

> <Gold.Chemscore.Hbonds>
donor molecule, donor type, donor heavy atom, donor atom, acceptor molecule, acceptor atom, score
      L1  H    10    41       P1  8028  0.97

> <Gold.Chemscore.Hbond.Weighted>
-3.2318

> <Gold.Chemscore.Metal.Weighted>
-0.0000

> <Gold.Chemscore.Lipo.Weighted>
-12.5792

> <Gold.Chemscore.Internal_Hbond.Weighted>
0.0000

> <Gold.Chemscore.DEClash.Weighted>
0.2651

> <Gold.Chemscore.DEInternal.Weighted>
1.1578

> <Gold.Chemscore.Rot.Weighted>
4.8263

> <Gold.Chemscore.Internal.Correction.Weighted>
   9.000000E+99

> <Gold.Protein.RotatedTorsions>
[ 6907 6896 6895 6894 ] final   45.84 input  -60.11 | X-H torsion
[ 7974 7965 7964 7962 ] final -138.08 input  175.53 | X-H torsion
[ 8008 7997 7996 7995 ] final  111.98 input   59.86 | X-H torsion
[ 10167 10162 10161 10158 ] final -117.27 input  -65.29 | X-H torsion
[ 10718 10713 10712 10709 ] final  -69.63 input   66.30 | X-H torsion
[ 10763 10752 10751 10750 ] final   12.06 input  -60.55 | X-H torsion
[ 11005 11000 10999 10996 ] final -128.23 input  -57.11 | X-H torsion

> <Gold.Protein.ActiveResidues>
 VAL166  LYS551  ARG553  GLY616  TRP617  ASP618  TYR619  PRO620  LYS621  CYS622 
 ASP623  PHE694  ASN695  SER759  ASP760  ASP761  ALA762  ILE779  LEU786  VAL792 
 PHE793  MET794  SER795  GLU796  ALA797  LYS798  CYS799  TRP800  GLU811  SER814 

> <Gold.Protein.RotatedAtoms>
  152.2494  134.8148  160.0448 H   0  0  0  0  0  0  0  0  0  0  0  0  # atno 6907 bound_to 6896
  151.8834  133.3495  159.3782 H   0  0  0  0  0  0  0  0  0  0  0  0  # atno 6908 bound_to 6896
  150.7079  134.4922  159.5565 H   0  0  0  0  0  0  0  0  0  0  0  0  # atno 6909 bound_to 6896
  144.8788  140.6477  143.5219 H   0  0  0  0  0  0  0  0  0  0  0  0  # atno 7974 bound_to 7965
  156.2161  140.3008  155.9843 H   0  0  0  0  0  0  0  0  0  0  0  0  # atno 8008 bound_to 7997
  155.2602  140.0429  157.3013 H   0  0  0  0  0  0  0  0  0  0  0  0  # atno 8009 bound_to 7997
  154.5770  140.2364  155.8117 H   0  0  0  0  0  0  0  0  0  0  0  0  # atno 8010 bound_to 7997
  140.0702  143.4885  152.1984 H   0  0  0  0  0  0  0  0  0  0  0  0  # atno 10167 bound_to 10162
  156.0446  130.4316  150.2176 H   0  0  0  0  0  0  0  0  0  0  0  0  # atno 10718 bound_to 10713
  153.1861  135.6835  153.8413 H   0  0  0  0  0  0  0  0  0  0  0  0  # atno 10763 bound_to 10752
  153.7728  135.3193  155.3355 H   0  0  0  0  0  0  0  0  0  0  0  0  # atno 10764 bound_to 10752
  154.8089  135.4730  154.0562 H   0  0  0  0  0  0  0  0  0  0  0  0  # atno 10765 bound_to 10752
  140.9533  134.1036  157.4041 H   0  0  0  0  0  0  0  0  0  0  0  0  # atno 11005 bound_to 11000
  145.3992  139.1601  143.4186 LP  0  0  0  0  0  0  0  0  0  0  0  0  # atno 17320 bound_to 7965
  146.2981  140.4088  142.8714 LP  0  0  0  0  0  0  0  0  0  0  0  0  # atno 17321 bound_to 7965
  139.5841  144.7523  151.3566 LP  0  0  0  0  0  0  0  0  0  0  0  0  # atno 17342 bound_to 10162
  140.7129  143.7342  150.7601 LP  0  0  0  0  0  0  0  0  0  0  0  0  # atno 17343 bound_to 10162
  157.0267  130.9995  151.3324 LP  0  0  0  0  0  0  0  0  0  0  0  0  # atno 17370 bound_to 10713
  157.5306  130.8056  149.7913 LP  0  0  0  0  0  0  0  0  0  0  0  0  # atno 17371 bound_to 10713
  139.8854  135.0072  156.6433 LP  0  0  0  0  0  0  0  0  0  0  0  0  # atno 17394 bound_to 11000
  140.7572  133.8848  155.8390 LP  0  0  0  0  0  0  0  0  0  0  0  0  # atno 17395 bound_to 11000

$$$$
