AV-unprocessed.smi:2946|AV-procd|sdf|11281|dock7
  -GOLD-   2272016173D 1   1.00000     0.00000
 Structure written by MMmdl.
 35 36  0  0  0  0  0  0  0  0  1 V2000
  150.3042  144.0543  158.8094 C   0  0  0  0  0  0  0  0  0  0  0  0
  151.0771  142.8535  158.5633 N   0  0  0  0  0  0  0  0  0  0  0  0
  151.0024  142.0864  157.3971 C   0  0  0  0  0  0  0  0  0  0  0  0
  150.1140  142.4973  156.4091 N   0  0  0  0  0  0  0  0  0  0  0  0
  149.8829  141.8461  155.1280 C   0  0  0  0  0  0  0  0  0  0  0  0
  148.4378  141.3417  154.9934 C   0  0  1  0  0  0  0  0  0  0  0  0
  147.3753  142.4290  154.8125 C   0  0  0  0  0  0  0  0  0  0  0  0
  146.2871  141.6687  154.0890 C   0  0  0  0  0  0  0  0  0  0  0  0
  147.1000  140.7617  153.1699 C   0  0  0  0  0  0  0  0  0  0  0  0
  148.2985  140.4617  153.8802 O   0  0  0  0  0  0  0  0  0  0  0  0
  151.7814  140.9802  157.2372 C   0  0  0  0  0  0  0  0  0  0  0  0
  151.7922  140.1929  156.0443 C   0  0  0  0  0  0  0  0  0  0  0  0
  151.8112  139.5692  155.0687 N   0  0  0  0  0  0  0  0  0  0  0  0
  152.7080  140.5287  158.2728 C   0  0  0  0  0  0  0  0  0  0  0  0
  153.4384  139.5415  158.1577 O   0  0  0  0  0  0  0  0  0  0  0  0
  152.7174  141.3171  159.4413 N   0  0  0  0  0  0  0  0  0  0  0  0
  153.6253  140.9021  160.4928 C   0  0  0  0  0  0  0  0  0  0  0  0
  151.9338  142.4755  159.6263 C   0  0  0  0  0  0  0  0  0  0  0  0
  151.9908  143.1385  160.6663 O   0  0  0  0  0  0  0  0  0  0  0  0
  149.7524  144.3447  157.9184 H   0  0  0  0  0  0  0  0  0  0  0  0
  151.0006  144.8533  159.0712 H   0  0  0  0  0  0  0  0  0  0  0  0
  149.6143  143.8331  159.6257 H   0  0  0  0  0  0  0  0  0  0  0  0
  149.2790  142.9454  156.7592 H   0  0  0  0  0  0  0  0  0  0  0  0
  150.1061  142.5580  154.3329 H   0  0  0  0  0  0  0  0  0  0  0  0
  150.5612  141.0027  155.0017 H   0  0  0  0  0  0  0  0  0  0  0  0
  148.1841  140.7636  155.8832 H   0  0  0  0  0  0  0  0  0  0  0  0
  147.0418  142.8583  155.7575 H   0  0  0  0  0  0  0  0  0  0  0  0
  147.7369  143.2407  154.1812 H   0  0  0  0  0  0  0  0  0  0  0  0
  145.7134  141.0700  154.7977 H   0  0  0  0  0  0  0  0  0  0  0  0
  145.5966  142.3163  153.5479 H   0  0  0  0  0  0  0  0  0  0  0  0
  146.5614  139.8548  152.8946 H   0  0  0  0  0  0  0  0  0  0  0  0
  147.3637  141.2898  152.2529 H   0  0  0  0  0  0  0  0  0  0  0  0
  153.4430  141.4517  161.4158 H   0  0  0  0  0  0  0  0  0  0  0  0
  154.6379  141.0869  160.1306 H   0  0  0  0  0  0  0  0  0  0  0  0
  153.4563  139.8398  160.6795 H   0  0  0  0  0  0  0  0  0  0  0  0
  1  2  1  0  0  0  0
  1 20  1  0  0  0  0
  1 21  1  0  0  0  0
  1 22  1  0  0  0  0
  2 18  1  0  0  0  0
  2  3  1  0  0  0  0
  3  4  1  0  0  0  0
  3 11  2  0  0  0  0
  4  5  1  0  0  0  0
  4 23  1  0  0  0  0
  5  6  1  0  0  0  0
  5 24  1  0  0  0  0
  5 25  1  0  0  0  0
  6 10  1  0  0  0  0
  6  7  1  0  0  0  0
  6 26  1  0  0  0  0
  7  8  1  0  0  0  0
  7 27  1  0  0  0  0
  7 28  1  0  0  0  0
  8  9  1  0  0  0  0
  8 29  1  0  0  0  0
  8 30  1  0  0  0  0
  9 10  1  0  0  0  0
  9 31  1  0  0  0  0
  9 32  1  0  0  0  0
 11 12  1  0  0  0  0
 11 14  1  0  0  0  0
 12 13  3  0  0  0  0
 14 15  2  0  0  0  0
 14 16  1  0  0  0  0
 16 17  1  0  0  0  0
 16 18  1  0  0  0  0
 17 33  1  0  0  0  0
 17 34  1  0  0  0  0
 17 35  1  0  0  0  0
 18 19  2  0  0  0  0
M  END
> <s_m_source_file>
AV-unprocessed.smi

> <i_m_source_file_index>
2946

> <i_lp_mmshare_version>
43012

> <i_f3d_flags>
0

> <s_epik_input>
Tz1jMW4oW0NIM10pYyg9TyljKEMjTiljKG4xW0NIM10pW05IXVtDSDJdW0NAQEhdMltDSDJdW0NIMl1bQ0gyXU8y

> <s_epik_cmdline>
J2VwaWtfcHl0aG9uJywgJy1waCcsICc3LjAnLCAnLXRuJywgJzgnLCAnLW1hJywgJzIwMCcsICctbWV0YWxfYmluZGluZycsICctaW1hZScsICc8aW5maWxlLm1hZT4nLCAnLW9tYWUnLCAnPG91dGZpbGUubWFlPic=

> <r_epik_Ionization_Penalty>
0.000541801

> <r_epik_Ionization_Penalty_Charging>
8.97317e-10

> <r_epik_Ionization_Penalty_Neutral>
0.000541801

> <r_epik_State_Penalty>
0.000338907

> <r_epik_Charging_Adjusted_Penalty>
0.000338908

> <i_epik_Tot_Q>
0

> <i_epik_Tot_abs_Q>
0

> <r_epik_Metal_State_Penalty>
-0

> <b_epik_Metal_Only>
0

> <s_lp_Force_Field>
OPLS_2005

> <r_lp_Energy>
39.9681

> <b_lp_Chiralities_Consistent>
1

> <s_lp_Variant>
AV-unprocessed.smi:2946-2

> <Gold.Version>
5.8.1

> <Gold.Id.Protein>
6NUR|6NUR_protein|mol2

> <Gold.PLP.Fitness>
39.9352

> <Gold.PLP.PLP>
-33.6282

> <Gold.PLP.part.hbond>
-3.0000

> <Gold.PLP.part.metal>
0.0000

> <Gold.PLP.part.buried>
-0.7700

> <Gold.PLP.part.nonpolar>
-28.7728

> <Gold.PLP.part.repulsive>
0.8307

> <Gold.PLP.ligand.clash>
9.8971

> <Gold.PLP.ligand.torsion>
0.0769

> <Gold.PLP.Chemscore.Hbond>
2.1535

> <Gold.PLP.Chemscore.CHOScore>
0.0000

> <Gold.PLP.Chemscore.Metal>
0.0000

> <Gold.Chemscore.Hbonds>
donor molecule, donor type, donor heavy atom, donor atom, acceptor molecule, acceptor atom, score
      L1  H     4    23       P1  8028  0.16
      P1  H  7989  7998       L1    13  0.99
      P1  H  7997  8009       L1    15  1.00

> <Gold.PLP.Chemscore.Internal.Correction>
9.8975

> <Gold.Rescore>
     Score         DG    S(hbond)    S(metal)    S(lipo)     H(rot)  DE(clash)    DE(int)     intcor
     10.69     -14.07       1.60        0.00      55.99       1.29       0.63       2.75       ----

> <Gold.Chemscore.Fitness>
10.6892

> <Gold.Chemscore.DG>
-14.0720

> <Gold.Chemscore.ZeroCoef>
-5.4800

> <Gold.Chemscore.Hbond>
1.6033

> <Gold.Chemscore.Metal>
0.0000

> <Gold.Chemscore.Lipo>
55.9915

> <Gold.Chemscore.Internal_Hbond>
0.0000

> <Gold.Chemscore.DEClash>
0.6328

> <Gold.Chemscore.DEInternal>
2.7500

> <Gold.Chemscore.Rot>
1.2946

> <Gold.Chemscore.Internal.Correction>
   9.000000E+99

> <Gold.Chemscore.Hbonds>
donor molecule, donor type, donor heavy atom, donor atom, acceptor molecule, acceptor atom, score
      L1  H     4    23       P1  8028  0.17
      P1  H  7989  7998       L1    13  0.58
      P1  H  7997  8009       L1    15  0.50

> <Gold.Chemscore.Hbond.Weighted>
-5.3551

> <Gold.Chemscore.Metal.Weighted>
-0.0000

> <Gold.Chemscore.Lipo.Weighted>
-6.5510

> <Gold.Chemscore.Internal_Hbond.Weighted>
0.0000

> <Gold.Chemscore.DEClash.Weighted>
0.6328

> <Gold.Chemscore.DEInternal.Weighted>
2.7500

> <Gold.Chemscore.Rot.Weighted>
3.3141

> <Gold.Chemscore.Internal.Correction.Weighted>
   9.000000E+99

> <Gold.Protein.RotatedTorsions>
[ 6907 6896 6895 6894 ] final  125.51 input  -60.11 | X-H torsion
[ 7974 7965 7964 7962 ] final  -52.29 input  175.53 | X-H torsion
[ 8008 7997 7996 7995 ] final  149.86 input   59.86 | X-H torsion
[ 10167 10162 10161 10158 ] final -128.57 input  -65.29 | X-H torsion
[ 10718 10713 10712 10709 ] final  -96.83 input   66.30 | X-H torsion
[ 10763 10752 10751 10750 ] final  -78.84 input  -60.55 | X-H torsion
[ 11005 11000 10999 10996 ] final    3.36 input  -57.11 | X-H torsion

> <Gold.Protein.ActiveResidues>
 VAL166  LYS551  ARG553  GLY616  TRP617  ASP618  TYR619  PRO620  LYS621  CYS622 
 ASP623  PHE694  ASN695  SER759  ASP760  ASP761  ALA762  ILE779  LEU786  VAL792 
 PHE793  MET794  SER795  GLU796  ALA797  LYS798  CYS799  TRP800  GLU811  SER814 

> <Gold.Protein.RotatedAtoms>
  152.3985  133.6783  159.6296 H   0  0  0  0  0  0  0  0  0  0  0  0  # atno 6907 bound_to 6896
  150.7880  133.8832  159.3300 H   0  0  0  0  0  0  0  0  0  0  0  0  # atno 6908 bound_to 6896
  151.6603  135.0992  160.0229 H   0  0  0  0  0  0  0  0  0  0  0  0  # atno 6909 bound_to 6896
  145.9096  140.7926  142.9702 H   0  0  0  0  0  0  0  0  0  0  0  0  # atno 7974 bound_to 7965
  156.2738  140.2090  156.5925 H   0  0  0  0  0  0  0  0  0  0  0  0  # atno 8008 bound_to 7997
  154.6971  140.0524  157.0444 H   0  0  0  0  0  0  0  0  0  0  0  0  # atno 8009 bound_to 7997
  155.0786  140.3184  155.4611 H   0  0  0  0  0  0  0  0  0  0  0  0  # atno 8010 bound_to 7997
  139.9489  143.6078  152.2481 H   0  0  0  0  0  0  0  0  0  0  0  0  # atno 10167 bound_to 10162
  156.0070  130.5168  150.6284 H   0  0  0  0  0  0  0  0  0  0  0  0  # atno 10718 bound_to 10713
  154.5310  135.5716  153.6759 H   0  0  0  0  0  0  0  0  0  0  0  0  # atno 10763 bound_to 10752
  152.9939  135.6204  154.2629 H   0  0  0  0  0  0  0  0  0  0  0  0  # atno 10764 bound_to 10752
  154.2555  135.2858  155.2779 H   0  0  0  0  0  0  0  0  0  0  0  0  # atno 10765 bound_to 10752
  140.5940  133.9898  155.8101 H   0  0  0  0  0  0  0  0  0  0  0  0  # atno 11005 bound_to 11000
  144.6742  140.1805  143.7406 LP  0  0  0  0  0  0  0  0  0  0  0  0  # atno 17320 bound_to 7965
  145.8688  139.2261  143.1673 LP  0  0  0  0  0  0  0  0  0  0  0  0  # atno 17321 bound_to 7965
  139.6644  144.7662  151.1900 LP  0  0  0  0  0  0  0  0  0  0  0  0  # atno 17342 bound_to 10162
  140.7589  143.5960  150.8748 LP  0  0  0  0  0  0  0  0  0  0  0  0  # atno 17343 bound_to 10162
  157.4087  131.0820  151.1241 LP  0  0  0  0  0  0  0  0  0  0  0  0  # atno 17370 bound_to 10713
  157.1880  130.6339  149.5694 LP  0  0  0  0  0  0  0  0  0  0  0  0  # atno 17371 bound_to 10713
  141.0916  133.9907  157.3227 LP  0  0  0  0  0  0  0  0  0  0  0  0  # atno 17394 bound_to 11000
  139.9261  135.0201  156.8240 LP  0  0  0  0  0  0  0  0  0  0  0  0  # atno 17395 bound_to 11000

$$$$
