AV-unprocessed.smi:36|AV-procd|sdf|297|dock6
  -GOLD-   2262016 93D 1   1.00000     0.00000
 Structure written by MMmdl.
 63 66  0  0  0  0  0  0  0  0  2 V2000
  145.8067  135.3583  161.3204 C   0  0  0  0  0  0  0  0  0  0  0  0
  146.6643  134.2441  161.9424 C   0  0  0  0  0  0  0  0  0  0  0  0
  147.7723  134.8624  162.8110 C   0  0  0  0  0  0  0  0  0  0  0  0
  145.7839  133.3234  162.8046 C   0  0  0  0  0  0  0  0  0  0  0  0
  147.4690  133.2081  160.5532 Si  0  0  0  0  0  0  0  0  0  0  0  0
  148.8109  132.0542  161.2457 C   0  0  0  0  0  0  0  0  0  0  0  0
  146.1689  132.1913  159.6127 C   0  0  0  0  0  0  0  0  0  0  0  0
  148.1923  134.2813  159.4650 O   0  0  0  0  0  0  0  0  0  0  0  0
  147.9789  134.2447  158.0704 C   0  0  0  0  0  0  0  0  0  0  0  0
  149.0127  133.3064  157.4356 C   0  0  2  0  0  0  0  0  0  0  0  0
  150.3427  133.7002  157.7840 O   0  0  0  0  0  0  0  0  0  0  0  0
  151.1718  133.6790  156.6578 C   0  0  2  0  0  0  0  0  0  0  0  0
  151.3912  135.0897  156.2030 N   0  0  0  0  0  0  0  0  0  0  0  0
  150.8777  135.7402  155.1372 C   0  0  0  0  0  0  0  0  0  0  0  0
  151.2331  137.0118  154.9639 N   0  0  0  0  0  0  0  0  0  0  0  0
  152.0652  137.2212  156.0536 C   0  0  0  0  0  0  0  0  0  0  0  0
  152.7951  138.3566  156.5000 C   0  0  0  0  0  0  0  0  0  0  0  0
  152.7764  139.5306  155.8515 N   0  5  0  0  0  0  0  0  0  0  0  0
  151.6279  140.2509  155.7896 C   0  0  0  0  0  0  0  0  0  0  0  0
  150.7385  140.1869  154.9381 O   0  0  0  0  0  0  0  0  0  0  0  0
  151.5153  141.2820  156.8803 C   0  0  0  0  0  0  0  0  0  0  0  0
  152.4257  141.2598  157.9614 C   0  0  0  0  0  0  0  0  0  0  0  0
  152.3513  142.2294  158.9804 C   0  0  0  0  0  0  0  0  0  0  0  0
  151.3717  143.2383  158.9235 C   0  0  0  0  0  0  0  0  0  0  0  0
  150.4685  143.2788  157.8449 C   0  0  0  0  0  0  0  0  0  0  0  0
  150.5417  142.3092  156.8258 C   0  0  0  0  0  0  0  0  0  0  0  0
  153.5109  138.2163  157.6454 N   0  0  0  0  0  0  0  0  0  0  0  0
  153.5232  137.0472  158.2965 C   0  0  0  0  0  0  0  0  0  0  0  0
  152.8975  135.9069  157.9884 N   0  0  0  0  0  0  0  0  0  0  0  0
  152.1689  136.0392  156.8420 C   0  0  0  0  0  0  0  0  0  0  0  0
  150.4139  132.8981  155.5839 C   0  0  0  0  0  0  0  0  0  0  0  0
  148.9794  133.2642  155.9036 C   0  0  1  0  0  0  0  0  0  0  0  0
  148.0859  132.2891  155.4070 O   0  0  0  0  0  0  0  0  0  0  0  0
  145.3346  135.9701  162.0897 H   0  0  0  0  0  0  0  0  0  0  0  0
  145.0137  134.9485  160.6944 H   0  0  0  0  0  0  0  0  0  0  0  0
  146.4082  136.0214  160.6980 H   0  0  0  0  0  0  0  0  0  0  0  0
  148.4103  135.5273  162.2281 H   0  0  0  0  0  0  0  0  0  0  0  0
  148.4103  134.0925  163.2462 H   0  0  0  0  0  0  0  0  0  0  0  0
  147.3538  135.4461  163.6316 H   0  0  0  0  0  0  0  0  0  0  0  0
  145.3231  133.8713  163.6272 H   0  0  0  0  0  0  0  0  0  0  0  0
  146.3669  132.5089  163.2366 H   0  0  0  0  0  0  0  0  0  0  0  0
  144.9806  132.8769  162.2183 H   0  0  0  0  0  0  0  0  0  0  0  0
  148.4045  131.3673  161.9877 H   0  0  0  0  0  0  0  0  0  0  0  0
  149.6131  132.6149  161.7251 H   0  0  0  0  0  0  0  0  0  0  0  0
  149.2640  131.4500  160.4598 H   0  0  0  0  0  0  0  0  0  0  0  0
  145.6563  131.4899  160.2704 H   0  0  0  0  0  0  0  0  0  0  0  0
  146.6208  131.6103  158.8091 H   0  0  0  0  0  0  0  0  0  0  0  0
  145.4092  132.8300  159.1628 H   0  0  0  0  0  0  0  0  0  0  0  0
  146.9617  133.9193  157.8529 H   0  0  0  0  0  0  0  0  0  0  0  0
  148.0933  135.2533  157.6723 H   0  0  0  0  0  0  0  0  0  0  0  0
  148.8849  132.2988  157.8350 H   0  0  0  0  0  0  0  0  0  0  0  0
  152.1705  133.3004  156.8784 H   0  0  0  0  0  0  0  0  0  0  0  0
  150.2018  135.2600  154.4466 H   0  0  0  0  0  0  0  0  0  0  0  0
  153.1843  140.4928  158.0189 H   0  0  0  0  0  0  0  0  0  0  0  0
  153.0479  142.1990  159.8051 H   0  0  0  0  0  0  0  0  0  0  0  0
  151.3152  143.9820  159.7044 H   0  0  0  0  0  0  0  0  0  0  0  0
  149.7197  144.0555  157.7963 H   0  0  0  0  0  0  0  0  0  0  0  0
  149.8458  142.3640  156.0010 H   0  0  0  0  0  0  0  0  0  0  0  0
  154.1210  137.0223  159.1953 H   0  0  0  0  0  0  0  0  0  0  0  0
  150.7267  133.1628  154.5734 H   0  0  0  0  0  0  0  0  0  0  0  0
  150.5955  131.8340  155.7427 H   0  0  0  0  0  0  0  0  0  0  0  0
  148.7367  134.2430  155.4873 H   0  0  0  0  0  0  0  0  0  0  0  0
  148.2944  131.4596  155.8082 H   0  0  0  0  0  0  0  0  0  0  0  0
  1  2  1  0  0  0  0
  1 34  1  0  0  0  0
  1 35  1  0  0  0  0
  1 36  1  0  0  0  0
  2  3  1  0  0  0  0
  2  4  1  0  0  0  0
  2  5  1  0  0  0  0
  3 37  1  0  0  0  0
  3 38  1  0  0  0  0
  3 39  1  0  0  0  0
  4 40  1  0  0  0  0
  4 41  1  0  0  0  0
  4 42  1  0  0  0  0
  5  6  1  0  0  0  0
  5  7  1  0  0  0  0
  5  8  1  0  0  0  0
  6 43  1  0  0  0  0
  6 44  1  0  0  0  0
  6 45  1  0  0  0  0
  7 46  1  0  0  0  0
  7 47  1  0  0  0  0
  7 48  1  0  0  0  0
  8  9  1  0  0  0  0
  9 10  1  0  0  0  0
  9 49  1  0  0  0  0
  9 50  1  0  0  0  0
 10 32  1  0  0  0  0
 10 11  1  0  0  0  0
 10 51  1  0  0  0  0
 11 12  1  0  0  0  0
 12 13  1  0  0  0  0
 12 31  1  0  0  0  0
 12 52  1  0  0  0  0
 13 30  1  0  0  0  0
 13 14  1  0  0  0  0
 14 15  2  0  0  0  0
 14 53  1  0  0  0  0
 15 16  1  0  0  0  0
 16 30  2  0  0  0  0
 16 17  1  0  0  0  0
 17 18  1  0  0  0  0
 17 27  2  0  0  0  0
 18 19  1  0  0  0  0
 19 20  2  0  0  0  0
 19 21  1  0  0  0  0
 21 26  1  0  0  0  0
 21 22  2  0  0  0  0
 22 23  1  0  0  0  0
 22 54  1  0  0  0  0
 23 24  2  0  0  0  0
 23 55  1  0  0  0  0
 24 25  1  0  0  0  0
 24 56  1  0  0  0  0
 25 26  2  0  0  0  0
 25 57  1  0  0  0  0
 26 58  1  0  0  0  0
 27 28  1  0  0  0  0
 28 29  2  0  0  0  0
 28 59  1  0  0  0  0
 29 30  1  0  0  0  0
 31 32  1  0  0  0  0
 31 60  1  0  0  0  0
 31 61  1  0  0  0  0
 32 33  1  0  0  0  0
 32 62  1  0  0  0  0
 33 63  1  0  0  0  0
M  CHG  1  18  -1
M  END
> <s_m_source_file>
AV-unprocessed.smi

> <i_m_source_file_index>
36

> <i_lp_mmshare_version>
43012

> <i_f3d_flags>
0

> <s_epik_input>
W0NIM11DKFtDSDNdKShbQ0gzXSlbU2ldKFtDSDNdKShbQ0gzXSlPW0NIMl1bQ0BASF0xT1tDQEhdKFtDSDJdW0NASF0xW09IXSluKFtjSF1uMiljKGMyMyluW2NIXW5jM1tOSF1DKD1PKWM0W2NIXVtjSF1bY0hdW2NIXVtjSF00

> <s_epik_cmdline>
J2VwaWtfcHl0aG9uJywgJy1waCcsICc3LjAnLCAnLXRuJywgJzgnLCAnLW1hJywgJzIwMCcsICctbWV0YWxfYmluZGluZycsICctaW1hZScsICc8aW5maWxlLm1hZT4nLCAnLW9tYWUnLCAnPG91dGZpbGUubWFlPic=

> <r_lp_tautomer_probability>
1

> <r_epik_Ionization_Penalty>
4.75685

> <r_epik_Ionization_Penalty_Charging>
3.55822

> <r_epik_Ionization_Penalty_Neutral>
1.19863

> <r_epik_State_Penalty>
3.564

> <r_epik_Charging_Adjusted_Penalty>
7.12222

> <i_epik_Tot_Q>
-1

> <i_epik_Tot_abs_Q>
1

> <r_epik_Metal_State_Penalty>
0.523258

> <b_epik_Metal_Only>
1

> <s_epik_Chemistry_Notes>
This compound contains an acetal/aminal-like group ( X-CH(R)-Y where X, Y are N, S, or O) that may be acid/base labile, releasing an aldehyde.

> <s_lp_Force_Field>
OPLS_2005

> <r_lp_Energy>
31.8386

> <b_lp_Chiralities_Consistent>
1

> <s_lp_Variant>
AV-unprocessed.smi:36-19

> <Gold.Version>
5.8.1

> <Gold.Id.Protein>
6NUR|6NUR_protein|mol2

> <Gold.PLP.Fitness>
54.0984

> <Gold.PLP.PLP>
-45.4003

> <Gold.PLP.part.hbond>
-4.0000

> <Gold.PLP.part.metal>
0.0000

> <Gold.PLP.part.buried>
-6.8788

> <Gold.PLP.part.nonpolar>
-34.1916

> <Gold.PLP.part.repulsive>
0.1882

> <Gold.PLP.ligand.clash>
0.0000

> <Gold.PLP.ligand.torsion>
3.1546

> <Gold.PLP.Chemscore.Hbond>
3.9680

> <Gold.PLP.Chemscore.CHOScore>
0.8264

> <Gold.PLP.Chemscore.Metal>
0.0000

> <Gold.Chemscore.Hbonds>
donor molecule, donor type, donor heavy atom, donor atom, acceptor molecule, acceptor atom, score
      P1  H  6896  6908       L1    11  0.96
      P1  H  7989  7998       L1    20  1.00
      P1  H  7997  8010       L1    18  1.50

> <Gold.PLP.Chemscore.Internal.Correction>
0.6242

> <Gold.Rescore>
     Score         DG    S(hbond)    S(metal)    S(lipo)     H(rot)  DE(clash)    DE(int)     intcor
     14.75     -19.31       2.52        0.00     104.72       2.67       0.30       4.26       ----

> <Gold.Chemscore.Fitness>
14.7512

> <Gold.Chemscore.DG>
-19.3061

> <Gold.Chemscore.ZeroCoef>
-5.4800

> <Gold.Chemscore.Hbond>
2.5179

> <Gold.Chemscore.Metal>
0.0000

> <Gold.Chemscore.Lipo>
104.7175

> <Gold.Chemscore.Internal_Hbond>
0.0000

> <Gold.Chemscore.DEClash>
0.2990

> <Gold.Chemscore.DEInternal>
4.2559

> <Gold.Chemscore.Rot>
2.6702

> <Gold.Chemscore.Internal.Correction>
   9.000000E+99

> <Gold.Chemscore.Hbonds>
donor molecule, donor type, donor heavy atom, donor atom, acceptor molecule, acceptor atom, score
      P1  H  6896  6908       L1    11  0.85
      P1  H  7989  7998       L1    20  0.26
      P1  H  7997  8010       L1    18  0.09

> <Gold.Chemscore.Hbond.Weighted>
-8.4099

> <Gold.Chemscore.Metal.Weighted>
-0.0000

> <Gold.Chemscore.Lipo.Weighted>
-12.2520

> <Gold.Chemscore.Internal_Hbond.Weighted>
0.0000

> <Gold.Chemscore.DEClash.Weighted>
0.2990

> <Gold.Chemscore.DEInternal.Weighted>
4.2559

> <Gold.Chemscore.Rot.Weighted>
6.8358

> <Gold.Chemscore.Internal.Correction.Weighted>
   9.000000E+99

> <Gold.Protein.RotatedTorsions>
[ 6907 6896 6895 6894 ] final  111.16 input  -60.11 | X-H torsion
[ 7974 7965 7964 7962 ] final  103.59 input  175.53 | X-H torsion
[ 8008 7997 7996 7995 ] final   66.25 input   59.86 | X-H torsion
[ 10167 10162 10161 10158 ] final    3.25 input  -65.29 | X-H torsion
[ 10718 10713 10712 10709 ] final   60.05 input   66.30 | X-H torsion
[ 10763 10752 10751 10750 ] final  118.06 input  -60.55 | X-H torsion
[ 11005 11000 10999 10996 ] final -134.12 input  -57.11 | X-H torsion

> <Gold.Protein.ActiveResidues>
 VAL166  LYS551  ARG553  GLY616  TRP617  ASP618  TYR619  PRO620  LYS621  CYS622 
 ASP623  PHE694  ASN695  SER759  ASP760  ASP761  ALA762  ILE779  LEU786  VAL792 
 PHE793  MET794  SER795  GLU796  ALA797  LYS798  CYS799  TRP800  GLU811  SER814 

> <Gold.Protein.RotatedAtoms>
  152.4983  133.8697  159.7291 H   0  0  0  0  0  0  0  0  0  0  0  0  # atno 6907 bound_to 6896
  150.9187  133.6898  159.2844 H   0  0  0  0  0  0  0  0  0  0  0  0  # atno 6908 bound_to 6896
  151.4283  135.1011  159.9687 H   0  0  0  0  0  0  0  0  0  0  0  0  # atno 6909 bound_to 6896
  145.3439  139.2455  143.3594 H   0  0  0  0  0  0  0  0  0  0  0  0  # atno 7974 bound_to 7965
  155.6744  140.3497  155.4831 H   0  0  0  0  0  0  0  0  0  0  0  0  # atno 8008 bound_to 7997
  155.9661  140.1146  157.0876 H   0  0  0  0  0  0  0  0  0  0  0  0  # atno 8009 bound_to 7997
  154.4154  140.1166  156.5229 H   0  0  0  0  0  0  0  0  0  0  0  0  # atno 8010 bound_to 7997
  140.6595  143.7341  150.7713 H   0  0  0  0  0  0  0  0  0  0  0  0  # atno 10167 bound_to 10162
  157.5723  130.8917  149.9288 H   0  0  0  0  0  0  0  0  0  0  0  0  # atno 10718 bound_to 10713
  153.5619  135.3519  155.2803 H   0  0  0  0  0  0  0  0  0  0  0  0  # atno 10763 bound_to 10752
  154.8694  135.4138  154.2821 H   0  0  0  0  0  0  0  0  0  0  0  0  # atno 10764 bound_to 10752
  153.3568  135.7058  153.6813 H   0  0  0  0  0  0  0  0  0  0  0  0  # atno 10765 bound_to 10752
  140.9018  134.1680  157.4454 H   0  0  0  0  0  0  0  0  0  0  0  0  # atno 11005 bound_to 11000
  146.2996  140.4042  142.8709 LP  0  0  0  0  0  0  0  0  0  0  0  0  # atno 17320 bound_to 7965
  144.8769  140.7348  143.6011 LP  0  0  0  0  0  0  0  0  0  0  0  0  # atno 17321 bound_to 7965
  140.1007  143.4790  152.2427 LP  0  0  0  0  0  0  0  0  0  0  0  0  # atno 17342 bound_to 10162
  139.5825  144.7517  151.3604 LP  0  0  0  0  0  0  0  0  0  0  0  0  # atno 17343 bound_to 10162
  156.0768  130.3678  150.0661 LP  0  0  0  0  0  0  0  0  0  0  0  0  # atno 17370 bound_to 10713
  156.8812  130.9557  151.3599 LP  0  0  0  0  0  0  0  0  0  0  0  0  # atno 17371 bound_to 10713
  139.8743  134.9901  156.5488 LP  0  0  0  0  0  0  0  0  0  0  0  0  # atno 17394 bound_to 11000
  140.8220  133.8346  155.8904 LP  0  0  0  0  0  0  0  0  0  0  0  0  # atno 17395 bound_to 11000

$$$$
