AV-unprocessed.smi:3217|AV-procd|sdf|12289|dock10
  -GOLD-   2272018133D 1   1.00000     0.00000
 Structure written by MMmdl.
 34 35  0  0  0  0  0  0  0  0  1 V2000
  148.0539  133.0473  155.6269 C   0  0  0  0  0  0  0  0  0  0  0  0
  149.0379  133.0440  154.4468 C   0  0  2  0  0  0  0  0  0  0  0  0
  149.3543  134.4269  154.0957 N   0  0  0  0  0  0  0  0  0  0  0  0
  149.9638  135.3208  154.8876 C   0  0  0  0  0  0  0  0  0  0  0  0
  150.3237  135.0800  156.0394 O   0  0  0  0  0  0  0  0  0  0  0  0
  150.1038  136.5010  154.2597 N   0  0  0  0  0  0  0  0  0  0  0  0
  150.6912  137.7015  154.7439 C   0  0  0  0  0  0  0  0  0  0  0  0
  151.6087  137.6023  155.8100 C   0  0  0  0  0  0  0  0  0  0  0  0
  152.1961  138.7745  156.3226 C   0  0  0  0  0  0  0  0  0  0  0  0
  151.8339  140.0094  155.7511 C   0  0  0  0  0  0  0  0  0  0  0  0
  150.9465  140.1248  154.7409 N   0  0  0  0  0  0  0  0  0  0  0  0
  150.3882  138.9960  154.2527 C   0  0  0  0  0  0  0  0  0  0  0  0
  148.4706  132.3211  153.2098 C   0  0  2  0  0  0  0  0  0  0  0  0
  147.3905  133.0971  152.4526 C   0  0  0  0  0  0  0  0  0  0  0  0
  146.5461  132.0114  151.8013 C   0  0  0  0  0  0  0  0  0  0  0  0
  147.0187  130.7183  152.4688 C   0  0  0  0  0  0  0  0  0  0  0  0
  147.7734  131.1450  153.5926 O   0  0  0  0  0  0  0  0  0  0  0  0
  147.8180  132.0335  155.9511 H   0  0  0  0  0  0  0  0  0  0  0  0
  147.1173  133.5390  155.3620 H   0  0  0  0  0  0  0  0  0  0  0  0
  148.4744  133.5721  156.4854 H   0  0  0  0  0  0  0  0  0  0  0  0
  149.9395  132.5184  154.7661 H   0  0  0  0  0  0  0  0  0  0  0  0
  149.0954  134.7231  153.1662 H   0  0  0  0  0  0  0  0  0  0  0  0
  149.6916  136.5628  153.3404 H   0  0  0  0  0  0  0  0  0  0  0  0
  151.8643  136.6402  156.2301 H   0  0  0  0  0  0  0  0  0  0  0  0
  152.9063  138.7284  157.1348 H   0  0  0  0  0  0  0  0  0  0  0  0
  152.2640  140.9291  156.1193 H   0  0  0  0  0  0  0  0  0  0  0  0
  149.6697  139.1571  153.4645 H   0  0  0  0  0  0  0  0  0  0  0  0
  149.2757  132.0449  152.5256 H   0  0  0  0  0  0  0  0  0  0  0  0
  146.7732  133.6653  153.1499 H   0  0  0  0  0  0  0  0  0  0  0  0
  147.8090  133.7968  151.7287 H   0  0  0  0  0  0  0  0  0  0  0  0
  145.4858  132.1895  151.9838 H   0  0  0  0  0  0  0  0  0  0  0  0
  146.6990  131.9699  150.7223 H   0  0  0  0  0  0  0  0  0  0  0  0
  146.1928  130.0727  152.7677 H   0  0  0  0  0  0  0  0  0  0  0  0
  147.6669  130.1540  151.7967 H   0  0  0  0  0  0  0  0  0  0  0  0
  1  2  1  0  0  0  0
  1 18  1  0  0  0  0
  1 19  1  0  0  0  0
  1 20  1  0  0  0  0
  2  3  1  0  0  0  0
  2 13  1  0  0  0  0
  2 21  1  0  0  0  0
  3  4  1  0  0  0  0
  3 22  1  0  0  0  0
  4  5  2  0  0  0  0
  4  6  1  0  0  0  0
  6  7  1  0  0  0  0
  6 23  1  0  0  0  0
  7 12  1  0  0  0  0
  7  8  2  0  0  0  0
  8  9  1  0  0  0  0
  8 24  1  0  0  0  0
  9 10  2  0  0  0  0
  9 25  1  0  0  0  0
 10 11  1  0  0  0  0
 10 26  1  0  0  0  0
 11 12  2  0  0  0  0
 12 27  1  0  0  0  0
 13 17  1  0  0  0  0
 13 14  1  0  0  0  0
 13 28  1  0  0  0  0
 14 15  1  0  0  0  0
 14 29  1  0  0  0  0
 14 30  1  0  0  0  0
 15 16  1  0  0  0  0
 15 31  1  0  0  0  0
 15 32  1  0  0  0  0
 16 17  1  0  0  0  0
 16 33  1  0  0  0  0
 16 34  1  0  0  0  0
M  END
> <s_m_source_file>
AV-unprocessed.smi

> <i_m_source_file_index>
3217

> <i_lp_mmshare_version>
43012

> <i_f3d_flags>
0

> <s_epik_input>
TzFbQ0gyXVtDSDJdW0NIMl1bQ0BIXTFbQ0BIXShbQ0gzXSlbTkhdQyg9TylbTkhdYzJbY0hdW2NIXVtjSF1uW2NIXTI=

> <s_epik_cmdline>
J2VwaWtfcHl0aG9uJywgJy1waCcsICc3LjAnLCAnLXRuJywgJzgnLCAnLW1hJywgJzIwMCcsICctbWV0YWxfYmluZGluZycsICctaW1hZScsICc8aW5maWxlLm1hZT4nLCAnLW9tYWUnLCAnPG91dGZpbGUubWFlPic=

> <r_epik_Ionization_Penalty>
0.00475451

> <r_epik_Ionization_Penalty_Charging>
0

> <r_epik_Ionization_Penalty_Neutral>
0.00475451

> <r_epik_State_Penalty>
0.00341814

> <r_epik_Charging_Adjusted_Penalty>
0.00341814

> <i_epik_Tot_Q>
0

> <i_epik_Tot_abs_Q>
0

> <r_epik_Metal_State_Penalty>
-0

> <b_epik_Metal_Only>
0

> <s_lp_Force_Field>
OPLS_2005

> <r_lp_Energy>
20.3997

> <b_lp_Chiralities_Consistent>
1

> <s_lp_Variant>
AV-unprocessed.smi:3217-1

> <Gold.Version>
5.8.1

> <Gold.Id.Protein>
6NUR|6NUR_protein|mol2

> <Gold.PLP.Fitness>
39.4772

> <Gold.PLP.PLP>
-29.0773

> <Gold.PLP.part.hbond>
-3.9863

> <Gold.PLP.part.metal>
0.0000

> <Gold.PLP.part.buried>
-0.7927

> <Gold.PLP.part.nonpolar>
-23.4434

> <Gold.PLP.part.repulsive>
0.2786

> <Gold.PLP.ligand.clash>
0.0000

> <Gold.PLP.ligand.torsion>
0.3876

> <Gold.PLP.Chemscore.Hbond>
2.7200

> <Gold.PLP.Chemscore.CHOScore>
0.9981

> <Gold.PLP.Chemscore.Metal>
0.0000

> <Gold.Chemscore.Hbonds>
donor molecule, donor type, donor heavy atom, donor atom, acceptor molecule, acceptor atom, score
      L1  H     3    22       P1  7948  0.58
      L1  H     6    23       P1  7948  1.00
      P1  H  7989  7998       L1    11  1.00
      L1  C    12    27       P1  7957  1.00

> <Gold.PLP.Chemscore.Internal.Correction>
0.0208

> <Gold.Rescore>
     Score         DG    S(hbond)    S(metal)    S(lipo)     H(rot)  DE(clash)    DE(int)     intcor
     13.37     -15.36       1.65        0.00      64.05       1.22       0.22       1.76       ----

> <Gold.Chemscore.Fitness>
13.3718

> <Gold.Chemscore.DG>
-15.3578

> <Gold.Chemscore.ZeroCoef>
-5.4800

> <Gold.Chemscore.Hbond>
1.6515

> <Gold.Chemscore.Metal>
0.0000

> <Gold.Chemscore.Lipo>
64.0538

> <Gold.Chemscore.Internal_Hbond>
0.0000

> <Gold.Chemscore.DEClash>
0.2212

> <Gold.Chemscore.DEInternal>
1.7648

> <Gold.Chemscore.Rot>
1.2236

> <Gold.Chemscore.Internal.Correction>
   9.000000E+99

> <Gold.Chemscore.Hbonds>
donor molecule, donor type, donor heavy atom, donor atom, acceptor molecule, acceptor atom, score
      L1  H     3    22       P1  7948  0.04
      L1  H     6    23       P1  7948  0.40
      P1  H  7989  7998       L1    11  0.44

> <Gold.Chemscore.Hbond.Weighted>
-5.5160

> <Gold.Chemscore.Metal.Weighted>
-0.0000

> <Gold.Chemscore.Lipo.Weighted>
-7.4943

> <Gold.Chemscore.Internal_Hbond.Weighted>
0.0000

> <Gold.Chemscore.DEClash.Weighted>
0.2212

> <Gold.Chemscore.DEInternal.Weighted>
1.7648

> <Gold.Chemscore.Rot.Weighted>
3.1325

> <Gold.Chemscore.Internal.Correction.Weighted>
   9.000000E+99

> <Gold.Protein.RotatedTorsions>
[ 6907 6896 6895 6894 ] final  -36.73 input  -60.11 | X-H torsion
[ 7974 7965 7964 7962 ] final  -51.14 input  175.53 | X-H torsion
[ 8008 7997 7996 7995 ] final   11.33 input   59.86 | X-H torsion
[ 10167 10162 10161 10158 ] final -156.25 input  -65.29 | X-H torsion
[ 10718 10713 10712 10709 ] final  -52.78 input   66.30 | X-H torsion
[ 10763 10752 10751 10750 ] final  162.87 input  -60.55 | X-H torsion
[ 11005 11000 10999 10996 ] final -138.07 input  -57.11 | X-H torsion

> <Gold.Protein.ActiveResidues>
 VAL166  LYS551  ARG553  GLY616  TRP617  ASP618  TYR619  PRO620  LYS621  CYS622 
 ASP623  PHE694  ASN695  SER759  ASP760  ASP761  ALA762  ILE779  LEU786  VAL792 
 PHE793  MET794  SER795  GLU796  ALA797  LYS798  CYS799  TRP800  GLU811  SER814 

> <Gold.Protein.RotatedAtoms>
  151.0236  134.9487  159.8072 H   0  0  0  0  0  0  0  0  0  0  0  0  # atno 6907 bound_to 6896
  152.5330  134.2872  159.9039 H   0  0  0  0  0  0  0  0  0  0  0  0  # atno 6908 bound_to 6896
  151.2880  133.4136  159.2665 H   0  0  0  0  0  0  0  0  0  0  0  0  # atno 6909 bound_to 6896
  145.9222  140.7824  142.9641 H   0  0  0  0  0  0  0  0  0  0  0  0  # atno 7974 bound_to 7965
  154.8055  140.2859  155.5891 H   0  0  0  0  0  0  0  0  0  0  0  0  # atno 8008 bound_to 7997
  156.2982  140.2578  156.2861 H   0  0  0  0  0  0  0  0  0  0  0  0  # atno 8009 bound_to 7997
  154.9508  140.0379  157.2133 H   0  0  0  0  0  0  0  0  0  0  0  0  # atno 8010 bound_to 7997
  139.6865  143.9492  152.2364 H   0  0  0  0  0  0  0  0  0  0  0  0  # atno 10167 bound_to 10162
  156.1591  130.4150  149.9821 H   0  0  0  0  0  0  0  0  0  0  0  0  # atno 10718 bound_to 10713
  154.2850  135.2762  155.2680 H   0  0  0  0  0  0  0  0  0  0  0  0  # atno 10763 bound_to 10752
  154.5184  135.5763  153.6664 H   0  0  0  0  0  0  0  0  0  0  0  0  # atno 10764 bound_to 10752
  152.9923  135.6198  154.3012 H   0  0  0  0  0  0  0  0  0  0  0  0  # atno 10765 bound_to 10752
  140.8651  134.2120  157.4684 H   0  0  0  0  0  0  0  0  0  0  0  0  # atno 11005 bound_to 11000
  144.6754  140.1994  143.7388 LP  0  0  0  0  0  0  0  0  0  0  0  0  # atno 17320 bound_to 7965
  145.8535  139.2187  143.1758 LP  0  0  0  0  0  0  0  0  0  0  0  0  # atno 17321 bound_to 7965
  139.9297  144.6749  150.8376 LP  0  0  0  0  0  0  0  0  0  0  0  0  # atno 17342 bound_to 10162
  140.7669  143.3317  151.2395 LP  0  0  0  0  0  0  0  0  0  0  0  0  # atno 17343 bound_to 10162
  156.7656  130.9167  151.3643 LP  0  0  0  0  0  0  0  0  0  0  0  0  # atno 17370 bound_to 10713
  157.6719  130.9058  150.0059 LP  0  0  0  0  0  0  0  0  0  0  0  0  # atno 17371 bound_to 10713
  139.8709  134.9748  156.4860 LP  0  0  0  0  0  0  0  0  0  0  0  0  # atno 17394 bound_to 11000
  140.8638  133.8040  155.9292 LP  0  0  0  0  0  0  0  0  0  0  0  0  # atno 17395 bound_to 11000

$$$$
