#       Name:                AV-unprocessed.smi:218
#       Creating user name   scv26
#       Creation time:       Thu Mar 26 20:06:37 2020


#       File generated by GOLD software.
#

@<TRIPOS>MOLECULE
AV-unprocessed.smi:218
    68    71     1
SMALL
NO_CHARGES


@<TRIPOS>ATOM
      1 ****        -1.5461   5.6353  -0.1767 C.3            1 S1                 0.0000
      2 ****        -2.7780   4.7914   0.1722 C.3            1 S1                 0.0000
      3 ****        -3.8375   5.6312   0.9065 C.3            1 S1                 0.0000
      4 ****        -2.3254   3.7228   1.0058 O.3            1 S1                 0.0000
      5 ****        -3.0861   2.5773   1.1412 C.ar           1 S1                 0.0000
      6 ****        -2.6187   1.5647   2.0032 C.ar           1 S1                 0.0000
      7 ****        -3.3760   0.3819   2.1428 C.ar           1 S1                 0.0000
      8 ****        -2.9139  -0.7481   3.0502 C.3            1 S1                 0.0000
      9 ****        -1.4792  -1.0171   3.0265 N.pl3          1 S1                 0.0000
     10 ****        -0.8816  -1.4067   1.8788 C.ar           1 S1                 0.0000
     11 ****        -1.6076  -1.9147   0.8489 N.ar           1 S1                 0.0000
     12 ****        -0.9959  -2.2855  -0.2798 C.ar           1 S1                 0.0000
     13 ****         0.3042  -2.2375  -0.5787 N.ar           1 S1                 0.0000
     14 ****         1.0386  -1.7343   0.4556 C.ar           1 S1                 0.0000
     15 ****         0.5229  -1.3021   1.7092 C.ar           1 S1                 0.0000
     16 ****         1.5597  -0.8492   2.5145 N.2            1 S1                 0.0000
     17 ****         2.6245  -1.0036   1.7740 C.2            1 S1                 0.0000
     18 ****         2.4021  -1.5317   0.5214 N.pl3          1 S1                 0.0000
     19 ****         3.4122  -1.8115  -0.5428 C.3            1 S1                 0.0000
     20 ****         2.9519  -1.2408  -1.7316 O.3            1 S1                 0.0000
     21 ****         3.2115  -2.1111  -2.8266 C.3            1 S1                 0.0000
     22 ****         4.6004  -1.7669  -3.4065 C.3            1 S1                 0.0000
     23 ****         4.7587  -2.3264  -4.6935 O.3            1 S1                 0.0000
     24 ****         3.0585  -3.5015  -2.1930 C.3            1 S1                 0.0000
     25 ****         3.6717  -4.5552  -2.9137 O.3            1 S1                 0.0000
     26 ****         3.5785  -3.3257  -0.7666 C.3            1 S1                 0.0000
     27 ****         4.9340  -3.7149  -0.6359 O.3            1 S1                 0.0000
     28 ****        -4.5810   0.2669   1.4219 C.ar           1 S1                 0.0000
     29 ****        -4.9669   1.3321   0.5855 C.ar           1 S1                 0.0000
     30 ****        -4.2422   2.4615   0.4415 N.ar           1 S1                 0.0000
     31 ****         4.3227  -1.3150  -0.2036 H              1 S1                 0.0000
     32 ****         2.4499  -1.9441  -3.5897 H              1 S1                 0.0000
     33 ****         1.9934  -3.7282  -2.1406 H              1 S1                 0.0000
     34 ****         2.9834  -3.8971  -0.0526 H              1 S1                 0.0000
     35 ****        -1.8113   6.4693  -0.8270 H              1 S1                 0.0000
     36 ****        -0.7977   5.0358  -0.6955 H              1 S1                 0.0000
     37 ****        -1.0807   6.0450   0.7202 H              1 S1                 0.0000
     38 ****        -3.1858   4.4128  -0.7662 H              1 S1                 0.0000
     39 ****        -4.1582   6.4752   0.2954 H              1 S1                 0.0000
     40 ****        -3.4441   6.0288   1.8424 H              1 S1                 0.0000
     41 ****        -4.7252   5.0460   1.1445 H              1 S1                 0.0000
     42 ****        -1.6910   1.6959   2.5406 H              1 S1                 0.0000
     43 ****        -3.1921  -0.4949   4.0733 H              1 S1                 0.0000
     44 ****        -3.4545  -1.6630   2.8045 H              1 S1                 0.0000
     45 ****        -0.9580  -0.6616   3.8150 H              1 S1                 0.0000
     46 ****        -1.6403  -2.6743  -1.0544 H              1 S1                 0.0000
     47 ****         3.6100  -0.7341   2.1251 H              1 S1                 0.0000
     48 ****         4.6978  -0.6856  -3.5084 H              1 S1                 0.0000
     49 ****         5.4096  -2.0974  -2.7559 H              1 S1                 0.0000
     50 ****         5.6083  -2.0795  -5.0264 H              1 S1                 0.0000
     51 ****         3.3148  -4.5673  -3.7889 H              1 S1                 0.0000
     52 ****         5.4312  -3.3047  -1.3267 H              1 S1                 0.0000
     53 ****        -5.1947  -0.6186   1.5012 H              1 S1                 0.0000
     54 ****        -5.8834   1.2756   0.0170 H              1 S1                 0.0000
     55 ****        -2.2108   4.1025   1.9238 LP             1 S1                 0.0000
     56 ****        -1.4356   3.4371   0.6499 LP             1 S1                 0.0000
     57 ****        -2.5991  -2.0111   0.9355 LP             1 S1                 0.0000
     58 ****         0.6918  -2.5334  -1.4517 LP             1 S1                 0.0000
     59 ****         1.5040  -0.4885   3.4456 LP             1 S1                 0.0000
     60 ****         3.4202  -0.3703  -1.8832 LP             1 S1                 0.0000
     61 ****         1.9671  -1.0818  -1.6621 LP             1 S1                 0.0000
     62 ****         4.0446  -1.9800  -5.3018 LP             1 S1                 0.0000
     63 ****         4.6950  -3.3228  -4.6380 LP             1 S1                 0.0000
     64 ****         3.4847  -5.4270  -2.4610 LP             1 S1                 0.0000
     65 ****         4.6597  -4.4059  -2.9543 LP             1 S1                 0.0000
     66 ****         5.0084  -4.7093  -0.7113 LP             1 S1                 0.0000
     67 ****         5.2853  -3.4209   0.2531 LP             1 S1                 0.0000
     68 ****        -4.5497   3.1942  -0.1655 LP             1 S1                 0.0000
@<TRIPOS>BOND
    1    1    2 1     
    2    1   35 1     
    3    1   36 1     
    4    1   37 1     
    5    2    3 1     
    6    2    4 1     
    7    2   38 1     
    8    3   39 1     
    9    3   40 1     
   10    3   41 1     
   11    4    5 1     
   12    5   30 ar    
   13    5    6 ar    
   14    6    7 ar    
   15    6   42 1     
   16    7    8 1     
   17    7   28 ar    
   18    8    9 1     
   19    8   43 1     
   20    8   44 1     
   21    9   10 1     
   22    9   45 1     
   23   10   15 ar    
   24   10   11 ar    
   25   11   12 ar    
   26   12   13 ar    
   27   12   46 1     
   28   13   14 ar    
   29   14   18 1     
   30   14   15 ar    
   31   15   16 1     
   32   16   17 2     
   33   17   18 1     
   34   17   47 1     
   35   18   19 1     
   36   19   31 1     
   37   19   26 1     
   38   19   20 1     
   39   20   21 1     
   40   21   32 1     
   41   21   22 1     
   42   21   24 1     
   43   22   23 1     
   44   22   48 1     
   45   22   49 1     
   46   23   50 1     
   47   24   33 1     
   48   24   25 1     
   49   24   26 1     
   50   25   51 1     
   51   26   34 1     
   52   26   27 1     
   53   27   52 1     
   54   28   29 ar    
   55   28   53 1     
   56   29   30 ar    
   57   29   54 1     
   58    4   55 1     
   59    4   56 1     
   60   11   57 1     
   61   13   58 1     
   62   16   59 1     
   63   20   60 1     
   64   20   61 1     
   65   23   62 1     
   66   23   63 1     
   67   25   64 1     
   68   25   65 1     
   69   27   66 1     
   70   27   67 1     
   71   30   68 1     
@<TRIPOS>SUBSTRUCTURE
      1 S1             1
@<TRIPOS>SET
LONE_PAIRS      STATIC     ATOMS    <user>   **** ""
14 55 56 57 58 59 60 61 62 63 64 65 66 67 68
DONOR_HYDROGENS      STATIC     ATOMS    <user>   **** ""
4 45 50 51 52
ATOM$BLUE        STATIC     ATOMS    COLORGROUP SYSTEM
14 55 56 57 58 59 60 61 62 63 64 65 66 67 68
ATOM$RED        STATIC     ATOMS    COLORGROUP SYSTEM
4 45 50 51 52
