#       Name:                AV-unprocessed.smi:2390
#       Creating user name   scv26
#       Creation time:       Fri Mar 27 13:10:47 2020


#       File generated by GOLD software.
#

@<TRIPOS>MOLECULE
AV-unprocessed.smi:2390
    51    52     1
SMALL
NO_CHARGES


@<TRIPOS>ATOM
      1 ****        -5.9483   1.3618  -2.5775 C.3            1 S1                 0.0000
      2 ****        -4.8077   1.4645  -1.5864 C.ar           1 S1                 0.0000
      3 ****        -4.9045   2.3077  -0.4627 C.ar           1 S1                 0.0000
      4 ****        -3.8189   2.3497   0.4295 C.ar           1 S1                 0.0000
      5 ****        -2.6857   1.5582   0.1608 C.ar           1 S1                 0.0000
      6 ****        -2.6625   0.7504  -1.0053 C.ar           1 S1                 0.0000
      7 ****        -1.5450  -0.0790  -1.2875 N.am           1 S1                 0.0000
      8 ****        -0.2469   0.1633  -1.0372 C.2            1 S1                 0.0000
      9 ****         0.1963   1.1808  -0.5030 O.2            1 S1                 0.0000
     10 ****         0.5277  -0.8527  -1.4469 N.am           1 S1                 0.0000
     11 ****         1.9869  -0.9181  -1.3389 C.3            1 S1                 0.0000
     12 ****         2.5474  -1.7031  -2.5365 C.3            1 S1                 0.0000
     13 ****         2.4488  -1.4826   0.0393 C.3            1 S1                 0.0000
     14 ****         1.8827  -2.9029   0.2895 C.3            1 S1                 0.0000
     15 ****         2.1392  -0.5047   1.1344 N.4            1 S1                 1.0000
     16 ****         1.8734  -1.0683   2.4853 C.3            1 S1                 0.0000
     17 ****         1.4774   0.0479   3.4677 C.3            1 S1                 0.0000
     18 ****         2.4962   1.0371   3.5153 O.3            1 S1                 0.0000
     19 ****         2.6948   1.6477   2.2478 C.3            1 S1                 0.0000
     20 ****         3.1470   0.5836   1.2355 C.3            1 S1                 0.0000
     21 ****        -3.7225   0.7022  -1.8444 N.ar           1 S1                 0.0000
     22 ****        -6.5543   2.2683  -2.5689 H              1 S1                 0.0000
     23 ****        -6.5902   0.5174  -2.3250 H              1 S1                 0.0000
     24 ****        -5.5727   1.2172  -3.5912 H              1 S1                 0.0000
     25 ****        -5.7889   2.9013  -0.2832 H              1 S1                 0.0000
     26 ****        -3.8563   2.9737   1.3102 H              1 S1                 0.0000
     27 ****        -1.8617   1.5746   0.8577 H              1 S1                 0.0000
     28 ****        -1.7487  -0.9058  -1.8297 H              1 S1                 0.0000
     29 ****         0.0737  -1.6448  -1.8787 H              1 S1                 0.0000
     30 ****         2.3784   0.0922  -1.4576 H              1 S1                 0.0000
     31 ****         3.6328  -1.7883  -2.4780 H              1 S1                 0.0000
     32 ****         2.3115  -1.1984  -3.4742 H              1 S1                 0.0000
     33 ****         2.1349  -2.7097  -2.6007 H              1 S1                 0.0000
     34 ****         3.5342  -1.5937   0.0113 H              1 S1                 0.0000
     35 ****         2.1347  -3.5835  -0.5224 H              1 S1                 0.0000
     36 ****         0.7965  -2.8988   0.3853 H              1 S1                 0.0000
     37 ****         2.3004  -3.3525   1.1904 H              1 S1                 0.0000
     38 ****         1.0536  -1.7854   2.4550 H              1 S1                 0.0000
     39 ****         2.7591  -1.5926   2.8479 H              1 S1                 0.0000
     40 ****         0.5278   0.5014   3.1775 H              1 S1                 0.0000
     41 ****         1.3394  -0.3642   4.4675 H              1 S1                 0.0000
     42 ****         1.7796   2.1405   1.9152 H              1 S1                 0.0000
     43 ****         3.4565   2.4217   2.3449 H              1 S1                 0.0000
     44 ****         4.1077   0.1658   1.5409 H              1 S1                 0.0000
     45 ****         3.3042   1.0608   0.2693 H              1 S1                 0.0000
     46 ****         1.2737  -0.0618   0.8578 H              1 S1                 0.0000
     47 ****        -0.4278   1.9084  -0.2182 LP             1 S1                 0.0000
     48 ****         1.1802   1.2794  -0.3541 LP             1 S1                 0.0000
     49 ****         3.3514   0.6080   3.8059 LP             1 S1                 0.0000
     50 ****         2.2346   1.7403   4.1764 LP             1 S1                 0.0000
     51 ****        -3.7031   0.1078  -2.6483 LP             1 S1                 0.0000
@<TRIPOS>BOND
    1    1    2 1     
    2    1   22 1     
    3    1   23 1     
    4    1   24 1     
    5    2   21 ar    
    6    2    3 ar    
    7    3    4 ar    
    8    3   25 1     
    9    4    5 ar    
   10    4   26 1     
   11    5    6 ar    
   12    5   27 1     
   13    6    7 1     
   14    6   21 ar    
   15    7    8 am    
   16    7   28 1     
   17    8    9 2     
   18    8   10 am    
   19   10   11 1     
   20   10   29 1     
   21   11   12 1     
   22   11   13 1     
   23   11   30 1     
   24   12   31 1     
   25   12   32 1     
   26   12   33 1     
   27   13   14 1     
   28   13   15 1     
   29   13   34 1     
   30   14   35 1     
   31   14   36 1     
   32   14   37 1     
   33   15   20 1     
   34   15   16 1     
   35   15   46 1     
   36   16   17 1     
   37   16   38 1     
   38   16   39 1     
   39   17   18 1     
   40   17   40 1     
   41   17   41 1     
   42   18   19 1     
   43   19   20 1     
   44   19   42 1     
   45   19   43 1     
   46   20   44 1     
   47   20   45 1     
   48    9   47 1     
   49    9   48 1     
   50   18   49 1     
   51   18   50 1     
   52   21   51 1     
@<TRIPOS>SUBSTRUCTURE
      1 S1             1
@<TRIPOS>SET
LONE_PAIRS      STATIC     ATOMS    <user>   **** ""
5 47 48 49 50 51
DONOR_HYDROGENS      STATIC     ATOMS    <user>   **** ""
3 28 29 46
ATOM$BLUE        STATIC     ATOMS    COLORGROUP SYSTEM
5 47 48 49 50 51
ATOM$RED        STATIC     ATOMS    COLORGROUP SYSTEM
3 28 29 46
