AV-unprocessed.smi:2385|AV-procd|sdf|9463|dock4
  -GOLD-   2272013 93D 1   1.00000     0.00000
 Structure written by MMmdl.
 50 52  0  0  0  0  0  0  0  0  2 V2000
  153.1284  143.2560  162.3814 C   0  0  0  0  0  0  0  0  0  0  0  0
  152.3362  143.1702  161.0938 C   0  0  0  0  0  0  0  0  0  0  0  0
  151.4705  144.2086  160.7017 C   0  0  0  0  0  0  0  0  0  0  0  0
  150.7582  144.0784  159.4941 C   0  0  0  0  0  0  0  0  0  0  0  0
  150.9249  142.9149  158.7097 C   0  0  0  0  0  0  0  0  0  0  0  0
  150.1639  142.8845  157.5107 N   0  0  0  0  0  0  0  0  0  0  0  0
  149.9827  141.8534  156.6668 C   0  0  0  0  0  0  0  0  0  0  0  0
  150.4491  140.7238  156.8162 O   0  0  0  0  0  0  0  0  0  0  0  0
  149.2165  142.2121  155.6231 N   0  0  0  0  0  0  0  0  0  0  0  0
  148.7979  141.3765  154.4951 C   0  0  2  0  0  0  0  0  0  0  0  0
  147.4710  141.8434  153.8655 C   0  0  0  0  0  0  0  0  0  0  0  0
  147.0913  140.9562  152.6682 C   0  0  0  0  0  0  0  0  0  0  0  0
  147.0191  139.5248  153.0633 N   0  3  1  0  0  0  0  0  0  0  0  0
  146.5010  138.6511  151.9789 C   0  0  0  0  0  0  0  0  0  0  0  0
  145.9483  137.3203  152.5239 C   0  0  2  0  0  0  0  0  0  0  0  0
  145.5454  136.2997  151.4764 C   0  0  0  0  0  0  0  0  0  0  0  0
  144.6103  135.3811  152.2589 C   0  0  0  0  0  0  0  0  0  0  0  0
  144.0302  136.1871  153.2801 O   0  0  0  0  0  0  0  0  0  0  0  0
  144.6299  137.4777  153.2807 C   0  0  0  0  0  0  0  0  0  0  0  0
  148.3102  139.0481  153.6271 C   0  0  0  0  0  0  0  0  0  0  0  0
  148.7183  139.8796  154.8540 C   0  0  0  0  0  0  0  0  0  0  0  0
  151.7591  141.9183  159.0976 N   0  0  0  0  0  0  0  0  0  0  0  0
  152.4426  142.0443  160.2546 C   0  0  0  0  0  0  0  0  0  0  0  0
  153.2301  144.2905  162.7109 H   0  0  0  0  0  0  0  0  0  0  0  0
  154.1287  142.8441  162.2441 H   0  0  0  0  0  0  0  0  0  0  0  0
  152.6287  142.6917  163.1689 H   0  0  0  0  0  0  0  0  0  0  0  0
  151.3527  145.0919  161.3122 H   0  0  0  0  0  0  0  0  0  0  0  0
  150.0921  144.8679  159.1773 H   0  0  0  0  0  0  0  0  0  0  0  0
  149.7126  143.7527  157.2633 H   0  0  0  0  0  0  0  0  0  0  0  0
  148.8879  143.1667  155.6056 H   0  0  0  0  0  0  0  0  0  0  0  0
  149.5796  141.4944  153.7434 H   0  0  0  0  0  0  0  0  0  0  0  0
  146.6638  141.8100  154.5976 H   0  0  0  0  0  0  0  0  0  0  0  0
  147.5531  142.8820  153.5432 H   0  0  0  0  0  0  0  0  0  0  0  0
  146.1245  141.2806  152.2811 H   0  0  0  0  0  0  0  0  0  0  0  0
  147.8157  141.0774  151.8611 H   0  0  0  0  0  0  0  0  0  0  0  0
  145.6834  139.1575  151.4638 H   0  0  0  0  0  0  0  0  0  0  0  0
  147.2645  138.4816  151.2177 H   0  0  0  0  0  0  0  0  0  0  0  0
  146.6784  136.8685  153.1981 H   0  0  0  0  0  0  0  0  0  0  0  0
  144.9982  136.7815  150.6648 H   0  0  0  0  0  0  0  0  0  0  0  0
  146.3933  135.7639  151.0489 H   0  0  0  0  0  0  0  0  0  0  0  0
  143.8461  134.9312  151.6246 H   0  0  0  0  0  0  0  0  0  0  0  0
  145.1735  134.5760  152.7321 H   0  0  0  0  0  0  0  0  0  0  0  0
  144.7713  137.8493  154.2961 H   0  0  0  0  0  0  0  0  0  0  0  0
  143.9645  138.1673  152.7590 H   0  0  0  0  0  0  0  0  0  0  0  0
  148.2327  138.0004  153.9144 H   0  0  0  0  0  0  0  0  0  0  0  0
  149.0860  139.1060  152.8618 H   0  0  0  0  0  0  0  0  0  0  0  0
  149.6809  139.5326  155.2314 H   0  0  0  0  0  0  0  0  0  0  0  0
  147.9939  139.7095  155.6510 H   0  0  0  0  0  0  0  0  0  0  0  0
  153.0928  141.2223  160.5159 H   0  0  0  0  0  0  0  0  0  0  0  0
  146.3390  139.4792  153.8089 H   0  0  0  0  0  0  0  0  0  0  0  0
  1  2  1  0  0  0  0
  1 24  1  0  0  0  0
  1 25  1  0  0  0  0
  1 26  1  0  0  0  0
  2 23  1  0  0  0  0
  2  3  2  0  0  0  0
  3  4  1  0  0  0  0
  3 27  1  0  0  0  0
  4  5  2  0  0  0  0
  4 28  1  0  0  0  0
  5  6  1  0  0  0  0
  5 22  1  0  0  0  0
  6  7  1  0  0  0  0
  6 29  1  0  0  0  0
  7  8  2  0  0  0  0
  7  9  1  0  0  0  0
  9 10  1  0  0  0  0
  9 30  1  0  0  0  0
 10 21  1  0  0  0  0
 10 11  1  0  0  0  0
 10 31  1  0  0  0  0
 11 12  1  0  0  0  0
 11 32  1  0  0  0  0
 11 33  1  0  0  0  0
 12 13  1  0  0  0  0
 12 34  1  0  0  0  0
 12 35  1  0  0  0  0
 13 14  1  0  0  0  0
 13 20  1  0  0  0  0
 13 50  1  0  0  0  0
 14 15  1  0  0  0  0
 14 36  1  0  0  0  0
 14 37  1  0  0  0  0
 15 19  1  0  0  0  0
 15 16  1  0  0  0  0
 15 38  1  0  0  0  0
 16 17  1  0  0  0  0
 16 39  1  0  0  0  0
 16 40  1  0  0  0  0
 17 18  1  0  0  0  0
 17 41  1  0  0  0  0
 17 42  1  0  0  0  0
 18 19  1  0  0  0  0
 19 43  1  0  0  0  0
 19 44  1  0  0  0  0
 20 21  1  0  0  0  0
 20 45  1  0  0  0  0
 20 46  1  0  0  0  0
 21 47  1  0  0  0  0
 21 48  1  0  0  0  0
 22 23  2  0  0  0  0
 23 49  1  0  0  0  0
M  CHG  1  13   1
M  END
> <s_m_source_file>
AV-unprocessed.smi

> <i_m_source_file_index>
2385

> <i_lp_mmshare_version>
43012

> <i_f3d_flags>
0

> <s_epik_input>
W0NIM11jMVtjSF1bY0hdYyhuW2NIXTEpW05IXUMoPU8pW05IXVtDSF0yW0NIMl1bQ0gyXU4oW0NIMl1bQ0gyXTIpW0NIMl1bQ0BASF0zW0NIMl1bQ0gyXU9bQ0gyXTM=

> <s_epik_cmdline>
J2VwaWtfcHl0aG9uJywgJy1waCcsICc3LjAnLCAnLXRuJywgJzgnLCAnLW1hJywgJzIwMCcsICctbWV0YWxfYmluZGluZycsICctaW1hZScsICc8aW5maWxlLm1hZT4nLCAnLW9tYWUnLCAnPG91dGZpbGUubWFlPic=

> <r_epik_Ionization_Penalty>
0.00752367

> <r_epik_Ionization_Penalty_Charging>
0.00747775

> <r_epik_Ionization_Penalty_Neutral>
4.59207e-05

> <r_epik_State_Penalty>
0.00558817

> <r_epik_Charging_Adjusted_Penalty>
0.0130659

> <i_epik_Tot_Q>
1

> <i_epik_Tot_abs_Q>
1

> <r_epik_Metal_State_Penalty>
-0

> <b_epik_Metal_Only>
0

> <s_lp_Force_Field>
OPLS_2005

> <r_lp_Energy>
37.2882

> <b_lp_Chiralities_Consistent>
1

> <s_lp_Variant>
AV-unprocessed.smi:2385-1

> <Gold.Version>
5.8.1

> <Gold.Id.Protein>
6NUR|6NUR_protein|mol2

> <Gold.PLP.Fitness>
47.3470

> <Gold.PLP.PLP>
-42.8805

> <Gold.PLP.part.hbond>
-2.3163

> <Gold.PLP.part.metal>
0.0000

> <Gold.PLP.part.buried>
-3.9570

> <Gold.PLP.part.nonpolar>
-36.4000

> <Gold.PLP.part.repulsive>
0.2926

> <Gold.PLP.ligand.clash>
0.0285

> <Gold.PLP.ligand.torsion>
0.5764

> <Gold.PLP.Chemscore.Hbond>
1.8640

> <Gold.PLP.Chemscore.CHOScore>
0.0000

> <Gold.PLP.Chemscore.Metal>
0.0000

> <Gold.Chemscore.Hbonds>
donor molecule, donor type, donor heavy atom, donor atom, acceptor molecule, acceptor atom, score
      L1  H     6    29       P1  8028  0.85
      L1  H     9    30       P1  8028  1.00

> <Gold.PLP.Chemscore.Internal.Correction>
0.0559

> <Gold.Rescore>
     Score         DG    S(hbond)    S(metal)    S(lipo)     H(rot)  DE(clash)    DE(int)     intcor
     17.75     -21.22       1.90        0.00     111.20       1.41       0.16       3.31       ----

> <Gold.Chemscore.Fitness>
17.7532

> <Gold.Chemscore.DG>
-21.2223

> <Gold.Chemscore.ZeroCoef>
-5.4800

> <Gold.Chemscore.Hbond>
1.8952

> <Gold.Chemscore.Metal>
0.0000

> <Gold.Chemscore.Lipo>
111.2011

> <Gold.Chemscore.Internal_Hbond>
0.0000

> <Gold.Chemscore.DEClash>
0.1599

> <Gold.Chemscore.DEInternal>
3.3092

> <Gold.Chemscore.Rot>
1.4056

> <Gold.Chemscore.Internal.Correction>
   9.000000E+99

> <Gold.Chemscore.Hbonds>
donor molecule, donor type, donor heavy atom, donor atom, acceptor molecule, acceptor atom, score
      L1  H     6    29       P1  8028  0.61
      L1  H     9    30       P1  8028  0.95

> <Gold.Chemscore.Hbond.Weighted>
-6.3300

> <Gold.Chemscore.Metal.Weighted>
-0.0000

> <Gold.Chemscore.Lipo.Weighted>
-13.0105

> <Gold.Chemscore.Internal_Hbond.Weighted>
0.0000

> <Gold.Chemscore.DEClash.Weighted>
0.1599

> <Gold.Chemscore.DEInternal.Weighted>
3.3092

> <Gold.Chemscore.Rot.Weighted>
3.5982

> <Gold.Chemscore.Internal.Correction.Weighted>
   9.000000E+99

> <Gold.Protein.RotatedTorsions>
[ 6907 6896 6895 6894 ] final  -43.61 input  -60.11 | X-H torsion
[ 7974 7965 7964 7962 ] final  -33.66 input  175.53 | X-H torsion
[ 8008 7997 7996 7995 ] final  -94.76 input   59.86 | X-H torsion
[ 10167 10162 10161 10158 ] final -155.96 input  -65.29 | X-H torsion
[ 10718 10713 10712 10709 ] final  -35.11 input   66.30 | X-H torsion
[ 10763 10752 10751 10750 ] final   52.44 input  -60.55 | X-H torsion
[ 11005 11000 10999 10996 ] final  -38.68 input  -57.11 | X-H torsion

> <Gold.Protein.ActiveResidues>
 VAL166  LYS551  ARG553  GLY616  TRP617  ASP618  TYR619  PRO620  LYS621  CYS622 
 ASP623  PHE694  ASN695  SER759  ASP760  ASP761  ALA762  ILE779  LEU786  VAL792 
 PHE793  MET794  SER795  GLU796  ALA797  LYS798  CYS799  TRP800  GLU811  SER814 

> <Gold.Protein.RotatedAtoms>
  150.9420  134.8828  159.7618 H   0  0  0  0  0  0  0  0  0  0  0  0  # atno 6907 bound_to 6896
  152.5084  134.3928  159.9399 H   0  0  0  0  0  0  0  0  0  0  0  0  # atno 6908 bound_to 6896
  151.3948  133.3737  159.2760 H   0  0  0  0  0  0  0  0  0  0  0  0  # atno 6909 bound_to 6896
  146.0893  140.5943  142.8872 H   0  0  0  0  0  0  0  0  0  0  0  0  # atno 7974 bound_to 7965
  154.7526  140.0486  157.0906 H   0  0  0  0  0  0  0  0  0  0  0  0  # atno 8008 bound_to 7997
  155.0038  140.3128  155.4837 H   0  0  0  0  0  0  0  0  0  0  0  0  # atno 8009 bound_to 7997
  156.2888  140.2196  156.5149 H   0  0  0  0  0  0  0  0  0  0  0  0  # atno 8010 bound_to 7997
  139.6889  143.9454  152.2375 H   0  0  0  0  0  0  0  0  0  0  0  0  # atno 10167 bound_to 10162
  156.3426  130.4296  149.7774 H   0  0  0  0  0  0  0  0  0  0  0  0  # atno 10718 bound_to 10713
  152.9789  135.5812  154.4579 H   0  0  0  0  0  0  0  0  0  0  0  0  # atno 10763 bound_to 10752
  154.4159  135.2771  155.2009 H   0  0  0  0  0  0  0  0  0  0  0  0  # atno 10764 bound_to 10752
  154.3779  135.6153  153.5829 H   0  0  0  0  0  0  0  0  0  0  0  0  # atno 10765 bound_to 10752
  141.0046  133.6938  156.2086 H   0  0  0  0  0  0  0  0  0  0  0  0  # atno 11005 bound_to 11000
  144.7348  140.4777  143.6911 LP  0  0  0  0  0  0  0  0  0  0  0  0  # atno 17320 bound_to 7965
  145.6070  139.1509  143.3097 LP  0  0  0  0  0  0  0  0  0  0  0  0  # atno 17321 bound_to 7965
  139.9265  144.6768  150.8407 LP  0  0  0  0  0  0  0  0  0  0  0  0  # atno 17342 bound_to 10162
  140.7676  143.3338  151.2352 LP  0  0  0  0  0  0  0  0  0  0  0  0  # atno 17343 bound_to 10162
  156.5005  130.8126  151.3130 LP  0  0  0  0  0  0  0  0  0  0  0  0  # atno 17370 bound_to 10713
  157.7449  130.9946  150.2714 LP  0  0  0  0  0  0  0  0  0  0  0  0  # atno 17371 bound_to 10713
  140.6834  134.4743  157.5589 LP  0  0  0  0  0  0  0  0  0  0  0  0  # atno 17394 bound_to 11000
  139.9056  134.8456  156.1718 LP  0  0  0  0  0  0  0  0  0  0  0  0  # atno 17395 bound_to 11000

$$$$
