#       Name:                AV-unprocessed.smi:2505
#       Creating user name   scv26
#       Creation time:       Fri Mar 27 13:48:55 2020


#       File generated by GOLD software.
#

@<TRIPOS>MOLECULE
AV-unprocessed.smi:2505
    54    58     1
SMALL
NO_CHARGES


@<TRIPOS>ATOM
      1 ****         0.5742   2.5718  -0.2204 O.2            1 S1                 0.0000
      2 ****         0.2107   1.3984  -0.2534 C.2            1 S1                 0.0000
      3 ****         1.0390   0.3397  -0.3405 N.am           1 S1                 0.0000
      4 ****         2.4587   0.3241  -0.3565 C.ar           1 S1                 0.0000
      5 ****         3.1234  -0.8348  -0.8092 C.ar           1 S1                 0.0000
      6 ****         4.4704  -0.9241  -0.8342 N.ar           1 S1                 0.0000
      7 ****         5.1529   0.1348  -0.3900 C.ar           1 S1                 0.0000
      8 ****         6.6462   0.0511  -0.4578 C.3            1 S1                 0.0000
      9 ****         7.3926  -1.0994   0.1864 C.3            1 S1                 0.0000
     10 ****         7.4898   0.2781   0.7801 C.3            1 S1                 0.0000
     11 ****         4.6378   1.2819   0.0607 N.ar           1 S1                 0.0000
     12 ****         3.2909   1.3813   0.0868 C.ar           1 S1                 0.0000
     13 ****        -1.0922   1.0700  -0.2094 N.am           1 S1                 0.0000
     14 ****        -2.2451   1.9750  -0.1146 C.3            1 S1                 0.0000
     15 ****        -2.8794   2.3238  -1.4838 C.3            1 S1                 0.0000
     16 ****        -2.2186   2.0177  -2.8065 C.3            1 S1                 0.0000
     17 ****        -2.8570   0.6849  -3.2088 C.3            1 S1                 0.0000
     18 ****        -3.3771   0.1447  -1.9959 O.3            1 S1                 0.0000
     19 ****        -3.8973   1.2247  -1.2250 C.3            1 S1                 0.0000
     20 ****        -3.5432   1.2289   0.2760 C.3            1 S1                 0.0000
     21 ****        -3.4795  -0.1200   0.9957 C.3            1 S1                 0.0000
     22 ****        -4.8722  -0.3920   1.5729 C.3            1 S1                 0.0000
     23 ****        -5.5655   0.9717   1.6461 C.3            1 S1                 0.0000
     24 ****        -4.5243   1.9861   1.1684 C.3            1 S1                 0.0000
     25 ****         0.5936  -0.5612  -0.4378 H              1 S1                 0.0000
     26 ****         2.5723  -1.6959  -1.1579 H              1 S1                 0.0000
     27 ****         7.0214   0.4332  -1.4053 H              1 S1                 0.0000
     28 ****         6.8121  -1.8397   0.7336 H              1 S1                 0.0000
     29 ****         8.2657  -1.4848  -0.3361 H              1 S1                 0.0000
     30 ****         8.4274   0.8157   0.6552 H              1 S1                 0.0000
     31 ****         6.9736   0.4533   1.7222 H              1 S1                 0.0000
     32 ****         2.9014   2.3056   0.4832 H              1 S1                 0.0000
     33 ****        -1.3107   0.0844  -0.2394 H              1 S1                 0.0000
     34 ****        -2.0742   2.8516   0.5124 H              1 S1                 0.0000
     35 ****        -3.3508   3.3072  -1.4476 H              1 S1                 0.0000
     36 ****        -2.4189   2.7868  -3.5527 H              1 S1                 0.0000
     37 ****        -1.1369   1.9285  -2.7200 H              1 S1                 0.0000
     38 ****        -3.6811   0.8497  -3.9044 H              1 S1                 0.0000
     39 ****        -2.1465   0.0031  -3.6765 H              1 S1                 0.0000
     40 ****        -4.9226   1.4939  -1.4834 H              1 S1                 0.0000
     41 ****        -3.1580  -0.9329   0.3439 H              1 S1                 0.0000
     42 ****        -2.7577  -0.0703   1.8122 H              1 S1                 0.0000
     43 ****        -5.4328  -1.0592   0.9171 H              1 S1                 0.0000
     44 ****        -4.8086  -0.8696   2.5511 H              1 S1                 0.0000
     45 ****        -6.4290   0.9812   0.9797 H              1 S1                 0.0000
     46 ****        -5.9224   1.2011   2.6504 H              1 S1                 0.0000
     47 ****        -3.9990   2.3959   2.0323 H              1 S1                 0.0000
     48 ****        -4.9935   2.8283   0.6582 H              1 S1                 0.0000
     49 ****         1.5483   2.7947  -0.2589 LP             1 S1                 0.0000
     50 ****        -0.1040   3.3037  -0.1549 LP             1 S1                 0.0000
     51 ****         4.9350  -1.7438  -1.1692 LP             1 S1                 0.0000
     52 ****         5.2231   2.0334   0.3652 LP             1 S1                 0.0000
     53 ****        -2.6484  -0.3153  -1.4886 LP             1 S1                 0.0000
     54 ****        -4.1055  -0.5094  -2.1998 LP             1 S1                 0.0000
@<TRIPOS>BOND
    1    1    2 2     
    2    2    3 am    
    3    2   13 am    
    4    3    4 1     
    5    3   25 1     
    6    4   12 ar    
    7    4    5 ar    
    8    5    6 ar    
    9    5   26 1     
   10    6    7 ar    
   11    7    8 1     
   12    7   11 ar    
   13    8   10 1     
   14    8    9 1     
   15    8   27 1     
   16    9   10 1     
   17    9   28 1     
   18    9   29 1     
   19   10   30 1     
   20   10   31 1     
   21   11   12 ar    
   22   12   32 1     
   23   13   14 1     
   24   13   33 1     
   25   14   20 1     
   26   14   15 1     
   27   14   34 1     
   28   15   19 1     
   29   15   16 1     
   30   15   35 1     
   31   16   17 1     
   32   16   36 1     
   33   16   37 1     
   34   17   18 1     
   35   17   38 1     
   36   17   39 1     
   37   18   19 1     
   38   19   20 1     
   39   19   40 1     
   40   20   24 1     
   41   20   21 1     
   42   21   22 1     
   43   21   41 1     
   44   21   42 1     
   45   22   23 1     
   46   22   43 1     
   47   22   44 1     
   48   23   24 1     
   49   23   45 1     
   50   23   46 1     
   51   24   47 1     
   52   24   48 1     
   53    1   49 1     
   54    1   50 1     
   55    6   51 1     
   56   11   52 1     
   57   18   53 1     
   58   18   54 1     
@<TRIPOS>SUBSTRUCTURE
      1 S1             1
@<TRIPOS>SET
LONE_PAIRS      STATIC     ATOMS    <user>   **** ""
6 49 50 51 52 53 54
DONOR_HYDROGENS      STATIC     ATOMS    <user>   **** ""
2 25 33
ATOM$BLUE        STATIC     ATOMS    COLORGROUP SYSTEM
6 49 50 51 52 53 54
ATOM$RED        STATIC     ATOMS    COLORGROUP SYSTEM
2 25 33
