#       Name:                AV-unprocessed.smi:546
#       Creating user name   scv26
#       Creation time:       Thu Mar 26 23:37:47 2020


#       File generated by GOLD software.
#

@<TRIPOS>MOLECULE
AV-unprocessed.smi:546
    59    61     1
SMALL
NO_CHARGES


@<TRIPOS>ATOM
      1 ****        -2.2210   3.0568  -0.9044 C.3            1 S1                 0.0000
      2 ****        -2.6104   2.2547   0.3391 C.3            1 S1                 0.0000
      3 ****        -1.8976   1.0294   0.3454 O.3            1 S1                 0.0000
      4 ****        -2.2361   0.2080   1.4516 C.3            1 S1                 0.0000
      5 ****        -1.3656  -1.0560   1.4455 C.3            1 S1                 0.0000
      6 ****         0.0583  -0.7362   1.5330 N.pl3          1 S1                 0.0000
      7 ****         0.9821  -0.6018   0.5390 C.2            1 S1                 0.0000
      8 ****         0.6863  -0.8215  -0.8088 N.pl3          1 S1                 0.0000
      9 ****         1.1957   0.0212  -1.8900 C.3            1 S1                 0.0000
     10 ****         0.0718   0.4580  -2.8498 C.3            1 S1                 0.0000
     11 ****         0.6026   1.3787  -3.9562 C.3            1 S1                 0.0000
     12 ****        -0.6372  -0.7767  -3.4314 C.3            1 S1                 0.0000
     13 ****        -1.0903  -1.7170  -2.3021 C.3            1 S1                 0.0000
     14 ****        -1.7315  -2.9967  -2.8540 C.3            1 S1                 0.0000
     15 ****         0.1072  -2.0355  -1.3846 C.3            1 S1                 0.0000
     16 ****         2.1887  -0.2060   0.9565 N.2            1 S1                 0.0000
     17 ****         2.0354  -0.1106   2.3297 C.2            1 S1                 0.0000
     18 ****         0.7671  -0.4238   2.6950 C.2            1 S1                 0.0000
     19 ****         0.3178  -0.3781   4.0936 C.2            1 S1                 0.0000
     20 ****        -0.8269  -0.6507   4.4483 O.2            1 S1                 0.0000
     21 ****         1.2942  -0.0006   4.9541 N.am           1 S1                 0.0000
     22 ****         2.5875   0.3268   4.6523 C.2            1 S1                 0.0000
     23 ****         3.3628   0.6595   5.5486 O.2            1 S1                 0.0000
     24 ****         2.9685   0.2699   3.3362 N.am           1 S1                 0.0000
     25 ****         4.3396   0.6145   2.9551 C.3            1 S1                 0.0000
     26 ****         1.0376   0.0467   5.9294 H              1 S1                 0.0000
     27 ****        -2.7291   4.0211  -0.9205 H              1 S1                 0.0000
     28 ****        -2.4935   2.5224  -1.8146 H              1 S1                 0.0000
     29 ****        -1.1470   3.2428  -0.9309 H              1 S1                 0.0000
     30 ****        -2.3759   2.8269   1.2379 H              1 S1                 0.0000
     31 ****        -3.6852   2.0672   0.3368 H              1 S1                 0.0000
     32 ****        -2.0907   0.7563   2.3834 H              1 S1                 0.0000
     33 ****        -3.2898  -0.0688   1.3991 H              1 S1                 0.0000
     34 ****        -1.6349  -1.7086   2.2752 H              1 S1                 0.0000
     35 ****        -1.5793  -1.6325   0.5530 H              1 S1                 0.0000
     36 ****         1.6708   0.9063  -1.4648 H              1 S1                 0.0000
     37 ****         1.9742  -0.5174  -2.4319 H              1 S1                 0.0000
     38 ****        -0.6584   1.0241  -2.2717 H              1 S1                 0.0000
     39 ****         1.3458   0.8708  -4.5718 H              1 S1                 0.0000
     40 ****         1.0708   2.2683  -3.5341 H              1 S1                 0.0000
     41 ****        -0.2037   1.7097  -4.6113 H              1 S1                 0.0000
     42 ****        -1.4947  -0.4700  -4.0314 H              1 S1                 0.0000
     43 ****         0.0409  -1.3068  -4.1019 H              1 S1                 0.0000
     44 ****        -1.8476  -1.1963  -1.7147 H              1 S1                 0.0000
     45 ****        -1.0227  -3.5690  -3.4534 H              1 S1                 0.0000
     46 ****        -2.5904  -2.7646  -3.4842 H              1 S1                 0.0000
     47 ****        -2.0798  -3.6397  -2.0452 H              1 S1                 0.0000
     48 ****         0.8801  -2.5525  -1.9552 H              1 S1                 0.0000
     49 ****        -0.1782  -2.7296  -0.5950 H              1 S1                 0.0000
     50 ****         5.0599   0.0321   3.5315 H              1 S1                 0.0000
     51 ****         4.5301   1.6723   3.1409 H              1 S1                 0.0000
     52 ****         4.5423   0.4236   1.9014 H              1 S1                 0.0000
     53 ****        -0.9183   1.2285   0.3820 LP             1 S1                 0.0000
     54 ****        -2.1056   0.5333  -0.4976 LP             1 S1                 0.0000
     55 ****         3.0053  -0.0229   0.4092 LP             1 S1                 0.0000
     56 ****        -1.5096  -0.9213   3.7696 LP             1 S1                 0.0000
     57 ****        -1.0756  -0.6020   5.4157 LP             1 S1                 0.0000
     58 ****         3.0470   0.6903   6.4970 LP             1 S1                 0.0000
     59 ****         4.3084   0.8989   5.3285 LP             1 S1                 0.0000
@<TRIPOS>BOND
    1    1    2 1     
    2    1   27 1     
    3    1   28 1     
    4    1   29 1     
    5    2    3 1     
    6    2   30 1     
    7    2   31 1     
    8    3    4 1     
    9    4    5 1     
   10    4   32 1     
   11    4   33 1     
   12    5    6 1     
   13    5   34 1     
   14    5   35 1     
   15    6   18 1     
   16    6    7 1     
   17    7    8 1     
   18    7   16 2     
   19    8   15 1     
   20    8    9 1     
   21    9   10 1     
   22    9   36 1     
   23    9   37 1     
   24   10   11 1     
   25   10   12 1     
   26   10   38 1     
   27   11   39 1     
   28   11   40 1     
   29   11   41 1     
   30   12   13 1     
   31   12   42 1     
   32   12   43 1     
   33   13   14 1     
   34   13   15 1     
   35   13   44 1     
   36   14   45 1     
   37   14   46 1     
   38   14   47 1     
   39   15   48 1     
   40   15   49 1     
   41   16   17 1     
   42   17   24 1     
   43   17   18 2     
   44   18   19 1     
   45   19   20 2     
   46   19   21 1     
   47   21   26 1     
   48   21   22 1     
   49   22   23 2     
   50   22   24 1     
   51   24   25 1     
   52   25   50 1     
   53   25   51 1     
   54   25   52 1     
   55    3   53 1     
   56    3   54 1     
   57   16   55 1     
   58   20   56 1     
   59   20   57 1     
   60   23   58 1     
   61   23   59 1     
@<TRIPOS>SUBSTRUCTURE
      1 S1             1
@<TRIPOS>SET
LONE_PAIRS      STATIC     ATOMS    <user>   **** ""
7 53 54 55 56 57 58 59
DONOR_HYDROGENS      STATIC     ATOMS    <user>   **** ""
1 26
ATOM$BLUE        STATIC     ATOMS    COLORGROUP SYSTEM
7 53 54 55 56 57 58 59
ATOM$RED        STATIC     ATOMS    COLORGROUP SYSTEM
1 26
