#       Name:                AV-unprocessed.smi:1788
#       Creating user name   scv26
#       Creation time:       Fri Mar 27 08:45:19 2020


#       File generated by GOLD software.
#

@<TRIPOS>MOLECULE
AV-unprocessed.smi:1788
    61    63     1
SMALL
NO_CHARGES


@<TRIPOS>ATOM
      1 ****        -3.5162   3.1307  -5.2839 C.3            1 S1                 0.0000
      2 ****        -4.0224   3.2511  -3.8357 C.3            1 S1                 0.0000
      3 ****        -5.5104   2.8819  -3.6901 C.3            1 S1                 0.0000
      4 ****        -5.7205   1.3644  -3.7895 C.3            1 S1                 0.0000
      5 ****        -4.8172   0.6160  -2.7967 C.3            1 S1                 0.0000
      6 ****        -3.3886   0.9705  -2.9991 N.4            1 S1                 1.0000
      7 ****        -2.4814   0.1513  -2.1567 C.3            1 S1                 0.0000
      8 ****        -1.0577   0.0655  -2.7407 C.3            1 S1                 0.0000
      9 ****        -0.1893  -0.7672  -1.9164 N.am           1 S1                 0.0000
     10 ****         0.3693  -0.3800  -0.7608 C.2            1 S1                 0.0000
     11 ****         0.1881   0.7311  -0.2633 O.2            1 S1                 0.0000
     12 ****         1.1175  -1.3612  -0.2277 N.am           1 S1                 0.0000
     13 ****         1.8765  -1.3438   0.9739 C.ar           1 S1                 0.0000
     14 ****         2.3255  -0.1680   1.6190 C.ar           1 S1                 0.0000
     15 ****         3.0881  -0.2848   2.7967 C.ar           1 S1                 0.0000
     16 ****         3.3934  -1.5710   3.3008 C.ar           1 S1                 0.0000
     17 ****         4.1574  -1.7082   4.4800 N.3            1 S1                 0.0000
     18 ****         4.2254  -3.0289   5.1029 C.3            1 S1                 0.0000
     19 ****         4.8446  -2.9269   6.5070 C.3            1 S1                 0.0000
     20 ****         6.1172  -2.2938   6.4242 O.3            1 S1                 0.0000
     21 ****         6.0160  -0.9672   5.9172 C.3            1 S1                 0.0000
     22 ****         5.4323  -0.9949   4.4938 C.3            1 S1                 0.0000
     23 ****         2.9662  -2.6957   2.6761 N.ar           1 S1                 0.0000
     24 ****         2.2381  -2.5796   1.5462 C.ar           1 S1                 0.0000
     25 ****        -3.1631   2.4343  -2.8484 C.3            1 S1                 0.0000
     26 ****        -3.5508   2.1027  -5.6444 H              1 S1                 0.0000
     27 ****        -2.4842   3.4729  -5.3665 H              1 S1                 0.0000
     28 ****        -4.1166   3.7399  -5.9602 H              1 S1                 0.0000
     29 ****        -3.9219   4.3026  -3.5632 H              1 S1                 0.0000
     30 ****        -5.8722   3.2274  -2.7207 H              1 S1                 0.0000
     31 ****        -6.1097   3.3983  -4.4405 H              1 S1                 0.0000
     32 ****        -6.7657   1.1227  -3.5942 H              1 S1                 0.0000
     33 ****        -5.5135   1.0243  -4.8047 H              1 S1                 0.0000
     34 ****        -5.1094   0.8474  -1.7711 H              1 S1                 0.0000
     35 ****        -4.9556  -0.4573  -2.9318 H              1 S1                 0.0000
     36 ****        -2.4704   0.5493  -1.1407 H              1 S1                 0.0000
     37 ****        -2.8742  -0.8641  -2.0831 H              1 S1                 0.0000
     38 ****        -1.0928  -0.3683  -3.7404 H              1 S1                 0.0000
     39 ****        -0.6060   1.0521  -2.8479 H              1 S1                 0.0000
     40 ****         0.0080  -1.6985  -2.2536 H              1 S1                 0.0000
     41 ****         1.1050  -2.2449  -0.7158 H              1 S1                 0.0000
     42 ****         2.1132   0.8168   1.2337 H              1 S1                 0.0000
     43 ****         3.4192   0.6101   3.3020 H              1 S1                 0.0000
     44 ****         3.2274  -3.4629   5.1788 H              1 S1                 0.0000
     45 ****         4.8244  -3.6932   4.4783 H              1 S1                 0.0000
     46 ****         4.1914  -2.3695   7.1808 H              1 S1                 0.0000
     47 ****         4.9694  -3.9215   6.9352 H              1 S1                 0.0000
     48 ****         5.3975  -0.3592   6.5796 H              1 S1                 0.0000
     49 ****         7.0081  -0.5156   5.9059 H              1 S1                 0.0000
     50 ****         6.1239  -1.4996   3.8178 H              1 S1                 0.0000
     51 ****         5.3279   0.0279   4.1341 H              1 S1                 0.0000
     52 ****         1.9298  -3.5079   1.0874 H              1 S1                 0.0000
     53 ****        -2.1126   2.6809  -2.9987 H              1 S1                 0.0000
     54 ****        -3.4027   2.7264  -1.8245 H              1 S1                 0.0000
     55 ****        -3.1762   0.7361  -3.9582 H              1 S1                 0.0000
     56 ****        -0.4003   1.3954  -0.7243 LP             1 S1                 0.0000
     57 ****         0.6293   0.9695   0.6018 LP             1 S1                 0.0000
     58 ****         3.5626  -1.2077   5.1090 LP             1 S1                 0.0000
     59 ****         6.7057  -2.8282   5.8174 LP             1 S1                 0.0000
     60 ****         6.5225  -2.2611   7.3378 LP             1 S1                 0.0000
     61 ****         3.1874  -3.5976   3.0470 LP             1 S1                 0.0000
@<TRIPOS>BOND
    1    1    2 1     
    2    1   26 1     
    3    1   27 1     
    4    1   28 1     
    5    2   25 1     
    6    2    3 1     
    7    2   29 1     
    8    3    4 1     
    9    3   30 1     
   10    3   31 1     
   11    4    5 1     
   12    4   32 1     
   13    4   33 1     
   14    5    6 1     
   15    5   34 1     
   16    5   35 1     
   17    6    7 1     
   18    6   25 1     
   19    6   55 1     
   20    7    8 1     
   21    7   36 1     
   22    7   37 1     
   23    8    9 1     
   24    8   38 1     
   25    8   39 1     
   26    9   10 am    
   27    9   40 1     
   28   10   11 2     
   29   10   12 am    
   30   12   13 1     
   31   12   41 1     
   32   13   24 ar    
   33   13   14 ar    
   34   14   15 ar    
   35   14   42 1     
   36   15   16 ar    
   37   15   43 1     
   38   16   17 1     
   39   16   23 ar    
   40   17   22 1     
   41   17   18 1     
   42   18   19 1     
   43   18   44 1     
   44   18   45 1     
   45   19   20 1     
   46   19   46 1     
   47   19   47 1     
   48   20   21 1     
   49   21   22 1     
   50   21   48 1     
   51   21   49 1     
   52   22   50 1     
   53   22   51 1     
   54   23   24 ar    
   55   24   52 1     
   56   25   53 1     
   57   25   54 1     
   58   11   56 1     
   59   11   57 1     
   60   17   58 1     
   61   20   59 1     
   62   20   60 1     
   63   23   61 1     
@<TRIPOS>SUBSTRUCTURE
      1 S1             1
@<TRIPOS>SET
LONE_PAIRS      STATIC     ATOMS    <user>   **** ""
6 56 57 58 59 60 61
DONOR_HYDROGENS      STATIC     ATOMS    <user>   **** ""
3 55 40 41
ATOM$BLUE        STATIC     ATOMS    COLORGROUP SYSTEM
6 56 57 58 59 60 61
ATOM$RED        STATIC     ATOMS    COLORGROUP SYSTEM
3 55 40 41
