AV-unprocessed.smi:115|AV-procd|sdf|1123|dock3
  -GOLD-   2262018243D 1   1.00000     0.00000
 Structure written by MMmdl.
 55 57  0  0  0  0  0  0  0  0  1 V2000
  149.9082  144.8746  160.2753 C   0  0  0  0  0  0  0  0  0  0  0  0
  150.4600  143.7436  160.9315 O   0  0  0  0  0  0  0  0  0  0  0  0
  151.8651  143.8143  161.1373 C   0  0  0  0  0  0  0  0  0  0  0  0
  152.6593  143.4792  159.8557 C   0  0  2  0  0  0  0  0  0  0  0  0
  152.6378  144.6009  158.7995 C   0  0  0  0  0  0  0  0  0  0  0  0
  152.2947  142.1561  159.3218 N   0  0  0  0  0  0  0  0  0  0  0  0
  152.9987  140.9871  159.6087 C   0  0  0  0  0  0  0  0  0  0  0  0
  154.2032  140.9429  160.4958 C   0  0  0  0  0  0  0  0  0  0  0  0
  152.3983  139.9606  158.9448 C   0  0  0  0  0  0  0  0  0  0  0  0
  151.2778  140.4718  158.2382 C   0  0  0  0  0  0  0  0  0  0  0  0
  150.3455  139.7276  157.3519 C   0  0  0  0  0  0  0  0  0  0  0  0
  149.5673  140.2790  156.5723 O   0  0  0  0  0  0  0  0  0  0  0  0
  150.4148  138.1918  157.4477 C   0  0  0  0  0  0  0  0  0  0  0  0
  149.1981  137.5986  157.9905 N   0  0  0  0  0  0  0  0  0  0  0  0
  148.0056  137.7343  157.2376 C   0  0  0  0  0  0  0  0  0  0  0  0
  147.9791  138.3123  156.1495 O   0  0  0  0  0  0  0  0  0  0  0  0
  146.8293  137.1361  157.8571 C   0  0  0  0  0  0  0  0  0  0  0  0
  145.6303  137.2589  157.2626 F   0  0  0  0  0  0  0  0  0  0  0  0
  146.9193  136.4734  159.0304 C   0  0  0  0  0  0  0  0  0  0  0  0
  148.1126  136.2891  159.7108 N   0  0  0  0  0  0  0  0  0  0  0  0
  148.1586  135.6163  161.0678 C   0  0  2  0  0  0  0  0  0  0  0  0
  146.8295  134.9705  161.4971 C   0  0  0  0  0  0  0  0  0  0  0  0
  146.3180  135.9435  162.5416 C   0  0  0  0  0  0  0  0  0  0  0  0
  147.6188  136.4763  163.1292 C   0  0  0  0  0  0  0  0  0  0  0  0
  148.4865  136.5944  162.0091 O   0  0  0  0  0  0  0  0  0  0  0  0
  149.2883  136.9040  159.2216 C   0  0  0  0  0  0  0  0  0  0  0  0
  150.3516  136.8235  159.8414 O   0  0  0  0  0  0  0  0  0  0  0  0
  151.1996  141.8201  158.5097 C   0  0  0  0  0  0  0  0  0  0  0  0
  150.1779  142.8306  158.0658 C   0  0  0  0  0  0  0  0  0  0  0  0
  148.8275  144.7558  160.1996 H   0  0  0  0  0  0  0  0  0  0  0  0
  150.2977  144.9935  159.2648 H   0  0  0  0  0  0  0  0  0  0  0  0
  150.1031  145.7900  160.8351 H   0  0  0  0  0  0  0  0  0  0  0  0
  152.1401  144.7994  161.5182 H   0  0  0  0  0  0  0  0  0  0  0  0
  152.1070  143.1104  161.9306 H   0  0  0  0  0  0  0  0  0  0  0  0
  153.7070  143.4192  160.1379 H   0  0  0  0  0  0  0  0  0  0  0  0
  153.1809  145.4735  159.1638 H   0  0  0  0  0  0  0  0  0  0  0  0
  151.6345  144.9432  158.5559 H   0  0  0  0  0  0  0  0  0  0  0  0
  153.1215  144.2816  157.8760 H   0  0  0  0  0  0  0  0  0  0  0  0
  154.5195  139.9138  160.6684 H   0  0  0  0  0  0  0  0  0  0  0  0
  153.9929  141.3897  161.4680 H   0  0  0  0  0  0  0  0  0  0  0  0
  155.0411  141.4749  160.0443 H   0  0  0  0  0  0  0  0  0  0  0  0
  152.7398  138.9361  158.9639 H   0  0  0  0  0  0  0  0  0  0  0  0
  150.6044  137.7469  156.4699 H   0  0  0  0  0  0  0  0  0  0  0  0
  151.2513  137.8770  158.0737 H   0  0  0  0  0  0  0  0  0  0  0  0
  146.0038  136.0803  159.4420 H   0  0  0  0  0  0  0  0  0  0  0  0
  148.9406  134.8582  161.0062 H   0  0  0  0  0  0  0  0  0  0  0  0
  146.1479  134.7834  160.6677 H   0  0  0  0  0  0  0  0  0  0  0  0
  147.0559  134.0122  161.9665 H   0  0  0  0  0  0  0  0  0  0  0  0
  145.7576  136.7539  162.0751 H   0  0  0  0  0  0  0  0  0  0  0  0
  145.6769  135.4714  163.2864 H   0  0  0  0  0  0  0  0  0  0  0  0
  147.4921  137.4302  163.6412 H   0  0  0  0  0  0  0  0  0  0  0  0
  148.0424  135.7610  163.8357 H   0  0  0  0  0  0  0  0  0  0  0  0
  149.2006  142.3746  157.9171 H   0  0  0  0  0  0  0  0  0  0  0  0
  150.4769  143.2978  157.1275 H   0  0  0  0  0  0  0  0  0  0  0  0
  150.0160  143.6106  158.8037 H   0  0  0  0  0  0  0  0  0  0  0  0
  1  2  1  0  0  0  0
  1 30  1  0  0  0  0
  1 31  1  0  0  0  0
  1 32  1  0  0  0  0
  2  3  1  0  0  0  0
  3  4  1  0  0  0  0
  3 33  1  0  0  0  0
  3 34  1  0  0  0  0
  4  5  1  0  0  0  0
  4  6  1  0  0  0  0
  4 35  1  0  0  0  0
  5 36  1  0  0  0  0
  5 37  1  0  0  0  0
  5 38  1  0  0  0  0
  6 28  1  0  0  0  0
  6  7  1  0  0  0  0
  7  8  1  0  0  0  0
  7  9  2  0  0  0  0
  8 39  1  0  0  0  0
  8 40  1  0  0  0  0
  8 41  1  0  0  0  0
  9 10  1  0  0  0  0
  9 42  1  0  0  0  0
 10 11  1  0  0  0  0
 10 28  2  0  0  0  0
 11 12  2  0  0  0  0
 11 13  1  0  0  0  0
 13 14  1  0  0  0  0
 13 43  1  0  0  0  0
 13 44  1  0  0  0  0
 14 26  1  0  0  0  0
 14 15  1  0  0  0  0
 15 16  2  0  0  0  0
 15 17  1  0  0  0  0
 17 18  1  0  0  0  0
 17 19  2  0  0  0  0
 19 20  1  0  0  0  0
 19 45  1  0  0  0  0
 20 21  1  0  0  0  0
 20 26  1  0  0  0  0
 21 25  1  0  0  0  0
 21 22  1  0  0  0  0
 21 46  1  0  0  0  0
 22 23  1  0  0  0  0
 22 47  1  0  0  0  0
 22 48  1  0  0  0  0
 23 24  1  0  0  0  0
 23 49  1  0  0  0  0
 23 50  1  0  0  0  0
 24 25  1  0  0  0  0
 24 51  1  0  0  0  0
 24 52  1  0  0  0  0
 26 27  2  0  0  0  0
 28 29  1  0  0  0  0
 29 53  1  0  0  0  0
 29 54  1  0  0  0  0
 29 55  1  0  0  0  0
M  END
> <s_m_source_file>
AV-unprocessed.smi

> <i_m_source_file_index>
115

> <i_lp_mmshare_version>
43012

> <i_f3d_flags>
0

> <s_epik_input>
W0NIM11PW0NIMl1bQ0BIXShbQ0gzXSluMWMoW0NIM10pW2NIXWMoYzFbQ0gzXSlDKD1PKVtDSDJdbjJjKD1PKWMoRilbY0hdbihjMj1PKVtDQEBIXTNbQ0gyXVtDSDJdW0NIMl1PMw==

> <s_epik_cmdline>
J2VwaWtfcHl0aG9uJywgJy1waCcsICc3LjAnLCAnLXRuJywgJzgnLCAnLW1hJywgJzIwMCcsICctbWV0YWxfYmluZGluZycsICctaW1hZScsICc8aW5maWxlLm1hZT4nLCAnLW9tYWUnLCAnPG91dGZpbGUubWFlPic=

> <r_lp_tautomer_probability>
1

> <r_epik_Ionization_Penalty>
5.02611e-09

> <r_epik_Ionization_Penalty_Charging>
5.01743e-09

> <r_epik_Ionization_Penalty_Neutral>
8.68114e-12

> <r_epik_State_Penalty>
-0

> <r_epik_Charging_Adjusted_Penalty>
5.01743e-09

> <i_epik_Tot_Q>
0

> <i_epik_Tot_abs_Q>
0

> <r_epik_Metal_State_Penalty>
-0

> <b_epik_Metal_Only>
0

> <s_epik_Chemistry_Notes>
This compound contains an acetal/aminal-like group ( X-CH(R)-Y where X, Y are N, S, or O) that may be acid/base labile, releasing an aldehyde.

> <s_lp_Force_Field>
OPLS_2005

> <r_lp_Energy>
47.9533

> <b_lp_Chiralities_Consistent>
1

> <s_lp_Variant>
AV-unprocessed.smi:115-1

> <Gold.Version>
5.8.1

> <Gold.Id.Protein>
6NUR|6NUR_protein|mol2

> <Gold.PLP.Fitness>
56.1792

> <Gold.PLP.PLP>
-51.2330

> <Gold.PLP.part.hbond>
-3.4526

> <Gold.PLP.part.metal>
0.0000

> <Gold.PLP.part.buried>
-8.5196

> <Gold.PLP.part.nonpolar>
-41.1208

> <Gold.PLP.part.repulsive>
0.1777

> <Gold.PLP.ligand.clash>
0.0000

> <Gold.PLP.ligand.torsion>
0.8649

> <Gold.PLP.Chemscore.Hbond>
2.0000

> <Gold.PLP.Chemscore.CHOScore>
0.0000

> <Gold.PLP.Chemscore.Metal>
0.0000

> <Gold.Chemscore.Hbonds>
donor molecule, donor type, donor heavy atom, donor atom, acceptor molecule, acceptor atom, score
      P1  H  6896  6909       L1    27  1.00
      P1  H  6931  6943       L1    25  1.00

> <Gold.PLP.Chemscore.Internal.Correction>
0.6760

> <Gold.Rescore>
     Score         DG    S(hbond)    S(metal)    S(lipo)     H(rot)  DE(clash)    DE(int)     intcor
     16.09     -21.01       2.12        0.00     120.37       2.19       0.10       4.81       ----

> <Gold.Chemscore.Fitness>
16.0943

> <Gold.Chemscore.DG>
-21.0123

> <Gold.Chemscore.ZeroCoef>
-5.4800

> <Gold.Chemscore.Hbond>
2.1151

> <Gold.Chemscore.Metal>
0.0000

> <Gold.Chemscore.Lipo>
120.3748

> <Gold.Chemscore.Internal_Hbond>
0.0000

> <Gold.Chemscore.DEClash>
0.1043

> <Gold.Chemscore.DEInternal>
4.8138

> <Gold.Chemscore.Rot>
2.1938

> <Gold.Chemscore.Internal.Correction>
   9.000000E+99

> <Gold.Chemscore.Hbonds>
donor molecule, donor type, donor heavy atom, donor atom, acceptor molecule, acceptor atom, score
      P1  H  6896  6909       L1    27  0.85
      P1  H  6931  6943       L1    25  0.65

> <Gold.Chemscore.Hbond.Weighted>
-7.0645

> <Gold.Chemscore.Metal.Weighted>
-0.0000

> <Gold.Chemscore.Lipo.Weighted>
-14.0839

> <Gold.Chemscore.Internal_Hbond.Weighted>
0.0000

> <Gold.Chemscore.DEClash.Weighted>
0.1043

> <Gold.Chemscore.DEInternal.Weighted>
4.8138

> <Gold.Chemscore.Rot.Weighted>
5.6160

> <Gold.Chemscore.Internal.Correction.Weighted>
   9.000000E+99

> <Gold.Protein.RotatedTorsions>
[ 6907 6896 6895 6894 ] final   89.64 input  -60.11 | X-H torsion
[ 7974 7965 7964 7962 ] final   94.84 input  175.53 | X-H torsion
[ 8008 7997 7996 7995 ] final  132.96 input   59.86 | X-H torsion
[ 10167 10162 10161 10158 ] final -167.82 input  -65.29 | X-H torsion
[ 10718 10713 10712 10709 ] final  -28.78 input   66.30 | X-H torsion
[ 10763 10752 10751 10750 ] final   84.44 input  -60.55 | X-H torsion
[ 11005 11000 10999 10996 ] final  169.69 input  -57.11 | X-H torsion

> <Gold.Protein.ActiveResidues>
 VAL166  LYS551  ARG553  GLY616  TRP617  ASP618  TYR619  PRO620  LYS621  CYS622 
 ASP623  PHE694  ASN695  SER759  ASP760  ASP761  ALA762  ILE779  LEU786  VAL792 
 PHE793  MET794  SER795  GLU796  ALA797  LYS798  CYS799  TRP800  GLU811  SER814 

> <Gold.Protein.RotatedAtoms>
  152.5438  134.1935  159.8683 H   0  0  0  0  0  0  0  0  0  0  0  0  # atno 6907 bound_to 6896
  151.1929  133.4649  159.2602 H   0  0  0  0  0  0  0  0  0  0  0  0  # atno 6908 bound_to 6896
  151.1065  135.0014  159.8529 H   0  0  0  0  0  0  0  0  0  0  0  0  # atno 6909 bound_to 6896
  145.4601  139.2287  143.2992 H   0  0  0  0  0  0  0  0  0  0  0  0  # atno 7974 bound_to 7965
  156.2988  140.2533  156.3174 H   0  0  0  0  0  0  0  0  0  0  0  0  # atno 8008 bound_to 7997
  154.9268  140.0399  157.2046 H   0  0  0  0  0  0  0  0  0  0  0  0  # atno 8009 bound_to 7997
  154.8257  140.2867  155.5760 H   0  0  0  0  0  0  0  0  0  0  0  0  # atno 8010 bound_to 7997
  139.6025  144.0981  152.1758 H   0  0  0  0  0  0  0  0  0  0  0  0  # atno 10167 bound_to 10162
  156.4209  130.4426  149.7185 H   0  0  0  0  0  0  0  0  0  0  0  0  # atno 10718 bound_to 10713
  153.1382  135.4654  154.9454 H   0  0  0  0  0  0  0  0  0  0  0  0  # atno 10763 bound_to 10752
  154.7724  135.3163  154.8165 H   0  0  0  0  0  0  0  0  0  0  0  0  # atno 10764 bound_to 10752
  153.8693  135.6905  153.4830 H   0  0  0  0  0  0  0  0  0  0  0  0  # atno 10765 bound_to 10752
  140.3004  134.7600  157.3911 H   0  0  0  0  0  0  0  0  0  0  0  0  # atno 11005 bound_to 11000
  146.2456  140.5369  142.8915 LP  0  0  0  0  0  0  0  0  0  0  0  0  # atno 17320 bound_to 7965
  144.8008  140.6209  143.6479 LP  0  0  0  0  0  0  0  0  0  0  0  0  # atno 17321 bound_to 7965
  140.0581  144.5879  150.7284 LP  0  0  0  0  0  0  0  0  0  0  0  0  # atno 17342 bound_to 10162
  140.7260  143.2637  151.4118 LP  0  0  0  0  0  0  0  0  0  0  0  0  # atno 17343 bound_to 10162
  156.4126  130.7729  151.2743 LP  0  0  0  0  0  0  0  0  0  0  0  0  # atno 17370 bound_to 10713
  157.7508  131.0207  150.3719 LP  0  0  0  0  0  0  0  0  0  0  0  0  # atno 17371 bound_to 10713
  140.1114  134.5340  155.8262 LP  0  0  0  0  0  0  0  0  0  0  0  0  # atno 17394 bound_to 11000
  141.2129  133.6726  156.6697 LP  0  0  0  0  0  0  0  0  0  0  0  0  # atno 17395 bound_to 11000

$$$$
