AV-unprocessed.smi:2001|AV-procd|sdf|8112|dock3
  -GOLD-   2272010343D 1   1.00000     0.00000
 Structure written by MMmdl.
 50 51  0  0  0  0  0  0  0  0  3 V2000
  154.3908  138.9335  159.3051 C   0  0  0  0  0  0  0  0  0  0  0  0
  154.3689  138.9011  157.8888 O   0  0  0  0  0  0  0  0  0  0  0  0
  153.2222  138.2405  157.3807 C   0  0  0  0  0  0  0  0  0  0  0  0
  153.1352  138.4792  155.8657 C   0  0  0  0  0  0  0  0  0  0  0  0
  151.7915  138.1880  155.3566 N   0  0  0  0  0  0  0  0  0  0  0  0
  151.4519  136.8464  155.4001 N   0  0  0  0  0  0  0  0  0  0  0  0
  150.2859  136.4517  155.0013 C   0  0  0  0  0  0  0  0  0  0  0  0
  149.9138  135.0014  155.0566 C   0  0  0  0  0  0  0  0  0  0  0  0
  150.6850  134.2830  155.7071 O   0  0  0  0  0  0  0  0  0  0  0  0
  148.7871  134.5804  154.4075 N   0  5  0  0  0  0  0  0  0  0  0  0
  148.6773  133.3578  153.6101 C   0  0  0  0  0  0  0  0  0  0  0  0
  147.2016  133.1046  153.2499 C   0  0  0  0  0  0  0  0  0  0  0  0
  146.7218  134.0476  152.2008 N   0  3  1  0  0  0  0  0  0  0  0  0
  146.3935  133.4144  150.8974 C   0  0  0  0  0  0  0  0  0  0  0  0
  145.0128  132.7245  150.9389 C   0  0  2  0  0  0  0  0  0  0  0  0
  144.6035  132.1761  149.5674 C   0  0  0  0  0  0  0  0  0  0  0  0
  144.0272  133.6662  151.3517 O   0  0  0  0  0  0  0  0  0  0  0  0
  144.2738  134.1907  152.6527 C   0  0  2  0  0  0  0  0  0  0  0  0
  143.1070  135.1120  153.0251 C   0  0  0  0  0  0  0  0  0  0  0  0
  145.6211  134.9390  152.6400 C   0  0  0  0  0  0  0  0  0  0  0  0
  149.3154  137.4148  154.4935 C   0  0  0  0  0  0  0  0  0  0  0  0
  149.6602  138.7205  154.4620 C   0  0  0  0  0  0  0  0  0  0  0  0
  150.9688  139.1876  154.9195 C   0  0  0  0  0  0  0  0  0  0  0  0
  151.2984  140.3736  154.9171 O   0  0  0  0  0  0  0  0  0  0  0  0
  155.2812  139.4616  159.6463 H   0  0  0  0  0  0  0  0  0  0  0  0
  154.4173  137.9257  159.7214 H   0  0  0  0  0  0  0  0  0  0  0  0
  153.5179  139.4533  159.7023 H   0  0  0  0  0  0  0  0  0  0  0  0
  153.2860  137.1707  157.5867 H   0  0  0  0  0  0  0  0  0  0  0  0
  152.3271  138.6191  157.8770 H   0  0  0  0  0  0  0  0  0  0  0  0
  153.4220  139.5059  155.6308 H   0  0  0  0  0  0  0  0  0  0  0  0
  153.8678  137.8505  155.3564 H   0  0  0  0  0  0  0  0  0  0  0  0
  149.2580  133.4125  152.6883 H   0  0  0  0  0  0  0  0  0  0  0  0
  149.0596  132.4937  154.1537 H   0  0  0  0  0  0  0  0  0  0  0  0
  147.0756  132.0719  152.9246 H   0  0  0  0  0  0  0  0  0  0  0  0
  146.6005  133.2017  154.1555 H   0  0  0  0  0  0  0  0  0  0  0  0
  146.3897  134.1946  150.1350 H   0  0  0  0  0  0  0  0  0  0  0  0
  147.1732  132.7078  150.6104 H   0  0  0  0  0  0  0  0  0  0  0  0
  145.0274  131.8940  151.6461 H   0  0  0  0  0  0  0  0  0  0  0  0
  145.3220  131.4381  149.2094 H   0  0  0  0  0  0  0  0  0  0  0  0
  144.5434  132.9726  148.8252 H   0  0  0  0  0  0  0  0  0  0  0  0
  143.6272  131.6927  149.6167 H   0  0  0  0  0  0  0  0  0  0  0  0
  144.3082  133.3703  153.3716 H   0  0  0  0  0  0  0  0  0  0  0  0
  143.2420  135.5318  154.0223 H   0  0  0  0  0  0  0  0  0  0  0  0
  142.1626  134.5671  153.0198 H   0  0  0  0  0  0  0  0  0  0  0  0
  143.0176  135.9405  152.3219 H   0  0  0  0  0  0  0  0  0  0  0  0
  145.8475  135.3648  153.6187 H   0  0  0  0  0  0  0  0  0  0  0  0
  145.5673  135.7798  151.9470 H   0  0  0  0  0  0  0  0  0  0  0  0
  148.3387  137.1108  154.1474 H   0  0  0  0  0  0  0  0  0  0  0  0
  148.9491  139.4429  154.0891 H   0  0  0  0  0  0  0  0  0  0  0  0
  147.5161  134.6523  152.0410 H   0  0  0  0  0  0  0  0  0  0  0  0
  1  2  1  0  0  0  0
  1 25  1  0  0  0  0
  1 26  1  0  0  0  0
  1 27  1  0  0  0  0
  2  3  1  0  0  0  0
  3  4  1  0  0  0  0
  3 28  1  0  0  0  0
  3 29  1  0  0  0  0
  4  5  1  0  0  0  0
  4 30  1  0  0  0  0
  4 31  1  0  0  0  0
  5 23  1  0  0  0  0
  5  6  1  0  0  0  0
  6  7  2  0  0  0  0
  7  8  1  0  0  0  0
  7 21  1  0  0  0  0
  8  9  2  0  0  0  0
  8 10  1  0  0  0  0
 10 11  1  0  0  0  0
 11 12  1  0  0  0  0
 11 32  1  0  0  0  0
 11 33  1  0  0  0  0
 12 13  1  0  0  0  0
 12 34  1  0  0  0  0
 12 35  1  0  0  0  0
 13 20  1  0  0  0  0
 13 14  1  0  0  0  0
 13 50  1  0  0  0  0
 14 15  1  0  0  0  0
 14 36  1  0  0  0  0
 14 37  1  0  0  0  0
 15 16  1  0  0  0  0
 15 17  1  0  0  0  0
 15 38  1  0  0  0  0
 16 39  1  0  0  0  0
 16 40  1  0  0  0  0
 16 41  1  0  0  0  0
 17 18  1  0  0  0  0
 18 19  1  0  0  0  0
 18 20  1  0  0  0  0
 18 42  1  0  0  0  0
 19 43  1  0  0  0  0
 19 44  1  0  0  0  0
 19 45  1  0  0  0  0
 20 46  1  0  0  0  0
 20 47  1  0  0  0  0
 21 22  2  0  0  0  0
 21 48  1  0  0  0  0
 22 23  1  0  0  0  0
 22 49  1  0  0  0  0
 23 24  2  0  0  0  0
M  CHG  1  10  -1
M  CHG  1  13   1
M  END
> <s_m_source_file>
AV-unprocessed.smi

> <i_m_source_file_index>
2001

> <i_lp_mmshare_version>
43012

> <i_f3d_flags>
0

> <s_epik_input>
W0NIM11PW0NIMl1bQ0gyXW4xbmMoW2NIXVtjSF1jMT1PKUMoPU8pW05IXVtDSDJdW0NIMl1OMltDSDJdW0NAQEhdKFtDSDNdKU9bQ0BASF0oW0NIM10pW0NIMl0y

> <s_epik_cmdline>
J2VwaWtfcHl0aG9uJywgJy1waCcsICc3LjAnLCAnLXRuJywgJzgnLCAnLW1hJywgJzIwMCcsICctbWV0YWxfYmluZGluZycsICctaW1hZScsICc8aW5maWxlLm1hZT4nLCAnLW9tYWUnLCAnPG91dGZpbGUubWFlPic=

> <r_lp_tautomer_probability>
1

> <r_epik_Ionization_Penalty>
6.90846

> <r_epik_Ionization_Penalty_Charging>
6.90846

> <r_epik_Ionization_Penalty_Neutral>
1.08445e-11

> <r_epik_State_Penalty>
7.54671

> <r_epik_Charging_Adjusted_Penalty>
14.4552

> <i_epik_Tot_Q>
0

> <i_epik_Tot_abs_Q>
2

> <r_epik_Metal_State_Penalty>
3.46181

> <b_epik_Metal_Only>
1

> <s_lp_Force_Field>
OPLS_2005

> <r_lp_Energy>
41.6735

> <b_lp_Chiralities_Consistent>
1

> <s_lp_Variant>
AV-unprocessed.smi:2001-11

> <Gold.Version>
5.8.1

> <Gold.Id.Protein>
6NUR|6NUR_protein|mol2

> <Gold.PLP.Fitness>
48.1990

> <Gold.PLP.PLP>
-35.9017

> <Gold.PLP.part.hbond>
-4.0000

> <Gold.PLP.part.metal>
0.0000

> <Gold.PLP.part.buried>
-3.7929

> <Gold.PLP.part.nonpolar>
-29.0703

> <Gold.PLP.part.repulsive>
1.2755

> <Gold.PLP.ligand.clash>
0.0000

> <Gold.PLP.ligand.torsion>
1.4145

> <Gold.PLP.Chemscore.Hbond>
4.9600

> <Gold.PLP.Chemscore.CHOScore>
0.0000

> <Gold.PLP.Chemscore.Metal>
0.0000

> <Gold.Chemscore.Hbonds>
donor molecule, donor type, donor heavy atom, donor atom, acceptor molecule, acceptor atom, score
      L1  H    13    50       P1  7948  1.66
      P1  H  7989  7998       L1    24  1.00
      P1  H  7997  8009       L1     2  0.60
      P1  H 10752 10763       L1     6  0.83

> <Gold.PLP.Chemscore.Internal.Correction>
0.2463

> <Gold.Rescore>
     Score         DG    S(hbond)    S(metal)    S(lipo)     H(rot)  DE(clash)    DE(int)     intcor
     15.78     -19.14       2.82        0.00      80.38       2.02       1.90       1.45       ----

> <Gold.Chemscore.Fitness>
15.7843

> <Gold.Chemscore.DG>
-19.1381

> <Gold.Chemscore.ZeroCoef>
-5.4800

> <Gold.Chemscore.Hbond>
2.8201

> <Gold.Chemscore.Metal>
0.0000

> <Gold.Chemscore.Lipo>
80.3826

> <Gold.Chemscore.Internal_Hbond>
0.0000

> <Gold.Chemscore.DEClash>
1.8998

> <Gold.Chemscore.DEInternal>
1.4540

> <Gold.Chemscore.Rot>
2.0179

> <Gold.Chemscore.Internal.Correction>
   9.000000E+99

> <Gold.Chemscore.Hbonds>
donor molecule, donor type, donor heavy atom, donor atom, acceptor molecule, acceptor atom, score
      L1  H    13    50       P1  7948  0.58
      P1  H  7989  7998       L1    24  0.74
      P1  H  7997  8009       L1     2  0.55
      P1  H 10752 10763       L1     6  0.55

> <Gold.Chemscore.Hbond.Weighted>
-9.4192

> <Gold.Chemscore.Metal.Weighted>
-0.0000

> <Gold.Chemscore.Lipo.Weighted>
-9.4048

> <Gold.Chemscore.Internal_Hbond.Weighted>
0.0000

> <Gold.Chemscore.DEClash.Weighted>
1.8998

> <Gold.Chemscore.DEInternal.Weighted>
1.4540

> <Gold.Chemscore.Rot.Weighted>
5.1659

> <Gold.Chemscore.Internal.Correction.Weighted>
   9.000000E+99

> <Gold.Protein.RotatedTorsions>
[ 6907 6896 6895 6894 ] final   46.77 input  -60.11 | X-H torsion
[ 7974 7965 7964 7962 ] final    4.36 input  175.53 | X-H torsion
[ 8008 7997 7996 7995 ] final  134.79 input   59.86 | X-H torsion
[ 10167 10162 10161 10158 ] final   25.54 input  -65.29 | X-H torsion
[ 10718 10713 10712 10709 ] final   55.92 input   66.30 | X-H torsion
[ 10763 10752 10751 10750 ] final   62.82 input  -60.55 | X-H torsion
[ 11005 11000 10999 10996 ] final  -46.28 input  -57.11 | X-H torsion

> <Gold.Protein.ActiveResidues>
 VAL166  LYS551  ARG553  GLY616  TRP617  ASP618  TYR619  PRO620  LYS621  CYS622 
 ASP623  PHE694  ASN695  SER759  ASP760  ASP761  ALA762  ILE779  LEU786  VAL792 
 PHE793  MET794  SER795  GLU796  ALA797  LYS798  CYS799  TRP800  GLU811  SER814 

> <Gold.Protein.RotatedAtoms>
  152.2602  134.8041  160.0431 H   0  0  0  0  0  0  0  0  0  0  0  0  # atno 6907 bound_to 6896
  151.8690  133.3467  159.3737 H   0  0  0  0  0  0  0  0  0  0  0  0  # atno 6908 bound_to 6896
  150.7114  134.5058  159.5627 H   0  0  0  0  0  0  0  0  0  0  0  0  # atno 6909 bound_to 6896
  146.2444  140.0546  142.8372 H   0  0  0  0  0  0  0  0  0  0  0  0  # atno 7974 bound_to 7965
  156.3000  140.2487  156.3475 H   0  0  0  0  0  0  0  0  0  0  0  0  # atno 8008 bound_to 7997
  154.8997  140.0406  157.1905 H   0  0  0  0  0  0  0  0  0  0  0  0  # atno 8009 bound_to 7997
  154.8513  140.2906  155.5600 H   0  0  0  0  0  0  0  0  0  0  0  0  # atno 8010 bound_to 7997
  140.5098  144.0179  150.6367 H   0  0  0  0  0  0  0  0  0  0  0  0  # atno 10167 bound_to 10162
  157.5386  130.8681  149.8789 H   0  0  0  0  0  0  0  0  0  0  0  0  # atno 10718 bound_to 10713
  152.9996  135.5451  154.6254 H   0  0  0  0  0  0  0  0  0  0  0  0  # atno 10763 bound_to 10752
  154.5544  135.2829  155.0981 H   0  0  0  0  0  0  0  0  0  0  0  0  # atno 10764 bound_to 10752
  154.2208  135.6451  153.5196 H   0  0  0  0  0  0  0  0  0  0  0  0  # atno 10765 bound_to 10752
  141.0569  133.6723  156.3132 H   0  0  0  0  0  0  0  0  0  0  0  0  # atno 11005 bound_to 11000
  145.0954  140.9311  143.4744 LP  0  0  0  0  0  0  0  0  0  0  0  0  # atno 17320 bound_to 7965
  145.0727  139.3019  143.5824 LP  0  0  0  0  0  0  0  0  0  0  0  0  # atno 17321 bound_to 7965
  140.3498  143.2969  152.0499 LP  0  0  0  0  0  0  0  0  0  0  0  0  # atno 17342 bound_to 10162
  139.4893  144.6382  151.6932 LP  0  0  0  0  0  0  0  0  0  0  0  0  # atno 17343 bound_to 10162
  156.0479  130.3724  150.1273 LP  0  0  0  0  0  0  0  0  0  0  0  0  # atno 17370 bound_to 10713
  156.9454  130.9758  151.3508 LP  0  0  0  0  0  0  0  0  0  0  0  0  # atno 17371 bound_to 10713
  140.5947  134.5616  157.5506 LP  0  0  0  0  0  0  0  0  0  0  0  0  # atno 17394 bound_to 11000
  139.9398  134.7808  156.0709 LP  0  0  0  0  0  0  0  0  0  0  0  0  # atno 17395 bound_to 11000

$$$$
