AV-unprocessed.smi:1048|AV-procd|sdf|4607|dock7
  -GOLD-   22720 3103D 1   1.00000     0.00000
 Structure written by MMmdl.
 46 47  0  0  0  0  0  0  0  0  2 V2000
  152.2411  143.2174  159.8861 C   0  0  0  0  0  0  0  0  0  0  0  0
  151.2805  144.1053  159.0760 C   0  0  2  0  0  0  0  0  0  0  0  0
  149.8678  143.5037  158.9580 C   0  0  0  0  0  0  0  0  0  0  0  0
  149.8168  142.3222  157.9728 C   0  0  0  0  0  0  0  0  0  0  0  0
  150.3321  142.7169  156.6354 N   0  3  2  0  0  0  0  0  0  0  0  0
  150.1772  141.6534  155.6098 C   0  0  0  0  0  0  0  0  0  0  0  0
  148.6976  141.3315  155.3157 C   0  0  1  0  0  0  0  0  0  0  0  0
  148.1532  142.4631  154.6649 O   0  0  0  0  0  0  0  0  0  0  0  0
  148.5612  140.1147  154.3776 C   0  0  0  0  0  0  0  0  0  0  0  0
  147.1662  139.7498  154.1488 N   0  0  0  0  0  0  0  0  0  0  0  0
  146.6828  138.4998  154.1849 C   0  0  0  0  0  0  0  0  0  0  0  0
  147.3849  137.5095  154.3852 O   0  0  0  0  0  0  0  0  0  0  0  0
  145.3588  138.4809  153.9543 N   0  0  0  0  0  0  0  0  0  0  0  0
  144.4790  137.3645  153.9455 C   0  0  0  0  0  0  0  0  0  0  0  0
  144.7076  136.3349  154.8817 C   0  0  0  0  0  0  0  0  0  0  0  0
  143.8636  135.2081  154.8837 C   0  0  0  0  0  0  0  0  0  0  0  0
  142.8225  135.1500  153.9372 C   0  0  0  0  0  0  0  0  0  0  0  0
  142.5986  136.1179  153.0239 N   0  0  0  0  0  0  0  0  0  0  0  0
  143.4110  137.1968  153.0286 C   0  0  0  0  0  0  0  0  0  0  0  0
  151.7226  143.2324  156.7140 C   0  0  0  0  0  0  0  0  0  0  0  0
  151.8169  144.4343  157.6709 C   0  0  0  0  0  0  0  0  0  0  0  0
  152.3996  142.2461  159.4182 H   0  0  0  0  0  0  0  0  0  0  0  0
  151.8546  143.0404  160.8900 H   0  0  0  0  0  0  0  0  0  0  0  0
  153.2160  143.6940  159.9922 H   0  0  0  0  0  0  0  0  0  0  0  0
  151.1936  145.0447  159.6238 H   0  0  0  0  0  0  0  0  0  0  0  0
  149.5075  143.1903  159.9386 H   0  0  0  0  0  0  0  0  0  0  0  0
  149.1781  144.2769  158.6168 H   0  0  0  0  0  0  0  0  0  0  0  0
  150.3972  141.4819  158.3562 H   0  0  0  0  0  0  0  0  0  0  0  0
  148.7871  141.9757  157.8913 H   0  0  0  0  0  0  0  0  0  0  0  0
  150.6534  141.9627  154.6778 H   0  0  0  0  0  0  0  0  0  0  0  0
  150.7104  140.7594  155.9366 H   0  0  0  0  0  0  0  0  0  0  0  0
  148.1536  141.1459  156.2421 H   0  0  0  0  0  0  0  0  0  0  0  0
  148.4571  143.2412  155.1093 H   0  0  0  0  0  0  0  0  0  0  0  0
  149.0943  140.2692  153.4373 H   0  0  0  0  0  0  0  0  0  0  0  0
  149.0239  139.2446  154.8444 H   0  0  0  0  0  0  0  0  0  0  0  0
  146.5202  140.5050  153.9709 H   0  0  0  0  0  0  0  0  0  0  0  0
  144.9348  139.3662  153.7193 H   0  0  0  0  0  0  0  0  0  0  0  0
  145.5168  136.4065  155.5939 H   0  0  0  0  0  0  0  0  0  0  0  0
  144.0109  134.4070  155.5928 H   0  0  0  0  0  0  0  0  0  0  0  0
  142.1557  134.3009  153.9092 H   0  0  0  0  0  0  0  0  0  0  0  0
  143.1981  137.9214  152.2587 H   0  0  0  0  0  0  0  0  0  0  0  0
  152.3945  142.4331  157.0298 H   0  0  0  0  0  0  0  0  0  0  0  0
  152.0525  143.5463  155.7228 H   0  0  0  0  0  0  0  0  0  0  0  0
  151.2411  145.2620  157.2544 H   0  0  0  0  0  0  0  0  0  0  0  0
  152.8476  144.7855  157.7314 H   0  0  0  0  0  0  0  0  0  0  0  0
  149.7675  143.4920  156.3174 H   0  0  0  0  0  0  0  0  0  0  0  0
  1  2  1  0  0  0  0
  1 22  1  0  0  0  0
  1 23  1  0  0  0  0
  1 24  1  0  0  0  0
  2 21  1  0  0  0  0
  2  3  1  0  0  0  0
  2 25  1  0  0  0  0
  3  4  1  0  0  0  0
  3 26  1  0  0  0  0
  3 27  1  0  0  0  0
  4  5  1  0  0  0  0
  4 28  1  0  0  0  0
  4 29  1  0  0  0  0
  5  6  1  0  0  0  0
  5 20  1  0  0  0  0
  5 46  1  0  0  0  0
  6  7  1  0  0  0  0
  6 30  1  0  0  0  0
  6 31  1  0  0  0  0
  7  8  1  0  0  0  0
  7  9  1  0  0  0  0
  7 32  1  0  0  0  0
  8 33  1  0  0  0  0
  9 10  1  0  0  0  0
  9 34  1  0  0  0  0
  9 35  1  0  0  0  0
 10 11  1  0  0  0  0
 10 36  1  0  0  0  0
 11 12  2  0  0  0  0
 11 13  1  0  0  0  0
 13 14  1  0  0  0  0
 13 37  1  0  0  0  0
 14 19  1  0  0  0  0
 14 15  2  0  0  0  0
 15 16  1  0  0  0  0
 15 38  1  0  0  0  0
 16 17  2  0  0  0  0
 16 39  1  0  0  0  0
 17 18  1  0  0  0  0
 17 40  1  0  0  0  0
 18 19  2  0  0  0  0
 19 41  1  0  0  0  0
 20 21  1  0  0  0  0
 20 42  1  0  0  0  0
 20 43  1  0  0  0  0
 21 44  1  0  0  0  0
 21 45  1  0  0  0  0
M  CHG  1   5   1
M  END
> <s_m_source_file>
AV-unprocessed.smi

> <i_m_source_file_index>
1048

> <i_lp_mmshare_version>
43012

> <i_f3d_flags>
0

> <s_epik_input>
W0NIM11bQ0hdMVtDSDJdW0NIMl1OKFtDSDJdW0NIMl0xKVtDSDJdW0NASF0oW09IXSlbQ0gyXVtOSF1DKD1PKVtOSF1jMltjSF1bY0hdW2NIXW5bY0hdMg==

> <s_epik_cmdline>
J2VwaWtfcHl0aG9uJywgJy1waCcsICc3LjAnLCAnLXRuJywgJzgnLCAnLW1hJywgJzIwMCcsICctbWV0YWxfYmluZGluZycsICctaW1hZScsICc8aW5maWxlLm1hZT4nLCAnLW9tYWUnLCAnPG91dGZpbGUubWFlPic=

> <r_lp_tautomer_probability>
1

> <r_epik_Ionization_Penalty>
0.00581049

> <r_epik_Ionization_Penalty_Charging>
0.00147689

> <r_epik_Ionization_Penalty_Neutral>
0.0043336

> <r_epik_State_Penalty>
-0

> <r_epik_Charging_Adjusted_Penalty>
0.00147689

> <i_epik_Tot_Q>
1

> <i_epik_Tot_abs_Q>
1

> <r_epik_Metal_State_Penalty>
-0

> <b_epik_Metal_Only>
0

> <s_lp_Force_Field>
OPLS_2005

> <r_lp_Energy>
24.6749

> <b_lp_Chiralities_Consistent>
1

> <s_lp_Variant>
AV-unprocessed.smi:1048-4

> <Gold.Version>
5.8.1

> <Gold.Id.Protein>
6NUR|6NUR_protein|mol2

> <Gold.PLP.Fitness>
48.9339

> <Gold.PLP.PLP>
-31.1859

> <Gold.PLP.part.hbond>
-3.2898

> <Gold.PLP.part.metal>
0.0000

> <Gold.PLP.part.buried>
-6.7305

> <Gold.PLP.part.nonpolar>
-22.5293

> <Gold.PLP.part.repulsive>
0.3471

> <Gold.PLP.ligand.clash>
0.0000

> <Gold.PLP.ligand.torsion>
0.4567

> <Gold.PLP.Chemscore.Hbond>
3.9511

> <Gold.PLP.Chemscore.CHOScore>
2.2246

> <Gold.PLP.Chemscore.Metal>
0.0000

> <Gold.Chemscore.Hbonds>
donor molecule, donor type, donor heavy atom, donor atom, acceptor molecule, acceptor atom, score
      L1  H     5    46       P1  8028  2.00
      L1  H     8    33       P1  8028  1.00
      L1  H    13    37       P1 10175  0.84
      L1  C    17    40       P1 10957  0.51
      L1  C    19    41       P1 10171  0.82
      L1  C    19    41       P1 10175  0.86

> <Gold.PLP.Chemscore.Internal.Correction>
0.1344

> <Gold.Rescore>
     Score         DG    S(hbond)    S(metal)    S(lipo)     H(rot)  DE(clash)    DE(int)     intcor
     17.15     -20.01       2.93        0.00      90.63       2.29       1.32       1.54       ----

> <Gold.Chemscore.Fitness>
17.1533

> <Gold.Chemscore.DG>
-20.0135

> <Gold.Chemscore.ZeroCoef>
-5.4800

> <Gold.Chemscore.Hbond>
2.9290

> <Gold.Chemscore.Metal>
0.0000

> <Gold.Chemscore.Lipo>
90.6337

> <Gold.Chemscore.Internal_Hbond>
0.0000

> <Gold.Chemscore.DEClash>
1.3225

> <Gold.Chemscore.DEInternal>
1.5376

> <Gold.Chemscore.Rot>
2.2865

> <Gold.Chemscore.Internal.Correction>
   9.000000E+99

> <Gold.Chemscore.Hbonds>
donor molecule, donor type, donor heavy atom, donor atom, acceptor molecule, acceptor atom, score
      L1  H     5    46       P1  8028  1.00
      L1  H     8    33       P1  8028  0.99
      L1  H    13    37       P1 10175  0.78

> <Gold.Chemscore.Hbond.Weighted>
-9.7829

> <Gold.Chemscore.Metal.Weighted>
-0.0000

> <Gold.Chemscore.Lipo.Weighted>
-10.6041

> <Gold.Chemscore.Internal_Hbond.Weighted>
0.0000

> <Gold.Chemscore.DEClash.Weighted>
1.3225

> <Gold.Chemscore.DEInternal.Weighted>
1.5376

> <Gold.Chemscore.Rot.Weighted>
5.8536

> <Gold.Chemscore.Internal.Correction.Weighted>
   9.000000E+99

> <Gold.Protein.RotatedTorsions>
[ 6907 6896 6895 6894 ] final  133.95 input  -60.11 | X-H torsion
[ 7974 7965 7964 7962 ] final  -96.82 input  175.53 | X-H torsion
[ 8008 7997 7996 7995 ] final   -7.40 input   59.86 | X-H torsion
[ 10167 10162 10161 10158 ] final  -40.88 input  -65.29 | X-H torsion
[ 10718 10713 10712 10709 ] final   65.01 input   66.30 | X-H torsion
[ 10763 10752 10751 10750 ] final  -78.13 input  -60.55 | X-H torsion
[ 11005 11000 10999 10996 ] final   12.04 input  -57.11 | X-H torsion

> <Gold.Protein.ActiveResidues>
 VAL166  LYS551  ARG553  GLY616  TRP617  ASP618  TYR619  PRO620  LYS621  CYS622 
 ASP623  PHE694  ASN695  SER759  ASP760  ASP761  ALA762  ILE779  LEU786  VAL792 
 PHE793  MET794  SER795  GLU796  ALA797  LYS798  CYS799  TRP800  GLU811  SER814 

> <Gold.Protein.RotatedAtoms>
  152.3165  133.5808  159.5715 H   0  0  0  0  0  0  0  0  0  0  0  0  # atno 6907 bound_to 6896
  150.7349  134.0075  159.3667 H   0  0  0  0  0  0  0  0  0  0  0  0  # atno 6908 bound_to 6896
  151.7963  135.0722  160.0445 H   0  0  0  0  0  0  0  0  0  0  0  0  # atno 6909 bound_to 6896
  145.3419  140.9461  143.2603 H   0  0  0  0  0  0  0  0  0  0  0  0  # atno 7974 bound_to 7965
  154.5842  140.2408  155.8011 H   0  0  0  0  0  0  0  0  0  0  0  0  # atno 8008 bound_to 7997
  156.2201  140.3000  155.9888 H   0  0  0  0  0  0  0  0  0  0  0  0  # atno 8009 bound_to 7997
  155.2487  140.0410  157.2974 H   0  0  0  0  0  0  0  0  0  0  0  0  # atno 8010 bound_to 7997
  140.7020  143.3127  151.2986 H   0  0  0  0  0  0  0  0  0  0  0  0  # atno 10167 bound_to 10162
  157.6077  130.9191  149.9920 H   0  0  0  0  0  0  0  0  0  0  0  0  # atno 10718 bound_to 10713
  154.5219  135.5740  153.6688 H   0  0  0  0  0  0  0  0  0  0  0  0  # atno 10763 bound_to 10752
  152.9919  135.6184  154.2743 H   0  0  0  0  0  0  0  0  0  0  0  0  # atno 10764 bound_to 10752
  154.2664  135.2854  155.2736 H   0  0  0  0  0  0  0  0  0  0  0  0  # atno 10765 bound_to 10752
  140.4965  134.0788  155.7783 H   0  0  0  0  0  0  0  0  0  0  0  0  # atno 11005 bound_to 11000
  144.8784  139.4939  143.6734 LP  0  0  0  0  0  0  0  0  0  0  0  0  # atno 17320 bound_to 7965
  146.3004  139.7408  142.9095 LP  0  0  0  0  0  0  0  0  0  0  0  0  # atno 17321 bound_to 7965
  139.6556  144.0283  152.2657 LP  0  0  0  0  0  0  0  0  0  0  0  0  # atno 17342 bound_to 10162
  139.9833  144.6413  150.7880 LP  0  0  0  0  0  0  0  0  0  0  0  0  # atno 17343 bound_to 10162
  156.1169  130.3647  149.9952 LP  0  0  0  0  0  0  0  0  0  0  0  0  # atno 17370 bound_to 10713
  156.8040  130.9301  151.3645 LP  0  0  0  0  0  0  0  0  0  0  0  0  # atno 17371 bound_to 10713
  141.1457  133.9059  157.2220 LP  0  0  0  0  0  0  0  0  0  0  0  0  # atno 17394 bound_to 11000
  139.9738  135.0120  156.9580 LP  0  0  0  0  0  0  0  0  0  0  0  0  # atno 17395 bound_to 11000

$$$$
