AV-unprocessed.smi:528|AV-procd|sdf|2831|dock3
  -GOLD-   2262023313D 1   1.00000     0.00000
 Structure written by MMmdl.
 45 47  0  0  0  0  0  0  0  0  1 V2000
  150.4703  139.0430  154.4786 C   0  0  0  0  0  0  0  0  0  0  0  0
  149.8039  139.9591  155.5167 C   0  0  2  0  0  0  0  0  0  0  0  0
  150.3644  139.6658  156.8344 N   0  0  0  0  0  0  0  0  0  0  0  0
  151.6683  139.6578  157.1529 C   0  0  0  0  0  0  0  0  0  0  0  0
  152.5678  139.8517  156.3342 O   0  0  0  0  0  0  0  0  0  0  0  0
  151.9958  139.3824  158.6264 C   0  0  0  0  0  0  0  0  0  0  0  0
  152.4234  140.5924  159.3471 N   0  0  0  0  0  0  0  0  0  0  0  0
  151.7781  141.7946  158.9968 C   0  0  0  0  0  0  0  0  0  0  0  0
  152.0688  142.9778  159.5700 C   0  0  0  0  0  0  0  0  0  0  0  0
  151.3983  144.2670  159.1219 C   0  0  0  0  0  0  0  0  0  0  0  0
  150.0733  144.1894  159.2469 F   0  0  0  0  0  0  0  0  0  0  0  0
  151.8271  145.3057  159.8401 F   0  0  0  0  0  0  0  0  0  0  0  0
  151.6821  144.5033  157.8419 F   0  0  0  0  0  0  0  0  0  0  0  0
  153.1197  142.9689  160.5686 C   0  0  0  0  0  0  0  0  0  0  0  0
  153.7570  141.8303  160.9052 C   0  0  0  0  0  0  0  0  0  0  0  0
  153.4208  140.5487  160.2802 C   0  0  0  0  0  0  0  0  0  0  0  0
  154.0017  139.5044  160.5757 O   0  0  0  0  0  0  0  0  0  0  0  0
  148.2671  139.7821  155.5516 C   0  0  2  0  0  0  0  0  0  0  0  0
  147.7115  138.7014  154.5967 C   0  0  0  0  0  0  0  0  0  0  0  0
  146.5657  139.4335  153.8725 C   0  0  2  0  0  0  0  0  0  0  0  0
  147.1638  140.4199  152.8534 C   0  0  0  0  0  0  0  0  0  0  0  0
  147.7344  141.5298  153.7541 C   0  0  0  0  0  0  0  0  0  0  0  0
  147.4124  141.0193  155.1744 C   0  0  1  0  0  0  0  0  0  0  0  0
  146.0473  140.3755  154.9534 C   0  0  0  0  0  0  0  0  0  0  0  0
  150.1062  139.2515  153.4724 H   0  0  0  0  0  0  0  0  0  0  0  0
  150.2746  137.9916  154.6913 H   0  0  0  0  0  0  0  0  0  0  0  0
  151.5516  139.1849  154.4686 H   0  0  0  0  0  0  0  0  0  0  0  0
  150.0299  140.9869  155.2303 H   0  0  0  0  0  0  0  0  0  0  0  0
  149.7011  139.4842  157.5735 H   0  0  0  0  0  0  0  0  0  0  0  0
  151.1191  138.9591  159.1202 H   0  0  0  0  0  0  0  0  0  0  0  0
  152.7535  138.5986  158.6728 H   0  0  0  0  0  0  0  0  0  0  0  0
  151.0359  141.6928  158.2177 H   0  0  0  0  0  0  0  0  0  0  0  0
  153.3994  143.8900  161.0582 H   0  0  0  0  0  0  0  0  0  0  0  0
  154.5342  141.8607  161.6547 H   0  0  0  0  0  0  0  0  0  0  0  0
  147.9923  139.5030  156.5708 H   0  0  0  0  0  0  0  0  0  0  0  0
  148.4567  138.3274  153.8935 H   0  0  0  0  0  0  0  0  0  0  0  0
  147.3359  137.8484  155.1634 H   0  0  0  0  0  0  0  0  0  0  0  0
  145.8191  138.7635  153.4451 H   0  0  0  0  0  0  0  0  0  0  0  0
  147.9283  139.9579  152.2278 H   0  0  0  0  0  0  0  0  0  0  0  0
  146.3903  140.8198  152.1965 H   0  0  0  0  0  0  0  0  0  0  0  0
  148.7957  141.7035  153.5843 H   0  0  0  0  0  0  0  0  0  0  0  0
  147.2193  142.4724  153.5639 H   0  0  0  0  0  0  0  0  0  0  0  0
  147.4226  141.8048  155.9308 H   0  0  0  0  0  0  0  0  0  0  0  0
  145.2906  141.0744  154.5921 H   0  0  0  0  0  0  0  0  0  0  0  0
  145.6626  139.8556  155.8326 H   0  0  0  0  0  0  0  0  0  0  0  0
  1  2  1  0  0  0  0
  1 25  1  0  0  0  0
  1 26  1  0  0  0  0
  1 27  1  0  0  0  0
  2  3  1  0  0  0  0
  2 18  1  0  0  0  0
  2 28  1  0  0  0  0
  3  4  1  0  0  0  0
  3 29  1  0  0  0  0
  4  5  2  0  0  0  0
  4  6  1  0  0  0  0
  6  7  1  0  0  0  0
  6 30  1  0  0  0  0
  6 31  1  0  0  0  0
  7 16  1  0  0  0  0
  7  8  1  0  0  0  0
  8  9  2  0  0  0  0
  8 32  1  0  0  0  0
  9 10  1  0  0  0  0
  9 14  1  0  0  0  0
 10 11  1  0  0  0  0
 10 12  1  0  0  0  0
 10 13  1  0  0  0  0
 14 15  2  0  0  0  0
 14 33  1  0  0  0  0
 15 16  1  0  0  0  0
 15 34  1  0  0  0  0
 16 17  2  0  0  0  0
 18 23  1  0  0  0  0
 18 19  1  0  0  0  0
 18 35  1  0  0  0  0
 19 20  1  0  0  0  0
 19 36  1  0  0  0  0
 19 37  1  0  0  0  0
 20 24  1  0  0  0  0
 20 21  1  0  0  0  0
 20 38  1  0  0  0  0
 21 22  1  0  0  0  0
 21 39  1  0  0  0  0
 21 40  1  0  0  0  0
 22 23  1  0  0  0  0
 22 41  1  0  0  0  0
 22 42  1  0  0  0  0
 23 24  1  0  0  0  0
 23 43  1  0  0  0  0
 24 44  1  0  0  0  0
 24 45  1  0  0  0  0
M  END
> <s_m_source_file>
AV-unprocessed.smi

> <i_m_source_file_index>
528

> <i_lp_mmshare_version>
43012

> <i_f3d_flags>
0

> <s_epik_input>
W0NIMl0xW0NIMl1bQ0BASF0oW0NIMl0yKVtDQEBIXShbQ0gyXVtDQEhdMTIpW0NASF0oW0NIM10pW05IXUMoPU8pW0NIMl1uM1tjSF1jKEMoRikoRilGKVtjSF1bY0hdYzM9Tw==

> <s_epik_cmdline>
J2VwaWtfcHl0aG9uJywgJy1waCcsICc3LjAnLCAnLXRuJywgJzgnLCAnLW1hJywgJzIwMCcsICctbWV0YWxfYmluZGluZycsICctaW1hZScsICc8aW5maWxlLm1hZT4nLCAnLW9tYWUnLCAnPG91dGZpbGUubWFlPic=

> <r_lp_tautomer_probability>
1

> <r_epik_Ionization_Penalty>
4.09479e-08

> <r_epik_Ionization_Penalty_Charging>
1.9321e-08

> <r_epik_Ionization_Penalty_Neutral>
2.16269e-08

> <r_epik_State_Penalty>
-0

> <r_epik_Charging_Adjusted_Penalty>
1.9321e-08

> <i_epik_Tot_Q>
0

> <i_epik_Tot_abs_Q>
0

> <r_epik_Metal_State_Penalty>
-0

> <b_epik_Metal_Only>
0

> <s_lp_Force_Field>
OPLS_2005

> <r_lp_Energy>
62.8802

> <b_lp_Chiralities_Consistent>
1

> <s_lp_Variant>
AV-unprocessed.smi:528-1

> <Gold.Version>
5.8.1

> <Gold.Id.Protein>
6NUR|6NUR_protein|mol2

> <Gold.PLP.Fitness>
48.8132

> <Gold.PLP.PLP>
-49.8885

> <Gold.PLP.part.hbond>
-1.0000

> <Gold.PLP.part.metal>
0.0000

> <Gold.PLP.part.buried>
-5.9109

> <Gold.PLP.part.nonpolar>
-42.8500

> <Gold.PLP.part.repulsive>
0.0129

> <Gold.PLP.ligand.clash>
0.0000

> <Gold.PLP.ligand.torsion>
2.0643

> <Gold.PLP.Chemscore.Hbond>
1.0000

> <Gold.PLP.Chemscore.CHOScore>
0.0000

> <Gold.PLP.Chemscore.Metal>
0.0000

> <Gold.Chemscore.Hbonds>
donor molecule, donor type, donor heavy atom, donor atom, acceptor molecule, acceptor atom, score
      P1  H  7997  8008       L1     5  1.00

> <Gold.PLP.Chemscore.Internal.Correction>
0.0534

> <Gold.Rescore>
     Score         DG    S(hbond)    S(metal)    S(lipo)     H(rot)  DE(clash)    DE(int)     intcor
     14.68     -16.79       1.00        0.00     105.65       1.71       0.12       1.99       ----

> <Gold.Chemscore.Fitness>
14.6849

> <Gold.Chemscore.DG>
-16.7921

> <Gold.Chemscore.ZeroCoef>
-5.4800

> <Gold.Chemscore.Hbond>
0.9984

> <Gold.Chemscore.Metal>
0.0000

> <Gold.Chemscore.Lipo>
105.6523

> <Gold.Chemscore.Internal_Hbond>
0.0000

> <Gold.Chemscore.DEClash>
0.1188

> <Gold.Chemscore.DEInternal>
1.9883

> <Gold.Chemscore.Rot>
1.7125

> <Gold.Chemscore.Internal.Correction>
   9.000000E+99

> <Gold.Chemscore.Hbonds>
donor molecule, donor type, donor heavy atom, donor atom, acceptor molecule, acceptor atom, score
      P1  H  7997  8008       L1     5  1.00

> <Gold.Chemscore.Hbond.Weighted>
-3.3347

> <Gold.Chemscore.Metal.Weighted>
-0.0000

> <Gold.Chemscore.Lipo.Weighted>
-12.3613

> <Gold.Chemscore.Internal_Hbond.Weighted>
0.0000

> <Gold.Chemscore.DEClash.Weighted>
0.1188

> <Gold.Chemscore.DEInternal.Weighted>
1.9883

> <Gold.Chemscore.Rot.Weighted>
4.3840

> <Gold.Chemscore.Internal.Correction.Weighted>
   9.000000E+99

> <Gold.Protein.RotatedTorsions>
[ 6907 6896 6895 6894 ] final   98.94 input  -60.11 | X-H torsion
[ 7974 7965 7964 7962 ] final   42.58 input  175.53 | X-H torsion
[ 8008 7997 7996 7995 ] final  -48.97 input   59.86 | X-H torsion
[ 10167 10162 10161 10158 ] final  141.01 input  -65.29 | X-H torsion
[ 10718 10713 10712 10709 ] final -109.04 input   66.30 | X-H torsion
[ 10763 10752 10751 10750 ] final -172.56 input  -60.55 | X-H torsion
[ 11005 11000 10999 10996 ] final  159.86 input  -57.11 | X-H torsion

> <Gold.Protein.ActiveResidues>
 VAL166  LYS551  ARG553  GLY616  TRP617  ASP618  TYR619  PRO620  LYS621  CYS622 
 ASP623  PHE694  ASN695  SER759  ASP760  ASP761  ALA762  ILE779  LEU786  VAL792 
 PHE793  MET794  SER795  GLU796  ALA797  LYS798  CYS799  TRP800  GLU811  SER814 

> <Gold.Protein.RotatedAtoms>
  152.5401  134.0505  159.8107 H   0  0  0  0  0  0  0  0  0  0  0  0  # atno 6907 bound_to 6896
  151.0647  133.5507  159.2639 H   0  0  0  0  0  0  0  0  0  0  0  0  # atno 6908 bound_to 6896
  151.2393  135.0591  159.9072 H   0  0  0  0  0  0  0  0  0  0  0  0  # atno 6909 bound_to 6896
  146.0728  139.5284  142.9587 H   0  0  0  0  0  0  0  0  0  0  0  0  # atno 7974 bound_to 7965
  154.4037  140.1308  156.4426 H   0  0  0  0  0  0  0  0  0  0  0  0  # atno 8008 bound_to 7997
  155.7444  140.3489  155.5100 H   0  0  0  0  0  0  0  0  0  0  0  0  # atno 8009 bound_to 7997
  155.9009  140.1019  157.1341 H   0  0  0  0  0  0  0  0  0  0  0  0  # atno 8010 bound_to 7997
  139.5032  144.6198  151.6077 H   0  0  0  0  0  0  0  0  0  0  0  0  # atno 10167 bound_to 10162
  156.0516  130.5743  150.8044 H   0  0  0  0  0  0  0  0  0  0  0  0  # atno 10718 bound_to 10713
  154.6179  135.2872  155.0359 H   0  0  0  0  0  0  0  0  0  0  0  0  # atno 10763 bound_to 10752
  154.1565  135.6495  153.4979 H   0  0  0  0  0  0  0  0  0  0  0  0  # atno 10764 bound_to 10752
  153.0223  135.5368  154.6957 H   0  0  0  0  0  0  0  0  0  0  0  0  # atno 10765 bound_to 10752
  140.2003  134.8343  157.3010 H   0  0  0  0  0  0  0  0  0  0  0  0  # atno 11005 bound_to 11000
  145.6360  141.0294  143.1837 LP  0  0  0  0  0  0  0  0  0  0  0  0  # atno 17320 bound_to 7965
  144.7242  139.7929  143.7371 LP  0  0  0  0  0  0  0  0  0  0  0  0  # atno 17321 bound_to 7965
  140.5897  143.9801  150.6317 LP  0  0  0  0  0  0  0  0  0  0  0  0  # atno 17342 bound_to 10162
  140.2977  143.3281  152.1001 LP  0  0  0  0  0  0  0  0  0  0  0  0  # atno 17343 bound_to 10162
  157.5448  131.0942  150.9778 LP  0  0  0  0  0  0  0  0  0  0  0  0  # atno 17370 bound_to 10713
  157.0052  130.5615  149.5315 LP  0  0  0  0  0  0  0  0  0  0  0  0  # atno 17371 bound_to 10713
  140.2062  134.4194  155.7636 LP  0  0  0  0  0  0  0  0  0  0  0  0  # atno 17394 bound_to 11000
  141.2227  133.7096  156.8264 LP  0  0  0  0  0  0  0  0  0  0  0  0  # atno 17395 bound_to 11000

$$$$
