AV-unprocessed.smi:2833|AV-procd|sdf|10914|dock3
  -GOLD-   2272015363D 1   1.00000     0.00000
 Structure written by MMmdl.
 28 29  0  0  0  0  0  0  0  0  1 V2000
  153.6453  138.6782  155.5803 O   0  0  0  0  0  0  0  0  0  0  0  0
  152.2502  138.8532  155.4520 C   0  0  0  0  0  0  0  0  0  0  0  0
  151.8488  140.2672  155.8993 C   0  0  2  0  0  0  0  0  0  0  0  0
  152.1995  140.5139  157.3806 C   0  0  0  0  0  0  0  0  0  0  0  0
  151.7222  141.8264  157.7982 N   0  0  0  0  0  0  0  0  0  0  0  0
  152.1188  142.1864  159.0944 C   0  0  0  0  0  0  0  0  0  0  0  0
  152.5633  141.2098  159.9230 N   0  0  0  0  0  0  0  0  0  0  0  0
  152.9424  141.5537  161.1727 C   0  0  0  0  0  0  0  0  0  0  0  0
  152.8986  142.8762  161.6559 C   0  0  0  0  0  0  0  0  0  0  0  0
  153.3987  143.2451  163.2653 Cl  0  0  0  0  0  0  0  0  0  0  0  0
  152.4370  143.8900  160.7951 C   0  0  0  0  0  0  0  0  0  0  0  0
  152.0387  143.5400  159.4904 C   0  0  0  0  0  0  0  0  0  0  0  0
  151.5881  144.4902  158.6358 F   0  0  0  0  0  0  0  0  0  0  0  0
  150.2962  142.0037  157.5575 C   0  0  0  0  0  0  0  0  0  0  0  0
  149.9734  141.7051  156.0843 C   0  0  0  0  0  0  0  0  0  0  0  0
  150.4351  140.3985  155.7535 O   0  0  0  0  0  0  0  0  0  0  0  0
  153.9674  138.2488  154.8025 H   0  0  0  0  0  0  0  0  0  0  0  0
  151.9335  138.6556  154.4274 H   0  0  0  0  0  0  0  0  0  0  0  0
  151.7719  138.1071  156.0872 H   0  0  0  0  0  0  0  0  0  0  0  0
  152.3620  141.0076  155.2820 H   0  0  0  0  0  0  0  0  0  0  0  0
  151.7483  139.7406  158.0042 H   0  0  0  0  0  0  0  0  0  0  0  0
  153.2793  140.4569  157.5251 H   0  0  0  0  0  0  0  0  0  0  0  0
  153.2896  140.7496  161.8047 H   0  0  0  0  0  0  0  0  0  0  0  0
  152.3880  144.9165  161.1273 H   0  0  0  0  0  0  0  0  0  0  0  0
  149.7262  141.3345  158.2037 H   0  0  0  0  0  0  0  0  0  0  0  0
  150.0021  143.0240  157.8070 H   0  0  0  0  0  0  0  0  0  0  0  0
  148.8976  141.7556  155.9171 H   0  0  0  0  0  0  0  0  0  0  0  0
  150.4339  142.4438  155.4264 H   0  0  0  0  0  0  0  0  0  0  0  0
  1  2  1  0  0  0  0
  1 17  1  0  0  0  0
  2  3  1  0  0  0  0
  2 18  1  0  0  0  0
  2 19  1  0  0  0  0
  3 16  1  0  0  0  0
  3  4  1  0  0  0  0
  3 20  1  0  0  0  0
  4  5  1  0  0  0  0
  4 21  1  0  0  0  0
  4 22  1  0  0  0  0
  5  6  1  0  0  0  0
  5 14  1  0  0  0  0
  6 12  1  0  0  0  0
  6  7  2  0  0  0  0
  7  8  1  0  0  0  0
  8  9  2  0  0  0  0
  8 23  1  0  0  0  0
  9 10  1  0  0  0  0
  9 11  1  0  0  0  0
 11 12  2  0  0  0  0
 11 24  1  0  0  0  0
 12 13  1  0  0  0  0
 14 15  1  0  0  0  0
 14 25  1  0  0  0  0
 14 26  1  0  0  0  0
 15 16  1  0  0  0  0
 15 27  1  0  0  0  0
 15 28  1  0  0  0  0
M  END
> <s_m_source_file>
AV-unprocessed.smi

> <i_m_source_file_index>
2833

> <i_lp_mmshare_version>
43012

> <i_f3d_flags>
0

> <s_epik_input>
W09IXVtDSDJdW0NAQEhdMVtDSDJdTihbQ0gyXVtDSDJdTzEpYzJuW2NIXWMoQ2wpW2NIXWMyRg==

> <s_epik_cmdline>
J2VwaWtfcHl0aG9uJywgJy1waCcsICc3LjAnLCAnLXRuJywgJzgnLCAnLW1hJywgJzIwMCcsICctbWV0YWxfYmluZGluZycsICctaW1hZScsICc8aW5maWxlLm1hZT4nLCAnLW9tYWUnLCAnPG91dGZpbGUubWFlPic=

> <r_lp_tautomer_probability>
1

> <r_epik_Ionization_Penalty>
1.06846e-07

> <r_epik_Ionization_Penalty_Charging>
0

> <r_epik_Ionization_Penalty_Neutral>
1.06846e-07

> <r_epik_State_Penalty>
-0

> <r_epik_Charging_Adjusted_Penalty>
0

> <i_epik_Tot_Q>
0

> <i_epik_Tot_abs_Q>
0

> <r_epik_Metal_State_Penalty>
-0

> <b_epik_Metal_Only>
0

> <s_lp_Force_Field>
OPLS_2005

> <r_lp_Energy>
22.731

> <b_lp_Chiralities_Consistent>
1

> <s_lp_Variant>
AV-unprocessed.smi:2833-1

> <Gold.Version>
5.8.1

> <Gold.Id.Protein>
6NUR|6NUR_protein|mol2

> <Gold.PLP.Fitness>
39.6206

> <Gold.PLP.PLP>
-37.6929

> <Gold.PLP.part.hbond>
-1.0000

> <Gold.PLP.part.metal>
0.0000

> <Gold.PLP.part.buried>
-4.2130

> <Gold.PLP.part.nonpolar>
-31.1565

> <Gold.PLP.part.repulsive>
0.0526

> <Gold.PLP.ligand.clash>
0.0000

> <Gold.PLP.ligand.torsion>
0.2661

> <Gold.PLP.Chemscore.Hbond>
0.7840

> <Gold.PLP.Chemscore.CHOScore>
0.0000

> <Gold.PLP.Chemscore.Metal>
0.0000

> <Gold.Chemscore.Hbonds>
donor molecule, donor type, donor heavy atom, donor atom, acceptor molecule, acceptor atom, score
      P1  H  7997  8010       L1     1  0.78

> <Gold.PLP.Chemscore.Internal.Correction>
0.1080

> <Gold.Rescore>
     Score         DG    S(hbond)    S(metal)    S(lipo)     H(rot)  DE(clash)    DE(int)     intcor
     13.73     -14.20       0.80        0.00      90.61       1.78       0.02       0.46       ----

> <Gold.Chemscore.Fitness>
13.7306

> <Gold.Chemscore.DG>
-14.2039

> <Gold.Chemscore.ZeroCoef>
-5.4800

> <Gold.Chemscore.Hbond>
0.8001

> <Gold.Chemscore.Metal>
0.0000

> <Gold.Chemscore.Lipo>
90.6110

> <Gold.Chemscore.Internal_Hbond>
0.0000

> <Gold.Chemscore.DEClash>
0.0178

> <Gold.Chemscore.DEInternal>
0.4555

> <Gold.Chemscore.Rot>
1.7773

> <Gold.Chemscore.Internal.Correction>
   9.000000E+99

> <Gold.Chemscore.Hbonds>
donor molecule, donor type, donor heavy atom, donor atom, acceptor molecule, acceptor atom, score
      P1  H  7997  8010       L1     1  0.60

> <Gold.Chemscore.Hbond.Weighted>
-2.6723

> <Gold.Chemscore.Metal.Weighted>
-0.0000

> <Gold.Chemscore.Lipo.Weighted>
-10.6015

> <Gold.Chemscore.Internal_Hbond.Weighted>
0.0000

> <Gold.Chemscore.DEClash.Weighted>
0.0178

> <Gold.Chemscore.DEInternal.Weighted>
0.4555

> <Gold.Chemscore.Rot.Weighted>
4.5499

> <Gold.Chemscore.Internal.Correction.Weighted>
   9.000000E+99

> <Gold.Protein.RotatedTorsions>
[ 6907 6896 6895 6894 ] final    8.78 input  -60.11 | X-H torsion
[ 7974 7965 7964 7962 ] final -176.84 input  175.53 | X-H torsion
[ 8008 7997 7996 7995 ] final   83.57 input   59.86 | X-H torsion
[ 10167 10162 10161 10158 ] final  159.15 input  -65.29 | X-H torsion
[ 10718 10713 10712 10709 ] final -127.08 input   66.30 | X-H torsion
[ 10763 10752 10751 10750 ] final  140.35 input  -60.55 | X-H torsion
[ 11005 11000 10999 10996 ] final  -40.69 input  -57.11 | X-H torsion

> <Gold.Protein.ActiveResidues>
 VAL166  LYS551  ARG553  GLY616  TRP617  ASP618  TYR619  PRO620  LYS621  CYS622 
 ASP623  PHE694  ASN695  SER759  ASP760  ASP761  ALA762  ILE779  LEU786  VAL792 
 PHE793  MET794  SER795  GLU796  ALA797  LYS798  CYS799  TRP800  GLU811  SER814 

> <Gold.Protein.RotatedAtoms>
  151.7115  135.0912  160.0268 H   0  0  0  0  0  0  0  0  0  0  0  0  # atno 6907 bound_to 6896
  152.3659  133.6351  159.6058 H   0  0  0  0  0  0  0  0  0  0  0  0  # atno 6908 bound_to 6896
  150.7637  133.9266  159.3455 H   0  0  0  0  0  0  0  0  0  0  0  0  # atno 6909 bound_to 6896
  144.7127  140.1110  143.6411 H   0  0  0  0  0  0  0  0  0  0  0  0  # atno 7974 bound_to 7965
  155.9256  140.3418  155.6208 H   0  0  0  0  0  0  0  0  0  0  0  0  # atno 8008 bound_to 7997
  155.7220  140.0784  157.2345 H   0  0  0  0  0  0  0  0  0  0  0  0  # atno 8009 bound_to 7997
  154.4076  140.1604  156.2400 H   0  0  0  0  0  0  0  0  0  0  0  0  # atno 8010 bound_to 7997
  139.4830  144.4757  151.8514 H   0  0  0  0  0  0  0  0  0  0  0  0  # atno 10167 bound_to 10162
  156.1824  130.6741  151.0322 H   0  0  0  0  0  0  0  0  0  0  0  0  # atno 10718 bound_to 10713
  153.9213  135.3000  155.3447 H   0  0  0  0  0  0  0  0  0  0  0  0  # atno 10763 bound_to 10752
  154.7574  135.4951  153.9403 H   0  0  0  0  0  0  0  0  0  0  0  0  # atno 10764 bound_to 10752
  153.1140  135.6766  153.9553 H   0  0  0  0  0  0  0  0  0  0  0  0  # atno 10765 bound_to 10752
  141.0192  133.6870  156.2355 H   0  0  0  0  0  0  0  0  0  0  0  0  # atno 11005 bound_to 11000
  145.9455  139.2697  143.1243 LP  0  0  0  0  0  0  0  0  0  0  0  0  # atno 17320 bound_to 7965
  145.9379  140.9001  143.0323 LP  0  0  0  0  0  0  0  0  0  0  0  0  # atno 17321 bound_to 7965
  140.4229  144.2218  150.5887 LP  0  0  0  0  0  0  0  0  0  0  0  0  # atno 17342 bound_to 10162
  140.4855  143.2364  151.8893 LP  0  0  0  0  0  0  0  0  0  0  0  0  # atno 17343 bound_to 10162
  157.6877  131.0820  150.7197 LP  0  0  0  0  0  0  0  0  0  0  0  0  # atno 17370 bound_to 10713
  156.7254  130.4693  149.5512 LP  0  0  0  0  0  0  0  0  0  0  0  0  # atno 17371 bound_to 10713
  140.6602  134.4976  157.5583 LP  0  0  0  0  0  0  0  0  0  0  0  0  # atno 17394 bound_to 11000
  139.9136  134.8293  156.1443 LP  0  0  0  0  0  0  0  0  0  0  0  0  # atno 17395 bound_to 11000

$$$$
