#       Name:                AV-unprocessed.smi:3348
#       Creating user name   scv26
#       Creation time:       Fri Mar 27 19:34:17 2020


#       File generated by GOLD software.
#

@<TRIPOS>MOLECULE
AV-unprocessed.smi:3348
    50    51     1
SMALL
NO_CHARGES


@<TRIPOS>ATOM
      1 ****        -1.9529   3.2144   0.9006 C.3            1 S1                 0.0000
      2 ****        -1.1325   3.0156  -0.3843 C.3            1 S1                 0.0000
      3 ****        -2.0283   3.1424  -1.6319 C.3            1 S1                 0.0000
      4 ****        -1.2585   3.1801  -2.8629 N.pl3          1 S1                 0.0000
      5 ****        -0.7859   4.2834  -3.5423 C.2            1 S1                 0.0000
      6 ****        -0.1141   3.8273  -4.6399 C.2            1 S1                 0.0000
      7 ****        -0.2326   2.4124  -4.5458 C.2            1 S1                 0.0000
      8 ****        -0.9156   2.0277  -3.4792 N.2            1 S1                 0.0000
      9 ****        -0.4533   1.7001  -0.3723 N.4            1 S1                 1.0000
     10 ****         0.7856   1.6382   0.4304 C.3            1 S1                 0.0000
     11 ****         1.3985   0.2354   0.3805 C.3            1 S1                 0.0000
     12 ****         0.5507  -0.6501   1.0968 O.3            1 S1                 0.0000
     13 ****         0.9858  -2.0045   1.1110 C.3            1 S1                 0.0000
     14 ****         2.0424  -2.2009   2.2194 C.3            1 S1                 0.0000
     15 ****         2.4431  -3.6764   2.3631 C.3            1 S1                 0.0000
     16 ****         1.2137  -4.5585   2.6192 C.3            1 S1                 0.0000
     17 ****         0.1625  -4.3735   1.5146 C.3            1 S1                 0.0000
     18 ****        -0.2520  -2.8962   1.3608 C.3            1 S1                 0.0000
     19 ****        -1.3000  -2.7417   0.2464 C.3            1 S1                 0.0000
     20 ****        -2.4581   4.1806   0.8956 H              1 S1                 0.0000
     21 ****        -1.3247   3.1860   1.7907 H              1 S1                 0.0000
     22 ****        -2.7165   2.4431   1.0066 H              1 S1                 0.0000
     23 ****        -0.3746   3.7992  -0.4354 H              1 S1                 0.0000
     24 ****        -2.7448   2.3207  -1.6830 H              1 S1                 0.0000
     25 ****        -2.6145   4.0610  -1.5799 H              1 S1                 0.0000
     26 ****        -0.9645   5.2897  -3.1924 H              1 S1                 0.0000
     27 ****         0.3846   4.4150  -5.3964 H              1 S1                 0.0000
     28 ****         0.1559   1.6595  -5.2156 H              1 S1                 0.0000
     29 ****        -1.1014   1.0002  -0.0395 H              1 S1                 0.0000
     30 ****         1.4977   2.3602   0.0296 H              1 S1                 0.0000
     31 ****         0.5890   1.9202   1.4646 H              1 S1                 0.0000
     32 ****         1.5174  -0.0917  -0.6539 H              1 S1                 0.0000
     33 ****         2.3896   0.2577   0.8332 H              1 S1                 0.0000
     34 ****         1.4147  -2.2733   0.1436 H              1 S1                 0.0000
     35 ****         2.9335  -1.6089   2.0127 H              1 S1                 0.0000
     36 ****         1.6465  -1.8395   3.1696 H              1 S1                 0.0000
     37 ****         2.9509  -4.0082   1.4566 H              1 S1                 0.0000
     38 ****         3.1579  -3.7902   3.1785 H              1 S1                 0.0000
     39 ****         1.5120  -5.6056   2.6773 H              1 S1                 0.0000
     40 ****         0.7770  -4.3069   3.5863 H              1 S1                 0.0000
     41 ****         0.5613  -4.7451   0.5696 H              1 S1                 0.0000
     42 ****        -0.7120  -4.9846   1.7410 H              1 S1                 0.0000
     43 ****        -0.7148  -2.5807   2.2974 H              1 S1                 0.0000
     44 ****        -0.8908  -3.0239  -0.7240 H              1 S1                 0.0000
     45 ****        -1.6544  -1.7134   0.1722 H              1 S1                 0.0000
     46 ****        -2.1690  -3.3721   0.4367 H              1 S1                 0.0000
     47 ****        -0.2060   1.4761  -1.3265 H              1 S1                 0.0000
     48 ****        -1.1297   1.0936  -3.1936 LP             1 S1                 0.0000
     49 ****        -0.3574  -0.6186   0.6793 LP             1 S1                 0.0000
     50 ****         0.4940  -0.3308   2.0427 LP             1 S1                 0.0000
@<TRIPOS>BOND
    1    1    2 1     
    2    1   20 1     
    3    1   21 1     
    4    1   22 1     
    5    2    3 1     
    6    2    9 1     
    7    2   23 1     
    8    3    4 1     
    9    3   24 1     
   10    3   25 1     
   11    4    8 1     
   12    4    5 1     
   13    5    6 2     
   14    5   26 1     
   15    6    7 1     
   16    6   27 1     
   17    7    8 2     
   18    7   28 1     
   19    9   10 1     
   20    9   29 1     
   21    9   47 1     
   22   10   11 1     
   23   10   30 1     
   24   10   31 1     
   25   11   12 1     
   26   11   32 1     
   27   11   33 1     
   28   12   13 1     
   29   13   18 1     
   30   13   14 1     
   31   13   34 1     
   32   14   15 1     
   33   14   35 1     
   34   14   36 1     
   35   15   16 1     
   36   15   37 1     
   37   15   38 1     
   38   16   17 1     
   39   16   39 1     
   40   16   40 1     
   41   17   18 1     
   42   17   41 1     
   43   17   42 1     
   44   18   19 1     
   45   18   43 1     
   46   19   44 1     
   47   19   45 1     
   48   19   46 1     
   49    8   48 1     
   50   12   49 1     
   51   12   50 1     
@<TRIPOS>SUBSTRUCTURE
      1 S1             1
@<TRIPOS>SET
LONE_PAIRS      STATIC     ATOMS    <user>   **** ""
3 48 49 50
DONOR_HYDROGENS      STATIC     ATOMS    <user>   **** ""
2 29 47
ATOM$BLUE        STATIC     ATOMS    COLORGROUP SYSTEM
3 48 49 50
ATOM$RED        STATIC     ATOMS    COLORGROUP SYSTEM
2 29 47
