AV-unprocessed.smi:199|AV-procd|sdf|1561|dock7
  -GOLD-   2262019433D 1   1.00000     0.00000
 Structure written by MMmdl.
 51 55  0  0  0  0  0  0  0  0  1 V2000
  150.6775  140.3245  155.5311 C   0  0  0  0  0  0  0  0  0  0  0  0
  149.2044  140.5429  155.1489 C   0  0  1  0  0  0  0  0  0  0  0  0
  149.0697  141.6761  154.3035 O   0  0  0  0  0  0  0  0  0  0  0  0
  147.7952  141.5871  153.6929 C   0  0  0  0  0  0  0  0  0  0  0  0
  147.7162  140.1195  153.2901 C   0  0  0  0  0  0  0  0  0  0  0  0
  148.4903  139.3903  154.3930 C   0  0  1  0  0  0  0  0  0  0  0  0
  149.4182  138.5136  153.7750 O   0  0  0  0  0  0  0  0  0  0  0  0
  147.5584  138.5475  155.2982 C   0  0  0  0  0  0  0  0  0  0  0  0
  147.2227  137.2482  154.7353 N   0  0  0  0  0  0  0  0  0  0  0  0
  147.8584  136.0524  154.9797 C   0  0  0  0  0  0  0  0  0  0  0  0
  147.3610  135.0210  154.3546 N   0  0  0  0  0  0  0  0  0  0  0  0
  146.3025  135.5414  153.6187 C   0  0  0  0  0  0  0  0  0  0  0  0
  145.3403  134.9868  152.7256 C   0  0  0  0  0  0  0  0  0  0  0  0
  145.2810  133.6648  152.4073 N   0  0  0  0  0  0  0  0  0  0  0  0
  144.2362  133.1738  151.5240 C   0  0  1  0  0  0  0  0  0  0  0  0
  144.6736  133.6503  150.1248 C   0  0  0  0  0  0  0  0  0  0  0  0
  146.2022  133.5388  150.2332 C   0  0  0  0  0  0  0  0  0  0  0  0
  146.3650  133.0187  151.6783 C   0  0  2  0  0  0  0  0  0  0  0  0
  145.9599  131.5283  151.7140 C   0  0  1  0  0  0  0  0  0  0  0  0
  146.4263  130.7936  152.9841 C   0  0  0  0  0  0  0  0  0  0  0  0
  147.8273  130.8962  153.1259 O   0  0  0  0  0  0  0  0  0  0  0  0
  144.4246  131.6507  151.6223 C   0  0  0  0  0  0  0  0  0  0  0  0
  144.4600  135.8479  152.1482 N   0  0  0  0  0  0  0  0  0  0  0  0
  144.4909  137.1500  152.4427 C   0  0  0  0  0  0  0  0  0  0  0  0
  145.3139  137.7979  153.2679 N   0  0  0  0  0  0  0  0  0  0  0  0
  146.2146  136.9465  153.8360 C   0  0  0  0  0  0  0  0  0  0  0  0
  150.7929  139.4503  156.1721 H   0  0  0  0  0  0  0  0  0  0  0  0
  151.0649  141.1859  156.0752 H   0  0  0  0  0  0  0  0  0  0  0  0
  151.3044  140.1848  154.6503 H   0  0  0  0  0  0  0  0  0  0  0  0
  148.6456  140.7800  156.0549 H   0  0  0  0  0  0  0  0  0  0  0  0
  147.0197  141.8377  154.4185 H   0  0  0  0  0  0  0  0  0  0  0  0
  147.7061  142.2636  152.8429 H   0  0  0  0  0  0  0  0  0  0  0  0
  146.6860  139.7782  153.1822 H   0  0  0  0  0  0  0  0  0  0  0  0
  148.2024  139.9958  152.3207 H   0  0  0  0  0  0  0  0  0  0  0  0
  148.9368  137.8528  153.3012 H   0  0  0  0  0  0  0  0  0  0  0  0
  148.0295  138.3873  156.2688 H   0  0  0  0  0  0  0  0  0  0  0  0
  146.6300  139.0846  155.4974 H   0  0  0  0  0  0  0  0  0  0  0  0
  148.7043  135.9664  155.6458 H   0  0  0  0  0  0  0  0  0  0  0  0
  143.2214  133.4744  151.7785 H   0  0  0  0  0  0  0  0  0  0  0  0
  144.2584  133.0381  149.3234 H   0  0  0  0  0  0  0  0  0  0  0  0
  144.3750  134.6851  149.9522 H   0  0  0  0  0  0  0  0  0  0  0  0
  146.6334  132.8663  149.4908 H   0  0  0  0  0  0  0  0  0  0  0  0
  146.6683  134.5167  150.1082 H   0  0  0  0  0  0  0  0  0  0  0  0
  147.3605  133.1967  152.0871 H   0  0  0  0  0  0  0  0  0  0  0  0
  146.3492  130.9998  150.8422 H   0  0  0  0  0  0  0  0  0  0  0  0
  145.9426  131.1986  153.8737 H   0  0  0  0  0  0  0  0  0  0  0  0
  146.1651  129.7366  152.9265 H   0  0  0  0  0  0  0  0  0  0  0  0
  148.2333  130.5779  152.3340 H   0  0  0  0  0  0  0  0  0  0  0  0
  143.9404  131.2657  152.5210 H   0  0  0  0  0  0  0  0  0  0  0  0
  144.0084  131.1195  150.7653 H   0  0  0  0  0  0  0  0  0  0  0  0
  143.7503  137.7591  151.9457 H   0  0  0  0  0  0  0  0  0  0  0  0
  1  2  1  0  0  0  0
  1 27  1  0  0  0  0
  1 28  1  0  0  0  0
  1 29  1  0  0  0  0
  2  6  1  0  0  0  0
  2  3  1  0  0  0  0
  2 30  1  0  0  0  0
  3  4  1  0  0  0  0
  4  5  1  0  0  0  0
  4 31  1  0  0  0  0
  4 32  1  0  0  0  0
  5  6  1  0  0  0  0
  5 33  1  0  0  0  0
  5 34  1  0  0  0  0
  6  7  1  0  0  0  0
  6  8  1  0  0  0  0
  7 35  1  0  0  0  0
  8  9  1  0  0  0  0
  8 36  1  0  0  0  0
  8 37  1  0  0  0  0
  9 26  1  0  0  0  0
  9 10  1  0  0  0  0
 10 11  2  0  0  0  0
 10 38  1  0  0  0  0
 11 12  1  0  0  0  0
 12 26  2  0  0  0  0
 12 13  1  0  0  0  0
 13 14  1  0  0  0  0
 13 23  2  0  0  0  0
 14 18  1  0  0  0  0
 14 15  1  0  0  0  0
 15 22  1  0  0  0  0
 15 16  1  0  0  0  0
 15 39  1  0  0  0  0
 16 17  1  0  0  0  0
 16 40  1  0  0  0  0
 16 41  1  0  0  0  0
 17 18  1  0  0  0  0
 17 42  1  0  0  0  0
 17 43  1  0  0  0  0
 18 19  1  0  0  0  0
 18 44  1  0  0  0  0
 19 20  1  0  0  0  0
 19 22  1  0  0  0  0
 19 45  1  0  0  0  0
 20 21  1  0  0  0  0
 20 46  1  0  0  0  0
 20 47  1  0  0  0  0
 21 48  1  0  0  0  0
 22 49  1  0  0  0  0
 22 50  1  0  0  0  0
 23 24  1  0  0  0  0
 24 25  2  0  0  0  0
 24 51  1  0  0  0  0
 25 26  1  0  0  0  0
M  END
> <s_m_source_file>
AV-unprocessed.smi

> <i_m_source_file_index>
199

> <i_lp_mmshare_version>
43012

> <i_f3d_flags>
0

> <s_epik_input>
W0NIMl0xW0NIMl1PW0NAQEhdKFtDSDNdKVtDQEBdMShbT0hdKVtDSDJdbihbY0hdbjIpYyhjMjMpbltjSF1uYzNOKFtDQEBIXTQ1KVtDQEhdKFtDSDJdW0NIMl00KVtDQEhdKFtDSDJdNSlbQ0gyXVtPSF0=

> <s_epik_cmdline>
J2VwaWtfcHl0aG9uJywgJy1waCcsICc3LjAnLCAnLXRuJywgJzgnLCAnLW1hJywgJzIwMCcsICctbWV0YWxfYmluZGluZycsICctaW1hZScsICc8aW5maWxlLm1hZT4nLCAnLW9tYWUnLCAnPG91dGZpbGUubWFlPic=

> <r_lp_tautomer_probability>
1

> <r_epik_Ionization_Penalty>
0.00583903

> <r_epik_Ionization_Penalty_Charging>
0

> <r_epik_Ionization_Penalty_Neutral>
0.00583903

> <r_epik_State_Penalty>
-0

> <r_epik_Charging_Adjusted_Penalty>
0

> <i_epik_Tot_Q>
0

> <i_epik_Tot_abs_Q>
0

> <r_epik_Metal_State_Penalty>
-0

> <b_epik_Metal_Only>
0

> <s_lp_Force_Field>
OPLS_2005

> <r_lp_Energy>
83.4271

> <b_lp_Chiralities_Consistent>
1

> <s_lp_Variant>
AV-unprocessed.smi:199-2

> <Gold.Version>
5.8.1

> <Gold.Id.Protein>
6NUR|6NUR_protein|mol2

> <Gold.PLP.Fitness>
40.2967

> <Gold.PLP.PLP>
-30.6272

> <Gold.PLP.part.hbond>
-4.8812

> <Gold.PLP.part.metal>
0.0000

> <Gold.PLP.part.buried>
5.2737

> <Gold.PLP.part.nonpolar>
-28.3339

> <Gold.PLP.part.repulsive>
0.9737

> <Gold.PLP.ligand.clash>
0.0000

> <Gold.PLP.ligand.torsion>
0.7270

> <Gold.PLP.Chemscore.Hbond>
2.0093

> <Gold.PLP.Chemscore.CHOScore>
1.6825

> <Gold.PLP.Chemscore.Metal>
0.0000

> <Gold.Chemscore.Hbonds>
donor molecule, donor type, donor heavy atom, donor atom, acceptor molecule, acceptor atom, score
      L1  H     7    35       P1  7948  0.67
      L1  H    21    48       P1 10747  0.62
      P1  H  8011  8017       L1     3  0.08
      L1  C    24    51       P1 10171  0.95
      L1  C    24    51       P1 10175  0.42

> <Gold.PLP.Chemscore.Internal.Correction>
0.0481

> <Gold.Rescore>
     Score         DG    S(hbond)    S(metal)    S(lipo)     H(rot)  DE(clash)    DE(int)     intcor
     10.72     -13.57       1.92        0.00      81.59       3.07       1.39       1.46       ----

> <Gold.Chemscore.Fitness>
10.7186

> <Gold.Chemscore.DG>
-13.5709

> <Gold.Chemscore.ZeroCoef>
-5.4800

> <Gold.Chemscore.Hbond>
1.9197

> <Gold.Chemscore.Metal>
0.0000

> <Gold.Chemscore.Lipo>
81.5883

> <Gold.Chemscore.Internal_Hbond>
0.0000

> <Gold.Chemscore.DEClash>
1.3914

> <Gold.Chemscore.DEInternal>
1.4609

> <Gold.Chemscore.Rot>
3.0729

> <Gold.Chemscore.Internal.Correction>
   9.000000E+99

> <Gold.Chemscore.Hbonds>
donor molecule, donor type, donor heavy atom, donor atom, acceptor molecule, acceptor atom, score
      L1  H     7    35       P1  7948  0.64
      L1  H    21    48       P1 10747  0.56

> <Gold.Chemscore.Hbond.Weighted>
-6.4118

> <Gold.Chemscore.Metal.Weighted>
-0.0000

> <Gold.Chemscore.Lipo.Weighted>
-9.5458

> <Gold.Chemscore.Internal_Hbond.Weighted>
0.0000

> <Gold.Chemscore.DEClash.Weighted>
1.3914

> <Gold.Chemscore.DEInternal.Weighted>
1.4609

> <Gold.Chemscore.Rot.Weighted>
7.8667

> <Gold.Chemscore.Internal.Correction.Weighted>
   9.000000E+99

> <Gold.Protein.RotatedTorsions>
[ 6907 6896 6895 6894 ] final   74.23 input  -60.11 | X-H torsion
[ 7974 7965 7964 7962 ] final  -12.00 input  175.53 | X-H torsion
[ 8008 7997 7996 7995 ] final   -6.04 input   59.86 | X-H torsion
[ 10167 10162 10161 10158 ] final  -28.39 input  -65.29 | X-H torsion
[ 10718 10713 10712 10709 ] final  101.69 input   66.30 | X-H torsion
[ 10763 10752 10751 10750 ] final -141.19 input  -60.55 | X-H torsion
[ 11005 11000 10999 10996 ] final   95.97 input  -57.11 | X-H torsion

> <Gold.Protein.ActiveResidues>
 VAL166  LYS551  ARG553  GLY616  TRP617  ASP618  TYR619  PRO620  LYS621  CYS622 
 ASP623  PHE694  ASN695  SER759  ASP760  ASP761  ALA762  ILE779  LEU786  VAL792 
 PHE793  MET794  SER795  GLU796  ALA797  LYS798  CYS799  TRP800  GLU811  SER814 

> <Gold.Protein.RotatedAtoms>
  152.4965  134.4302  159.9509 H   0  0  0  0  0  0  0  0  0  0  0  0  # atno 6907 bound_to 6896
  151.4280  133.3672  159.2772 H   0  0  0  0  0  0  0  0  0  0  0  0  # atno 6908 bound_to 6896
  150.9175  134.8615  159.7526 H   0  0  0  0  0  0  0  0  0  0  0  0  # atno 6909 bound_to 6896
  146.2167  140.2994  142.8374 H   0  0  0  0  0  0  0  0  0  0  0  0  # atno 7974 bound_to 7965
  154.5978  140.2443  155.7833 H   0  0  0  0  0  0  0  0  0  0  0  0  # atno 8008 bound_to 7997
  156.2291  140.2973  156.0094 H   0  0  0  0  0  0  0  0  0  0  0  0  # atno 8009 bound_to 7997
  155.2263  140.0402  157.2946 H   0  0  0  0  0  0  0  0  0  0  0  0  # atno 8010 bound_to 7997
  140.7270  143.4014  151.1259 H   0  0  0  0  0  0  0  0  0  0  0  0  # atno 10167 bound_to 10162
  157.6822  131.0733  150.5291 H   0  0  0  0  0  0  0  0  0  0  0  0  # atno 10718 bound_to 10713
  154.8554  135.3531  154.5827 H   0  0  0  0  0  0  0  0  0  0  0  0  # atno 10763 bound_to 10752
  153.6438  135.6997  153.5237 H   0  0  0  0  0  0  0  0  0  0  0  0  # atno 10764 bound_to 10752
  153.2949  135.4223  155.1159 H   0  0  0  0  0  0  0  0  0  0  0  0  # atno 10765 bound_to 10752
  139.8785  134.8926  156.4089 H   0  0  0  0  0  0  0  0  0  0  0  0  # atno 11005 bound_to 11000
  144.9069  140.7710  143.5832 LP  0  0  0  0  0  0  0  0  0  0  0  0  # atno 17320 bound_to 7965
  145.2922  139.1879  143.4734 LP  0  0  0  0  0  0  0  0  0  0  0  0  # atno 17321 bound_to 7965
  139.7634  143.8601  152.3105 LP  0  0  0  0  0  0  0  0  0  0  0  0  # atno 17342 bound_to 10162
  139.8495  144.7171  150.9232 LP  0  0  0  0  0  0  0  0  0  0  0  0  # atno 17343 bound_to 10162
  156.5601  130.4253  149.6067 LP  0  0  0  0  0  0  0  0  0  0  0  0  # atno 17370 bound_to 10713
  156.2828  130.7080  151.1909 LP  0  0  0  0  0  0  0  0  0  0  0  0  # atno 17371 bound_to 10713
  140.9214  133.7642  155.9911 LP  0  0  0  0  0  0  0  0  0  0  0  0  # atno 17394 bound_to 11000
  140.8435  134.3038  157.5304 LP  0  0  0  0  0  0  0  0  0  0  0  0  # atno 17395 bound_to 11000

$$$$
