#       Name:                AV-unprocessed.smi:155
#       Creating user name   scv26
#       Creation time:       Thu Mar 26 18:55:36 2020


#       File generated by GOLD software.
#

@<TRIPOS>MOLECULE
AV-unprocessed.smi:155
    71    74     1
SMALL
NO_CHARGES


@<TRIPOS>ATOM
      1 ****        -6.7231   1.0834  -1.5485 C.3            1 S1                 0.0000
      2 ****        -6.6606   1.9284  -0.3326 N.4            1 S1                 1.0000
      3 ****        -7.2406   3.2680  -0.5791 C.3            1 S1                 0.0000
      4 ****        -5.3005   2.0083   0.2615 C.3            1 S1                 0.0000
      5 ****        -4.9100   0.7286   1.0324 C.3            1 S1                 0.0000
      6 ****        -3.5110   0.7581   1.5376 N.4            1 S1                 1.0000
      7 ****        -3.2697   1.8390   2.5383 C.3            1 S1                 0.0000
      8 ****        -1.9478   1.6997   3.3216 C.3            1 S1                 0.0000
      9 ****        -0.7005   1.5667   2.4327 C.3            1 S1                 0.0000
     10 ****        -0.7792   0.4588   1.4787 N.pl3          1 S1                 0.0000
     11 ****         0.2778   0.3653   0.6348 C.ar           1 S1                 0.0000
     12 ****         0.4916   1.4036  -0.2136 N.ar           1 S1                 0.0000
     13 ****         1.5146   1.3728  -1.0730 C.ar           1 S1                 0.0000
     14 ****         2.4313   0.4188  -1.2449 N.ar           1 S1                 0.0000
     15 ****         2.2273  -0.6229  -0.3893 C.ar           1 S1                 0.0000
     16 ****         1.1849  -0.7332   0.5748 C.ar           1 S1                 0.0000
     17 ****         1.3139  -1.9320   1.2687 N.2            1 S1                 0.0000
     18 ****         2.3638  -2.4994   0.7400 C.2            1 S1                 0.0000
     19 ****         2.9747  -1.7792  -0.2604 N.pl3          1 S1                 0.0000
     20 ****         4.1558  -2.1622  -1.0130 C.3            1 S1                 0.0000
     21 ****         5.4190  -1.4130  -0.5387 C.3            1 S1                 0.0000
     22 ****         5.6593  -1.6623   0.8325 O.3            1 S1                 0.0000
     23 ****         6.6942  -1.7472  -1.3398 C.3            1 S1                 0.0000
     24 ****         6.7739  -1.0566  -2.7028 C.3            1 S1                 0.0000
     25 ****         7.7201  -1.9674  -3.4509 C.3            1 S1                 0.0000
     26 ****         7.2835  -3.3417  -2.9532 C.3            1 S1                 0.0000
     27 ****         6.7873  -3.1411  -1.6322 O.3            1 S1                 0.0000
     28 ****        -1.5028  -0.7707   1.8152 C.3            1 S1                 0.0000
     29 ****        -3.0323  -0.5822   1.9793 C.3            1 S1                 0.0000
     30 ****        -6.0848   1.4844  -2.3371 H              1 S1                 0.0000
     31 ****        -7.7435   1.0384  -1.9312 H              1 S1                 0.0000
     32 ****        -6.4126   0.0592  -1.3459 H              1 S1                 0.0000
     33 ****        -6.6434   3.8253  -1.3025 H              1 S1                 0.0000
     34 ****        -7.2895   3.8470   0.3440 H              1 S1                 0.0000
     35 ****        -8.2566   3.1848  -0.9672 H              1 S1                 0.0000
     36 ****        -4.5715   2.2290  -0.5200 H              1 S1                 0.0000
     37 ****        -5.2792   2.8519   0.9520 H              1 S1                 0.0000
     38 ****        -5.5976   0.5564   1.8617 H              1 S1                 0.0000
     39 ****        -5.0092  -0.1262   0.3648 H              1 S1                 0.0000
     40 ****        -3.2719   2.8004   2.0246 H              1 S1                 0.0000
     41 ****        -4.0941   1.8612   3.2526 H              1 S1                 0.0000
     42 ****        -1.8273   2.5765   3.9585 H              1 S1                 0.0000
     43 ****        -2.0001   0.8589   4.0140 H              1 S1                 0.0000
     44 ****        -0.5600   2.5033   1.8915 H              1 S1                 0.0000
     45 ****         0.1830   1.4334   3.0586 H              1 S1                 0.0000
     46 ****         1.6142   2.2367  -1.7139 H              1 S1                 0.0000
     47 ****         2.7281  -3.4613   1.0715 H              1 S1                 0.0000
     48 ****         4.2897  -3.2406  -0.9187 H              1 S1                 0.0000
     49 ****         3.9634  -1.9639  -2.0676 H              1 S1                 0.0000
     50 ****         5.2443  -0.3392  -0.6188 H              1 S1                 0.0000
     51 ****         4.9059  -1.3744   1.3248 H              1 S1                 0.0000
     52 ****         7.5820  -1.4637  -0.7710 H              1 S1                 0.0000
     53 ****         5.8023  -1.0465  -3.1980 H              1 S1                 0.0000
     54 ****         7.1325  -0.0289  -2.6372 H              1 S1                 0.0000
     55 ****         7.6529  -1.8635  -4.5342 H              1 S1                 0.0000
     56 ****         8.7494  -1.7664  -3.1498 H              1 S1                 0.0000
     57 ****         6.4723  -3.7306  -3.5699 H              1 S1                 0.0000
     58 ****         8.0977  -4.0666  -2.9677 H              1 S1                 0.0000
     59 ****        -1.3459  -1.5038   1.0228 H              1 S1                 0.0000
     60 ****        -1.0786  -1.2047   2.7215 H              1 S1                 0.0000
     61 ****        -3.3384  -0.7596   3.0114 H              1 S1                 0.0000
     62 ****        -3.5178  -1.3684   1.4003 H              1 S1                 0.0000
     63 ****        -7.2559   1.4934   0.3581 H              1 S1                 0.0000
     64 ****        -2.9334   0.9814   0.7391 H              1 S1                 0.0000
     65 ****        -0.1193   2.1951  -0.1953 LP             1 S1                 0.0000
     66 ****         3.1724   0.4622  -1.9148 LP             1 S1                 0.0000
     67 ****         0.7339  -2.2800   2.0053 LP             1 S1                 0.0000
     68 ****         6.4700  -1.1583   1.1304 LP             1 S1                 0.0000
     69 ****         5.8035  -2.6412   0.9776 LP             1 S1                 0.0000
     70 ****         5.8802  -3.5549  -1.5549 LP             1 S1                 0.0000
     71 ****         7.4078  -3.5739  -0.9782 LP             1 S1                 0.0000
@<TRIPOS>BOND
    1    1    2 1     
    2    1   30 1     
    3    1   31 1     
    4    1   32 1     
    5    2    3 1     
    6    2    4 1     
    7    2   63 1     
    8    3   33 1     
    9    3   34 1     
   10    3   35 1     
   11    4    5 1     
   12    4   36 1     
   13    4   37 1     
   14    5    6 1     
   15    5   38 1     
   16    5   39 1     
   17    6   29 1     
   18    6    7 1     
   19    6   64 1     
   20    7    8 1     
   21    7   40 1     
   22    7   41 1     
   23    8    9 1     
   24    8   42 1     
   25    8   43 1     
   26    9   10 1     
   27    9   44 1     
   28    9   45 1     
   29   10   11 1     
   30   10   28 1     
   31   11   16 ar    
   32   11   12 ar    
   33   12   13 ar    
   34   13   14 ar    
   35   13   46 1     
   36   14   15 ar    
   37   15   19 1     
   38   15   16 ar    
   39   16   17 1     
   40   17   18 2     
   41   18   19 1     
   42   18   47 1     
   43   19   20 1     
   44   20   21 1     
   45   20   48 1     
   46   20   49 1     
   47   21   22 1     
   48   21   23 1     
   49   21   50 1     
   50   22   51 1     
   51   23   27 1     
   52   23   24 1     
   53   23   52 1     
   54   24   25 1     
   55   24   53 1     
   56   24   54 1     
   57   25   26 1     
   58   25   55 1     
   59   25   56 1     
   60   26   27 1     
   61   26   57 1     
   62   26   58 1     
   63   28   29 1     
   64   28   59 1     
   65   28   60 1     
   66   29   61 1     
   67   29   62 1     
   68   12   65 1     
   69   14   66 1     
   70   17   67 1     
   71   22   68 1     
   72   22   69 1     
   73   27   70 1     
   74   27   71 1     
@<TRIPOS>SUBSTRUCTURE
      1 S1             1
@<TRIPOS>SET
LONE_PAIRS      STATIC     ATOMS    <user>   **** ""
7 65 66 67 68 69 70 71
DONOR_HYDROGENS      STATIC     ATOMS    <user>   **** ""
3 63 64 51
ATOM$BLUE        STATIC     ATOMS    COLORGROUP SYSTEM
7 65 66 67 68 69 70 71
ATOM$RED        STATIC     ATOMS    COLORGROUP SYSTEM
3 63 64 51
