#       Name:                AV-unprocessed.smi:710
#       Creating user name   scv26
#       Creation time:       Fri Mar 27 00:45:14 2020


#       File generated by GOLD software.
#

@<TRIPOS>MOLECULE
AV-unprocessed.smi:710
    45    46     1
SMALL
NO_CHARGES


@<TRIPOS>ATOM
      1 ****        -2.4251   3.4359   1.4226 C.3            1 S1                 0.0000
      2 ****        -2.7289   1.9661   1.3577 C.2            1 S1                 0.0000
      3 ****        -3.9790   1.5793   1.1700 N.2            1 S1                 0.0000
      4 ****        -3.9276   0.2331   1.1568 N.pl3          1 S1                 0.0000
      5 ****        -5.1611  -0.5046   0.9601 C.3            1 S1                 0.0000
      6 ****        -2.6384  -0.2339   1.3385 C.2            1 S1                 0.0000
      7 ****        -2.3074  -1.6921   1.3597 C.3            1 S1                 0.0000
      8 ****        -1.8303   0.8643   1.4740 C.2            1 S1                 0.0000
      9 ****        -0.3388   0.9168   1.6913 C.3            1 S1                 0.0000
     10 ****         0.3741   1.0016   0.3418 C.2            1 S1                 0.0000
     11 ****         0.6724   2.0990  -0.1280 O.2            1 S1                 0.0000
     12 ****         0.6340  -0.1634  -0.2705 N.am           1 S1                 0.0000
     13 ****         1.2925  -0.3088  -1.5657 C.3            1 S1                 0.0000
     14 ****         2.8320  -0.4341  -1.4574 C.3            1 S1                 0.0000
     15 ****         3.3711   0.8700  -1.3331 O.3            1 S1                 0.0000
     16 ****         3.4474  -1.0478  -2.7267 C.3            1 S1                 0.0000
     17 ****         4.9085  -1.3959  -2.4222 C.3            1 S1                 0.0000
     18 ****         5.0052  -1.8774  -0.6794 S.3            1 S1                 0.0000
     19 ****         3.3272  -1.3100  -0.2919 C.3            1 S1                 0.0000
     20 ****        -1.3647   3.6322   1.2657 H              1 S1                 0.0000
     21 ****        -2.6985   3.8481   2.3939 H              1 S1                 0.0000
     22 ****        -2.9749   3.9876   0.6597 H              1 S1                 0.0000
     23 ****        -4.9963  -1.5757   1.0720 H              1 S1                 0.0000
     24 ****        -5.5478  -0.3108  -0.0407 H              1 S1                 0.0000
     25 ****        -5.9013  -0.1869   1.6952 H              1 S1                 0.0000
     26 ****        -1.2410  -1.8559   1.5109 H              1 S1                 0.0000
     27 ****        -2.5854  -2.1655   0.4179 H              1 S1                 0.0000
     28 ****        -2.8388  -2.1987   2.1654 H              1 S1                 0.0000
     29 ****        -0.0562   1.7802   2.2945 H              1 S1                 0.0000
     30 ****         0.0210   0.0444   2.2378 H              1 S1                 0.0000
     31 ****         0.3468  -1.0135   0.1919 H              1 S1                 0.0000
     32 ****         0.8872  -1.2231  -2.0000 H              1 S1                 0.0000
     33 ****         1.0068   0.4940  -2.2481 H              1 S1                 0.0000
     34 ****         4.3116   0.8013  -1.2712 H              1 S1                 0.0000
     35 ****         2.9182  -1.9687  -2.9762 H              1 S1                 0.0000
     36 ****         3.3595  -0.3898  -3.5924 H              1 S1                 0.0000
     37 ****         5.2843  -2.1883  -3.0697 H              1 S1                 0.0000
     38 ****         5.5424  -0.5210  -2.5689 H              1 S1                 0.0000
     39 ****         3.3008  -0.7910   0.6671 H              1 S1                 0.0000
     40 ****         2.6995  -2.1972  -0.2007 H              1 S1                 0.0000
     41 ****        -4.7864   2.1592   1.0615 LP             1 S1                 0.0000
     42 ****         0.4484   2.9350   0.3730 LP             1 S1                 0.0000
     43 ****         1.1388   2.1549  -1.0109 LP             1 S1                 0.0000
     44 ****         3.0099   1.3072  -0.5095 LP             1 S1                 0.0000
     45 ****         3.1247   1.4146  -2.1348 LP             1 S1                 0.0000
@<TRIPOS>BOND
    1    1    2 1     
    2    1   20 1     
    3    1   21 1     
    4    1   22 1     
    5    2    8 1     
    6    2    3 2     
    7    3    4 1     
    8    4    5 1     
    9    4    6 1     
   10    5   23 1     
   11    5   24 1     
   12    5   25 1     
   13    6    7 1     
   14    6    8 2     
   15    7   26 1     
   16    7   27 1     
   17    7   28 1     
   18    8    9 1     
   19    9   10 1     
   20    9   29 1     
   21    9   30 1     
   22   10   11 2     
   23   10   12 am    
   24   12   13 1     
   25   12   31 1     
   26   13   14 1     
   27   13   32 1     
   28   13   33 1     
   29   14   19 1     
   30   14   15 1     
   31   14   16 1     
   32   15   34 1     
   33   16   17 1     
   34   16   35 1     
   35   16   36 1     
   36   17   18 1     
   37   17   37 1     
   38   17   38 1     
   39   18   19 1     
   40   19   39 1     
   41   19   40 1     
   42    3   41 1     
   43   11   42 1     
   44   11   43 1     
   45   15   44 1     
   46   15   45 1     
@<TRIPOS>SUBSTRUCTURE
      1 S1             1
@<TRIPOS>SET
LONE_PAIRS      STATIC     ATOMS    <user>   **** ""
5 41 42 43 44 45
DONOR_HYDROGENS      STATIC     ATOMS    <user>   **** ""
2 31 34
ATOM$BLUE        STATIC     ATOMS    COLORGROUP SYSTEM
5 41 42 43 44 45
ATOM$RED        STATIC     ATOMS    COLORGROUP SYSTEM
2 31 34
