AV-unprocessed.smi:2534|AV-procd|sdf|9975|dock7
  -GOLD-   2272014 23D 1   1.00000     0.00000
 Structure written by MMmdl.
 40 42  0  0  0  0  0  0  0  0  1 V2000
  149.9920  135.3485  156.9135 C   0  0  0  0  0  0  0  0  0  0  0  0
  149.8428  136.6136  156.0568 C   0  0  2  0  0  0  0  0  0  0  0  0
  151.0916  136.8568  155.1867 C   0  0  0  0  0  0  0  0  0  0  0  0
  150.9477  138.1331  154.3397 C   0  0  0  0  0  0  0  0  0  0  0  0
  150.6631  139.3814  155.2086 C   0  0  2  0  0  0  0  0  0  0  0  0
  150.3373  140.4322  154.3190 O   0  0  0  0  0  0  0  0  0  0  0  0
  151.8678  139.8446  156.0769 C   0  0  0  0  0  0  0  0  0  0  0  0
  151.5820  140.9659  156.9645 N   0  0  0  0  0  0  0  0  0  0  0  0
  150.7092  141.9306  156.5720 N   0  0  0  0  0  0  0  0  0  0  0  0
  150.6610  142.8079  157.5717 C   0  0  0  0  0  0  0  0  0  0  0  0
  151.5209  142.4412  158.6426 C   0  0  0  0  0  0  0  0  0  0  0  0
  151.8597  143.0183  159.9388 C   0  0  0  0  0  0  0  0  0  0  0  0
  152.7232  142.3975  160.6793 N   0  0  0  0  0  0  0  0  0  0  0  0
  153.3238  141.2058  160.2586 N   0  0  0  0  0  0  0  0  0  0  0  0
  154.2781  140.6615  161.2236 C   0  0  0  0  0  0  0  0  0  0  0  0
  153.0731  140.5824  159.0657 C   0  0  0  0  0  0  0  0  0  0  0  0
  153.6085  139.5349  158.7040 O   0  0  0  0  0  0  0  0  0  0  0  0
  152.0818  141.2838  158.2133 C   0  0  0  0  0  0  0  0  0  0  0  0
  149.4102  139.1263  156.0763 C   0  0  0  0  0  0  0  0  0  0  0  0
  149.5323  137.8478  156.9256 C   0  0  0  0  0  0  0  0  0  0  0  0
  150.8270  135.4368  157.6093 H   0  0  0  0  0  0  0  0  0  0  0  0
  150.1687  134.4708  156.2911 H   0  0  0  0  0  0  0  0  0  0  0  0
  149.0906  135.1612  157.4975 H   0  0  0  0  0  0  0  0  0  0  0  0
  148.9957  136.4573  155.3869 H   0  0  0  0  0  0  0  0  0  0  0  0
  151.9793  136.9271  155.8159 H   0  0  0  0  0  0  0  0  0  0  0  0
  151.2545  136.0031  154.5280 H   0  0  0  0  0  0  0  0  0  0  0  0
  151.8327  138.2755  153.7202 H   0  0  0  0  0  0  0  0  0  0  0  0
  150.1240  137.9855  153.6391 H   0  0  0  0  0  0  0  0  0  0  0  0
  149.3974  140.4660  154.2267 H   0  0  0  0  0  0  0  0  0  0  0  0
  152.2381  139.0151  156.6786 H   0  0  0  0  0  0  0  0  0  0  0  0
  152.7075  140.1302  155.4434 H   0  0  0  0  0  0  0  0  0  0  0  0
  150.0168  143.6705  157.4844 H   0  0  0  0  0  0  0  0  0  0  0  0
  151.3957  143.9471  160.2700 H   0  0  0  0  0  0  0  0  0  0  0  0
  154.7507  139.7324  160.9023 H   0  0  0  0  0  0  0  0  0  0  0  0
  153.7781  140.4616  162.1720 H   0  0  0  0  0  0  0  0  0  0  0  0
  155.0736  141.3842  161.4096 H   0  0  0  0  0  0  0  0  0  0  0  0
  149.2139  139.9832  156.7220 H   0  0  0  0  0  0  0  0  0  0  0  0
  148.5341  139.0289  155.4330 H   0  0  0  0  0  0  0  0  0  0  0  0
  148.6022  137.6890  157.4724 H   0  0  0  0  0  0  0  0  0  0  0  0
  150.3074  137.9755  157.6817 H   0  0  0  0  0  0  0  0  0  0  0  0
  1  2  1  0  0  0  0
  1 21  1  0  0  0  0
  1 22  1  0  0  0  0
  1 23  1  0  0  0  0
  2 20  1  0  0  0  0
  2  3  1  0  0  0  0
  2 24  1  0  0  0  0
  3  4  1  0  0  0  0
  3 25  1  0  0  0  0
  3 26  1  0  0  0  0
  4  5  1  0  0  0  0
  4 27  1  0  0  0  0
  4 28  1  0  0  0  0
  5  6  1  0  0  0  0
  5  7  1  0  0  0  0
  5 19  1  0  0  0  0
  6 29  1  0  0  0  0
  7  8  1  0  0  0  0
  7 30  1  0  0  0  0
  7 31  1  0  0  0  0
  8 18  1  0  0  0  0
  8  9  1  0  0  0  0
  9 10  2  0  0  0  0
 10 11  1  0  0  0  0
 10 32  1  0  0  0  0
 11 18  2  0  0  0  0
 11 12  1  0  0  0  0
 12 13  2  0  0  0  0
 12 33  1  0  0  0  0
 13 14  1  0  0  0  0
 14 15  1  0  0  0  0
 14 16  1  0  0  0  0
 15 34  1  0  0  0  0
 15 35  1  0  0  0  0
 15 36  1  0  0  0  0
 16 17  2  0  0  0  0
 16 18  1  0  0  0  0
 19 20  1  0  0  0  0
 19 37  1  0  0  0  0
 19 38  1  0  0  0  0
 20 39  1  0  0  0  0
 20 40  1  0  0  0  0
M  END
> <s_m_source_file>
AV-unprocessed.smi

> <i_m_source_file_index>
2534

> <i_lp_mmshare_version>
43012

> <i_f3d_flags>
0

> <s_epik_input>
W0NIMl0xW0NIMl1bQ0BIXShbQ0gzXSlbQ0gyXVtDSDJdW0NAQF0xKFtPSF0pW0NIMl1uKG5bY0hdMiljKGMyMyljKD1PKW4oW0NIM10pbltjSF0z

> <s_epik_cmdline>
J2VwaWtfcHl0aG9uJywgJy1waCcsICc3LjAnLCAnLXRuJywgJzgnLCAnLW1hJywgJzIwMCcsICctbWV0YWxfYmluZGluZycsICctaW1hZScsICc8aW5maWxlLm1hZT4nLCAnLW9tYWUnLCAnPG91dGZpbGUubWFlPic=

> <r_lp_tautomer_probability>
1

> <r_epik_Ionization_Penalty>
4.4666e-07

> <r_epik_Ionization_Penalty_Charging>
3.10141e-10

> <r_epik_Ionization_Penalty_Neutral>
4.46349e-07

> <r_epik_State_Penalty>
-0

> <r_epik_Charging_Adjusted_Penalty>
3.10141e-10

> <i_epik_Tot_Q>
0

> <i_epik_Tot_abs_Q>
0

> <r_epik_Metal_State_Penalty>
-0

> <b_epik_Metal_Only>
0

> <s_lp_Force_Field>
OPLS_2005

> <r_lp_Energy>
31.0433

> <b_lp_Chiralities_Consistent>
1

> <s_lp_Variant>
AV-unprocessed.smi:2534-2

> <Gold.Version>
5.8.1

> <Gold.Id.Protein>
6NUR|6NUR_protein|mol2

> <Gold.PLP.Fitness>
41.8432

> <Gold.PLP.PLP>
-33.7385

> <Gold.PLP.part.hbond>
-2.1274

> <Gold.PLP.part.metal>
0.0000

> <Gold.PLP.part.buried>
-4.6803

> <Gold.PLP.part.nonpolar>
-26.7584

> <Gold.PLP.part.repulsive>
0.0974

> <Gold.PLP.ligand.clash>
0.0000

> <Gold.PLP.ligand.torsion>
0.3911

> <Gold.PLP.Chemscore.Hbond>
1.9600

> <Gold.PLP.Chemscore.CHOScore>
1.0000

> <Gold.PLP.Chemscore.Metal>
0.0000

> <Gold.Chemscore.Hbonds>
donor molecule, donor type, donor heavy atom, donor atom, acceptor molecule, acceptor atom, score
      P1  H  7989  7998       L1     6  0.96
      P1  H  7997  8009       L1    17  1.00
      L1  C    10    32       P1  8028  1.00

> <Gold.PLP.Chemscore.Internal.Correction>
0.0069

> <Gold.Rescore>
     Score         DG    S(hbond)    S(metal)    S(lipo)     H(rot)  DE(clash)    DE(int)     intcor
     14.58     -16.41       1.63        0.00      83.52       1.68       0.02       1.80       ----

> <Gold.Chemscore.Fitness>
14.5849

> <Gold.Chemscore.DG>
-16.4079

> <Gold.Chemscore.ZeroCoef>
-5.4800

> <Gold.Chemscore.Hbond>
1.6305

> <Gold.Chemscore.Metal>
0.0000

> <Gold.Chemscore.Lipo>
83.5196

> <Gold.Chemscore.Internal_Hbond>
0.0000

> <Gold.Chemscore.DEClash>
0.0200

> <Gold.Chemscore.DEInternal>
1.8030

> <Gold.Chemscore.Rot>
1.6758

> <Gold.Chemscore.Internal.Correction>
   9.000000E+99

> <Gold.Chemscore.Hbonds>
donor molecule, donor type, donor heavy atom, donor atom, acceptor molecule, acceptor atom, score
      P1  H  7989  7998       L1     6  0.71
      P1  H  7997  8009       L1    17  0.42

> <Gold.Chemscore.Hbond.Weighted>
-5.4460

> <Gold.Chemscore.Metal.Weighted>
-0.0000

> <Gold.Chemscore.Lipo.Weighted>
-9.7718

> <Gold.Chemscore.Internal_Hbond.Weighted>
0.0000

> <Gold.Chemscore.DEClash.Weighted>
0.0200

> <Gold.Chemscore.DEInternal.Weighted>
1.8030

> <Gold.Chemscore.Rot.Weighted>
4.2899

> <Gold.Chemscore.Internal.Correction.Weighted>
   9.000000E+99

> <Gold.Protein.RotatedTorsions>
[ 6907 6896 6895 6894 ] final   47.70 input  -60.11 | X-H torsion
[ 7974 7965 7964 7962 ] final -125.72 input  175.53 | X-H torsion
[ 8008 7997 7996 7995 ] final  156.07 input   59.86 | X-H torsion
[ 10167 10162 10161 10158 ] final   -6.96 input  -65.29 | X-H torsion
[ 10718 10713 10712 10709 ] final  -72.14 input   66.30 | X-H torsion
[ 10763 10752 10751 10750 ] final -141.43 input  -60.55 | X-H torsion
[ 11005 11000 10999 10996 ] final  169.33 input  -57.11 | X-H torsion

> <Gold.Protein.ActiveResidues>
 VAL166  LYS551  ARG553  GLY616  TRP617  ASP618  TYR619  PRO620  LYS621  CYS622 
 ASP623  PHE694  ASN695  SER759  ASP760  ASP761  ALA762  ILE779  LEU786  VAL792 
 PHE793  MET794  SER795  GLU796  ALA797  LYS798  CYS799  TRP800  GLU811  SER814 

> <Gold.Protein.RotatedAtoms>
  152.2711  134.7932  160.0413 H   0  0  0  0  0  0  0  0  0  0  0  0  # atno 6907 bound_to 6896
  151.8544  133.3440  159.3692 H   0  0  0  0  0  0  0  0  0  0  0  0  # atno 6908 bound_to 6896
  150.7152  134.5195  159.5691 H   0  0  0  0  0  0  0  0  0  0  0  0  # atno 6909 bound_to 6896
  144.9947  140.7765  143.4532 H   0  0  0  0  0  0  0  0  0  0  0  0  # atno 7974 bound_to 7965
  156.2443  140.1922  156.6898 H   0  0  0  0  0  0  0  0  0  0  0  0  # atno 8008 bound_to 7997
  154.6260  140.0602  156.9700 H   0  0  0  0  0  0  0  0  0  0  0  0  # atno 8009 bound_to 7997
  155.1786  140.3274  155.4382 H   0  0  0  0  0  0  0  0  0  0  0  0  # atno 8010 bound_to 7997
  140.7013  143.6135  150.8681 H   0  0  0  0  0  0  0  0  0  0  0  0  # atno 10167 bound_to 10162
  156.0333  130.4366  150.2548 H   0  0  0  0  0  0  0  0  0  0  0  0  # atno 10718 bound_to 10713
  154.8545  135.3525  154.5866 H   0  0  0  0  0  0  0  0  0  0  0  0  # atno 10763 bound_to 10752
  153.6476  135.6995  153.5224 H   0  0  0  0  0  0  0  0  0  0  0  0  # atno 10764 bound_to 10752
  153.2920  135.4232  155.1134 H   0  0  0  0  0  0  0  0  0  0  0  0  # atno 10765 bound_to 10752
  140.2967  134.7629  157.3883 H   0  0  0  0  0  0  0  0  0  0  0  0  # atno 11005 bound_to 11000
  145.2236  139.2147  143.5080 LP  0  0  0  0  0  0  0  0  0  0  0  0  # atno 17320 bound_to 7965
  146.3439  140.2099  142.8590 LP  0  0  0  0  0  0  0  0  0  0  0  0  # atno 17321 bound_to 7965
  139.9857  143.5902  152.2927 LP  0  0  0  0  0  0  0  0  0  0  0  0  # atno 17342 bound_to 10162
  139.6539  144.7661  151.2094 LP  0  0  0  0  0  0  0  0  0  0  0  0  # atno 17343 bound_to 10162
  157.0649  131.0100  151.3210 LP  0  0  0  0  0  0  0  0  0  0  0  0  # atno 17370 bound_to 10713
  157.5043  130.7899  149.7637 LP  0  0  0  0  0  0  0  0  0  0  0  0  # atno 17371 bound_to 10713
  140.1146  134.5300  155.8236 LP  0  0  0  0  0  0  0  0  0  0  0  0  # atno 17394 bound_to 11000
  141.2136  133.6736  156.6753 LP  0  0  0  0  0  0  0  0  0  0  0  0  # atno 17395 bound_to 11000

$$$$
