AV-unprocessed.smi:2228|AV-procd|sdf|9024|dock1
  -GOLD-   2272012223D 1   1.00000     0.00000
 Structure written by MMmdl.
 40 41  0  0  0  0  0  0  0  0  1 V2000
  146.4837  132.4293  151.7958 C   0  0  0  0  0  0  0  0  0  0  0  0
  146.2521  133.8261  151.8800 O   0  0  0  0  0  0  0  0  0  0  0  0
  145.2801  134.3045  150.9536 C   0  0  1  0  0  0  0  0  0  0  0  0
  143.9281  133.6566  151.2716 C   0  0  0  0  0  0  0  0  0  0  0  0
  143.3744  134.4951  152.4201 C   0  0  0  0  0  0  0  0  0  0  0  0
  143.8128  135.9274  152.1038 C   0  0  0  0  0  0  0  0  0  0  0  0
  145.0361  135.8158  151.1725 C   0  0  1  0  0  0  0  0  0  0  0  0
  146.1940  136.5099  151.7325 N   0  0  0  0  0  0  0  0  0  0  0  0
  146.1464  137.6952  152.3570 C   0  0  0  0  0  0  0  0  0  0  0  0
  145.1026  138.3228  152.5403 O   0  0  0  0  0  0  0  0  0  0  0  0
  147.3720  138.0913  152.7419 N   0  0  0  0  0  0  0  0  0  0  0  0
  147.7390  139.2953  153.3992 C   0  0  0  0  0  0  0  0  0  0  0  0
  148.9763  139.2520  154.0798 C   0  0  0  0  0  0  0  0  0  0  0  0
  149.4343  140.3968  154.7625 C   0  0  0  0  0  0  0  0  0  0  0  0
  150.7587  140.3718  155.4959 C   0  0  0  0  0  0  0  0  0  0  0  0
  148.6387  141.5584  154.7444 C   0  0  0  0  0  0  0  0  0  0  0  0
  147.4189  141.5176  154.0411 C   0  0  0  0  0  0  0  0  0  0  0  0
  146.5175  142.7325  153.9741 C   0  0  0  0  0  0  0  0  0  0  0  0
  146.9813  140.4200  153.3880 N   0  0  0  0  0  0  0  0  0  0  0  0
  147.2259  132.1388  152.5392 H   0  0  0  0  0  0  0  0  0  0  0  0
  146.8707  132.1559  150.8135 H   0  0  0  0  0  0  0  0  0  0  0  0
  145.5767  131.8550  151.9856 H   0  0  0  0  0  0  0  0  0  0  0  0
  145.5991  134.1149  149.9270 H   0  0  0  0  0  0  0  0  0  0  0  0
  143.2690  133.7473  150.4074 H   0  0  0  0  0  0  0  0  0  0  0  0
  143.9968  132.5980  151.5213 H   0  0  0  0  0  0  0  0  0  0  0  0
  142.2934  134.4013  152.5243 H   0  0  0  0  0  0  0  0  0  0  0  0
  143.8274  134.1719  153.3582 H   0  0  0  0  0  0  0  0  0  0  0  0
  143.0096  136.4550  151.5881 H   0  0  0  0  0  0  0  0  0  0  0  0
  144.0227  136.4824  153.0192 H   0  0  0  0  0  0  0  0  0  0  0  0
  144.7733  136.2755  150.2177 H   0  0  0  0  0  0  0  0  0  0  0  0
  147.0921  136.0638  151.6180 H   0  0  0  0  0  0  0  0  0  0  0  0
  148.1329  137.4628  152.5315 H   0  0  0  0  0  0  0  0  0  0  0  0
  149.5713  138.3499  154.0801 H   0  0  0  0  0  0  0  0  0  0  0  0
  150.9358  141.3071  156.0276 H   0  0  0  0  0  0  0  0  0  0  0  0
  151.5761  140.2189  154.7911 H   0  0  0  0  0  0  0  0  0  0  0  0
  150.7742  139.5590  156.2223 H   0  0  0  0  0  0  0  0  0  0  0  0
  148.9556  142.4569  155.2534 H   0  0  0  0  0  0  0  0  0  0  0  0
  146.8630  143.5183  154.6463 H   0  0  0  0  0  0  0  0  0  0  0  0
  145.4980  142.4682  154.2565 H   0  0  0  0  0  0  0  0  0  0  0  0
  146.5008  143.1331  152.9601 H   0  0  0  0  0  0  0  0  0  0  0  0
  1  2  1  0  0  0  0
  1 20  1  0  0  0  0
  1 21  1  0  0  0  0
  1 22  1  0  0  0  0
  2  3  1  0  0  0  0
  3  7  1  0  0  0  0
  3  4  1  0  0  0  0
  3 23  1  0  0  0  0
  4  5  1  0  0  0  0
  4 24  1  0  0  0  0
  4 25  1  0  0  0  0
  5  6  1  0  0  0  0
  5 26  1  0  0  0  0
  5 27  1  0  0  0  0
  6  7  1  0  0  0  0
  6 28  1  0  0  0  0
  6 29  1  0  0  0  0
  7  8  1  0  0  0  0
  7 30  1  0  0  0  0
  8  9  1  0  0  0  0
  8 31  1  0  0  0  0
  9 10  2  0  0  0  0
  9 11  1  0  0  0  0
 11 12  1  0  0  0  0
 11 32  1  0  0  0  0
 12 19  1  0  0  0  0
 12 13  2  0  0  0  0
 13 14  1  0  0  0  0
 13 33  1  0  0  0  0
 14 15  1  0  0  0  0
 14 16  2  0  0  0  0
 15 34  1  0  0  0  0
 15 35  1  0  0  0  0
 15 36  1  0  0  0  0
 16 17  1  0  0  0  0
 16 37  1  0  0  0  0
 17 18  1  0  0  0  0
 17 19  2  0  0  0  0
 18 38  1  0  0  0  0
 18 39  1  0  0  0  0
 18 40  1  0  0  0  0
M  END
> <s_m_source_file>
AV-unprocessed.smi

> <i_m_source_file_index>
2228

> <i_lp_mmshare_version>
43012

> <i_f3d_flags>
0

> <s_epik_input>
W0NIM11PW0NAQEhdMVtDSDJdW0NIMl1bQ0gyXVtDQEhdMVtOSF1DKD1PKVtOSF1jMltjSF1jKFtDSDNdKVtjSF1jKG4yKVtDSDNd

> <s_epik_cmdline>
J2VwaWtfcHl0aG9uJywgJy1waCcsICc3LjAnLCAnLXRuJywgJzgnLCAnLW1hJywgJzIwMCcsICctbWV0YWxfYmluZGluZycsICctaW1hZScsICc8aW5maWxlLm1hZT4nLCAnLW9tYWUnLCAnPG91dGZpbGUubWFlPic=

> <r_lp_tautomer_probability>
1

> <r_epik_Ionization_Penalty>
0.000275391

> <r_epik_Ionization_Penalty_Charging>
0

> <r_epik_Ionization_Penalty_Neutral>
0.000275391

> <r_epik_State_Penalty>
-0

> <r_epik_Charging_Adjusted_Penalty>
0

> <i_epik_Tot_Q>
0

> <i_epik_Tot_abs_Q>
0

> <r_epik_Metal_State_Penalty>
-0

> <b_epik_Metal_Only>
0

> <s_lp_Force_Field>
OPLS_2005

> <r_lp_Energy>
22.5757

> <b_lp_Chiralities_Consistent>
1

> <s_lp_Variant>
AV-unprocessed.smi:2228-2

> <Gold.Version>
5.8.1

> <Gold.Id.Protein>
6NUR|6NUR_protein|mol2

> <Gold.PLP.Fitness>
38.6210

> <Gold.PLP.PLP>
-33.5237

> <Gold.PLP.part.hbond>
-2.0000

> <Gold.PLP.part.metal>
0.0000

> <Gold.PLP.part.buried>
-3.6339

> <Gold.PLP.part.nonpolar>
-32.6851

> <Gold.PLP.part.repulsive>
4.6696

> <Gold.PLP.ligand.clash>
0.0000

> <Gold.PLP.ligand.torsion>
0.3743

> <Gold.PLP.Chemscore.Hbond>
1.9440

> <Gold.PLP.Chemscore.CHOScore>
0.0000

> <Gold.PLP.Chemscore.Metal>
0.0000

> <Gold.Chemscore.Hbonds>
donor molecule, donor type, donor heavy atom, donor atom, acceptor molecule, acceptor atom, score
      L1  H     8    31       P1  7948  0.93
      L1  H    11    32       P1  7948  1.00

> <Gold.PLP.Chemscore.Internal.Correction>
0.0140

> <Gold.Rescore>
     Score         DG    S(hbond)    S(metal)    S(lipo)     H(rot)  DE(clash)    DE(int)     intcor
     12.73     -17.23       1.94        0.00      71.55       1.21       1.52       2.97       ----

> <Gold.Chemscore.Fitness>
12.7319

> <Gold.Chemscore.DG>
-17.2255

> <Gold.Chemscore.ZeroCoef>
-5.4800

> <Gold.Chemscore.Hbond>
1.9393

> <Gold.Chemscore.Metal>
0.0000

> <Gold.Chemscore.Lipo>
71.5458

> <Gold.Chemscore.Internal_Hbond>
0.0000

> <Gold.Chemscore.DEClash>
1.5199

> <Gold.Chemscore.DEInternal>
2.9737

> <Gold.Chemscore.Rot>
1.2119

> <Gold.Chemscore.Internal.Correction>
   9.000000E+99

> <Gold.Chemscore.Hbonds>
donor molecule, donor type, donor heavy atom, donor atom, acceptor molecule, acceptor atom, score
      L1  H     8    31       P1  7948  0.91
      L1  H    11    32       P1  7948  0.98

> <Gold.Chemscore.Hbond.Weighted>
-6.4772

> <Gold.Chemscore.Metal.Weighted>
-0.0000

> <Gold.Chemscore.Lipo.Weighted>
-8.3709

> <Gold.Chemscore.Internal_Hbond.Weighted>
0.0000

> <Gold.Chemscore.DEClash.Weighted>
1.5199

> <Gold.Chemscore.DEInternal.Weighted>
2.9737

> <Gold.Chemscore.Rot.Weighted>
3.1026

> <Gold.Chemscore.Internal.Correction.Weighted>
   9.000000E+99

> <Gold.Protein.RotatedTorsions>
[ 6907 6896 6895 6894 ] final -145.23 input  -60.11 | X-H torsion
[ 7974 7965 7964 7962 ] final  -33.55 input  175.53 | X-H torsion
[ 8008 7997 7996 7995 ] final -118.68 input   59.86 | X-H torsion
[ 10167 10162 10161 10158 ] final  -76.89 input  -65.29 | X-H torsion
[ 10718 10713 10712 10709 ] final  -94.93 input   66.30 | X-H torsion
[ 10763 10752 10751 10750 ] final  -63.79 input  -60.55 | X-H torsion
[ 11005 11000 10999 10996 ] final   93.66 input  -57.11 | X-H torsion

> <Gold.Protein.ActiveResidues>
 VAL166  LYS551  ARG553  GLY616  TRP617  ASP618  TYR619  PRO620  LYS621  CYS622 
 ASP623  PHE694  ASN695  SER759  ASP760  ASP761  ALA762  ILE779  LEU786  VAL792 
 PHE793  MET794  SER795  GLU796  ALA797  LYS798  CYS799  TRP800  GLU811  SER814 

> <Gold.Protein.RotatedAtoms>
  151.1250  133.5077  159.2600 H   0  0  0  0  0  0  0  0  0  0  0  0  # atno 6907 bound_to 6896
  151.1820  135.0364  159.8806 H   0  0  0  0  0  0  0  0  0  0  0  0  # atno 6908 bound_to 6896
  152.5457  134.1101  159.8408 H   0  0  0  0  0  0  0  0  0  0  0  0  # atno 6909 bound_to 6896
  146.0901  140.5930  142.8868 H   0  0  0  0  0  0  0  0  0  0  0  0  # atno 7974 bound_to 7965
  155.1035  140.0396  157.2704 H   0  0  0  0  0  0  0  0  0  0  0  0  # atno 8008 bound_to 7997
  154.6739  140.2618  155.6952 H   0  0  0  0  0  0  0  0  0  0  0  0  # atno 8009 bound_to 7997
  156.2669  140.2792  156.1259 H   0  0  0  0  0  0  0  0  0  0  0  0  # atno 8010 bound_to 7997
  140.4818  143.2400  151.8046 H   0  0  0  0  0  0  0  0  0  0  0  0  # atno 10167 bound_to 10162
  156.0035  130.5088  150.6000 H   0  0  0  0  0  0  0  0  0  0  0  0  # atno 10718 bound_to 10713
  154.3203  135.6197  153.5505 H   0  0  0  0  0  0  0  0  0  0  0  0  # atno 10763 bound_to 10752
  152.9820  135.5722  154.5077 H   0  0  0  0  0  0  0  0  0  0  0  0  # atno 10764 bound_to 10752
  154.4744  135.2860  155.1595 H   0  0  0  0  0  0  0  0  0  0  0  0  # atno 10765 bound_to 10752
  139.8807  134.8802  156.3751 H   0  0  0  0  0  0  0  0  0  0  0  0  # atno 11005 bound_to 11000
  144.7354  140.4793  143.6907 LP  0  0  0  0  0  0  0  0  0  0  0  0  # atno 17320 bound_to 7965
  145.6054  139.1508  143.3105 LP  0  0  0  0  0  0  0  0  0  0  0  0  # atno 17321 bound_to 7965
  139.4835  144.4763  151.9363 LP  0  0  0  0  0  0  0  0  0  0  0  0  # atno 17342 bound_to 10162
  140.3848  144.2690  150.5905 LP  0  0  0  0  0  0  0  0  0  0  0  0  # atno 17343 bound_to 10162
  157.3851  131.0787  151.1443 LP  0  0  0  0  0  0  0  0  0  0  0  0  # atno 17370 bound_to 10713
  157.2153  130.6456  149.5790 LP  0  0  0  0  0  0  0  0  0  0  0  0  # atno 17371 bound_to 10713
  140.9437  133.7497  156.0180 LP  0  0  0  0  0  0  0  0  0  0  0  0  # atno 17394 bound_to 11000
  140.8188  134.3313  157.5388 LP  0  0  0  0  0  0  0  0  0  0  0  0  # atno 17395 bound_to 11000

$$$$
