AV-unprocessed.smi:495|AV-procd|sdf|2714|dock1
  -GOLD-   2262023163D 1   1.00000     0.00000
 Structure written by MMmdl.
 35 37  0  0  0  0  0  0  0  0  2 V2000
  147.7182  138.7480  152.5716 N   0  0  0  0  0  0  0  0  0  0  0  0
  148.3867  139.4517  153.5715 C   0  0  0  0  0  0  0  0  0  0  0  0
  147.9748  140.7532  153.9172 C   0  0  0  0  0  0  0  0  0  0  0  0
  148.6524  141.4615  154.9285 C   0  0  0  0  0  0  0  0  0  0  0  0
  149.7507  140.8851  155.6026 C   0  0  0  0  0  0  0  0  0  0  0  0
  150.4483  141.6335  156.6592 C   0  0  0  0  0  0  0  0  0  0  0  0
  150.5441  142.9893  156.7110 N   0  3  0  0  0  0  0  0  0  0  0  0
  151.2862  143.3476  157.8385 C   0  0  0  0  0  0  0  0  0  0  0  0
  151.6518  144.5988  158.3256 C   0  0  0  0  0  0  0  0  0  0  0  0
  152.4245  144.6183  159.5054 C   0  0  0  0  0  0  0  0  0  0  0  0
  152.8067  143.4256  160.1530 C   0  0  0  0  0  0  0  0  0  0  0  0
  152.4318  142.1619  159.6510 C   0  0  0  0  0  0  0  0  0  0  0  0
  151.6632  142.1493  158.4872 C   0  0  0  0  0  0  0  0  0  0  0  0
  151.1219  141.1085  157.7215 N   0  0  0  0  0  0  0  0  0  0  0  0
  151.3716  139.7167  158.1237 C   0  0  0  0  0  0  0  0  0  0  0  0
  152.8465  139.3321  157.9466 C   0  0  0  0  0  0  0  0  0  0  0  0
  153.1455  139.2235  156.5727 O   0  0  0  0  0  0  0  0  0  0  0  0
  150.1505  139.5770  155.2519 C   0  0  0  0  0  0  0  0  0  0  0  0
  149.4760  138.8634  154.2423 C   0  0  0  0  0  0  0  0  0  0  0  0
  147.9955  137.8130  152.3087 H   0  0  0  0  0  0  0  0  0  0  0  0
  146.8831  139.1147  152.1376 H   0  0  0  0  0  0  0  0  0  0  0  0
  147.1393  141.2133  153.4097 H   0  0  0  0  0  0  0  0  0  0  0  0
  148.3279  142.4600  155.1828 H   0  0  0  0  0  0  0  0  0  0  0  0
  151.3630  145.5144  157.8304 H   0  0  0  0  0  0  0  0  0  0  0  0
  152.7320  145.5671  159.9208 H   0  0  0  0  0  0  0  0  0  0  0  0
  153.4006  143.4805  161.0540 H   0  0  0  0  0  0  0  0  0  0  0  0
  152.7332  141.2554  160.1549 H   0  0  0  0  0  0  0  0  0  0  0  0
  151.0482  139.5834  159.1564 H   0  0  0  0  0  0  0  0  0  0  0  0
  150.7397  139.0665  157.5203 H   0  0  0  0  0  0  0  0  0  0  0  0
  153.4965  140.0847  158.3943 H   0  0  0  0  0  0  0  0  0  0  0  0
  153.0627  138.3805  158.4328 H   0  0  0  0  0  0  0  0  0  0  0  0
  153.2865  138.3120  156.3655 H   0  0  0  0  0  0  0  0  0  0  0  0
  150.9797  139.1110  155.7637 H   0  0  0  0  0  0  0  0  0  0  0  0
  149.7975  137.8637  153.9879 H   0  0  0  0  0  0  0  0  0  0  0  0
  150.1313  143.6157  156.0320 H   0  0  0  0  0  0  0  0  0  0  0  0
  1  2  1  0  0  0  0
  1 20  1  0  0  0  0
  1 21  1  0  0  0  0
  2 19  1  0  0  0  0
  2  3  2  0  0  0  0
  3  4  1  0  0  0  0
  3 22  1  0  0  0  0
  4  5  2  0  0  0  0
  4 23  1  0  0  0  0
  5  6  1  0  0  0  0
  5 18  1  0  0  0  0
  6 14  1  0  0  0  0
  6  7  2  0  0  0  0
  7  8  1  0  0  0  0
  7 35  1  0  0  0  0
  8 13  2  0  0  0  0
  8  9  1  0  0  0  0
  9 10  2  0  0  0  0
  9 24  1  0  0  0  0
 10 11  1  0  0  0  0
 10 25  1  0  0  0  0
 11 12  2  0  0  0  0
 11 26  1  0  0  0  0
 12 13  1  0  0  0  0
 12 27  1  0  0  0  0
 13 14  1  0  0  0  0
 14 15  1  0  0  0  0
 15 16  1  0  0  0  0
 15 28  1  0  0  0  0
 15 29  1  0  0  0  0
 16 17  1  0  0  0  0
 16 30  1  0  0  0  0
 16 31  1  0  0  0  0
 17 32  1  0  0  0  0
 18 19  2  0  0  0  0
 18 33  1  0  0  0  0
 19 34  1  0  0  0  0
M  CHG  1   7   1
M  END
> <s_m_source_file>
AV-unprocessed.smi

> <i_m_source_file_index>
495

> <i_lp_mmshare_version>
43012

> <i_f3d_flags>
0

> <s_epik_input>
W05IMl1jMVtjSF1bY0hdYyhbY0hdW2NIXTEpLWMobjIpbihbQ0gyXVtDSDJdW09IXSljKGMyMylbY0hdW2NIXVtjSF1bY0hdMw==

> <s_epik_cmdline>
J2VwaWtfcHl0aG9uJywgJy1waCcsICc3LjAnLCAnLXRuJywgJzgnLCAnLW1hJywgJzIwMCcsICctbWV0YWxfYmluZGluZycsICctaW1hZScsICc8aW5maWxlLm1hZT4nLCAnLW9tYWUnLCAnPG91dGZpbGUubWFlPic=

> <r_epik_Ionization_Penalty>
0.309176

> <r_epik_Ionization_Penalty_Charging>
0.30902

> <r_epik_Ionization_Penalty_Neutral>
0.000156086

> <r_epik_State_Penalty>
0.184773

> <r_epik_Charging_Adjusted_Penalty>
0.493792

> <i_epik_Tot_Q>
1

> <i_epik_Tot_abs_Q>
1

> <r_epik_Metal_State_Penalty>
3.49751

> <b_epik_Metal_Only>
0

> <s_lp_Force_Field>
OPLS_2005

> <r_lp_Energy>
21.3699

> <b_lp_Chiralities_Consistent>
1

> <s_lp_Variant>
AV-unprocessed.smi:495-1

> <Gold.Version>
5.8.1

> <Gold.Id.Protein>
6NUR|6NUR_protein|mol2

> <Gold.PLP.Fitness>
54.4820

> <Gold.PLP.PLP>
-43.7820

> <Gold.PLP.part.hbond>
-4.0000

> <Gold.PLP.part.metal>
0.0000

> <Gold.PLP.part.buried>
-2.8606

> <Gold.PLP.part.nonpolar>
-38.1821

> <Gold.PLP.part.repulsive>
0.1171

> <Gold.PLP.ligand.clash>
0.0000

> <Gold.PLP.ligand.torsion>
0.4442

> <Gold.PLP.Chemscore.Hbond>
3.8560

> <Gold.PLP.Chemscore.CHOScore>
0.0000

> <Gold.PLP.Chemscore.Metal>
0.0000

> <Gold.Chemscore.Hbonds>
donor molecule, donor type, donor heavy atom, donor atom, acceptor molecule, acceptor atom, score
      L1  H     1    20       P1  7948  1.00
      L1  H     7    35       P1  8028  1.92
      P1  H  7997  8008       L1    17  0.99

> <Gold.PLP.Chemscore.Internal.Correction>
0.0204

> <Gold.Rescore>
     Score         DG    S(hbond)    S(metal)    S(lipo)     H(rot)  DE(clash)    DE(int)     intcor
     22.81     -23.39       2.78        0.00     112.69       1.78       0.15       0.43       ----

> <Gold.Chemscore.Fitness>
22.8079

> <Gold.Chemscore.DG>
-23.3885

> <Gold.Chemscore.ZeroCoef>
-5.4800

> <Gold.Chemscore.Hbond>
2.7824

> <Gold.Chemscore.Metal>
0.0000

> <Gold.Chemscore.Lipo>
112.6882

> <Gold.Chemscore.Internal_Hbond>
0.0000

> <Gold.Chemscore.DEClash>
0.1465

> <Gold.Chemscore.DEInternal>
0.4340

> <Gold.Chemscore.Rot>
1.7849

> <Gold.Chemscore.Internal.Correction>
   9.000000E+99

> <Gold.Chemscore.Hbonds>
donor molecule, donor type, donor heavy atom, donor atom, acceptor molecule, acceptor atom, score
      L1  H     1    20       P1  7948  1.00
      L1  H     7    35       P1  8028  0.92
      P1  H  7997  8008       L1    17  0.52

> <Gold.Chemscore.Hbond.Weighted>
-9.2934

> <Gold.Chemscore.Metal.Weighted>
-0.0000

> <Gold.Chemscore.Lipo.Weighted>
-13.1845

> <Gold.Chemscore.Internal_Hbond.Weighted>
0.0000

> <Gold.Chemscore.DEClash.Weighted>
0.1465

> <Gold.Chemscore.DEInternal.Weighted>
0.4340

> <Gold.Chemscore.Rot.Weighted>
4.5694

> <Gold.Chemscore.Internal.Correction.Weighted>
   9.000000E+99

> <Gold.Protein.RotatedTorsions>
[ 6907 6896 6895 6894 ] final  104.39 input  -60.11 | X-H torsion
[ 7974 7965 7964 7962 ] final   71.09 input  175.53 | X-H torsion
[ 8008 7997 7996 7995 ] final  -38.63 input   59.86 | X-H torsion
[ 10167 10162 10161 10158 ] final  -92.08 input  -65.29 | X-H torsion
[ 10718 10713 10712 10709 ] final  -44.11 input   66.30 | X-H torsion
[ 10763 10752 10751 10750 ] final  -51.60 input  -60.55 | X-H torsion
[ 11005 11000 10999 10996 ] final  139.93 input  -57.11 | X-H torsion

> <Gold.Protein.ActiveResidues>
 VAL166  LYS551  ARG553  GLY616  TRP617  ASP618  TYR619  PRO620  LYS621  CYS622 
 ASP623  PHE694  ASN695  SER759  ASP760  ASP761  ALA762  ILE779  LEU786  VAL792 
 PHE793  MET794  SER795  GLU796  ALA797  LYS798  CYS799  TRP800  GLU811  SER814 

> <Gold.Protein.RotatedAtoms>
  152.5266  133.9684  159.7749 H   0  0  0  0  0  0  0  0  0  0  0  0  # atno 6907 bound_to 6896
  150.9960  133.6094  159.2708 H   0  0  0  0  0  0  0  0  0  0  0  0  # atno 6908 bound_to 6896
  151.3220  135.0827  159.9362 H   0  0  0  0  0  0  0  0  0  0  0  0  # atno 6909 bound_to 6896
  145.7701  139.2839  143.1326 H   0  0  0  0  0  0  0  0  0  0  0  0  # atno 7974 bound_to 7965
  154.4034  140.1573  156.2731 H   0  0  0  0  0  0  0  0  0  0  0  0  # atno 8008 bound_to 7997
  155.8935  140.3437  155.5952 H   0  0  0  0  0  0  0  0  0  0  0  0  # atno 8009 bound_to 7997
  155.7530  140.0807  157.2182 H   0  0  0  0  0  0  0  0  0  0  0  0  # atno 8010 bound_to 7997
  140.3384  143.2956  151.9863 H   0  0  0  0  0  0  0  0  0  0  0  0  # atno 10167 bound_to 10162
  156.2420  130.4180  149.8749 H   0  0  0  0  0  0  0  0  0  0  0  0  # atno 10718 bound_to 10713
  154.1292  135.6522  153.4918 H   0  0  0  0  0  0  0  0  0  0  0  0  # atno 10763 bound_to 10752
  153.0200  135.5289  154.7018 H   0  0  0  0  0  0  0  0  0  0  0  0  # atno 10764 bound_to 10752
  154.6248  135.2969  155.0255 H   0  0  0  0  0  0  0  0  0  0  0  0  # atno 10765 bound_to 10752
  140.0290  134.9361  157.0626 H   0  0  0  0  0  0  0  0  0  0  0  0  # atno 11005 bound_to 11000
  146.0178  140.8376  142.9938 LP  0  0  0  0  0  0  0  0  0  0  0  0  # atno 17320 bound_to 7965
  144.6814  140.2584  143.7322 LP  0  0  0  0  0  0  0  0  0  0  0  0  # atno 17321 bound_to 7965
  139.4844  144.6177  151.7315 LP  0  0  0  0  0  0  0  0  0  0  0  0  # atno 17342 bound_to 10162
  140.5332  144.0697  150.6061 LP  0  0  0  0  0  0  0  0  0  0  0  0  # atno 17343 bound_to 10162
  156.6327  130.8672  151.3498 LP  0  0  0  0  0  0  0  0  0  0  0  0  # atno 17370 bound_to 10713
  157.7179  130.9521  150.1325 LP  0  0  0  0  0  0  0  0  0  0  0  0  # atno 17371 bound_to 10713
  140.4257  134.1834  155.7166 LP  0  0  0  0  0  0  0  0  0  0  0  0  # atno 17394 bound_to 11000
  141.1820  133.8394  157.1224 LP  0  0  0  0  0  0  0  0  0  0  0  0  # atno 17395 bound_to 11000

$$$$
