AV-unprocessed.smi:3191|AV-procd|sdf|12196|dock1
  -GOLD-   2272018 33D 1   1.00000     0.00000
 Structure written by MMmdl.
 36 37  0  0  0  0  0  0  0  0  2 V2000
  148.0851  141.5806  154.8431 C   0  0  0  0  0  0  0  0  0  0  0  0
  148.8703  140.4297  154.3884 N   0  0  0  0  0  0  0  0  0  0  0  0
  148.4701  139.6540  153.3727 C   0  0  0  0  0  0  0  0  0  0  0  0
  149.3957  138.7035  153.2230 N   0  3  0  0  0  0  0  0  0  0  0  0
  150.3919  138.8697  154.1453 C   0  0  0  0  0  0  0  0  0  0  0  0
  150.0667  139.9731  154.8949 C   0  0  0  0  0  0  0  0  0  0  0  0
  150.7869  140.6260  156.0303 C   0  0  0  0  0  0  0  0  0  0  0  0
  150.0253  140.4531  157.3554 C   0  0  0  0  0  0  0  0  0  0  0  0
  150.7347  141.0812  158.4632 N   0  0  0  0  0  0  0  0  0  0  0  0
  152.0416  140.9223  158.7233 C   0  0  0  0  0  0  0  0  0  0  0  0
  152.7731  140.2065  158.0376 O   0  0  0  0  0  0  0  0  0  0  0  0
  152.5168  141.6921  159.9167 C   0  0  1  0  0  0  0  0  0  0  0  0
  153.7339  142.5792  159.7526 C   0  0  0  0  0  0  0  0  0  0  0  0
  152.3760  143.2123  159.9594 C   0  0  0  0  0  0  0  0  0  0  0  0
  151.7456  144.0171  158.8291 C   0  0  0  0  0  0  0  0  0  0  0  0
  152.0455  143.8585  161.2934 C   0  0  0  0  0  0  0  0  0  0  0  0
  152.4115  141.1799  160.8722 H   0  0  0  0  0  0  0  0  0  0  0  0
  147.2145  141.7209  154.2013 H   0  0  0  0  0  0  0  0  0  0  0  0
  148.7046  142.4767  154.8093 H   0  0  0  0  0  0  0  0  0  0  0  0
  147.7537  141.4040  155.8668 H   0  0  0  0  0  0  0  0  0  0  0  0
  147.5749  139.7702  152.7878 H   0  0  0  0  0  0  0  0  0  0  0  0
  151.2432  138.2068  154.1994 H   0  0  0  0  0  0  0  0  0  0  0  0
  151.7918  140.2089  156.1033 H   0  0  0  0  0  0  0  0  0  0  0  0
  150.9090  141.6864  155.8057 H   0  0  0  0  0  0  0  0  0  0  0  0
  149.0369  140.9071  157.2796 H   0  0  0  0  0  0  0  0  0  0  0  0
  149.8631  139.3967  157.5754 H   0  0  0  0  0  0  0  0  0  0  0  0
  150.1972  141.6808  159.0727 H   0  0  0  0  0  0  0  0  0  0  0  0
  154.4412  142.5990  160.5794 H   0  0  0  0  0  0  0  0  0  0  0  0
  154.1877  142.6670  158.7669 H   0  0  0  0  0  0  0  0  0  0  0  0
  151.9591  145.0792  158.9532 H   0  0  0  0  0  0  0  0  0  0  0  0
  150.6639  143.8806  158.8259 H   0  0  0  0  0  0  0  0  0  0  0  0
  152.1360  143.7202  157.8564 H   0  0  0  0  0  0  0  0  0  0  0  0
  152.4344  144.8764  161.3309 H   0  0  0  0  0  0  0  0  0  0  0  0
  152.4879  143.2967  162.1168 H   0  0  0  0  0  0  0  0  0  0  0  0
  150.9657  143.8914  161.4417 H   0  0  0  0  0  0  0  0  0  0  0  0
  149.3622  137.9688  152.5273 H   0  0  0  0  0  0  0  0  0  0  0  0
  1  2  1  0  0  0  0
  1 18  1  0  0  0  0
  1 19  1  0  0  0  0
  1 20  1  0  0  0  0
  2  6  1  0  0  0  0
  2  3  1  0  0  0  0
  3  4  2  0  0  0  0
  3 21  1  0  0  0  0
  4  5  1  0  0  0  0
  4 36  1  0  0  0  0
  5  6  2  0  0  0  0
  5 22  1  0  0  0  0
  6  7  1  0  0  0  0
  7  8  1  0  0  0  0
  7 23  1  0  0  0  0
  7 24  1  0  0  0  0
  8  9  1  0  0  0  0
  8 25  1  0  0  0  0
  8 26  1  0  0  0  0
  9 10  1  0  0  0  0
  9 27  1  0  0  0  0
 10 11  2  0  0  0  0
 10 12  1  0  0  0  0
 12 17  1  0  0  0  0
 12 14  1  0  0  0  0
 12 13  1  0  0  0  0
 13 14  1  0  0  0  0
 13 28  1  0  0  0  0
 13 29  1  0  0  0  0
 14 15  1  0  0  0  0
 14 16  1  0  0  0  0
 15 30  1  0  0  0  0
 15 31  1  0  0  0  0
 15 32  1  0  0  0  0
 16 33  1  0  0  0  0
 16 34  1  0  0  0  0
 16 35  1  0  0  0  0
M  CHG  1   4   1
M  END
> <s_m_source_file>
AV-unprocessed.smi

> <i_m_source_file_index>
3191

> <i_lp_mmshare_version>
43012

> <i_f3d_flags>
0

> <s_epik_input>
W0NIM11uMVtjSF1uW2NIXWMxW0NIMl1bQ0gyXVtOSF1DKD1PKVtDQEBIXShbQ0gyXTIpQzIoW0NIM10pW0NIM10=

> <s_epik_cmdline>
J2VwaWtfcHl0aG9uJywgJy1waCcsICc3LjAnLCAnLXRuJywgJzgnLCAnLW1hJywgJzIwMCcsICctbWV0YWxfYmluZGluZycsICctaW1hZScsICc8aW5maWxlLm1hZT4nLCAnLW9tYWUnLCAnPG91dGZpbGUubWFlPic=

> <r_lp_tautomer_probability>
1

> <r_epik_Ionization_Penalty>
0.153817

> <r_epik_Ionization_Penalty_Charging>
0

> <r_epik_Ionization_Penalty_Neutral>
0.153817

> <r_epik_State_Penalty>
0.14311

> <r_epik_Charging_Adjusted_Penalty>
0.14311

> <i_epik_Tot_Q>
1

> <i_epik_Tot_abs_Q>
1

> <r_epik_Metal_State_Penalty>
0.464688

> <b_epik_Metal_Only>
0

> <s_lp_Force_Field>
OPLS_2005

> <r_lp_Energy>
13.4151

> <b_lp_Chiralities_Consistent>
1

> <s_lp_Variant>
AV-unprocessed.smi:3191-1

> <Gold.Version>
5.8.1

> <Gold.Id.Protein>
6NUR|6NUR_protein|mol2

> <Gold.PLP.Fitness>
46.1532

> <Gold.PLP.PLP>
-37.4608

> <Gold.PLP.part.hbond>
-2.7090

> <Gold.PLP.part.metal>
0.0000

> <Gold.PLP.part.buried>
1.1121

> <Gold.PLP.part.nonpolar>
-35.3237

> <Gold.PLP.part.repulsive>
0.2517

> <Gold.PLP.ligand.clash>
0.0000

> <Gold.PLP.ligand.torsion>
0.2073

> <Gold.PLP.Chemscore.Hbond>
2.9920

> <Gold.PLP.Chemscore.CHOScore>
0.0000

> <Gold.PLP.Chemscore.Metal>
0.0000

> <Gold.Chemscore.Hbonds>
donor molecule, donor type, donor heavy atom, donor atom, acceptor molecule, acceptor atom, score
      L1  H     4    36       P1  7948  2.00
      P1  H  7997  8009       L1    11  0.92

> <Gold.PLP.Chemscore.Internal.Correction>
0.1310

> <Gold.Rescore>
     Score         DG    S(hbond)    S(metal)    S(lipo)     H(rot)  DE(clash)    DE(int)     intcor
     16.08     -17.81       1.90        0.00      89.57       1.76       0.20       1.52       ----

> <Gold.Chemscore.Fitness>
16.0835

> <Gold.Chemscore.DG>
-17.8076

> <Gold.Chemscore.ZeroCoef>
-5.4800

> <Gold.Chemscore.Hbond>
1.8994

> <Gold.Chemscore.Metal>
0.0000

> <Gold.Chemscore.Lipo>
89.5659

> <Gold.Chemscore.Internal_Hbond>
0.0000

> <Gold.Chemscore.DEClash>
0.2049

> <Gold.Chemscore.DEInternal>
1.5192

> <Gold.Chemscore.Rot>
1.7561

> <Gold.Chemscore.Internal.Correction>
   9.000000E+99

> <Gold.Chemscore.Hbonds>
donor molecule, donor type, donor heavy atom, donor atom, acceptor molecule, acceptor atom, score
      L1  H     4    36       P1  7948  0.81
      P1  H  7997  8009       L1    11  0.83

> <Gold.Chemscore.Hbond.Weighted>
-6.3440

> <Gold.Chemscore.Metal.Weighted>
-0.0000

> <Gold.Chemscore.Lipo.Weighted>
-10.4792

> <Gold.Chemscore.Internal_Hbond.Weighted>
0.0000

> <Gold.Chemscore.DEClash.Weighted>
0.2049

> <Gold.Chemscore.DEInternal.Weighted>
1.5192

> <Gold.Chemscore.Rot.Weighted>
4.4956

> <Gold.Chemscore.Internal.Correction.Weighted>
   9.000000E+99

> <Gold.Protein.RotatedTorsions>
[ 6907 6896 6895 6894 ] final  -78.81 input  -60.11 | X-H torsion
[ 7974 7965 7964 7962 ] final -158.88 input  175.53 | X-H torsion
[ 8008 7997 7996 7995 ] final  164.92 input   59.86 | X-H torsion
[ 10167 10162 10161 10158 ] final   25.57 input  -65.29 | X-H torsion
[ 10718 10713 10712 10709 ] final  -24.20 input   66.30 | X-H torsion
[ 10763 10752 10751 10750 ] final   93.49 input  -60.55 | X-H torsion
[ 11005 11000 10999 10996 ] final  -44.56 input  -57.11 | X-H torsion

> <Gold.Protein.ActiveResidues>
 VAL166  LYS551  ARG553  GLY616  TRP617  ASP618  TYR619  PRO620  LYS621  CYS622 
 ASP623  PHE694  ASN695  SER759  ASP760  ASP761  ALA762  ILE779  LEU786  VAL792 
 PHE793  MET794  SER795  GLU796  ALA797  LYS798  CYS799  TRP800  GLU811  SER814 

> <Gold.Protein.RotatedAtoms>
  150.6964  134.4217  159.5207 H   0  0  0  0  0  0  0  0  0  0  0  0  # atno 6907 bound_to 6896
  152.1958  134.8629  160.0522 H   0  0  0  0  0  0  0  0  0  0  0  0  # atno 6908 bound_to 6896
  151.9567  133.3647  159.4057 H   0  0  0  0  0  0  0  0  0  0  0  0  # atno 6909 bound_to 6896
  144.7487  140.3765  143.6064 H   0  0  0  0  0  0  0  0  0  0  0  0  # atno 7974 bound_to 7965
  156.1842  140.1684  156.8217 H   0  0  0  0  0  0  0  0  0  0  0  0  # atno 8008 bound_to 7997
  154.5395  140.0740  156.8517 H   0  0  0  0  0  0  0  0  0  0  0  0  # atno 8009 bound_to 7997
  155.3244  140.3375  155.4243 H   0  0  0  0  0  0  0  0  0  0  0  0  # atno 8010 bound_to 7997
  140.5095  144.0183  150.6366 H   0  0  0  0  0  0  0  0  0  0  0  0  # atno 10167 bound_to 10162
  156.4808  130.4545  149.6812 H   0  0  0  0  0  0  0  0  0  0  0  0  # atno 10718 bound_to 10713
  153.2309  135.4323  155.0594 H   0  0  0  0  0  0  0  0  0  0  0  0  # atno 10763 bound_to 10752
  154.8296  135.3379  154.6788 H   0  0  0  0  0  0  0  0  0  0  0  0  # atno 10764 bound_to 10752
  153.7215  135.7016  153.5068 H   0  0  0  0  0  0  0  0  0  0  0  0  # atno 10765 bound_to 10752
  141.0458  133.6762  156.2889 H   0  0  0  0  0  0  0  0  0  0  0  0  # atno 11005 bound_to 11000
  145.7023  139.1664  143.2586 LP  0  0  0  0  0  0  0  0  0  0  0  0  # atno 17320 bound_to 7965
  146.1407  140.7062  142.9368 LP  0  0  0  0  0  0  0  0  0  0  0  0  # atno 17321 bound_to 7965
  140.3502  143.2968  152.0495 LP  0  0  0  0  0  0  0  0  0  0  0  0  # atno 17342 bound_to 10162
  139.4892  144.6379  151.6937 LP  0  0  0  0  0  0  0  0  0  0  0  0  # atno 17343 bound_to 10162
  156.3523  130.7438  151.2400 LP  0  0  0  0  0  0  0  0  0  0  0  0  # atno 17370 bound_to 10713
  157.7483  131.0373  150.4452 LP  0  0  0  0  0  0  0  0  0  0  0  0  # atno 17371 bound_to 10713
  140.6149  134.5421  157.5539 LP  0  0  0  0  0  0  0  0  0  0  0  0  # atno 17394 bound_to 11000
  139.9311  134.7962  156.0929 LP  0  0  0  0  0  0  0  0  0  0  0  0  # atno 17395 bound_to 11000

$$$$
