AV-unprocessed.smi:799|AV-procd|sdf|3786|dock6
  -GOLD-   22720 1223D 1   1.00000     0.00000
 Structure written by MMmdl.
 47 48  0  0  0  0  0  0  0  0  1 V2000
  143.5847  132.4570  149.6288 C   0  0  0  0  0  0  0  0  0  0  0  0
  144.6209  133.1197  150.4875 C   0  0  0  0  0  0  0  0  0  0  0  0
  144.8715  134.5140  150.6420 C   0  0  0  0  0  0  0  0  0  0  0  0
  145.9104  134.5372  151.5318 C   0  0  0  0  0  0  0  0  0  0  0  0
  146.5733  135.6133  152.0322 N   0  0  0  0  0  0  0  0  0  0  0  0
  146.0747  136.8063  152.3994 C   0  0  0  0  0  0  0  0  0  0  0  0
  144.8856  137.1216  152.3540 O   0  0  0  0  0  0  0  0  0  0  0  0
  147.0524  137.6168  152.8409 N   0  0  0  0  0  0  0  0  0  0  0  0
  146.9418  138.9791  153.3909 C   0  0  2  0  0  0  0  0  0  0  0  0
  145.9911  138.8784  154.6069 C   0  0  0  0  0  0  0  0  0  0  0  0
  146.2974  139.9157  152.3269 C   0  0  0  0  0  0  0  0  0  0  0  0
  146.7868  139.6672  151.0220 O   0  0  0  0  0  0  0  0  0  0  0  0
  148.3551  139.5166  153.8234 C   0  0  0  0  0  0  0  0  0  0  0  0
  149.2375  138.4734  154.5608 C   0  0  0  0  0  0  0  0  0  0  0  0
  150.6469  139.0165  154.8468 C   0  0  0  0  0  0  0  0  0  0  0  0
  150.5889  140.3190  155.6560 C   0  0  0  0  0  0  0  0  0  0  0  0
  149.7245  141.3668  154.9425 C   0  0  0  0  0  0  0  0  0  0  0  0
  148.3145  140.8257  154.6545 C   0  0  0  0  0  0  0  0  0  0  0  0
  146.2447  133.2404  151.8596 N   0  0  0  0  0  0  0  0  0  0  0  0
  147.2700  132.7331  152.7513 C   0  0  0  0  0  0  0  0  0  0  0  0
  145.4399  132.3686  151.2148 N   0  0  0  0  0  0  0  0  0  0  0  0
  143.0304  133.1909  149.0434 H   0  0  0  0  0  0  0  0  0  0  0  0
  142.8661  131.9058  150.2356 H   0  0  0  0  0  0  0  0  0  0  0  0
  144.0423  131.7547  148.9318 H   0  0  0  0  0  0  0  0  0  0  0  0
  144.3664  135.3416  150.1670 H   0  0  0  0  0  0  0  0  0  0  0  0
  147.5634  135.4809  152.1771 H   0  0  0  0  0  0  0  0  0  0  0  0
  147.9878  137.2383  152.8281 H   0  0  0  0  0  0  0  0  0  0  0  0
  145.7764  139.8557  155.0385 H   0  0  0  0  0  0  0  0  0  0  0  0
  146.3996  138.2496  155.3972 H   0  0  0  0  0  0  0  0  0  0  0  0
  145.0312  138.4430  154.3267 H   0  0  0  0  0  0  0  0  0  0  0  0
  145.2169  139.7814  152.2910 H   0  0  0  0  0  0  0  0  0  0  0  0
  146.4692  140.9654  152.5658 H   0  0  0  0  0  0  0  0  0  0  0  0
  147.7276  139.7547  151.0329 H   0  0  0  0  0  0  0  0  0  0  0  0
  148.8883  139.7706  152.9069 H   0  0  0  0  0  0  0  0  0  0  0  0
  148.7738  138.1853  155.5039 H   0  0  0  0  0  0  0  0  0  0  0  0
  149.3379  137.5593  153.9765 H   0  0  0  0  0  0  0  0  0  0  0  0
  151.2302  138.2706  155.3873 H   0  0  0  0  0  0  0  0  0  0  0  0
  151.1687  139.1929  153.9053 H   0  0  0  0  0  0  0  0  0  0  0  0
  150.1785  140.1176  156.6463 H   0  0  0  0  0  0  0  0  0  0  0  0
  151.5957  140.7081  155.8096 H   0  0  0  0  0  0  0  0  0  0  0  0
  149.6580  142.2683  155.5522 H   0  0  0  0  0  0  0  0  0  0  0  0
  150.2027  141.6617  154.0076 H   0  0  0  0  0  0  0  0  0  0  0  0
  147.7550  141.6017  154.1349 H   0  0  0  0  0  0  0  0  0  0  0  0
  147.8049  140.6573  155.6032 H   0  0  0  0  0  0  0  0  0  0  0  0
  147.8832  133.5472  153.1378 H   0  0  0  0  0  0  0  0  0  0  0  0
  147.9118  132.0342  152.2146 H   0  0  0  0  0  0  0  0  0  0  0  0
  146.8023  132.2159  153.5897 H   0  0  0  0  0  0  0  0  0  0  0  0
  1  2  1  0  0  0  0
  1 22  1  0  0  0  0
  1 23  1  0  0  0  0
  1 24  1  0  0  0  0
  2 21  2  0  0  0  0
  2  3  1  0  0  0  0
  3  4  2  0  0  0  0
  3 25  1  0  0  0  0
  4  5  1  0  0  0  0
  4 19  1  0  0  0  0
  5  6  1  0  0  0  0
  5 26  1  0  0  0  0
  6  7  2  0  0  0  0
  6  8  1  0  0  0  0
  8  9  1  0  0  0  0
  8 27  1  0  0  0  0
  9 10  1  0  0  0  0
  9 11  1  0  0  0  0
  9 13  1  0  0  0  0
 10 28  1  0  0  0  0
 10 29  1  0  0  0  0
 10 30  1  0  0  0  0
 11 12  1  0  0  0  0
 11 31  1  0  0  0  0
 11 32  1  0  0  0  0
 12 33  1  0  0  0  0
 13 18  1  0  0  0  0
 13 14  1  0  0  0  0
 13 34  1  0  0  0  0
 14 15  1  0  0  0  0
 14 35  1  0  0  0  0
 14 36  1  0  0  0  0
 15 16  1  0  0  0  0
 15 37  1  0  0  0  0
 15 38  1  0  0  0  0
 16 17  1  0  0  0  0
 16 39  1  0  0  0  0
 16 40  1  0  0  0  0
 17 18  1  0  0  0  0
 17 41  1  0  0  0  0
 17 42  1  0  0  0  0
 18 43  1  0  0  0  0
 18 44  1  0  0  0  0
 19 20  1  0  0  0  0
 19 21  1  0  0  0  0
 20 45  1  0  0  0  0
 20 46  1  0  0  0  0
 20 47  1  0  0  0  0
M  END
> <s_m_source_file>
AV-unprocessed.smi

> <i_m_source_file_index>
799

> <i_lp_mmshare_version>
43012

> <i_f3d_flags>
0

> <s_epik_input>
W0NIM11jMVtjSF1jKG4objEpW0NIM10pW05IXUMoPU8pW05IXVtDQEBdKFtDSDNdKShbQ0gyXVtPSF0pW0NIXTJbQ0gyXVtDSDJdW0NIMl1bQ0gyXVtDSDJdMg==

> <s_epik_cmdline>
J2VwaWtfcHl0aG9uJywgJy1waCcsICc3LjAnLCAnLXRuJywgJzgnLCAnLW1hJywgJzIwMCcsICctbWV0YWxfYmluZGluZycsICctaW1hZScsICc8aW5maWxlLm1hZT4nLCAnLW9tYWUnLCAnPG91dGZpbGUubWFlPic=

> <r_lp_tautomer_probability>
1

> <r_epik_Ionization_Penalty>
9.86025e-05

> <r_epik_Ionization_Penalty_Charging>
0

> <r_epik_Ionization_Penalty_Neutral>
9.86025e-05

> <r_epik_State_Penalty>
-0

> <r_epik_Charging_Adjusted_Penalty>
0

> <i_epik_Tot_Q>
0

> <i_epik_Tot_abs_Q>
0

> <r_epik_Metal_State_Penalty>
-0

> <b_epik_Metal_Only>
0

> <s_lp_Force_Field>
OPLS_2005

> <r_lp_Energy>
22.5502

> <b_lp_Chiralities_Consistent>
1

> <s_lp_Variant>
AV-unprocessed.smi:799-2

> <Gold.Version>
5.8.1

> <Gold.Id.Protein>
6NUR|6NUR_protein|mol2

> <Gold.PLP.Fitness>
39.1145

> <Gold.PLP.PLP>
-32.6487

> <Gold.PLP.part.hbond>
-3.1819

> <Gold.PLP.part.metal>
0.0000

> <Gold.PLP.part.buried>
2.4511

> <Gold.PLP.part.nonpolar>
-33.0662

> <Gold.PLP.part.repulsive>
0.4033

> <Gold.PLP.ligand.clash>
0.0000

> <Gold.PLP.ligand.torsion>
0.8694

> <Gold.PLP.Chemscore.Hbond>
2.7120

> <Gold.PLP.Chemscore.CHOScore>
0.0000

> <Gold.PLP.Chemscore.Metal>
0.0000

> <Gold.Chemscore.Hbonds>
donor molecule, donor type, donor heavy atom, donor atom, acceptor molecule, acceptor atom, score
      L1  H     5    26       P1  7948  0.78
      L1  H     8    27       P1  7948  0.78
      L1  H    12    33       P1  7957  1.00

> <Gold.PLP.Chemscore.Internal.Correction>
0.0686

> <Gold.Rescore>
     Score         DG    S(hbond)    S(metal)    S(lipo)     H(rot)  DE(clash)    DE(int)     intcor
     15.54     -18.93       2.57        0.00      85.54       2.01       2.19       1.20       ----

> <Gold.Chemscore.Fitness>
15.5401

> <Gold.Chemscore.DG>
-18.9272

> <Gold.Chemscore.ZeroCoef>
-5.4800

> <Gold.Chemscore.Hbond>
2.5735

> <Gold.Chemscore.Metal>
0.0000

> <Gold.Chemscore.Lipo>
85.5438

> <Gold.Chemscore.Internal_Hbond>
0.0000

> <Gold.Chemscore.DEClash>
2.1912

> <Gold.Chemscore.DEInternal>
1.1958

> <Gold.Chemscore.Rot>
2.0144

> <Gold.Chemscore.Internal.Correction>
   9.000000E+99

> <Gold.Chemscore.Hbonds>
donor molecule, donor type, donor heavy atom, donor atom, acceptor molecule, acceptor atom, score
      L1  H     5    26       P1  7948  0.76
      L1  H     8    27       P1  7948  0.78
      L1  H    12    33       P1  7957  0.88

> <Gold.Chemscore.Hbond.Weighted>
-8.5954

> <Gold.Chemscore.Metal.Weighted>
-0.0000

> <Gold.Chemscore.Lipo.Weighted>
-10.0086

> <Gold.Chemscore.Internal_Hbond.Weighted>
0.0000

> <Gold.Chemscore.DEClash.Weighted>
2.1912

> <Gold.Chemscore.DEInternal.Weighted>
1.1958

> <Gold.Chemscore.Rot.Weighted>
5.1568

> <Gold.Chemscore.Internal.Correction.Weighted>
   9.000000E+99

> <Gold.Protein.RotatedTorsions>
[ 6907 6896 6895 6894 ] final   45.48 input  -60.11 | X-H torsion
[ 7974 7965 7964 7962 ] final  166.36 input  175.53 | X-H torsion
[ 8008 7997 7996 7995 ] final  117.69 input   59.86 | X-H torsion
[ 10167 10162 10161 10158 ] final  -83.21 input  -65.29 | X-H torsion
[ 10718 10713 10712 10709 ] final -134.20 input   66.30 | X-H torsion
[ 10763 10752 10751 10750 ] final   85.97 input  -60.55 | X-H torsion
[ 11005 11000 10999 10996 ] final   79.15 input  -57.11 | X-H torsion

> <Gold.Protein.ActiveResidues>
 VAL166  LYS551  ARG553  GLY616  TRP617  ASP618  TYR619  PRO620  LYS621  CYS622 
 ASP623  PHE694  ASN695  SER759  ASP760  ASP761  ALA762  ILE779  LEU786  VAL792 
 PHE793  MET794  SER795  GLU796  ALA797  LYS798  CYS799  TRP800  GLU811  SER814 

> <Gold.Protein.RotatedAtoms>
  152.2450  134.8190  160.0454 H   0  0  0  0  0  0  0  0  0  0  0  0  # atno 6907 bound_to 6896
  151.8891  133.3507  159.3800 H   0  0  0  0  0  0  0  0  0  0  0  0  # atno 6908 bound_to 6896
  150.7065  134.4868  159.5541 H   0  0  0  0  0  0  0  0  0  0  0  0  # atno 6909 bound_to 6896
  144.7465  139.8603  143.6380 H   0  0  0  0  0  0  0  0  0  0  0  0  # atno 7974 bound_to 7965
  156.2508  140.2891  156.0718 H   0  0  0  0  0  0  0  0  0  0  0  0  # atno 8008 bound_to 7997
  155.1662  140.0400  157.2870 H   0  0  0  0  0  0  0  0  0  0  0  0  # atno 8009 bound_to 7997
  154.6358  140.2510  155.7387 H   0  0  0  0  0  0  0  0  0  0  0  0  # atno 8010 bound_to 7997
  140.4248  143.2571  151.8841 H   0  0  0  0  0  0  0  0  0  0  0  0  # atno 10167 bound_to 10162
  156.2529  130.7164  151.1070 H   0  0  0  0  0  0  0  0  0  0  0  0  # atno 10718 bound_to 10713
  153.1526  135.4597  154.9658 H   0  0  0  0  0  0  0  0  0  0  0  0  # atno 10763 bound_to 10752
  154.7836  135.3196  154.7938 H   0  0  0  0  0  0  0  0  0  0  0  0  # atno 10764 bound_to 10752
  153.8440  135.6927  153.4854 H   0  0  0  0  0  0  0  0  0  0  0  0  # atno 10765 bound_to 10752
  139.9184  134.7820  156.1741 H   0  0  0  0  0  0  0  0  0  0  0  0  # atno 11005 bound_to 11000
  146.1353  139.4397  143.0143 LP  0  0  0  0  0  0  0  0  0  0  0  0  # atno 17320 bound_to 7965
  145.7101  141.0109  143.1458 LP  0  0  0  0  0  0  0  0  0  0  0  0  # atno 17321 bound_to 7965
  139.4783  144.5398  151.8544 LP  0  0  0  0  0  0  0  0  0  0  0  0  # atno 17342 bound_to 10162
  140.4493  144.1877  150.5896 LP  0  0  0  0  0  0  0  0  0  0  0  0  # atno 17343 bound_to 10162
  157.7221  131.0674  150.6090 LP  0  0  0  0  0  0  0  0  0  0  0  0  # atno 17370 bound_to 10713
  156.6171  130.4396  149.5836 LP  0  0  0  0  0  0  0  0  0  0  0  0  # atno 17371 bound_to 10713
  141.0682  133.6809  156.2087 LP  0  0  0  0  0  0  0  0  0  0  0  0  # atno 17394 bound_to 11000
  140.6550  134.5027  157.5580 LP  0  0  0  0  0  0  0  0  0  0  0  0  # atno 17395 bound_to 11000

$$$$
