AV-unprocessed.smi:284|AV-procd|sdf|2157|dock8
  -GOLD-   2262021503D 1   1.00000     0.00000
 Structure written by MMmdl.
 60 62  0  0  0  0  0  0  0  0  1 V2000
  146.7228  136.0183  162.9148 C   0  0  0  0  0  0  0  0  0  0  0  0
  147.5426  135.1438  161.9788 C   0  0  0  0  0  0  0  0  0  0  0  0
  147.6595  133.8077  162.1603 C   0  0  0  0  0  0  0  0  0  0  0  0
  148.3926  132.9840  161.3231 N   0  0  0  0  0  0  0  0  0  0  0  0
  148.4935  131.4858  161.5342 C   0  0  2  0  0  0  0  0  0  0  0  0
  147.7119  131.0607  162.7912 C   0  0  0  0  0  0  0  0  0  0  0  0
  148.7192  130.2272  163.5628 C   0  0  1  0  0  0  0  0  0  0  0  0
  148.5962  128.8581  163.2255 O   0  0  0  0  0  0  0  0  0  0  0  0
  150.0552  130.8188  163.1012 C   0  0  1  0  0  0  0  0  0  0  0  0
  151.3083  129.9449  163.2865 C   0  0  0  0  0  0  0  0  0  0  0  0
  151.5230  129.6794  164.6564 O   0  0  0  0  0  0  0  0  0  0  0  0
  149.8279  131.1129  161.7272 O   0  0  0  0  0  0  0  0  0  0  0  0
  149.0732  133.5417  160.2216 C   0  0  0  0  0  0  0  0  0  0  0  0
  149.7298  132.8266  159.4607 O   0  0  0  0  0  0  0  0  0  0  0  0
  148.9751  134.9344  160.0071 N   0  0  0  0  0  0  0  0  0  0  0  0
  149.6601  135.5162  158.8308 C   0  0  0  0  0  0  0  0  0  0  0  0
  150.4968  136.7629  159.1618 C   0  0  0  0  0  0  0  0  0  0  0  0
  151.4275  136.6896  159.9645 O   0  0  0  0  0  0  0  0  0  0  0  0
  150.1273  137.8801  158.5078 N   0  0  0  0  0  0  0  0  0  0  0  0
  150.6564  139.2004  158.5725 C   0  0  0  0  0  0  0  0  0  0  0  0
  149.9197  140.2071  157.9178 C   0  0  0  0  0  0  0  0  0  0  0  0
  150.3577  141.5452  157.9255 C   0  0  0  0  0  0  0  0  0  0  0  0
  151.5514  141.9135  158.5922 C   0  0  0  0  0  0  0  0  0  0  0  0
  152.0654  143.3654  158.6272 C   0  0  0  0  0  0  0  0  0  0  0  0
  151.0253  144.2659  159.3254 C   0  0  0  0  0  0  0  0  0  0  0  0
  152.3204  143.9497  157.2194 C   0  0  0  0  0  0  0  0  0  0  0  0
  153.3957  143.4253  159.4064 C   0  0  0  0  0  0  0  0  0  0  0  0
  152.2868  140.8983  159.2465 C   0  0  0  0  0  0  0  0  0  0  0  0
  151.8511  139.5597  159.2403 C   0  0  0  0  0  0  0  0  0  0  0  0
  148.2166  135.7852  160.8475 C   0  0  0  0  0  0  0  0  0  0  0  0
  148.1390  136.9930  160.6133 O   0  0  0  0  0  0  0  0  0  0  0  0
  146.2714  135.4401  163.7215 H   0  0  0  0  0  0  0  0  0  0  0  0
  145.9181  136.5111  162.3679 H   0  0  0  0  0  0  0  0  0  0  0  0
  147.3507  136.7869  163.3670 H   0  0  0  0  0  0  0  0  0  0  0  0
  147.1456  133.3806  163.0075 H   0  0  0  0  0  0  0  0  0  0  0  0
  148.1298  131.0315  160.6109 H   0  0  0  0  0  0  0  0  0  0  0  0
  147.4388  131.9433  163.3720 H   0  0  0  0  0  0  0  0  0  0  0  0
  146.7995  130.5245  162.5269 H   0  0  0  0  0  0  0  0  0  0  0  0
  148.5852  130.3282  164.6403 H   0  0  0  0  0  0  0  0  0  0  0  0
  148.0717  128.4317  163.8858 H   0  0  0  0  0  0  0  0  0  0  0  0
  150.2078  131.7689  163.6161 H   0  0  0  0  0  0  0  0  0  0  0  0
  151.2319  129.0070  162.7363 H   0  0  0  0  0  0  0  0  0  0  0  0
  152.1837  130.4674  162.9001 H   0  0  0  0  0  0  0  0  0  0  0  0
  150.7781  129.9969  165.1441 H   0  0  0  0  0  0  0  0  0  0  0  0
  150.3118  134.7860  158.3487 H   0  0  0  0  0  0  0  0  0  0  0  0
  148.9366  135.7743  158.0552 H   0  0  0  0  0  0  0  0  0  0  0  0
  149.3468  137.7692  157.8771 H   0  0  0  0  0  0  0  0  0  0  0  0
  149.0046  139.9562  157.4015 H   0  0  0  0  0  0  0  0  0  0  0  0
  149.7511  142.2714  157.4076 H   0  0  0  0  0  0  0  0  0  0  0  0
  151.3521  145.3061  159.3474 H   0  0  0  0  0  0  0  0  0  0  0  0
  150.8491  143.9659  160.3586 H   0  0  0  0  0  0  0  0  0  0  0  0
  150.0662  144.2351  158.8071 H   0  0  0  0  0  0  0  0  0  0  0  0
  151.4100  143.9687  156.6190 H   0  0  0  0  0  0  0  0  0  0  0  0
  153.0742  143.3788  156.6757 H   0  0  0  0  0  0  0  0  0  0  0  0
  152.6822  144.9768  157.2790 H   0  0  0  0  0  0  0  0  0  0  0  0
  153.7969  144.4392  159.4285 H   0  0  0  0  0  0  0  0  0  0  0  0
  154.1501  142.7850  158.9478 H   0  0  0  0  0  0  0  0  0  0  0  0
  153.2806  143.1063  160.4423 H   0  0  0  0  0  0  0  0  0  0  0  0
  153.2023  141.1378  159.7661 H   0  0  0  0  0  0  0  0  0  0  0  0
  152.4603  138.8384  159.7593 H   0  0  0  0  0  0  0  0  0  0  0  0
  1  2  1  0  0  0  0
  1 32  1  0  0  0  0
  1 33  1  0  0  0  0
  1 34  1  0  0  0  0
  2 30  1  0  0  0  0
  2  3  2  0  0  0  0
  3  4  1  0  0  0  0
  3 35  1  0  0  0  0
  4  5  1  0  0  0  0
  4 13  1  0  0  0  0
  5 12  1  0  0  0  0
  5  6  1  0  0  0  0
  5 36  1  0  0  0  0
  6  7  1  0  0  0  0
  6 37  1  0  0  0  0
  6 38  1  0  0  0  0
  7  8  1  0  0  0  0
  7  9  1  0  0  0  0
  7 39  1  0  0  0  0
  8 40  1  0  0  0  0
  9 10  1  0  0  0  0
  9 12  1  0  0  0  0
  9 41  1  0  0  0  0
 10 11  1  0  0  0  0
 10 42  1  0  0  0  0
 10 43  1  0  0  0  0
 11 44  1  0  0  0  0
 13 14  2  0  0  0  0
 13 15  1  0  0  0  0
 15 16  1  0  0  0  0
 15 30  1  0  0  0  0
 16 17  1  0  0  0  0
 16 45  1  0  0  0  0
 16 46  1  0  0  0  0
 17 18  2  0  0  0  0
 17 19  1  0  0  0  0
 19 20  1  0  0  0  0
 19 47  1  0  0  0  0
 20 29  1  0  0  0  0
 20 21  2  0  0  0  0
 21 22  1  0  0  0  0
 21 48  1  0  0  0  0
 22 23  2  0  0  0  0
 22 49  1  0  0  0  0
 23 24  1  0  0  0  0
 23 28  1  0  0  0  0
 24 25  1  0  0  0  0
 24 26  1  0  0  0  0
 24 27  1  0  0  0  0
 25 50  1  0  0  0  0
 25 51  1  0  0  0  0
 25 52  1  0  0  0  0
 26 53  1  0  0  0  0
 26 54  1  0  0  0  0
 26 55  1  0  0  0  0
 27 56  1  0  0  0  0
 27 57  1  0  0  0  0
 27 58  1  0  0  0  0
 28 29  2  0  0  0  0
 28 59  1  0  0  0  0
 29 60  1  0  0  0  0
 30 31  2  0  0  0  0
M  END
> <s_m_source_file>
AV-unprocessed.smi

> <i_m_source_file_index>
284

> <i_lp_mmshare_version>
43012

> <i_f3d_flags>
0

> <s_epik_input>
W09IXVtDSDJdW0NAQEhdKE8xKVtDQEhdKFtPSF0pW0NIMl1bQ0BIXTFuKFtjSF1jMltDSDNdKWMoPU8pbihjMj1PKVtDSDJdQyg9TylbTkhdYzNbY0hdW2NIXWMoQyhbQ0gzXSkoW0NIM10pW0NIM10pW2NIXVtjSF0z

> <s_epik_cmdline>
J2VwaWtfcHl0aG9uJywgJy1waCcsICc3LjAnLCAnLXRuJywgJzgnLCAnLW1hJywgJzIwMCcsICctbWV0YWxfYmluZGluZycsICctaW1hZScsICc8aW5maWxlLm1hZT4nLCAnLW9tYWUnLCAnPG91dGZpbGUubWFlPic=

> <r_lp_tautomer_probability>
1

> <r_epik_Ionization_Penalty>
4.92358e-06

> <r_epik_Ionization_Penalty_Charging>
1.29777e-07

> <r_epik_Ionization_Penalty_Neutral>
4.79381e-06

> <r_epik_State_Penalty>
-0

> <r_epik_Charging_Adjusted_Penalty>
1.29777e-07

> <i_epik_Tot_Q>
0

> <i_epik_Tot_abs_Q>
0

> <r_epik_Metal_State_Penalty>
-0

> <b_epik_Metal_Only>
0

> <s_epik_Chemistry_Notes>
This compound contains an acetal/aminal-like group ( X-CH(R)-Y where X, Y are N, S, or O) that may be acid/base labile, releasing an aldehyde.

> <s_lp_Force_Field>
OPLS_2005

> <r_lp_Energy>
42.5826

> <b_lp_Chiralities_Consistent>
1

> <s_lp_Variant>
AV-unprocessed.smi:284-1

> <Gold.Version>
5.8.1

> <Gold.Id.Protein>
6NUR|6NUR_protein|mol2

> <Gold.PLP.Fitness>
55.6949

> <Gold.PLP.PLP>
-48.5774

> <Gold.PLP.part.hbond>
-3.3946

> <Gold.PLP.part.metal>
0.0000

> <Gold.PLP.part.buried>
-5.9181

> <Gold.PLP.part.nonpolar>
-38.7611

> <Gold.PLP.part.repulsive>
0.1245

> <Gold.PLP.ligand.clash>
0.0000

> <Gold.PLP.ligand.torsion>
0.1395

> <Gold.PLP.Chemscore.Hbond>
2.4540

> <Gold.PLP.Chemscore.CHOScore>
0.0000

> <Gold.PLP.Chemscore.Metal>
0.0000

> <Gold.Chemscore.Hbonds>
donor molecule, donor type, donor heavy atom, donor atom, acceptor molecule, acceptor atom, score
      P1  H  6896  6907       L1    18  0.40
      P1  H  6896  6909       L1    14  0.43
      P1  H  6931  6943       L1    31  0.88
      P1  H  6934  6947       L1    31  0.31

> <Gold.PLP.Chemscore.Internal.Correction>
0.0344

> <Gold.Rescore>
     Score         DG    S(hbond)    S(metal)    S(lipo)     H(rot)  DE(clash)    DE(int)     intcor
     17.89     -20.97       2.59        0.00     130.08       3.27       0.12       2.96       ----

> <Gold.Chemscore.Fitness>
17.8901

> <Gold.Chemscore.DG>
-20.9658

> <Gold.Chemscore.ZeroCoef>
-5.4800

> <Gold.Chemscore.Hbond>
2.5889

> <Gold.Chemscore.Metal>
0.0000

> <Gold.Chemscore.Lipo>
130.0752

> <Gold.Chemscore.Internal_Hbond>
0.0000

> <Gold.Chemscore.DEClash>
0.1199

> <Gold.Chemscore.DEInternal>
2.9557

> <Gold.Chemscore.Rot>
3.2735

> <Gold.Chemscore.Internal.Correction>
   9.000000E+99

> <Gold.Chemscore.Hbonds>
donor molecule, donor type, donor heavy atom, donor atom, acceptor molecule, acceptor atom, score
      P1  H  6896  6907       L1    18  0.01
      P1  H  6896  6909       L1    14  0.21
      P1  H  6931  6943       L1    31  0.79
      P1  H  6934  6947       L1    31  0.32

> <Gold.Chemscore.Hbond.Weighted>
-8.6470

> <Gold.Chemscore.Metal.Weighted>
-0.0000

> <Gold.Chemscore.Lipo.Weighted>
-15.2188

> <Gold.Chemscore.Internal_Hbond.Weighted>
0.0000

> <Gold.Chemscore.DEClash.Weighted>
0.1199

> <Gold.Chemscore.DEInternal.Weighted>
2.9557

> <Gold.Chemscore.Rot.Weighted>
8.3801

> <Gold.Chemscore.Internal.Correction.Weighted>
   9.000000E+99

> <Gold.Protein.RotatedTorsions>
[ 6907 6896 6895 6894 ] final  -18.99 input  -60.11 | X-H torsion
[ 7974 7965 7964 7962 ] final  -32.98 input  175.53 | X-H torsion
[ 8008 7997 7996 7995 ] final  -46.53 input   59.86 | X-H torsion
[ 10167 10162 10161 10158 ] final   32.86 input  -65.29 | X-H torsion
[ 10718 10713 10712 10709 ] final  -78.82 input   66.30 | X-H torsion
[ 10763 10752 10751 10750 ] final  -37.28 input  -60.55 | X-H torsion
[ 11005 11000 10999 10996 ] final  137.68 input  -57.11 | X-H torsion

> <Gold.Protein.ActiveResidues>
 VAL166  LYS551  ARG553  GLY616  TRP617  ASP618  TYR619  PRO620  LYS621  CYS622 
 ASP623  PHE694  ASN695  SER759  ASP760  ASP761  ALA762  ILE779  LEU786  VAL792 
 PHE793  MET794  SER795  GLU796  ALA797  LYS798  CYS799  TRP800  GLU811  SER814 

> <Gold.Protein.RotatedAtoms>
  151.2698  135.0681  159.9129 H   0  0  0  0  0  0  0  0  0  0  0  0  # atno 6907 bound_to 6896
  152.5352  134.0142  159.7962 H   0  0  0  0  0  0  0  0  0  0  0  0  # atno 6908 bound_to 6896
  151.0378  133.5682  159.2685 H   0  0  0  0  0  0  0  0  0  0  0  0  # atno 6909 bound_to 6896
  146.0947  140.5859  142.8848 H   0  0  0  0  0  0  0  0  0  0  0  0  # atno 7974 bound_to 7965
  154.4008  140.1369  156.4027 H   0  0  0  0  0  0  0  0  0  0  0  0  # atno 8008 bound_to 7997
  155.7809  140.3481  155.5276 H   0  0  0  0  0  0  0  0  0  0  0  0  # atno 8009 bound_to 7997
  155.8675  140.0966  157.1563 H   0  0  0  0  0  0  0  0  0  0  0  0  # atno 8010 bound_to 7997
  140.4460  144.1118  150.6182 H   0  0  0  0  0  0  0  0  0  0  0  0  # atno 10167 bound_to 10162
  156.0108  130.4528  150.3555 H   0  0  0  0  0  0  0  0  0  0  0  0  # atno 10718 bound_to 10713
  153.8937  135.6809  153.4759 H   0  0  0  0  0  0  0  0  0  0  0  0  # atno 10763 bound_to 10752
  153.1167  135.4758  154.9125 H   0  0  0  0  0  0  0  0  0  0  0  0  # atno 10764 bound_to 10752
  154.7610  135.3210  154.8332 H   0  0  0  0  0  0  0  0  0  0  0  0  # atno 10765 bound_to 10752
  140.0131  134.9430  157.0319 H   0  0  0  0  0  0  0  0  0  0  0  0  # atno 11005 bound_to 11000
  144.7386  140.4880  143.6885 LP  0  0  0  0  0  0  0  0  0  0  0  0  # atno 17320 bound_to 7965
  145.5971  139.1500  143.3150 LP  0  0  0  0  0  0  0  0  0  0  0  0  # atno 17321 bound_to 7965
  140.4263  143.2588  151.9652 LP  0  0  0  0  0  0  0  0  0  0  0  0  # atno 17342 bound_to 10162
  139.4793  144.5785  151.7972 LP  0  0  0  0  0  0  0  0  0  0  0  0  # atno 17343 bound_to 10162
  157.1645  131.0353  151.2825 LP  0  0  0  0  0  0  0  0  0  0  0  0  # atno 17370 bound_to 10713
  157.4282  130.7476  149.6968 LP  0  0  0  0  0  0  0  0  0  0  0  0  # atno 17371 bound_to 10713
  140.4519  134.1573  155.7182 LP  0  0  0  0  0  0  0  0  0  0  0  0  # atno 17394 bound_to 11000
  141.1724  133.8581  157.1528 LP  0  0  0  0  0  0  0  0  0  0  0  0  # atno 17395 bound_to 11000

$$$$
