AV-unprocessed.smi:266|AV-procd|sdf|2037|dock6
  -GOLD-   2262021253D 1   1.00000     0.00000
 Structure written by MMmdl.
 52 55  0  0  0  0  0  0  0  0  1 V2000
  144.6084  134.6129  162.2816 C   0  0  0  0  0  0  0  0  0  0  0  0
  146.0937  134.6718  161.8844 C   0  0  2  0  0  0  0  0  0  0  0  0
  146.8391  134.7677  163.0998 O   0  0  0  0  0  0  0  0  0  0  0  0
  147.7414  135.8634  163.0471 C   0  0  0  0  0  0  0  0  0  0  0  0
  147.0829  136.8319  162.0772 C   0  0  0  0  0  0  0  0  0  0  0  0
  146.5125  135.8902  161.0225 C   0  0  2  0  0  0  0  0  0  0  0  0
  145.4118  136.5210  160.3916 O   0  0  0  0  0  0  0  0  0  0  0  0
  147.5305  135.4724  159.9271 C   0  0  0  0  0  0  0  0  0  0  0  0
  148.2260  136.5849  159.2971 N   0  0  0  0  0  0  0  0  0  0  0  0
  149.5217  136.9830  159.5347 C   0  0  0  0  0  0  0  0  0  0  0  0
  149.9224  138.0132  158.8422 N   0  0  0  0  0  0  0  0  0  0  0  0
  148.8289  138.3408  158.0484 C   0  0  0  0  0  0  0  0  0  0  0  0
  148.5686  139.3385  157.0629 C   0  0  0  0  0  0  0  0  0  0  0  0
  149.4474  140.2816  156.6439 N   0  0  0  0  0  0  0  0  0  0  0  0
  149.8426  140.1014  155.2537 C   0  0  0  0  0  0  0  0  0  0  0  0
  149.2975  141.6578  157.1163 C   0  0  0  0  0  0  0  0  0  0  0  0
  150.2260  142.0213  158.2949 C   0  0  1  0  0  0  0  0  0  0  0  0
  151.7169  141.7653  157.9934 C   0  0  0  0  0  0  0  0  0  0  0  0
  152.5585  142.4264  159.0897 C   0  0  0  0  0  0  0  0  0  0  0  0
  151.6322  143.9258  159.5886 S   0  0  0  0  0  0  0  0  0  0  0  0
  151.3971  143.8811  161.0397 O   0  0  0  0  0  0  0  0  0  0  0  0
  152.2315  145.1098  158.9544 O   0  0  0  0  0  0  0  0  0  0  0  0
  150.0855  143.4945  158.7049 C   0  0  0  0  0  0  0  0  0  0  0  0
  147.3343  139.3589  156.4992 N   0  0  0  0  0  0  0  0  0  0  0  0
  146.4165  138.4551  156.8535 C   0  0  0  0  0  0  0  0  0  0  0  0
  146.5202  137.4657  157.7421 N   0  0  0  0  0  0  0  0  0  0  0  0
  147.7527  137.4494  158.3250 C   0  0  0  0  0  0  0  0  0  0  0  0
  143.9677  134.4932  161.4076 H   0  0  0  0  0  0  0  0  0  0  0  0
  144.3001  135.5180  162.8060 H   0  0  0  0  0  0  0  0  0  0  0  0
  144.4184  133.7667  162.9422 H   0  0  0  0  0  0  0  0  0  0  0  0
  146.3555  133.7387  161.3834 H   0  0  0  0  0  0  0  0  0  0  0  0
  147.9000  136.2978  164.0344 H   0  0  0  0  0  0  0  0  0  0  0  0
  148.7047  135.5237  162.6651 H   0  0  0  0  0  0  0  0  0  0  0  0
  146.2772  137.3550  162.5950 H   0  0  0  0  0  0  0  0  0  0  0  0
  147.7661  137.5890  161.6950 H   0  0  0  0  0  0  0  0  0  0  0  0
  145.2814  136.1215  159.5451 H   0  0  0  0  0  0  0  0  0  0  0  0
  148.2838  134.8041  160.3461 H   0  0  0  0  0  0  0  0  0  0  0  0
  147.0268  134.8997  159.1471 H   0  0  0  0  0  0  0  0  0  0  0  0
  150.1615  136.4876  160.2506 H   0  0  0  0  0  0  0  0  0  0  0  0
  150.2902  139.1196  155.0951 H   0  0  0  0  0  0  0  0  0  0  0  0
  150.5792  140.8505  154.9619 H   0  0  0  0  0  0  0  0  0  0  0  0
  148.9796  140.1986  154.5939 H   0  0  0  0  0  0  0  0  0  0  0  0
  149.5069  142.3302  156.2838 H   0  0  0  0  0  0  0  0  0  0  0  0
  148.2563  141.8374  157.3833 H   0  0  0  0  0  0  0  0  0  0  0  0
  149.9642  141.4277  159.1710 H   0  0  0  0  0  0  0  0  0  0  0  0
  151.9379  140.7004  157.9148 H   0  0  0  0  0  0  0  0  0  0  0  0
  151.9715  142.2149  157.0325 H   0  0  0  0  0  0  0  0  0  0  0  0
  152.6399  141.7752  159.9602 H   0  0  0  0  0  0  0  0  0  0  0  0
  153.5615  142.6933  158.7568 H   0  0  0  0  0  0  0  0  0  0  0  0
  150.0125  144.1409  157.8297 H   0  0  0  0  0  0  0  0  0  0  0  0
  149.2220  143.6778  159.3445 H   0  0  0  0  0  0  0  0  0  0  0  0
  145.4626  138.5361  156.3533 H   0  0  0  0  0  0  0  0  0  0  0  0
  1  2  1  0  0  0  0
  1 28  1  0  0  0  0
  1 29  1  0  0  0  0
  1 30  1  0  0  0  0
  2  6  1  0  0  0  0
  2  3  1  0  0  0  0
  2 31  1  0  0  0  0
  3  4  1  0  0  0  0
  4  5  1  0  0  0  0
  4 32  1  0  0  0  0
  4 33  1  0  0  0  0
  5  6  1  0  0  0  0
  5 34  1  0  0  0  0
  5 35  1  0  0  0  0
  6  7  1  0  0  0  0
  6  8  1  0  0  0  0
  7 36  1  0  0  0  0
  8  9  1  0  0  0  0
  8 37  1  0  0  0  0
  8 38  1  0  0  0  0
  9 27  1  0  0  0  0
  9 10  1  0  0  0  0
 10 11  2  0  0  0  0
 10 39  1  0  0  0  0
 11 12  1  0  0  0  0
 12 27  2  0  0  0  0
 12 13  1  0  0  0  0
 13 14  1  0  0  0  0
 13 24  2  0  0  0  0
 14 15  1  0  0  0  0
 14 16  1  0  0  0  0
 15 40  1  0  0  0  0
 15 41  1  0  0  0  0
 15 42  1  0  0  0  0
 16 17  1  0  0  0  0
 16 43  1  0  0  0  0
 16 44  1  0  0  0  0
 17 23  1  0  0  0  0
 17 18  1  0  0  0  0
 17 45  1  0  0  0  0
 18 19  1  0  0  0  0
 18 46  1  0  0  0  0
 18 47  1  0  0  0  0
 19 20  1  0  0  0  0
 19 48  1  0  0  0  0
 19 49  1  0  0  0  0
 20 21  2  0  0  0  0
 20 22  2  0  0  0  0
 20 23  1  0  0  0  0
 23 50  1  0  0  0  0
 23 51  1  0  0  0  0
 24 25  1  0  0  0  0
 25 26  2  0  0  0  0
 25 52  1  0  0  0  0
 26 27  1  0  0  0  0
M  END
> <s_m_source_file>
AV-unprocessed.smi

> <i_m_source_file_index>
266

> <i_lp_mmshare_version>
43012

> <i_f3d_flags>
0

> <s_epik_input>
W0NIMl0xW0NIMl1PW0NAQEhdKFtDSDNdKVtDQEBdMShbT0hdKVtDSDJdbihbY0hdbjIpYyhjMjMpbltjSF1uYzNOKFtDSDNdKVtDSDJdW0NAQEhdKFtDSDJdNClbQ0gyXVtDSDJdUzQoPU8pPU8=

> <s_epik_cmdline>
J2VwaWtfcHl0aG9uJywgJy1waCcsICc3LjAnLCAnLXRuJywgJzgnLCAnLW1hJywgJzIwMCcsICctbWV0YWxfYmluZGluZycsICctaW1hZScsICc8aW5maWxlLm1hZT4nLCAnLW9tYWUnLCAnPG91dGZpbGUubWFlPic=

> <r_lp_tautomer_probability>
1

> <r_epik_Ionization_Penalty>
0.00155497

> <r_epik_Ionization_Penalty_Charging>
0

> <r_epik_Ionization_Penalty_Neutral>
0.00155497

> <r_epik_State_Penalty>
-0

> <r_epik_Charging_Adjusted_Penalty>
0

> <i_epik_Tot_Q>
0

> <i_epik_Tot_abs_Q>
0

> <r_epik_Metal_State_Penalty>
-0

> <b_epik_Metal_Only>
0

> <s_lp_Force_Field>
OPLS_2005

> <r_lp_Energy>
32.6677

> <b_lp_Chiralities_Consistent>
1

> <s_lp_Variant>
AV-unprocessed.smi:266-7

> <Gold.Version>
5.8.1

> <Gold.Id.Protein>
6NUR|6NUR_protein|mol2

> <Gold.PLP.Fitness>
37.0766

> <Gold.PLP.PLP>
-38.9078

> <Gold.PLP.part.hbond>
-0.7671

> <Gold.PLP.part.metal>
0.0000

> <Gold.PLP.part.buried>
-8.0221

> <Gold.PLP.part.nonpolar>
-29.8317

> <Gold.PLP.part.repulsive>
0.2234

> <Gold.PLP.ligand.clash>
0.0000

> <Gold.PLP.ligand.torsion>
1.2278

> <Gold.PLP.Chemscore.Hbond>
0.0000

> <Gold.PLP.Chemscore.CHOScore>
0.0000

> <Gold.PLP.Chemscore.Metal>
0.0000

> <Gold.PLP.Chemscore.Internal.Correction>
0.6244

> <Gold.Rescore>
     Score         DG    S(hbond)    S(metal)    S(lipo)     H(rot)  DE(clash)    DE(int)     intcor
      7.16      -8.52       0.00        0.00      86.43       2.76       0.03       1.33       ----

> <Gold.Chemscore.Fitness>
7.1609

> <Gold.Chemscore.DG>
-8.5172

> <Gold.Chemscore.ZeroCoef>
-5.4800

> <Gold.Chemscore.Hbond>
0.0000

> <Gold.Chemscore.Metal>
0.0000

> <Gold.Chemscore.Lipo>
86.4290

> <Gold.Chemscore.Internal_Hbond>
0.0000

> <Gold.Chemscore.DEClash>
0.0255

> <Gold.Chemscore.DEInternal>
1.3308

> <Gold.Chemscore.Rot>
2.7637

> <Gold.Chemscore.Internal.Correction>
   9.000000E+99

> <Gold.Chemscore.Hbond.Weighted>
-0.0000

> <Gold.Chemscore.Metal.Weighted>
-0.0000

> <Gold.Chemscore.Lipo.Weighted>
-10.1122

> <Gold.Chemscore.Internal_Hbond.Weighted>
0.0000

> <Gold.Chemscore.DEClash.Weighted>
0.0255

> <Gold.Chemscore.DEInternal.Weighted>
1.3308

> <Gold.Chemscore.Rot.Weighted>
7.0750

> <Gold.Chemscore.Internal.Correction.Weighted>
   9.000000E+99

> <Gold.Protein.RotatedTorsions>
[ 6907 6896 6895 6894 ] final   38.36 input  -60.11 | X-H torsion
[ 7974 7965 7964 7962 ] final -152.43 input  175.53 | X-H torsion
[ 8008 7997 7996 7995 ] final -153.99 input   59.86 | X-H torsion
[ 10167 10162 10161 10158 ] final  106.15 input  -65.29 | X-H torsion
[ 10718 10713 10712 10709 ] final  149.89 input   66.30 | X-H torsion
[ 10763 10752 10751 10750 ] final  -24.27 input  -60.55 | X-H torsion
[ 11005 11000 10999 10996 ] final    4.02 input  -57.11 | X-H torsion

> <Gold.Protein.ActiveResidues>
 VAL166  LYS551  ARG553  GLY616  TRP617  ASP618  TYR619  PRO620  LYS621  CYS622 
 ASP623  PHE694  ASN695  SER759  ASP760  ASP761  ALA762  ILE779  LEU786  VAL792 
 PHE793  MET794  SER795  GLU796  ALA797  LYS798  CYS799  TRP800  GLU811  SER814 

> <Gold.Protein.RotatedAtoms>
  152.1554  134.8955  160.0545 H   0  0  0  0  0  0  0  0  0  0  0  0  # atno 6907 bound_to 6896
  151.9971  133.3807  159.4175 H   0  0  0  0  0  0  0  0  0  0  0  0  # atno 6908 bound_to 6896
  150.6881  134.3796  159.5072 H   0  0  0  0  0  0  0  0  0  0  0  0  # atno 6909 bound_to 6896
  144.7795  140.4663  143.5850 H   0  0  0  0  0  0  0  0  0  0  0  0  # atno 7974 bound_to 7965
  155.6793  140.0742  157.2490 H   0  0  0  0  0  0  0  0  0  0  0  0  # atno 8008 bound_to 7997
  154.4108  140.1685  156.2017 H   0  0  0  0  0  0  0  0  0  0  0  0  # atno 8009 bound_to 7997
  155.9548  140.3374  155.6442 H   0  0  0  0  0  0  0  0  0  0  0  0  # atno 8010 bound_to 7997
  139.7033  144.7090  151.1149 H   0  0  0  0  0  0  0  0  0  0  0  0  # atno 10167 bound_to 10162
  157.2904  131.0852  151.1466 H   0  0  0  0  0  0  0  0  0  0  0  0  # atno 10718 bound_to 10713
  153.6812  135.6967  153.5117 H   0  0  0  0  0  0  0  0  0  0  0  0  # atno 10763 bound_to 10752
  153.2484  135.4283  155.0771 H   0  0  0  0  0  0  0  0  0  0  0  0  # atno 10764 bound_to 10752
  154.8399  135.3525  154.6355 H   0  0  0  0  0  0  0  0  0  0  0  0  # atno 10765 bound_to 10752
  140.5866  133.9963  155.8070 H   0  0  0  0  0  0  0  0  0  0  0  0  # atno 11005 bound_to 11000
  145.6092  139.1511  143.3085 LP  0  0  0  0  0  0  0  0  0  0  0  0  # atno 17320 bound_to 7965
  146.1994  140.6209  142.9109 LP  0  0  0  0  0  0  0  0  0  0  0  0  # atno 17321 bound_to 7965
  140.7715  143.5394  150.9331 LP  0  0  0  0  0  0  0  0  0  0  0  0  # atno 17342 bound_to 10162
  139.9076  143.6759  152.3121 LP  0  0  0  0  0  0  0  0  0  0  0  0  # atno 17343 bound_to 10162
  157.2865  130.6775  149.6092 LP  0  0  0  0  0  0  0  0  0  0  0  0  # atno 17370 bound_to 10713
  155.9667  130.4434  150.5419 LP  0  0  0  0  0  0  0  0  0  0  0  0  # atno 17371 bound_to 10713
  141.0962  133.9840  157.3156 LP  0  0  0  0  0  0  0  0  0  0  0  0  # atno 17394 bound_to 11000
  139.9293  135.0200  156.8344 LP  0  0  0  0  0  0  0  0  0  0  0  0  # atno 17395 bound_to 11000

$$$$
