AV-unprocessed.smi:315|AV-procd|sdf|2318|dock1
  -GOLD-   2262022223D 1   1.00000     0.00000
 Structure written by MMmdl.
 47 49  0  0  0  0  0  0  0  0  2 V2000
  152.2456  139.2067  155.8924 C   0  0  0  0  0  0  0  0  0  0  0  0
  152.1869  138.7057  154.4474 C   0  0  0  0  0  0  0  0  0  0  0  0
  150.8544  138.2893  154.1689 O   0  0  0  0  0  0  0  0  0  0  0  0
  149.8270  139.2027  154.3101 C   0  0  0  0  0  0  0  0  0  0  0  0
  150.1356  140.4784  154.6519 N   0  0  0  0  0  0  0  0  0  0  0  0
  149.1293  141.3662  154.7903 C   0  0  0  0  0  0  0  0  0  0  0  0
  147.7750  141.0313  154.6048 C   0  0  0  0  0  0  0  0  0  0  0  0
  147.4527  139.7080  154.2507 C   0  0  0  0  0  0  0  0  0  0  0  0
  148.4998  138.7696  154.0876 C   0  0  0  0  0  0  0  0  0  0  0  0
  148.2984  137.4049  153.7488 N   0  0  0  0  0  0  0  0  0  0  0  0
  147.3186  136.5670  154.1377 C   0  0  0  0  0  0  0  0  0  0  0  0
  146.4344  136.8434  154.9446 O   0  0  0  0  0  0  0  0  0  0  0  0
  147.3702  135.3599  153.5470 N   0  0  0  0  0  0  0  0  0  0  0  0
  146.4648  134.2262  153.7426 C   0  0  2  0  0  0  0  0  0  0  0  0
  147.1138  133.0071  154.4300 C   0  0  0  0  0  0  0  0  0  0  0  0
  146.5227  131.7726  153.7217 C   0  0  0  0  0  0  0  0  0  0  0  0
  145.5248  132.3069  152.7758 N   0  3  2  0  0  0  0  0  0  0  0  0
  145.1943  131.4727  151.5999 C   0  0  0  0  0  0  0  0  0  0  0  0
  144.0835  132.1636  150.7830 C   0  0  0  0  0  0  0  0  0  0  0  0
  144.4560  133.6169  150.4236 C   0  0  0  0  0  0  0  0  0  0  0  0
  144.8789  134.4086  151.6759 C   0  0  0  0  0  0  0  0  0  0  0  0
  145.9981  133.6496  152.4070 C   0  0  1  0  0  0  0  0  0  0  0  0
  153.2519  139.5370  156.1498 H   0  0  0  0  0  0  0  0  0  0  0  0
  151.9634  138.4184  156.5906 H   0  0  0  0  0  0  0  0  0  0  0  0
  151.5683  140.0477  156.0431 H   0  0  0  0  0  0  0  0  0  0  0  0
  152.4853  139.5058  153.7680 H   0  0  0  0  0  0  0  0  0  0  0  0
  152.8822  137.8744  154.3200 H   0  0  0  0  0  0  0  0  0  0  0  0
  149.4114  142.3724  155.0630 H   0  0  0  0  0  0  0  0  0  0  0  0
  147.0001  141.7721  154.7353 H   0  0  0  0  0  0  0  0  0  0  0  0
  146.4154  139.4397  154.1259 H   0  0  0  0  0  0  0  0  0  0  0  0
  148.9209  137.0485  153.0386 H   0  0  0  0  0  0  0  0  0  0  0  0
  148.1227  135.2159  152.8887 H   0  0  0  0  0  0  0  0  0  0  0  0
  145.5893  134.5418  154.3141 H   0  0  0  0  0  0  0  0  0  0  0  0
  148.1984  133.0145  154.3123 H   0  0  0  0  0  0  0  0  0  0  0  0
  146.9011  132.9992  155.4999 H   0  0  0  0  0  0  0  0  0  0  0  0
  147.3072  131.2417  153.1801 H   0  0  0  0  0  0  0  0  0  0  0  0
  146.0598  131.0744  154.4195 H   0  0  0  0  0  0  0  0  0  0  0  0
  146.0844  131.3255  150.9862 H   0  0  0  0  0  0  0  0  0  0  0  0
  144.8627  130.4879  151.9304 H   0  0  0  0  0  0  0  0  0  0  0  0
  143.8778  131.5951  149.8756 H   0  0  0  0  0  0  0  0  0  0  0  0
  143.1587  132.1638  151.3614 H   0  0  0  0  0  0  0  0  0  0  0  0
  145.2756  133.6127  149.7038 H   0  0  0  0  0  0  0  0  0  0  0  0
  143.6162  134.1102  149.9331 H   0  0  0  0  0  0  0  0  0  0  0  0
  145.2183  135.4055  151.3931 H   0  0  0  0  0  0  0  0  0  0  0  0
  144.0212  134.5442  152.3362 H   0  0  0  0  0  0  0  0  0  0  0  0
  146.8590  133.5429  151.7422 H   0  0  0  0  0  0  0  0  0  0  0  0
  144.6725  132.4389  153.3014 H   0  0  0  0  0  0  0  0  0  0  0  0
  1  2  1  0  0  0  0
  1 23  1  0  0  0  0
  1 24  1  0  0  0  0
  1 25  1  0  0  0  0
  2  3  1  0  0  0  0
  2 26  1  0  0  0  0
  2 27  1  0  0  0  0
  3  4  1  0  0  0  0
  4  9  1  0  0  0  0
  4  5  2  0  0  0  0
  5  6  1  0  0  0  0
  6  7  2  0  0  0  0
  6 28  1  0  0  0  0
  7  8  1  0  0  0  0
  7 29  1  0  0  0  0
  8  9  2  0  0  0  0
  8 30  1  0  0  0  0
  9 10  1  0  0  0  0
 10 11  1  0  0  0  0
 10 31  1  0  0  0  0
 11 12  2  0  0  0  0
 11 13  1  0  0  0  0
 13 14  1  0  0  0  0
 13 32  1  0  0  0  0
 14 22  1  0  0  0  0
 14 15  1  0  0  0  0
 14 33  1  0  0  0  0
 15 16  1  0  0  0  0
 15 34  1  0  0  0  0
 15 35  1  0  0  0  0
 16 17  1  0  0  0  0
 16 36  1  0  0  0  0
 16 37  1  0  0  0  0
 17 22  1  0  0  0  0
 17 18  1  0  0  0  0
 17 47  1  0  0  0  0
 18 19  1  0  0  0  0
 18 38  1  0  0  0  0
 18 39  1  0  0  0  0
 19 20  1  0  0  0  0
 19 40  1  0  0  0  0
 19 41  1  0  0  0  0
 20 21  1  0  0  0  0
 20 42  1  0  0  0  0
 20 43  1  0  0  0  0
 21 22  1  0  0  0  0
 21 44  1  0  0  0  0
 21 45  1  0  0  0  0
 22 46  1  0  0  0  0
M  CHG  1  17   1
M  END
> <s_m_source_file>
AV-unprocessed.smi

> <i_m_source_file_index>
315

> <i_lp_mmshare_version>
43012

> <i_f3d_flags>
0

> <s_epik_input>
W0NIM11bQ0gyXU9jMW5bY0hdW2NIXVtjSF1jMVtOSF1DKD1PKVtOSF1bQ0BIXShbQ0gyXVtDSDJdMilbQ0BASF0oTjIzKVtDSDJdW0NIMl1bQ0gyXVtDSDJdMw==

> <s_epik_cmdline>
J2VwaWtfcHl0aG9uJywgJy1waCcsICc3LjAnLCAnLXRuJywgJzgnLCAnLW1hJywgJzIwMCcsICctbWV0YWxfYmluZGluZycsICctaW1hZScsICc8aW5maWxlLm1hZT4nLCAnLW9tYWUnLCAnPG91dGZpbGUubWFlPic=

> <r_lp_tautomer_probability>
1

> <r_epik_Ionization_Penalty>
0.00106455

> <r_epik_Ionization_Penalty_Charging>
0.000974069

> <r_epik_Ionization_Penalty_Neutral>
9.04821e-05

> <r_epik_State_Penalty>
0.000633842

> <r_epik_Charging_Adjusted_Penalty>
0.00160791

> <i_epik_Tot_Q>
1

> <i_epik_Tot_abs_Q>
1

> <r_epik_Metal_State_Penalty>
-0

> <b_epik_Metal_Only>
0

> <s_lp_Force_Field>
OPLS_2005

> <r_lp_Energy>
47.5763

> <b_lp_Chiralities_Consistent>
1

> <s_lp_Variant>
AV-unprocessed.smi:315-3

> <Gold.Version>
5.8.1

> <Gold.Id.Protein>
6NUR|6NUR_protein|mol2

> <Gold.PLP.Fitness>
44.6493

> <Gold.PLP.PLP>
-32.4039

> <Gold.PLP.part.hbond>
-3.4565

> <Gold.PLP.part.metal>
0.0000

> <Gold.PLP.part.buried>
-5.9643

> <Gold.PLP.part.nonpolar>
-25.8436

> <Gold.PLP.part.repulsive>
0.3599

> <Gold.PLP.ligand.clash>
0.0000

> <Gold.PLP.ligand.torsion>
0.3781

> <Gold.PLP.Chemscore.Hbond>
3.3274

> <Gold.PLP.Chemscore.CHOScore>
1.0000

> <Gold.PLP.Chemscore.Metal>
0.0000

> <Gold.Chemscore.Hbonds>
donor molecule, donor type, donor heavy atom, donor atom, acceptor molecule, acceptor atom, score
      L1  H    10    31       P1  7948  0.63
      L1  H    13    32       P1  7948  0.70
      P1  H  7989  7998       L1     5  0.93
      L1  C     6    28       P1  8028  1.00

> <Gold.PLP.Chemscore.Internal.Correction>
0.0193

> <Gold.Rescore>
     Score         DG    S(hbond)    S(metal)    S(lipo)     H(rot)  DE(clash)    DE(int)     intcor
     17.32     -20.01       2.92        0.00      70.83       1.38       0.06       2.63       ----

> <Gold.Chemscore.Fitness>
17.3191

> <Gold.Chemscore.DG>
-20.0094

> <Gold.Chemscore.ZeroCoef>
-5.4800

> <Gold.Chemscore.Hbond>
2.9245

> <Gold.Chemscore.Metal>
0.0000

> <Gold.Chemscore.Lipo>
70.8272

> <Gold.Chemscore.Internal_Hbond>
0.0000

> <Gold.Chemscore.DEClash>
0.0621

> <Gold.Chemscore.DEInternal>
2.6282

> <Gold.Chemscore.Rot>
1.3770

> <Gold.Chemscore.Internal.Correction>
   9.000000E+99

> <Gold.Chemscore.Hbonds>
donor molecule, donor type, donor heavy atom, donor atom, acceptor molecule, acceptor atom, score
      L1  H    10    31       P1  7948  0.61
      L1  H    13    32       P1  7948  0.69
      P1  H  7989  7998       L1     5  0.35

> <Gold.Chemscore.Hbond.Weighted>
-9.7678

> <Gold.Chemscore.Metal.Weighted>
-0.0000

> <Gold.Chemscore.Lipo.Weighted>
-8.2868

> <Gold.Chemscore.Internal_Hbond.Weighted>
0.0000

> <Gold.Chemscore.DEClash.Weighted>
0.0621

> <Gold.Chemscore.DEInternal.Weighted>
2.6282

> <Gold.Chemscore.Rot.Weighted>
3.5252

> <Gold.Chemscore.Internal.Correction.Weighted>
   9.000000E+99

> <Gold.Protein.RotatedTorsions>
[ 6907 6896 6895 6894 ] final   28.84 input  -60.11 | X-H torsion
[ 7974 7965 7964 7962 ] final  -70.13 input  175.53 | X-H torsion
[ 8008 7997 7996 7995 ] final   74.80 input   59.86 | X-H torsion
[ 10167 10162 10161 10158 ] final -159.55 input  -65.29 | X-H torsion
[ 10718 10713 10712 10709 ] final   -1.97 input   66.30 | X-H torsion
[ 10763 10752 10751 10750 ] final  -30.54 input  -60.55 | X-H torsion
[ 11005 11000 10999 10996 ] final   92.16 input  -57.11 | X-H torsion

> <Gold.Protein.ActiveResidues>
 VAL166  LYS551  ARG553  GLY616  TRP617  ASP618  TYR619  PRO620  LYS621  CYS622 
 ASP623  PHE694  ASN695  SER759  ASP760  ASP761  ALA762  ILE779  LEU786  VAL792 
 PHE793  MET794  SER795  GLU796  ALA797  LYS798  CYS799  TRP800  GLU811  SER814 

> <Gold.Protein.RotatedAtoms>
  152.0228  134.9813  160.0570 H   0  0  0  0  0  0  0  0  0  0  0  0  # atno 6907 bound_to 6896
  152.1320  133.4409  159.4734 H   0  0  0  0  0  0  0  0  0  0  0  0  # atno 6908 bound_to 6896
  150.6857  134.2327  159.4484 H   0  0  0  0  0  0  0  0  0  0  0  0  # atno 6909 bound_to 6896
  145.6949  140.9139  143.0762 H   0  0  0  0  0  0  0  0  0  0  0  0  # atno 7974 bound_to 7965
  155.8036  140.3475  155.5417 H   0  0  0  0  0  0  0  0  0  0  0  0  # atno 8008 bound_to 7997
  155.8513  140.0956  157.1693 H   0  0  0  0  0  0  0  0  0  0  0  0  # atno 8009 bound_to 7997
  154.4008  140.1376  156.3835 H   0  0  0  0  0  0  0  0  0  0  0  0  # atno 8010 bound_to 7997
  139.6607  143.9918  152.2223 H   0  0  0  0  0  0  0  0  0  0  0  0  # atno 10167 bound_to 10162
  156.7977  130.5382  149.5726 H   0  0  0  0  0  0  0  0  0  0  0  0  # atno 10718 bound_to 10713
  153.7826  135.6904  153.4886 H   0  0  0  0  0  0  0  0  0  0  0  0  # atno 10763 bound_to 10752
  153.1802  135.4509  155.0016 H   0  0  0  0  0  0  0  0  0  0  0  0  # atno 10764 bound_to 10752
  154.8076  135.3363  154.7328 H   0  0  0  0  0  0  0  0  0  0  0  0  # atno 10765 bound_to 10752
  139.8827  134.8716  156.3532 H   0  0  0  0  0  0  0  0  0  0  0  0  # atno 11005 bound_to 11000
  144.6985  139.8871  143.7451 LP  0  0  0  0  0  0  0  0  0  0  0  0  # atno 17320 bound_to 7965
  146.0849  139.3837  143.0441 LP  0  0  0  0  0  0  0  0  0  0  0  0  # atno 17321 bound_to 7965
  139.9656  144.6528  150.8037 LP  0  0  0  0  0  0  0  0  0  0  0  0  # atno 17342 bound_to 10162
  140.7578  143.3095  151.2880 LP  0  0  0  0  0  0  0  0  0  0  0  0  # atno 17343 bound_to 10162
  156.1120  130.6047  151.0062 LP  0  0  0  0  0  0  0  0  0  0  0  0  # atno 17370 bound_to 10713
  157.6569  131.0888  150.7927 LP  0  0  0  0  0  0  0  0  0  0  0  0  # atno 17371 bound_to 10713
  140.9580  133.7407  156.0362 LP  0  0  0  0  0  0  0  0  0  0  0  0  # atno 17394 bound_to 11000
  140.8025  134.3493  157.5435 LP  0  0  0  0  0  0  0  0  0  0  0  0  # atno 17395 bound_to 11000

$$$$
