AV-unprocessed.smi:1966|AV-procd|sdf|7950|dock2
  -GOLD-   2272010113D 1   1.00000     0.00000
 Structure written by MMmdl.
 53 54  0  0  0  0  0  0  0  0  1 V2000
  145.9919  131.5390  148.6746 C   0  0  0  0  0  0  0  0  0  0  0  0
  145.3542  131.8851  150.0155 C   0  0  0  0  0  0  0  0  0  0  0  0
  144.1707  132.2179  150.0702 O   0  0  0  0  0  0  0  0  0  0  0  0
  146.1532  131.8027  151.0913 N   0  0  0  0  0  0  0  0  0  0  0  0
  145.7582  132.1049  152.4689 C   0  0  2  0  0  0  0  0  0  0  0  0
  145.2907  133.5724  152.5381 C   0  0  0  0  0  0  0  0  0  0  0  0
  145.9847  134.4602  152.0412 O   0  0  0  0  0  0  0  0  0  0  0  0
  144.1326  133.7813  153.1918 N   0  0  0  0  0  0  0  0  0  0  0  0
  143.4315  134.9990  153.4070 C   0  0  0  0  0  0  0  0  0  0  0  0
  143.6408  136.1881  152.6701 C   0  0  0  0  0  0  0  0  0  0  0  0
  142.8626  137.3226  152.9698 C   0  0  0  0  0  0  0  0  0  0  0  0
  141.8854  137.2444  153.9897 C   0  0  0  0  0  0  0  0  0  0  0  0
  141.0914  138.3701  154.2995 N   0  0  0  0  0  0  0  0  0  0  0  0
  140.0634  138.7690  153.3421 C   0  0  0  0  0  0  0  0  0  0  0  0
  139.0942  139.7781  153.9832 C   0  0  2  0  0  0  0  0  0  0  0  0
  138.0820  140.3215  152.9695 C   0  0  0  0  0  0  0  0  0  0  0  0
  139.8306  140.8827  154.5064 O   0  0  0  0  0  0  0  0  0  0  0  0
  140.8252  140.5348  155.4720 C   0  0  1  0  0  0  0  0  0  0  0  0
  140.2071  140.0929  156.8107 C   0  0  0  0  0  0  0  0  0  0  0  0
  141.8065  139.5038  154.8800 C   0  0  0  0  0  0  0  0  0  0  0  0
  141.6845  136.1017  154.6907 N   0  0  0  0  0  0  0  0  0  0  0  0
  142.4323  135.0167  154.4005 C   0  0  0  0  0  0  0  0  0  0  0  0
  146.9849  131.8833  153.4029 C   0  0  0  0  0  0  0  0  0  0  0  0
  148.1481  132.8335  153.0553 C   0  0  0  0  0  0  0  0  0  0  0  0
  147.5016  130.4294  153.3914 C   0  0  0  0  0  0  0  0  0  0  0  0
  146.8301  132.2054  148.4690 H   0  0  0  0  0  0  0  0  0  0  0  0
  145.2696  131.6390  147.8638 H   0  0  0  0  0  0  0  0  0  0  0  0
  146.3590  130.5125  148.6808 H   0  0  0  0  0  0  0  0  0  0  0  0
  147.1132  131.5252  150.9475 H   0  0  0  0  0  0  0  0  0  0  0  0
  144.9473  131.4388  152.7720 H   0  0  0  0  0  0  0  0  0  0  0  0
  143.7158  132.9649  153.6156 H   0  0  0  0  0  0  0  0  0  0  0  0
  144.3684  136.2551  151.8769 H   0  0  0  0  0  0  0  0  0  0  0  0
  143.0304  138.2378  152.4219 H   0  0  0  0  0  0  0  0  0  0  0  0
  140.5416  139.2085  152.4654 H   0  0  0  0  0  0  0  0  0  0  0  0
  139.5028  137.8960  153.0054 H   0  0  0  0  0  0  0  0  0  0  0  0
  138.5391  139.2926  154.7858 H   0  0  0  0  0  0  0  0  0  0  0  0
  137.4811  139.5170  152.5449 H   0  0  0  0  0  0  0  0  0  0  0  0
  138.5828  140.8354  152.1484 H   0  0  0  0  0  0  0  0  0  0  0  0
  137.4021  141.0311  153.4416 H   0  0  0  0  0  0  0  0  0  0  0  0
  141.3858  141.4484  155.6716 H   0  0  0  0  0  0  0  0  0  0  0  0
  140.9797  139.9709  157.5701 H   0  0  0  0  0  0  0  0  0  0  0  0
  139.6821  139.1413  156.7300 H   0  0  0  0  0  0  0  0  0  0  0  0
  139.4994  140.8367  157.1772 H   0  0  0  0  0  0  0  0  0  0  0  0
  142.5114  139.1938  155.6501 H   0  0  0  0  0  0  0  0  0  0  0  0
  142.3954  139.9727  154.0906 H   0  0  0  0  0  0  0  0  0  0  0  0
  142.2250  134.1323  154.9856 H   0  0  0  0  0  0  0  0  0  0  0  0
  146.6849  132.1095  154.4277 H   0  0  0  0  0  0  0  0  0  0  0  0
  148.4835  132.6868  152.0282 H   0  0  0  0  0  0  0  0  0  0  0  0
  149.0033  132.6631  153.7098 H   0  0  0  0  0  0  0  0  0  0  0  0
  147.8686  133.8813  153.1672 H   0  0  0  0  0  0  0  0  0  0  0  0
  147.7707  130.1145  152.3827 H   0  0  0  0  0  0  0  0  0  0  0  0
  146.7622  129.7264  153.7751 H   0  0  0  0  0  0  0  0  0  0  0  0
  148.3878  130.3240  154.0179 H   0  0  0  0  0  0  0  0  0  0  0  0
  1  2  1  0  0  0  0
  1 26  1  0  0  0  0
  1 27  1  0  0  0  0
  1 28  1  0  0  0  0
  2  3  2  0  0  0  0
  2  4  1  0  0  0  0
  4  5  1  0  0  0  0
  4 29  1  0  0  0  0
  5  6  1  0  0  0  0
  5 23  1  0  0  0  0
  5 30  1  0  0  0  0
  6  7  2  0  0  0  0
  6  8  1  0  0  0  0
  8  9  1  0  0  0  0
  8 31  1  0  0  0  0
  9 22  1  0  0  0  0
  9 10  2  0  0  0  0
 10 11  1  0  0  0  0
 10 32  1  0  0  0  0
 11 12  2  0  0  0  0
 11 33  1  0  0  0  0
 12 13  1  0  0  0  0
 12 21  1  0  0  0  0
 13 20  1  0  0  0  0
 13 14  1  0  0  0  0
 14 15  1  0  0  0  0
 14 34  1  0  0  0  0
 14 35  1  0  0  0  0
 15 16  1  0  0  0  0
 15 17  1  0  0  0  0
 15 36  1  0  0  0  0
 16 37  1  0  0  0  0
 16 38  1  0  0  0  0
 16 39  1  0  0  0  0
 17 18  1  0  0  0  0
 18 19  1  0  0  0  0
 18 20  1  0  0  0  0
 18 40  1  0  0  0  0
 19 41  1  0  0  0  0
 19 42  1  0  0  0  0
 19 43  1  0  0  0  0
 20 44  1  0  0  0  0
 20 45  1  0  0  0  0
 21 22  2  0  0  0  0
 22 46  1  0  0  0  0
 23 24  1  0  0  0  0
 23 25  1  0  0  0  0
 23 47  1  0  0  0  0
 24 48  1  0  0  0  0
 24 49  1  0  0  0  0
 24 50  1  0  0  0  0
 25 51  1  0  0  0  0
 25 52  1  0  0  0  0
 25 53  1  0  0  0  0
M  END
> <s_m_source_file>
AV-unprocessed.smi

> <i_m_source_file_index>
1966

> <i_lp_mmshare_version>
43012

> <i_f3d_flags>
0

> <s_epik_input>
W0NIM11DKD1PKVtOSF1bQ0BASF0oW0NIXShbQ0gzXSlbQ0gzXSlDKD1PKVtOSF1jMVtjSF1bY0hdYyhuW2NIXTEpTjJbQ0gyXVtDQEBIXShbQ0gzXSlPW0NAQEhdKFtDSDNdKVtDSDJdMg==

> <s_epik_cmdline>
J2VwaWtfcHl0aG9uJywgJy1waCcsICc3LjAnLCAnLXRuJywgJzgnLCAnLW1hJywgJzIwMCcsICctbWV0YWxfYmluZGluZycsICctaW1hZScsICc8aW5maWxlLm1hZT4nLCAnLW9tYWUnLCAnPG91dGZpbGUubWFlPic=

> <r_lp_tautomer_probability>
1

> <r_epik_Ionization_Penalty>
0.000679699

> <r_epik_Ionization_Penalty_Charging>
0

> <r_epik_Ionization_Penalty_Neutral>
0.000679699

> <r_epik_State_Penalty>
0.000430485

> <r_epik_Charging_Adjusted_Penalty>
0.000430485

> <i_epik_Tot_Q>
0

> <i_epik_Tot_abs_Q>
0

> <r_epik_Metal_State_Penalty>
-0

> <b_epik_Metal_Only>
0

> <s_lp_Force_Field>
OPLS_2005

> <r_lp_Energy>
28.7238

> <b_lp_Chiralities_Consistent>
1

> <s_lp_Variant>
AV-unprocessed.smi:1966-3

> <Gold.Version>
5.8.1

> <Gold.Id.Protein>
6NUR|6NUR_protein|mol2

> <Gold.PLP.Fitness>
42.8025

> <Gold.PLP.PLP>
-32.0197

> <Gold.PLP.part.hbond>
-2.7324

> <Gold.PLP.part.metal>
0.0000

> <Gold.PLP.part.buried>
-0.8155

> <Gold.PLP.part.nonpolar>
-29.0025

> <Gold.PLP.part.repulsive>
0.6182

> <Gold.PLP.ligand.clash>
0.0000

> <Gold.PLP.ligand.torsion>
0.4868

> <Gold.PLP.Chemscore.Hbond>
1.9913

> <Gold.PLP.Chemscore.CHOScore>
1.8156

> <Gold.PLP.Chemscore.Metal>
0.0000

> <Gold.Chemscore.Hbonds>
donor molecule, donor type, donor heavy atom, donor atom, acceptor molecule, acceptor atom, score
      L1  H     4    29       P1 10747  0.84
      L1  H     8    31       P1 10957  1.00
      L1  C    22    46       P1 10957  1.00
      L1  C    22    46       P1 11000  0.82

> <Gold.PLP.Chemscore.Internal.Correction>
0.3356

> <Gold.Rescore>
     Score         DG    S(hbond)    S(metal)    S(lipo)     H(rot)  DE(clash)    DE(int)     intcor
     13.32     -16.14       1.78        0.00      77.04       1.68       0.08       2.73       ----

> <Gold.Chemscore.Fitness>
13.3249

> <Gold.Chemscore.DG>
-16.1441

> <Gold.Chemscore.ZeroCoef>
-5.4800

> <Gold.Chemscore.Hbond>
1.7786

> <Gold.Chemscore.Metal>
0.0000

> <Gold.Chemscore.Lipo>
77.0400

> <Gold.Chemscore.Internal_Hbond>
0.0000

> <Gold.Chemscore.DEClash>
0.0848

> <Gold.Chemscore.DEInternal>
2.7343

> <Gold.Chemscore.Rot>
1.6759

> <Gold.Chemscore.Internal.Correction>
   9.000000E+99

> <Gold.Chemscore.Hbonds>
donor molecule, donor type, donor heavy atom, donor atom, acceptor molecule, acceptor atom, score
      L1  H     4    29       P1 10747  0.84
      L1  H     8    31       P1 10957  0.87

> <Gold.Chemscore.Hbond.Weighted>
-5.9406

> <Gold.Chemscore.Metal.Weighted>
-0.0000

> <Gold.Chemscore.Lipo.Weighted>
-9.0137

> <Gold.Chemscore.Internal_Hbond.Weighted>
0.0000

> <Gold.Chemscore.DEClash.Weighted>
0.0848

> <Gold.Chemscore.DEInternal.Weighted>
2.7343

> <Gold.Chemscore.Rot.Weighted>
4.2902

> <Gold.Chemscore.Internal.Correction.Weighted>
   9.000000E+99

> <Gold.Protein.RotatedTorsions>
[ 6907 6896 6895 6894 ] final -121.80 input  -60.11 | X-H torsion
[ 7974 7965 7964 7962 ] final -131.59 input  175.53 | X-H torsion
[ 8008 7997 7996 7995 ] final  120.05 input   59.86 | X-H torsion
[ 10167 10162 10161 10158 ] final   10.73 input  -65.29 | X-H torsion
[ 10718 10713 10712 10709 ] final -155.84 input   66.30 | X-H torsion
[ 10763 10752 10751 10750 ] final -173.50 input  -60.55 | X-H torsion
[ 11005 11000 10999 10996 ] final  142.70 input  -57.11 | X-H torsion

> <Gold.Protein.ActiveResidues>
 VAL166  LYS551  ARG553  GLY616  TRP617  ASP618  TYR619  PRO620  LYS621  CYS622 
 ASP623  PHE694  ASN695  SER759  ASP760  ASP761  ALA762  ILE779  LEU786  VAL792 
 PHE793  MET794  SER795  GLU796  ALA797  LYS798  CYS799  TRP800  GLU811  SER814 

> <Gold.Protein.RotatedAtoms>
  150.8517  133.7777  159.3022 H   0  0  0  0  0  0  0  0  0  0  0  0  # atno 6907 bound_to 6896
  151.5447  135.1066  159.9944 H   0  0  0  0  0  0  0  0  0  0  0  0  # atno 6908 bound_to 6896
  152.4558  133.7676  159.6837 H   0  0  0  0  0  0  0  0  0  0  0  0  # atno 6909 bound_to 6896
  144.9365  140.7189  143.4873 H   0  0  0  0  0  0  0  0  0  0  0  0  # atno 7974 bound_to 7965
  156.2624  140.2839  156.1088 H   0  0  0  0  0  0  0  0  0  0  0  0  # atno 8008 bound_to 7997
  155.1280  140.0393  157.2785 H   0  0  0  0  0  0  0  0  0  0  0  0  # atno 8009 bound_to 7997
  154.6621  140.2569  155.7104 H   0  0  0  0  0  0  0  0  0  0  0  0  # atno 8010 bound_to 7997
  140.6176  143.8274  150.7136 H   0  0  0  0  0  0  0  0  0  0  0  0  # atno 10167 bound_to 10162
  156.5183  130.8466  151.2672 H   0  0  0  0  0  0  0  0  0  0  0  0  # atno 10718 bound_to 10713
  154.6071  135.2860  155.0473 H   0  0  0  0  0  0  0  0  0  0  0  0  # atno 10763 bound_to 10752
  154.1716  135.6471  153.5015 H   0  0  0  0  0  0  0  0  0  0  0  0  # atno 10764 bound_to 10752
  153.0180  135.5402  154.6811 H   0  0  0  0  0  0  0  0  0  0  0  0  # atno 10765 bound_to 10752
  140.0497  134.9262  157.0994 H   0  0  0  0  0  0  0  0  0  0  0  0  # atno 11005 bound_to 11000
  145.3058  139.1835  143.4665 LP  0  0  0  0  0  0  0  0  0  0  0  0  # atno 17320 bound_to 7965
  146.3268  140.3056  142.8623 LP  0  0  0  0  0  0  0  0  0  0  0  0  # atno 17321 bound_to 7965
  140.1857  143.4078  152.1900 LP  0  0  0  0  0  0  0  0  0  0  0  0  # atno 17342 bound_to 10162
  139.5411  144.7257  151.4730 LP  0  0  0  0  0  0  0  0  0  0  0  0  # atno 17343 bound_to 10162
  157.7440  130.9926  150.2642 LP  0  0  0  0  0  0  0  0  0  0  0  0  # atno 17370 bound_to 10713
  156.3174  130.3781  149.7606 LP  0  0  0  0  0  0  0  0  0  0  0  0  # atno 17371 bound_to 10713
  140.3937  134.2156  155.7165 LP  0  0  0  0  0  0  0  0  0  0  0  0  # atno 17394 bound_to 11000
  141.1924  133.8174  157.0840 LP  0  0  0  0  0  0  0  0  0  0  0  0  # atno 17395 bound_to 11000

$$$$
