AV-unprocessed.smi:3214|AV-procd|sdf|12283|dock6
  -GOLD-   2272018123D 1   1.00000     0.00000
 Structure written by MMmdl.
 37 37  0  0  0  0  0  0  0  0  2 V2000
  151.8018  140.3700  157.9554 C   0  0  0  0  0  0  0  0  0  0  0  0
  151.2368  141.6337  157.2938 C   0  0  0  0  0  0  0  0  0  0  0  0
  150.1815  141.3113  156.3400 N   0  0  0  0  0  0  0  0  0  0  0  0
  150.3469  140.5909  155.2199 C   0  0  0  0  0  0  0  0  0  0  0  0
  151.4292  140.1148  154.8767 O   0  0  0  0  0  0  0  0  0  0  0  0
  149.0966  140.3865  154.3580 C   0  0  0  0  0  0  0  0  0  0  0  0
  148.6816  138.9100  154.2331 C   0  0  0  0  0  0  0  0  0  0  0  0
  148.3141  138.5842  152.8388 N   0  3  0  0  0  0  0  0  0  0  0  0
  146.8795  138.7351  152.5057 C   0  0  2  0  0  0  0  0  0  0  0  0
  146.5122  140.2287  152.5200 C   0  0  0  0  0  0  0  0  0  0  0  0
  145.9931  137.8983  153.4586 C   0  0  0  0  0  0  0  0  0  0  0  0
  145.1682  136.9255  152.7644 N   0  0  0  0  0  0  0  0  0  0  0  0
  145.5289  136.0574  151.7550 C   0  0  0  0  0  0  0  0  0  0  0  0
  144.4137  135.3482  151.4120 C   0  0  0  0  0  0  0  0  0  0  0  0
  143.4055  135.8656  152.2725 C   0  0  0  0  0  0  0  0  0  0  0  0
  143.8596  136.8125  153.0779 N   0  0  0  0  0  0  0  0  0  0  0  0
  152.6074  140.6223  158.6452 H   0  0  0  0  0  0  0  0  0  0  0  0
  152.2060  139.6825  157.2116 H   0  0  0  0  0  0  0  0  0  0  0  0
  151.0352  139.8398  158.5217 H   0  0  0  0  0  0  0  0  0  0  0  0
  150.8674  142.3264  158.0519 H   0  0  0  0  0  0  0  0  0  0  0  0
  152.0313  142.1551  156.7594 H   0  0  0  0  0  0  0  0  0  0  0  0
  149.2596  141.6686  156.5453 H   0  0  0  0  0  0  0  0  0  0  0  0
  148.2746  140.9614  154.7873 H   0  0  0  0  0  0  0  0  0  0  0  0
  149.2903  140.8048  153.3695 H   0  0  0  0  0  0  0  0  0  0  0  0
  149.5018  138.2610  154.5442 H   0  0  0  0  0  0  0  0  0  0  0  0
  147.8384  138.7066  154.8936 H   0  0  0  0  0  0  0  0  0  0  0  0
  148.8584  139.1548  152.2078 H   0  0  0  0  0  0  0  0  0  0  0  0
  146.7365  138.3778  151.4847 H   0  0  0  0  0  0  0  0  0  0  0  0
  145.4888  140.3956  152.1825 H   0  0  0  0  0  0  0  0  0  0  0  0
  147.1638  140.7989  151.8570 H   0  0  0  0  0  0  0  0  0  0  0  0
  146.6050  140.6505  153.5212 H   0  0  0  0  0  0  0  0  0  0  0  0
  146.6011  137.3566  154.1833 H   0  0  0  0  0  0  0  0  0  0  0  0
  145.3367  138.5547  154.0319 H   0  0  0  0  0  0  0  0  0  0  0  0
  146.5370  136.0150  151.3696 H   0  0  0  0  0  0  0  0  0  0  0  0
  144.3300  134.5785  150.6590 H   0  0  0  0  0  0  0  0  0  0  0  0
  142.3647  135.5842  152.3344 H   0  0  0  0  0  0  0  0  0  0  0  0
  148.5592  137.6164  152.6858 H   0  0  0  0  0  0  0  0  0  0  0  0
  1  2  1  0  0  0  0
  1 17  1  0  0  0  0
  1 18  1  0  0  0  0
  1 19  1  0  0  0  0
  2  3  1  0  0  0  0
  2 20  1  0  0  0  0
  2 21  1  0  0  0  0
  3  4  1  0  0  0  0
  3 22  1  0  0  0  0
  4  5  2  0  0  0  0
  4  6  1  0  0  0  0
  6  7  1  0  0  0  0
  6 23  1  0  0  0  0
  6 24  1  0  0  0  0
  7  8  1  0  0  0  0
  7 25  1  0  0  0  0
  7 26  1  0  0  0  0
  8  9  1  0  0  0  0
  8 27  1  0  0  0  0
  8 37  1  0  0  0  0
  9 10  1  0  0  0  0
  9 11  1  0  0  0  0
  9 28  1  0  0  0  0
 10 29  1  0  0  0  0
 10 30  1  0  0  0  0
 10 31  1  0  0  0  0
 11 12  1  0  0  0  0
 11 32  1  0  0  0  0
 11 33  1  0  0  0  0
 12 16  1  0  0  0  0
 12 13  1  0  0  0  0
 13 14  2  0  0  0  0
 13 34  1  0  0  0  0
 14 15  1  0  0  0  0
 14 35  1  0  0  0  0
 15 16  2  0  0  0  0
 15 36  1  0  0  0  0
M  CHG  1   8   1
M  END
> <s_m_source_file>
AV-unprocessed.smi

> <i_m_source_file_index>
3214

> <i_lp_mmshare_version>
43012

> <i_f3d_flags>
0

> <s_epik_input>
W0NIM11bQ0gyXVtOSF1DKD1PKVtDSDJdW0NIMl1bTkhdW0NASF0oW0NIM10pW0NIMl1uMVtjSF1bY0hdW2NIXW4x

> <s_epik_cmdline>
J2VwaWtfcHl0aG9uJywgJy1waCcsICc3LjAnLCAnLXRuJywgJzgnLCAnLW1hJywgJzIwMCcsICctbWV0YWxfYmluZGluZycsICctaW1hZScsICc8aW5maWxlLm1hZT4nLCAnLW9tYWUnLCAnPG91dGZpbGUubWFlPic=

> <r_lp_tautomer_probability>
1

> <r_epik_Ionization_Penalty>
0.00598156

> <r_epik_Ionization_Penalty_Charging>
0.00597743

> <r_epik_Ionization_Penalty_Neutral>
4.12922e-06

> <r_epik_State_Penalty>
0.00439883

> <r_epik_Charging_Adjusted_Penalty>
0.0103763

> <i_epik_Tot_Q>
1

> <i_epik_Tot_abs_Q>
1

> <r_epik_Metal_State_Penalty>
-0

> <b_epik_Metal_Only>
0

> <s_lp_Force_Field>
OPLS_2005

> <r_lp_Energy>
5.54296

> <b_lp_Chiralities_Consistent>
1

> <s_lp_Variant>
AV-unprocessed.smi:3214-1

> <Gold.Version>
5.8.1

> <Gold.Id.Protein>
6NUR|6NUR_protein|mol2

> <Gold.PLP.Fitness>
39.8234

> <Gold.PLP.PLP>
-27.6165

> <Gold.PLP.part.hbond>
-3.0000

> <Gold.PLP.part.metal>
0.0000

> <Gold.PLP.part.buried>
-2.3841

> <Gold.PLP.part.nonpolar>
-24.7683

> <Gold.PLP.part.repulsive>
0.3238

> <Gold.PLP.ligand.clash>
0.0000

> <Gold.PLP.ligand.torsion>
1.4718

> <Gold.PLP.Chemscore.Hbond>
4.0000

> <Gold.PLP.Chemscore.CHOScore>
1.0000

> <Gold.PLP.Chemscore.Metal>
0.0000

> <Gold.Chemscore.Hbonds>
donor molecule, donor type, donor heavy atom, donor atom, acceptor molecule, acceptor atom, score
      L1  H     8    27       P1  7957  1.00
      L1  H     8    37       P1  7948  2.00
      P1  H  7989  7998       L1     5  1.00
      L1  C    13    34       P1  7948  1.00

> <Gold.PLP.Chemscore.Internal.Correction>
0.1505

> <Gold.Rescore>
     Score         DG    S(hbond)    S(metal)    S(lipo)     H(rot)  DE(clash)    DE(int)     intcor
     13.10     -15.96       2.95        0.00      57.80       2.39       1.41       1.45       ----

> <Gold.Chemscore.Fitness>
13.1029

> <Gold.Chemscore.DG>
-15.9623

> <Gold.Chemscore.ZeroCoef>
-5.4800

> <Gold.Chemscore.Hbond>
2.9492

> <Gold.Chemscore.Metal>
0.0000

> <Gold.Chemscore.Lipo>
57.8008

> <Gold.Chemscore.Internal_Hbond>
0.0000

> <Gold.Chemscore.DEClash>
1.4086

> <Gold.Chemscore.DEInternal>
1.4508

> <Gold.Chemscore.Rot>
2.3948

> <Gold.Chemscore.Internal.Correction>
   9.000000E+99

> <Gold.Chemscore.Hbonds>
donor molecule, donor type, donor heavy atom, donor atom, acceptor molecule, acceptor atom, score
      L1  H     8    27       P1  7957  0.95
      L1  H     8    37       P1  7948  0.99
      P1  H  7989  7998       L1     5  0.25

> <Gold.Chemscore.Hbond.Weighted>
-9.8502

> <Gold.Chemscore.Metal.Weighted>
-0.0000

> <Gold.Chemscore.Lipo.Weighted>
-6.7627

> <Gold.Chemscore.Internal_Hbond.Weighted>
0.0000

> <Gold.Chemscore.DEClash.Weighted>
1.4086

> <Gold.Chemscore.DEInternal.Weighted>
1.4508

> <Gold.Chemscore.Rot.Weighted>
6.1306

> <Gold.Chemscore.Internal.Correction.Weighted>
   9.000000E+99

> <Gold.Protein.RotatedTorsions>
[ 6907 6896 6895 6894 ] final  161.12 input  -60.11 | X-H torsion
[ 7974 7965 7964 7962 ] final -163.21 input  175.53 | X-H torsion
[ 8008 7997 7996 7995 ] final  -96.72 input   59.86 | X-H torsion
[ 10167 10162 10161 10158 ] final  139.30 input  -65.29 | X-H torsion
[ 10718 10713 10712 10709 ] final  -58.27 input   66.30 | X-H torsion
[ 10763 10752 10751 10750 ] final  -27.73 input  -60.55 | X-H torsion
[ 11005 11000 10999 10996 ] final   94.37 input  -57.11 | X-H torsion

> <Gold.Protein.ActiveResidues>
 VAL166  LYS551  ARG553  GLY616  TRP617  ASP618  TYR619  PRO620  LYS621  CYS622 
 ASP623  PHE694  ASN695  SER759  ASP760  ASP761  ALA762  ILE779  LEU786  VAL792 
 PHE793  MET794  SER795  GLU796  ALA797  LYS798  CYS799  TRP800  GLU811  SER814 

> <Gold.Protein.RotatedAtoms>
  151.9604  133.3693  159.4032 H   0  0  0  0  0  0  0  0  0  0  0  0  # atno 6907 bound_to 6896
  150.6965  134.4247  159.5230 H   0  0  0  0  0  0  0  0  0  0  0  0  # atno 6908 bound_to 6896
  152.1934  134.8651  160.0566 H   0  0  0  0  0  0  0  0  0  0  0  0  # atno 6909 bound_to 6896
  144.7333  140.3140  143.6183 H   0  0  0  0  0  0  0  0  0  0  0  0  # atno 7974 bound_to 7965
  154.7782  140.0469  157.1106 H   0  0  0  0  0  0  0  0  0  0  0  0  # atno 8008 bound_to 7997
  154.9736  140.3092  155.4957 H   0  0  0  0  0  0  0  0  0  0  0  0  # atno 8009 bound_to 7997
  156.2932  140.2248  156.4831 H   0  0  0  0  0  0  0  0  0  0  0  0  # atno 8010 bound_to 7997
  139.5083  144.6303  151.5835 H   0  0  0  0  0  0  0  0  0  0  0  0  # atno 10167 bound_to 10162
  156.1148  130.4171  150.0554 H   0  0  0  0  0  0  0  0  0  0  0  0  # atno 10718 bound_to 10713
  153.7369  135.6935  153.4976 H   0  0  0  0  0  0  0  0  0  0  0  0  # atno 10763 bound_to 10752
  153.2097  135.4407  155.0363 H   0  0  0  0  0  0  0  0  0  0  0  0  # atno 10764 bound_to 10752
  154.8234  135.3433  154.6896 H   0  0  0  0  0  0  0  0  0  0  0  0  # atno 10765 bound_to 10752
  139.8799  134.8841  156.3854 H   0  0  0  0  0  0  0  0  0  0  0  0  # atno 11005 bound_to 11000
  145.7636  139.1833  143.2253 LP  0  0  0  0  0  0  0  0  0  0  0  0  # atno 17320 bound_to 7965
  146.0967  140.7592  142.9569 LP  0  0  0  0  0  0  0  0  0  0  0  0  # atno 17321 bound_to 7965
  140.6033  143.9570  150.6401 LP  0  0  0  0  0  0  0  0  0  0  0  0  # atno 17342 bound_to 10162
  140.2789  143.3403  152.1169 LP  0  0  0  0  0  0  0  0  0  0  0  0  # atno 17343 bound_to 10162
  156.8508  130.9458  151.3625 LP  0  0  0  0  0  0  0  0  0  0  0  0  # atno 17370 bound_to 10713
  157.6331  130.8745  149.9309 LP  0  0  0  0  0  0  0  0  0  0  0  0  # atno 17371 bound_to 10713
  140.9370  133.7540  156.0097 LP  0  0  0  0  0  0  0  0  0  0  0  0  # atno 17394 bound_to 11000
  140.8264  134.3229  157.5364 LP  0  0  0  0  0  0  0  0  0  0  0  0  # atno 17395 bound_to 11000

$$$$
