AV-unprocessed.smi:458|AV-procd|sdf|2623|dock1
  -GOLD-   2262023 23D 1   1.00000     0.00000
 Structure written by MMmdl.
 37 39  0  0  0  0  0  0  0  0  2 V2000
  151.7592  136.9239  155.6607 O   0  0  0  0  0  0  0  0  0  0  0  0
  151.7662  137.5848  154.4149 C   0  0  0  0  0  0  0  0  0  0  0  0
  150.6810  138.6047  154.3078 C   0  0  0  0  0  0  0  0  0  0  0  0
  149.5841  138.5223  153.5032 N   0  3  0  0  0  0  0  0  0  0  0  0
  148.7854  139.6535  153.6753 C   0  0  0  0  0  0  0  0  0  0  0  0
  147.5810  140.0167  153.0802 C   0  0  0  0  0  0  0  0  0  0  0  0
  147.0233  141.2485  153.4811 C   0  0  0  0  0  0  0  0  0  0  0  0
  147.6610  142.0668  154.4361 C   0  0  0  0  0  0  0  0  0  0  0  0
  148.8817  141.6878  155.0322 C   0  0  0  0  0  0  0  0  0  0  0  0
  149.4256  140.4668  154.6330 C   0  0  0  0  0  0  0  0  0  0  0  0
  150.5900  139.7788  154.9966 N   0  0  0  0  0  0  0  0  0  0  0  0
  151.4962  140.3574  156.0020 C   0  0  0  0  0  0  0  0  0  0  0  0
  150.8842  140.3952  157.4169 C   0  0  1  0  0  0  0  0  0  0  0  0
  151.2075  139.2125  158.1220 O   0  0  0  0  0  0  0  0  0  0  0  0
  151.3126  141.6469  158.1665 C   0  0  0  0  0  0  0  0  0  0  0  0
  152.0247  141.5489  159.3824 C   0  0  0  0  0  0  0  0  0  0  0  0
  152.4264  142.7131  160.0661 C   0  0  0  0  0  0  0  0  0  0  0  0
  152.1216  143.9816  159.5365 C   0  0  0  0  0  0  0  0  0  0  0  0
  152.5090  145.1007  160.1927 F   0  0  0  0  0  0  0  0  0  0  0  0
  151.4152  144.0853  158.3228 C   0  0  0  0  0  0  0  0  0  0  0  0
  151.0126  142.9215  157.6389 C   0  0  0  0  0  0  0  0  0  0  0  0
  150.8636  136.8329  155.9491 H   0  0  0  0  0  0  0  0  0  0  0  0
  152.7338  138.0648  154.2697 H   0  0  0  0  0  0  0  0  0  0  0  0
  151.6518  136.8467  153.6206 H   0  0  0  0  0  0  0  0  0  0  0  0
  147.0916  139.3925  152.3469 H   0  0  0  0  0  0  0  0  0  0  0  0
  146.0888  141.5730  153.0465 H   0  0  0  0  0  0  0  0  0  0  0  0
  147.2053  143.0052  154.7173 H   0  0  0  0  0  0  0  0  0  0  0  0
  149.3638  142.3260  155.7580 H   0  0  0  0  0  0  0  0  0  0  0  0
  152.4403  139.8126  155.9922 H   0  0  0  0  0  0  0  0  0  0  0  0
  151.7323  141.3710  155.6753 H   0  0  0  0  0  0  0  0  0  0  0  0
  149.7975  140.4104  157.3269 H   0  0  0  0  0  0  0  0  0  0  0  0
  151.8577  138.7378  157.6267 H   0  0  0  0  0  0  0  0  0  0  0  0
  152.2683  140.5805  159.7945 H   0  0  0  0  0  0  0  0  0  0  0  0
  152.9700  142.6326  160.9959 H   0  0  0  0  0  0  0  0  0  0  0  0
  151.1834  145.0583  157.9152 H   0  0  0  0  0  0  0  0  0  0  0  0
  150.4745  143.0122  156.7068 H   0  0  0  0  0  0  0  0  0  0  0  0
  149.3959  137.7437  152.8848 H   0  0  0  0  0  0  0  0  0  0  0  0
  1  2  1  0  0  0  0
  1 22  1  0  0  0  0
  2  3  1  0  0  0  0
  2 23  1  0  0  0  0
  2 24  1  0  0  0  0
  3 11  1  0  0  0  0
  3  4  2  0  0  0  0
  4  5  1  0  0  0  0
  4 37  1  0  0  0  0
  5 10  2  0  0  0  0
  5  6  1  0  0  0  0
  6  7  2  0  0  0  0
  6 25  1  0  0  0  0
  7  8  1  0  0  0  0
  7 26  1  0  0  0  0
  8  9  2  0  0  0  0
  8 27  1  0  0  0  0
  9 10  1  0  0  0  0
  9 28  1  0  0  0  0
 10 11  1  0  0  0  0
 11 12  1  0  0  0  0
 12 13  1  0  0  0  0
 12 29  1  0  0  0  0
 12 30  1  0  0  0  0
 13 14  1  0  0  0  0
 13 15  1  0  0  0  0
 13 31  1  0  0  0  0
 14 32  1  0  0  0  0
 15 21  1  0  0  0  0
 15 16  2  0  0  0  0
 16 17  1  0  0  0  0
 16 33  1  0  0  0  0
 17 18  2  0  0  0  0
 17 34  1  0  0  0  0
 18 19  1  0  0  0  0
 18 20  1  0  0  0  0
 20 21  2  0  0  0  0
 20 35  1  0  0  0  0
 21 36  1  0  0  0  0
M  CHG  1   4   1
M  END
> <s_m_source_file>
AV-unprocessed.smi

> <i_m_source_file_index>
458

> <i_lp_mmshare_version>
43012

> <i_f3d_flags>
0

> <s_epik_input>
W2NIXTFbY0hdW2NIXVtjSF1jKGMxMiluKGMobjIpW0NIMl1bT0hdKVtDSDJdW0NASF0oW09IXSljM1tjSF1bY0hdYyhGKVtjSF1bY0hdMw==

> <s_epik_cmdline>
J2VwaWtfcHl0aG9uJywgJy1waCcsICc3LjAnLCAnLXRuJywgJzgnLCAnLW1hJywgJzIwMCcsICctbWV0YWxfYmluZGluZycsICctaW1hZScsICc8aW5maWxlLm1hZT4nLCAnLW9tYWUnLCAnPG91dGZpbGUubWFlPic=

> <r_epik_Ionization_Penalty>
1.35643

> <r_epik_Ionization_Penalty_Charging>
1.35557

> <r_epik_Ionization_Penalty_Neutral>
0.00085758

> <r_epik_State_Penalty>
1.43401

> <r_epik_Charging_Adjusted_Penalty>
2.78958

> <i_epik_Tot_Q>
1

> <i_epik_Tot_abs_Q>
1

> <r_epik_Metal_State_Penalty>
5.47166

> <b_epik_Metal_Only>
0

> <s_lp_Force_Field>
OPLS_2005

> <r_lp_Energy>
14.4758

> <b_lp_Chiralities_Consistent>
1

> <s_lp_Variant>
AV-unprocessed.smi:458-4

> <Gold.Version>
5.8.1

> <Gold.Id.Protein>
6NUR|6NUR_protein|mol2

> <Gold.PLP.Fitness>
55.5283

> <Gold.PLP.PLP>
-47.8226

> <Gold.PLP.part.hbond>
-3.0000

> <Gold.PLP.part.metal>
0.0000

> <Gold.PLP.part.buried>
0.0127

> <Gold.PLP.part.nonpolar>
-45.7445

> <Gold.PLP.part.repulsive>
0.0780

> <Gold.PLP.ligand.clash>
0.0000

> <Gold.PLP.ligand.torsion>
0.5983

> <Gold.PLP.Chemscore.Hbond>
2.9440

> <Gold.PLP.Chemscore.CHOScore>
0.0000

> <Gold.PLP.Chemscore.Metal>
0.0000

> <Gold.Chemscore.Hbonds>
donor molecule, donor type, donor heavy atom, donor atom, acceptor molecule, acceptor atom, score
      L1  H     4    37       P1  7948  2.00
      P1  H 10752 10763       L1     1  0.43

> <Gold.PLP.Chemscore.Internal.Correction>
0.0702

> <Gold.Rescore>
     Score         DG    S(hbond)    S(metal)    S(lipo)     H(rot)  DE(clash)    DE(int)     intcor
     13.81     -15.16       1.00        0.00     116.09       2.82       0.91       0.44       ----

> <Gold.Chemscore.Fitness>
13.8073

> <Gold.Chemscore.DG>
-15.1628

> <Gold.Chemscore.ZeroCoef>
-5.4800

> <Gold.Chemscore.Hbond>
0.9952

> <Gold.Chemscore.Metal>
0.0000

> <Gold.Chemscore.Lipo>
116.0931

> <Gold.Chemscore.Internal_Hbond>
0.0000

> <Gold.Chemscore.DEClash>
0.9109

> <Gold.Chemscore.DEInternal>
0.4446

> <Gold.Chemscore.Rot>
2.8219

> <Gold.Chemscore.Internal.Correction>
   9.000000E+99

> <Gold.Chemscore.Hbonds>
donor molecule, donor type, donor heavy atom, donor atom, acceptor molecule, acceptor atom, score
      L1  H     4    37       P1  7948  0.91
      P1  H 10752 10763       L1     1  0.01

> <Gold.Chemscore.Hbond.Weighted>
-3.3239

> <Gold.Chemscore.Metal.Weighted>
-0.0000

> <Gold.Chemscore.Lipo.Weighted>
-13.5829

> <Gold.Chemscore.Internal_Hbond.Weighted>
0.0000

> <Gold.Chemscore.DEClash.Weighted>
0.9109

> <Gold.Chemscore.DEInternal.Weighted>
0.4446

> <Gold.Chemscore.Rot.Weighted>
7.2240

> <Gold.Chemscore.Internal.Correction.Weighted>
   9.000000E+99

> <Gold.Protein.RotatedTorsions>
[ 6907 6896 6895 6894 ] final  133.65 input  -60.11 | X-H torsion
[ 7974 7965 7964 7962 ] final    3.00 input  175.53 | X-H torsion
[ 8008 7997 7996 7995 ] final  141.75 input   59.86 | X-H torsion
[ 10167 10162 10161 10158 ] final   93.73 input  -65.29 | X-H torsion
[ 10718 10713 10712 10709 ] final -160.41 input   66.30 | X-H torsion
[ 10763 10752 10751 10750 ] final   79.54 input  -60.55 | X-H torsion
[ 11005 11000 10999 10996 ] final   83.59 input  -57.11 | X-H torsion

> <Gold.Protein.ActiveResidues>
 VAL166  LYS551  ARG553  GLY616  TRP617  ASP618  TYR619  PRO620  LYS621  CYS622 
 ASP623  PHE694  ASN695  SER759  ASP760  ASP761  ALA762  ILE779  LEU786  VAL792 
 PHE793  MET794  SER795  GLU796  ALA797  LYS798  CYS799  TRP800  GLU811  SER814 

> <Gold.Protein.RotatedAtoms>
  152.3197  133.5840  159.5735 H   0  0  0  0  0  0  0  0  0  0  0  0  # atno 6907 bound_to 6896
  150.7365  134.0029  159.3653 H   0  0  0  0  0  0  0  0  0  0  0  0  # atno 6908 bound_to 6896
  151.7915  135.0735  160.0439 H   0  0  0  0  0  0  0  0  0  0  0  0  # atno 6909 bound_to 6896
  146.2445  140.0752  142.8360 H   0  0  0  0  0  0  0  0  0  0  0  0  # atno 7974 bound_to 7965
  156.2961  140.2307  156.4616 H   0  0  0  0  0  0  0  0  0  0  0  0  # atno 8008 bound_to 7997
  154.8013  140.0448  157.1295 H   0  0  0  0  0  0  0  0  0  0  0  0  # atno 8009 bound_to 7997
  154.9530  140.3044  155.5069 H   0  0  0  0  0  0  0  0  0  0  0  0  # atno 8010 bound_to 7997
  139.8151  144.6756  150.9590 H   0  0  0  0  0  0  0  0  0  0  0  0  # atno 10167 bound_to 10162
  156.5817  130.8732  151.2866 H   0  0  0  0  0  0  0  0  0  0  0  0  # atno 10718 bound_to 10713
  153.0961  135.4836  154.8781 H   0  0  0  0  0  0  0  0  0  0  0  0  # atno 10763 bound_to 10752
  154.7326  135.3063  154.8868 H   0  0  0  0  0  0  0  0  0  0  0  0  # atno 10764 bound_to 10752
  153.9500  135.6824  153.4797 H   0  0  0  0  0  0  0  0  0  0  0  0  # atno 10765 bound_to 10752
  139.9026  134.8156  156.2330 H   0  0  0  0  0  0  0  0  0  0  0  0  # atno 11005 bound_to 11000
  145.0781  140.9202  143.4841 LP  0  0  0  0  0  0  0  0  0  0  0  0  # atno 17320 bound_to 7965
  145.0899  139.2898  143.5740 LP  0  0  0  0  0  0  0  0  0  0  0  0  # atno 17321 bound_to 7965
  140.7816  143.4146  151.0937 LP  0  0  0  0  0  0  0  0  0  0  0  0  # atno 17342 bound_to 10162
  139.7810  143.8355  152.3137 LP  0  0  0  0  0  0  0  0  0  0  0  0  # atno 17343 bound_to 10162
  157.7325  130.9716  150.1931 LP  0  0  0  0  0  0  0  0  0  0  0  0  # atno 17370 bound_to 10713
  156.2626  130.3712  149.8115 LP  0  0  0  0  0  0  0  0  0  0  0  0  # atno 17371 bound_to 10713
  141.0333  133.6977  156.1468 LP  0  0  0  0  0  0  0  0  0  0  0  0  # atno 17394 bound_to 11000
  140.7064  134.4509  157.5584 LP  0  0  0  0  0  0  0  0  0  0  0  0  # atno 17395 bound_to 11000

$$$$
