AV-unprocessed.smi:1096|AV-procd|sdf|4749|dock1
  -GOLD-   22720 3283D 1   1.00000     0.00000
 Structure written by MMmdl.
 48 50  0  0  0  0  0  0  0  0  1 V2000
  150.2567  136.3809  156.2760 O   0  0  0  0  0  0  0  0  0  0  0  0
  149.9537  136.4214  155.0831 C   0  0  0  0  0  0  0  0  0  0  0  0
  149.7111  135.3520  154.3047 N   0  0  0  0  0  0  0  0  0  0  0  0
  149.7731  133.9773  154.6566 C   0  0  0  0  0  0  0  0  0  0  0  0
  149.2441  133.0886  153.6930 C   0  0  0  0  0  0  0  0  0  0  0  0
  149.2615  131.7032  153.9449 C   0  0  0  0  0  0  0  0  0  0  0  0
  149.8089  131.2410  155.1551 C   0  0  0  0  0  0  0  0  0  0  0  0
  150.3147  132.1923  156.0600 C   0  0  0  0  0  0  0  0  0  0  0  0
  150.2986  133.5206  155.8210 N   0  0  0  0  0  0  0  0  0  0  0  0
  149.8213  137.5632  154.3920 N   0  0  0  0  0  0  0  0  0  0  0  0
  149.9998  138.9057  154.9371 C   0  0  2  0  0  0  0  0  0  0  0  0
  151.4552  139.0780  155.4098 C   0  0  0  0  0  0  0  0  0  0  0  0
  151.6779  140.4555  156.0545 C   0  0  0  0  0  0  0  0  0  0  0  0
  150.7051  140.6859  157.2329 C   0  0  1  0  0  0  0  0  0  0  0  0
  150.9221  142.0610  157.9011 C   0  0  0  0  0  0  0  0  0  0  0  0
  150.0396  142.9129  157.7830 O   0  0  0  0  0  0  0  0  0  0  0  0
  152.0782  142.3168  158.5643 N   0  0  0  0  0  0  0  0  0  0  0  0
  153.0494  141.2626  158.8811 C   0  0  0  0  0  0  0  0  0  0  0  0
  152.8782  140.8560  160.3551 C   0  0  0  0  0  0  0  0  0  0  0  0
  153.2165  142.2569  161.4693 S   0  0  0  0  0  0  0  0  0  0  0  0
  152.1875  143.5364  160.6824 C   0  0  0  0  0  0  0  0  0  0  0  0
  152.4569  143.5991  159.1704 C   0  0  0  0  0  0  0  0  0  0  0  0
  149.2505  140.5387  156.7411 C   0  0  0  0  0  0  0  0  0  0  0  0
  149.0151  139.1630  156.0965 C   0  0  0  0  0  0  0  0  0  0  0  0
  149.4572  135.5434  153.3469 H   0  0  0  0  0  0  0  0  0  0  0  0
  148.8276  133.4606  152.7681 H   0  0  0  0  0  0  0  0  0  0  0  0
  148.8617  131.0080  153.2214 H   0  0  0  0  0  0  0  0  0  0  0  0
  149.8404  130.1860  155.3838 H   0  0  0  0  0  0  0  0  0  0  0  0
  150.7445  131.8793  157.0000 H   0  0  0  0  0  0  0  0  0  0  0  0
  149.5704  137.5010  153.4161 H   0  0  0  0  0  0  0  0  0  0  0  0
  149.8121  139.6351  154.1467 H   0  0  0  0  0  0  0  0  0  0  0  0
  151.7066  138.2980  156.1301 H   0  0  0  0  0  0  0  0  0  0  0  0
  152.1382  138.9534  154.5686 H   0  0  0  0  0  0  0  0  0  0  0  0
  152.7101  140.5339  156.3985 H   0  0  0  0  0  0  0  0  0  0  0  0
  151.5455  141.2259  155.2929 H   0  0  0  0  0  0  0  0  0  0  0  0
  150.9224  139.8966  157.9516 H   0  0  0  0  0  0  0  0  0  0  0  0
  152.9346  140.3863  158.2417 H   0  0  0  0  0  0  0  0  0  0  0  0
  154.0654  141.6176  158.7029 H   0  0  0  0  0  0  0  0  0  0  0  0
  151.8637  140.4976  160.5343 H   0  0  0  0  0  0  0  0  0  0  0  0
  153.5545  140.0384  160.6055 H   0  0  0  0  0  0  0  0  0  0  0  0
  151.1365  143.3186  160.8748 H   0  0  0  0  0  0  0  0  0  0  0  0
  152.4060  144.4973  161.1486 H   0  0  0  0  0  0  0  0  0  0  0  0
  153.5152  143.7952  158.9927 H   0  0  0  0  0  0  0  0  0  0  0  0
  151.9448  144.4483  158.7210 H   0  0  0  0  0  0  0  0  0  0  0  0
  148.5523  140.6734  157.5680 H   0  0  0  0  0  0  0  0  0  0  0  0
  149.0208  141.3217  156.0166 H   0  0  0  0  0  0  0  0  0  0  0  0
  147.9864  139.1010  155.7398 H   0  0  0  0  0  0  0  0  0  0  0  0
  149.1252  138.3864  156.8547 H   0  0  0  0  0  0  0  0  0  0  0  0
  1  2  2  0  0  0  0
  2  3  1  0  0  0  0
  2 10  1  0  0  0  0
  3  4  1  0  0  0  0
  3 25  1  0  0  0  0
  4  9  1  0  0  0  0
  4  5  2  0  0  0  0
  5  6  1  0  0  0  0
  5 26  1  0  0  0  0
  6  7  2  0  0  0  0
  6 27  1  0  0  0  0
  7  8  1  0  0  0  0
  7 28  1  0  0  0  0
  8  9  2  0  0  0  0
  8 29  1  0  0  0  0
 10 11  1  0  0  0  0
 10 30  1  0  0  0  0
 11 24  1  0  0  0  0
 11 12  1  0  0  0  0
 11 31  1  0  0  0  0
 12 13  1  0  0  0  0
 12 32  1  0  0  0  0
 12 33  1  0  0  0  0
 13 14  1  0  0  0  0
 13 34  1  0  0  0  0
 13 35  1  0  0  0  0
 14 15  1  0  0  0  0
 14 23  1  0  0  0  0
 14 36  1  0  0  0  0
 15 16  2  0  0  0  0
 15 17  1  0  0  0  0
 17 22  1  0  0  0  0
 17 18  1  0  0  0  0
 18 19  1  0  0  0  0
 18 37  1  0  0  0  0
 18 38  1  0  0  0  0
 19 20  1  0  0  0  0
 19 39  1  0  0  0  0
 19 40  1  0  0  0  0
 20 21  1  0  0  0  0
 21 22  1  0  0  0  0
 21 41  1  0  0  0  0
 21 42  1  0  0  0  0
 22 43  1  0  0  0  0
 22 44  1  0  0  0  0
 23 24  1  0  0  0  0
 23 45  1  0  0  0  0
 23 46  1  0  0  0  0
 24 47  1  0  0  0  0
 24 48  1  0  0  0  0
M  END
> <s_m_source_file>
AV-unprocessed.smi

> <i_m_source_file_index>
1096

> <i_lp_mmshare_version>
43012

> <i_f3d_flags>
0

> <s_epik_input>
bjFbY0hdW2NIXVtjSF1bY0hdYzFbTkhdQyg9TylbTkhdW0NAQEhdMltDSDJdW0NIMl1bQ0BIXShbQ0gyXVtDSDJdMilDKD1PKU4zW0NIMl1bQ0gyXVNbQ0gyXVtDSDJdMw==

> <s_epik_cmdline>
J2VwaWtfcHl0aG9uJywgJy1waCcsICc3LjAnLCAnLXRuJywgJzgnLCAnLW1hJywgJzIwMCcsICctbWV0YWxfYmluZGluZycsICctaW1hZScsICc8aW5maWxlLm1hZT4nLCAnLW9tYWUnLCAnPG91dGZpbGUubWFlPic=

> <r_lp_tautomer_probability>
1

> <r_epik_Ionization_Penalty>
5.08504e-05

> <r_epik_Ionization_Penalty_Charging>
0

> <r_epik_Ionization_Penalty_Neutral>
5.08504e-05

> <r_epik_State_Penalty>
-0

> <r_epik_Charging_Adjusted_Penalty>
0

> <i_epik_Tot_Q>
0

> <i_epik_Tot_abs_Q>
0

> <r_epik_Metal_State_Penalty>
-0

> <b_epik_Metal_Only>
0

> <s_lp_Force_Field>
OPLS_2005

> <r_lp_Energy>
29.3602

> <b_lp_Chiralities_Consistent>
1

> <s_lp_Variant>
AV-unprocessed.smi:1096-1

> <Gold.Version>
5.8.1

> <Gold.Id.Protein>
6NUR|6NUR_protein|mol2

> <Gold.PLP.Fitness>
48.9366

> <Gold.PLP.PLP>
-43.7906

> <Gold.PLP.part.hbond>
-2.2965

> <Gold.PLP.part.metal>
0.0000

> <Gold.PLP.part.buried>
-5.3703

> <Gold.PLP.part.nonpolar>
-36.9009

> <Gold.PLP.part.repulsive>
0.6530

> <Gold.PLP.ligand.clash>
0.0000

> <Gold.PLP.ligand.torsion>
0.2052

> <Gold.PLP.Chemscore.Hbond>
1.8294

> <Gold.PLP.Chemscore.CHOScore>
0.0000

> <Gold.PLP.Chemscore.Metal>
0.0000

> <Gold.Chemscore.Hbonds>
donor molecule, donor type, donor heavy atom, donor atom, acceptor molecule, acceptor atom, score
      L1  H     3    25       P1  7948  0.80
      L1  H    10    30       P1  7948  0.84

> <Gold.PLP.Chemscore.Internal.Correction>
0.0681

> <Gold.Rescore>
     Score         DG    S(hbond)    S(metal)    S(lipo)     H(rot)  DE(clash)    DE(int)     intcor
     17.09     -19.58       1.78        0.00      97.11       1.26       0.00       2.48       ----

> <Gold.Chemscore.Fitness>
17.0916

> <Gold.Chemscore.DG>
-19.5774

> <Gold.Chemscore.ZeroCoef>
-5.4800

> <Gold.Chemscore.Hbond>
1.7831

> <Gold.Chemscore.Metal>
0.0000

> <Gold.Chemscore.Lipo>
97.1084

> <Gold.Chemscore.Internal_Hbond>
0.0000

> <Gold.Chemscore.DEClash>
0.0048

> <Gold.Chemscore.DEInternal>
2.4810

> <Gold.Chemscore.Rot>
1.2578

> <Gold.Chemscore.Internal.Correction>
   9.000000E+99

> <Gold.Chemscore.Hbonds>
donor molecule, donor type, donor heavy atom, donor atom, acceptor molecule, acceptor atom, score
      L1  H     3    25       P1  7948  0.12
      L1  H    10    30       P1  7948  0.69

> <Gold.Chemscore.Hbond.Weighted>
-5.9557

> <Gold.Chemscore.Metal.Weighted>
-0.0000

> <Gold.Chemscore.Lipo.Weighted>
-11.3617

> <Gold.Chemscore.Internal_Hbond.Weighted>
0.0000

> <Gold.Chemscore.DEClash.Weighted>
0.0048

> <Gold.Chemscore.DEInternal.Weighted>
2.4810

> <Gold.Chemscore.Rot.Weighted>
3.2200

> <Gold.Chemscore.Internal.Correction.Weighted>
   9.000000E+99

> <Gold.Protein.RotatedTorsions>
[ 6907 6896 6895 6894 ] final   43.60 input  -60.11 | X-H torsion
[ 7974 7965 7964 7962 ] final -168.42 input  175.53 | X-H torsion
[ 8008 7997 7996 7995 ] final -154.67 input   59.86 | X-H torsion
[ 10167 10162 10161 10158 ] final  164.83 input  -65.29 | X-H torsion
[ 10718 10713 10712 10709 ] final -138.25 input   66.30 | X-H torsion
[ 10763 10752 10751 10750 ] final   77.09 input  -60.55 | X-H torsion
[ 11005 11000 10999 10996 ] final   51.80 input  -57.11 | X-H torsion

> <Gold.Protein.ActiveResidues>
 VAL166  LYS551  ARG553  GLY616  TRP617  ASP618  TYR619  PRO620  LYS621  CYS622 
 ASP623  PHE694  ASN695  SER759  ASP760  ASP761  ALA762  ILE779  LEU786  VAL792 
 PHE793  MET794  SER795  GLU796  ALA797  LYS798  CYS799  TRP800  GLU811  SER814 

> <Gold.Protein.RotatedAtoms>
  152.2223  134.8401  160.0484 H   0  0  0  0  0  0  0  0  0  0  0  0  # atno 6907 bound_to 6896
  151.9180  133.3573  159.3895 H   0  0  0  0  0  0  0  0  0  0  0  0  # atno 6908 bound_to 6896
  150.7003  134.4589  159.5415 H   0  0  0  0  0  0  0  0  0  0  0  0  # atno 6909 bound_to 6896
  144.7203  140.2373  143.6296 H   0  0  0  0  0  0  0  0  0  0  0  0  # atno 7974 bound_to 7965
  155.6900  140.0754  157.2452 H   0  0  0  0  0  0  0  0  0  0  0  0  # atno 8008 bound_to 7997
  154.4090  140.1666  156.2128 H   0  0  0  0  0  0  0  0  0  0  0  0  # atno 8009 bound_to 7997
  155.9460  140.3381  155.6370 H   0  0  0  0  0  0  0  0  0  0  0  0  # atno 8010 bound_to 7997
  139.4895  144.4195  151.9203 H   0  0  0  0  0  0  0  0  0  0  0  0  # atno 10167 bound_to 10162
  156.2972  130.7408  151.1450 H   0  0  0  0  0  0  0  0  0  0  0  0  # atno 10718 bound_to 10713
  153.0773  135.4927  154.8430 H   0  0  0  0  0  0  0  0  0  0  0  0  # atno 10763 bound_to 10752
  154.7104  135.3019  154.9208 H   0  0  0  0  0  0  0  0  0  0  0  0  # atno 10764 bound_to 10752
  153.9904  135.6779  153.4807 H   0  0  0  0  0  0  0  0  0  0  0  0  # atno 10765 bound_to 10752
  140.0903  134.5219  155.8859 H   0  0  0  0  0  0  0  0  0  0  0  0  # atno 11005 bound_to 11000
  145.8353  139.2105  143.1859 LP  0  0  0  0  0  0  0  0  0  0  0  0  # atno 17320 bound_to 7965
  146.0394  140.8179  142.9836 LP  0  0  0  0  0  0  0  0  0  0  0  0  # atno 17321 bound_to 7965
  140.3639  144.2939  150.5929 LP  0  0  0  0  0  0  0  0  0  0  0  0  # atno 17342 bound_to 10162
  140.5379  143.2229  151.8133 LP  0  0  0  0  0  0  0  0  0  0  0  0  # atno 17343 bound_to 10162
  157.7358  131.0568  150.5447 LP  0  0  0  0  0  0  0  0  0  0  0  0  # atno 17370 bound_to 10713
  156.5571  130.4246  149.6080 LP  0  0  0  0  0  0  0  0  0  0  0  0  # atno 17371 bound_to 10713
  141.2075  133.6665  156.6313 LP  0  0  0  0  0  0  0  0  0  0  0  0  # atno 17394 bound_to 11000
  140.3362  134.7887  157.4364 LP  0  0  0  0  0  0  0  0  0  0  0  0  # atno 17395 bound_to 11000

$$$$
