AV-unprocessed.smi:1720|AV-procd|sdf|6931|dock8
  -GOLD-   22720 8143D 1   1.00000     0.00000
 Structure written by MMmdl.
 32 33  0  0  0  0  0  0  0  0  1 V2000
  147.6148  133.5302  155.9379 C   0  0  0  0  0  0  0  0  0  0  0  0
  148.6985  133.3446  154.8647 C   0  0  2  0  0  0  0  0  0  0  0  0
  149.0983  134.6630  154.3770 N   0  0  0  0  0  0  0  0  0  0  0  0
  149.7030  135.6144  155.1033 C   0  0  0  0  0  0  0  0  0  0  0  0
  149.9922  135.4866  156.2932 O   0  0  0  0  0  0  0  0  0  0  0  0
  149.9467  136.7087  154.3639 N   0  0  0  0  0  0  0  0  0  0  0  0
  150.5778  137.9076  154.7820 C   0  0  0  0  0  0  0  0  0  0  0  0
  150.2806  139.1999  154.2700 C   0  0  0  0  0  0  0  0  0  0  0  0
  151.0268  140.1317  154.8460 N   0  0  0  0  0  0  0  0  0  0  0  0
  151.7970  139.4464  155.7211 N   0  0  0  0  0  0  0  0  0  0  0  0
  151.5583  138.0898  155.7167 C   0  0  0  0  0  0  0  0  0  0  0  0
  148.2125  132.4734  153.6876 C   0  0  2  0  0  0  0  0  0  0  0  0
  147.0716  133.0809  152.8703 C   0  0  0  0  0  0  0  0  0  0  0  0
  146.3950  131.8715  152.2451 C   0  0  0  0  0  0  0  0  0  0  0  0
  146.9101  130.6888  153.0695 C   0  0  0  0  0  0  0  0  0  0  0  0
  147.6195  131.2708  154.1539 O   0  0  0  0  0  0  0  0  0  0  0  0
  152.4738  139.9134  156.3078 H   0  0  0  0  0  0  0  0  0  0  0  0
  147.3263  132.5770  156.3812 H   0  0  0  0  0  0  0  0  0  0  0  0
  146.7173  133.9888  155.5215 H   0  0  0  0  0  0  0  0  0  0  0  0
  147.9704  134.1683  156.7475 H   0  0  0  0  0  0  0  0  0  0  0  0
  149.5511  132.8546  155.3382 H   0  0  0  0  0  0  0  0  0  0  0  0
  148.9055  134.8617  153.4066 H   0  0  0  0  0  0  0  0  0  0  0  0
  149.6554  136.6792  153.3981 H   0  0  0  0  0  0  0  0  0  0  0  0
  149.5636  139.4869  153.5150 H   0  0  0  0  0  0  0  0  0  0  0  0
  152.0930  137.4063  156.3595 H   0  0  0  0  0  0  0  0  0  0  0  0
  149.0466  132.2220  153.0292 H   0  0  0  0  0  0  0  0  0  0  0  0
  146.3675  133.5917  153.5286 H   0  0  0  0  0  0  0  0  0  0  0  0
  147.4198  133.7996  152.1277 H   0  0  0  0  0  0  0  0  0  0  0  0
  145.3094  131.9607  152.2959 H   0  0  0  0  0  0  0  0  0  0  0  0
  146.6745  131.7570  151.1972 H   0  0  0  0  0  0  0  0  0  0  0  0
  146.1055  130.0469  153.4289 H   0  0  0  0  0  0  0  0  0  0  0  0
  147.5944  130.0783  152.4788 H   0  0  0  0  0  0  0  0  0  0  0  0
  1  2  1  0  0  0  0
  1 18  1  0  0  0  0
  1 19  1  0  0  0  0
  1 20  1  0  0  0  0
  2  3  1  0  0  0  0
  2 12  1  0  0  0  0
  2 21  1  0  0  0  0
  3  4  1  0  0  0  0
  3 22  1  0  0  0  0
  4  5  2  0  0  0  0
  4  6  1  0  0  0  0
  6  7  1  0  0  0  0
  6 23  1  0  0  0  0
  7 11  2  0  0  0  0
  7  8  1  0  0  0  0
  8  9  2  0  0  0  0
  8 24  1  0  0  0  0
  9 10  1  0  0  0  0
 10 17  1  0  0  0  0
 10 11  1  0  0  0  0
 11 25  1  0  0  0  0
 12 16  1  0  0  0  0
 12 13  1  0  0  0  0
 12 26  1  0  0  0  0
 13 14  1  0  0  0  0
 13 27  1  0  0  0  0
 13 28  1  0  0  0  0
 14 15  1  0  0  0  0
 14 29  1  0  0  0  0
 14 30  1  0  0  0  0
 15 16  1  0  0  0  0
 15 31  1  0  0  0  0
 15 32  1  0  0  0  0
M  END
> <s_m_source_file>
AV-unprocessed.smi

> <i_m_source_file_index>
1720

> <i_lp_mmshare_version>
43012

> <i_f3d_flags>
0

> <s_epik_input>
TzFbQ0gyXVtDSDJdW0NIMl1bQ0BIXTFbQ0BIXShbQ0gzXSlbTkhdQyg9TylbTkhdYzJbY0hdbltuSF1bY0hdMg==

> <s_epik_cmdline>
J2VwaWtfcHl0aG9uJywgJy1waCcsICc3LjAnLCAnLXRuJywgJzgnLCAnLW1hJywgJzIwMCcsICctbWV0YWxfYmluZGluZycsICctaW1hZScsICc8aW5maWxlLm1hZT4nLCAnLW9tYWUnLCAnPG91dGZpbGUubWFlPic=

> <r_lp_tautomer_probability>
1

> <r_epik_Ionization_Penalty>
4.95841e-05

> <r_epik_Ionization_Penalty_Charging>
0

> <r_epik_Ionization_Penalty_Neutral>
4.95841e-05

> <r_epik_State_Penalty>
-0

> <r_epik_Charging_Adjusted_Penalty>
0

> <i_epik_Tot_Q>
0

> <i_epik_Tot_abs_Q>
0

> <r_epik_Metal_State_Penalty>
-0

> <b_epik_Metal_Only>
0

> <s_lp_Force_Field>
OPLS_2005

> <r_lp_Energy>
20.531

> <b_lp_Chiralities_Consistent>
1

> <s_lp_Variant>
AV-unprocessed.smi:1720-1

> <Gold.Version>
5.8.1

> <Gold.Id.Protein>
6NUR|6NUR_protein|mol2

> <Gold.PLP.Fitness>
35.2793

> <Gold.PLP.PLP>
-24.2707

> <Gold.PLP.part.hbond>
-4.0000

> <Gold.PLP.part.metal>
0.0000

> <Gold.PLP.part.buried>
-3.2489

> <Gold.PLP.part.nonpolar>
-18.0345

> <Gold.PLP.part.repulsive>
0.4205

> <Gold.PLP.ligand.clash>
0.0000

> <Gold.PLP.ligand.torsion>
0.3026

> <Gold.PLP.Chemscore.Hbond>
2.8640

> <Gold.PLP.Chemscore.CHOScore>
1.0000

> <Gold.PLP.Chemscore.Metal>
0.0000

> <Gold.Chemscore.Hbonds>
donor molecule, donor type, donor heavy atom, donor atom, acceptor molecule, acceptor atom, score
      L1  H     3    22       P1  7948  0.98
      L1  H     6    23       P1  7948  1.00
      P1  H  7989  7998       L1     9  1.00
      L1  C     8    24       P1  7957  1.00

> <Gold.PLP.Chemscore.Internal.Correction>
0.0218

> <Gold.Rescore>
     Score         DG    S(hbond)    S(metal)    S(lipo)     H(rot)  DE(clash)    DE(int)     intcor
     13.20     -14.30       1.90        0.00      49.71       1.31       0.26       0.84       ----

> <Gold.Chemscore.Fitness>
13.1979

> <Gold.Chemscore.DG>
-14.2966

> <Gold.Chemscore.ZeroCoef>
-5.4800

> <Gold.Chemscore.Hbond>
1.9008

> <Gold.Chemscore.Metal>
0.0000

> <Gold.Chemscore.Lipo>
49.7100

> <Gold.Chemscore.Internal_Hbond>
0.0000

> <Gold.Chemscore.DEClash>
0.2612

> <Gold.Chemscore.DEInternal>
0.8376

> <Gold.Chemscore.Rot>
1.3079

> <Gold.Chemscore.Internal.Correction>
   9.000000E+99

> <Gold.Chemscore.Hbonds>
donor molecule, donor type, donor heavy atom, donor atom, acceptor molecule, acceptor atom, score
      L1  H     3    22       P1  7948  0.26
      L1  H     6    23       P1  7948  0.55
      P1  H  7989  7998       L1     9  0.25

> <Gold.Chemscore.Hbond.Weighted>
-6.3488

> <Gold.Chemscore.Metal.Weighted>
-0.0000

> <Gold.Chemscore.Lipo.Weighted>
-5.8161

> <Gold.Chemscore.Internal_Hbond.Weighted>
0.0000

> <Gold.Chemscore.DEClash.Weighted>
0.2612

> <Gold.Chemscore.DEInternal.Weighted>
0.8376

> <Gold.Chemscore.Rot.Weighted>
3.3483

> <Gold.Chemscore.Internal.Correction.Weighted>
   9.000000E+99

> <Gold.Protein.RotatedTorsions>
[ 6907 6896 6895 6894 ] final   57.27 input  -60.11 | X-H torsion
[ 7974 7965 7964 7962 ] final -108.92 input  175.53 | X-H torsion
[ 8008 7997 7996 7995 ] final  -32.68 input   59.86 | X-H torsion
[ 10167 10162 10161 10158 ] final   22.48 input  -65.29 | X-H torsion
[ 10718 10713 10712 10709 ] final   81.93 input   66.30 | X-H torsion
[ 10763 10752 10751 10750 ] final   12.27 input  -60.55 | X-H torsion
[ 11005 11000 10999 10996 ] final  106.15 input  -57.11 | X-H torsion

> <Gold.Protein.ActiveResidues>
 VAL166  LYS551  ARG553  GLY616  TRP617  ASP618  TYR619  PRO620  LYS621  CYS622 
 ASP623  PHE694  ASN695  SER759  ASP760  ASP761  ALA762  ILE779  LEU786  VAL792 
 PHE793  MET794  SER795  GLU796  ALA797  LYS798  CYS799  TRP800  GLU811  SER814 

> <Gold.Protein.RotatedAtoms>
  152.3716  134.6726  160.0173 H   0  0  0  0  0  0  0  0  0  0  0  0  # atno 6907 bound_to 6896
  151.7017  133.3306  159.3276 H   0  0  0  0  0  0  0  0  0  0  0  0  # atno 6908 bound_to 6896
  150.7678  134.6545  159.6351 H   0  0  0  0  0  0  0  0  0  0  0  0  # atno 6909 bound_to 6896
  145.1870  140.8997  143.3447 H   0  0  0  0  0  0  0  0  0  0  0  0  # atno 7974 bound_to 7965
  154.4172  140.1731  156.1767 H   0  0  0  0  0  0  0  0  0  0  0  0  # atno 8008 bound_to 7997
  155.9716  140.3385  155.6557 H   0  0  0  0  0  0  0  0  0  0  0  0  # atno 8009 bound_to 7997
  155.6618  140.0702  157.2542 H   0  0  0  0  0  0  0  0  0  0  0  0  # atno 8010 bound_to 7997
  140.5345  143.9785  150.6484 H   0  0  0  0  0  0  0  0  0  0  0  0  # atno 10167 bound_to 10162
  157.6845  131.0025  150.2299 H   0  0  0  0  0  0  0  0  0  0  0  0  # atno 10718 bound_to 10713
  153.1840  135.6832  153.8440 H   0  0  0  0  0  0  0  0  0  0  0  0  # atno 10763 bound_to 10752
  153.7762  135.3189  155.3360 H   0  0  0  0  0  0  0  0  0  0  0  0  # atno 10764 bound_to 10752
  154.8077  135.4738  154.0531 H   0  0  0  0  0  0  0  0  0  0  0  0  # atno 10765 bound_to 10752
  139.8810  134.9360  156.5623 H   0  0  0  0  0  0  0  0  0  0  0  0  # atno 11005 bound_to 11000
  145.0079  139.3537  143.6134 LP  0  0  0  0  0  0  0  0  0  0  0  0  # atno 17320 bound_to 7965
  146.3443  139.9330  142.8751 LP  0  0  0  0  0  0  0  0  0  0  0  0  # atno 17321 bound_to 7965
  140.3168  143.3162  152.0824 LP  0  0  0  0  0  0  0  0  0  0  0  0  # atno 17342 bound_to 10162
  139.4966  144.6600  151.6487 LP  0  0  0  0  0  0  0  0  0  0  0  0  # atno 17343 bound_to 10162
  156.2934  130.3748  149.7820 LP  0  0  0  0  0  0  0  0  0  0  0  0  # atno 17370 bound_to 10713
  156.5472  130.8326  151.3288 LP  0  0  0  0  0  0  0  0  0  0  0  0  # atno 17371 bound_to 10713
  140.8160  133.8391  155.8853 LP  0  0  0  0  0  0  0  0  0  0  0  0  # atno 17394 bound_to 11000
  140.9462  134.1837  157.4761 LP  0  0  0  0  0  0  0  0  0  0  0  0  # atno 17395 bound_to 11000

$$$$
