AV-unprocessed.smi:2066|AV-procd|sdf|8420|dock6
  -GOLD-   2272011113D 1   1.00000     0.00000
 Structure written by MMmdl.
 40 41  0  0  0  0  0  0  0  0  2 V2000
  145.7627  137.9579  154.5981 C   0  0  0  0  0  0  0  0  0  0  0  0
  146.5998  139.0633  153.9086 C   0  0  0  0  0  0  0  0  0  0  0  0
  148.0603  138.9382  154.4183 C   0  0  0  0  0  0  0  0  0  0  0  0
  146.6218  138.8627  152.3614 C   0  0  0  0  0  0  0  0  0  0  0  0
  146.7772  137.4711  151.9362 N   0  0  0  0  0  0  0  0  0  0  0  0
  145.7773  136.6376  151.6134 C   0  0  0  0  0  0  0  0  0  0  0  0
  144.5886  136.9566  151.6540 O   0  0  0  0  0  0  0  0  0  0  0  0
  146.2472  135.4311  151.2521 N   0  0  0  0  0  0  0  0  0  0  0  0
  145.5088  134.2839  150.8602 C   0  0  0  0  0  0  0  0  0  0  0  0
  144.2466  134.3140  150.4171 N   0  0  0  0  0  0  0  0  0  0  0  0
  143.7703  133.0385  150.1040 C   0  0  0  0  0  0  0  0  0  0  0  0
  144.6894  132.0417  150.3170 C   0  0  0  0  0  0  0  0  0  0  0  0
  146.1986  132.6687  150.9247 S   0  0  0  0  0  0  0  0  0  0  0  0
  146.0356  140.4332  154.2031 N   0  3  0  0  0  0  0  0  0  0  0  0
  145.6075  140.6564  155.6148 C   0  0  0  0  0  0  0  0  0  0  0  0
  144.8720  141.9976  155.7556 C   0  0  0  0  0  0  0  0  0  0  0  0
  145.7326  143.0483  155.3421 O   0  0  0  0  0  0  0  0  0  0  0  0
  146.0937  142.9189  153.9751 C   0  0  0  0  0  0  0  0  0  0  0  0
  146.8491  141.5973  153.7466 C   0  0  0  0  0  0  0  0  0  0  0  0
  146.2375  136.9809  154.5057 H   0  0  0  0  0  0  0  0  0  0  0  0
  144.7681  137.8646  154.1615 H   0  0  0  0  0  0  0  0  0  0  0  0
  145.6421  138.1475  155.6647 H   0  0  0  0  0  0  0  0  0  0  0  0
  148.5154  137.9904  154.1302 H   0  0  0  0  0  0  0  0  0  0  0  0
  148.1216  138.9666  155.5063 H   0  0  0  0  0  0  0  0  0  0  0  0
  148.6920  139.7334  154.0207 H   0  0  0  0  0  0  0  0  0  0  0  0
  145.7303  139.2696  151.8865 H   0  0  0  0  0  0  0  0  0  0  0  0
  147.4559  139.4217  151.9359 H   0  0  0  0  0  0  0  0  0  0  0  0
  147.7218  137.1201  151.8736 H   0  0  0  0  0  0  0  0  0  0  0  0
  147.2502  135.3179  151.2592 H   0  0  0  0  0  0  0  0  0  0  0  0
  142.7615  132.9315  149.7339 H   0  0  0  0  0  0  0  0  0  0  0  0
  144.5704  130.9808  150.1543 H   0  0  0  0  0  0  0  0  0  0  0  0
  144.9475  139.8674  155.9677 H   0  0  0  0  0  0  0  0  0  0  0  0
  146.4759  140.6627  156.2748 H   0  0  0  0  0  0  0  0  0  0  0  0
  143.9510  142.0050  155.1702 H   0  0  0  0  0  0  0  0  0  0  0  0
  144.5905  142.1631  156.7958 H   0  0  0  0  0  0  0  0  0  0  0  0
  145.2030  142.9694  153.3467 H   0  0  0  0  0  0  0  0  0  0  0  0
  146.7242  143.7637  153.6969 H   0  0  0  0  0  0  0  0  0  0  0  0
  147.8030  141.6165  154.2750 H   0  0  0  0  0  0  0  0  0  0  0  0
  147.0676  141.5429  152.6814 H   0  0  0  0  0  0  0  0  0  0  0  0
  145.1900  140.4825  153.6530 H   0  0  0  0  0  0  0  0  0  0  0  0
  1  2  1  0  0  0  0
  1 20  1  0  0  0  0
  1 21  1  0  0  0  0
  1 22  1  0  0  0  0
  2  3  1  0  0  0  0
  2  4  1  0  0  0  0
  2 14  1  0  0  0  0
  3 23  1  0  0  0  0
  3 24  1  0  0  0  0
  3 25  1  0  0  0  0
  4  5  1  0  0  0  0
  4 26  1  0  0  0  0
  4 27  1  0  0  0  0
  5  6  1  0  0  0  0
  5 28  1  0  0  0  0
  6  7  2  0  0  0  0
  6  8  1  0  0  0  0
  8  9  1  0  0  0  0
  8 29  1  0  0  0  0
  9 13  1  0  0  0  0
  9 10  2  0  0  0  0
 10 11  1  0  0  0  0
 11 12  2  0  0  0  0
 11 30  1  0  0  0  0
 12 13  1  0  0  0  0
 12 31  1  0  0  0  0
 14 19  1  0  0  0  0
 14 15  1  0  0  0  0
 14 40  1  0  0  0  0
 15 16  1  0  0  0  0
 15 32  1  0  0  0  0
 15 33  1  0  0  0  0
 16 17  1  0  0  0  0
 16 34  1  0  0  0  0
 16 35  1  0  0  0  0
 17 18  1  0  0  0  0
 18 19  1  0  0  0  0
 18 36  1  0  0  0  0
 18 37  1  0  0  0  0
 19 38  1  0  0  0  0
 19 39  1  0  0  0  0
M  CHG  1  14   1
M  END
> <s_m_source_file>
AV-unprocessed.smi

> <i_m_source_file_index>
2066

> <i_lp_mmshare_version>
43012

> <i_f3d_flags>
0

> <s_epik_input>
W0NIMl0xW0NIMl1PW0NIMl1bQ0gyXU4xQyhbQ0gzXSkoW0NIM10pW0NIMl1bTkhdQyg9TylbTkhdYzJuW2NIXVtjSF1zMg==

> <s_epik_cmdline>
J2VwaWtfcHl0aG9uJywgJy1waCcsICc3LjAnLCAnLXRuJywgJzgnLCAnLW1hJywgJzIwMCcsICctbWV0YWxfYmluZGluZycsICctaW1hZScsICc8aW5maWxlLm1hZT4nLCAnLW9tYWUnLCAnPG91dGZpbGUubWFlPic=

> <r_lp_tautomer_probability>
0.999

> <r_epik_Ionization_Penalty>
0.695839

> <r_epik_Ionization_Penalty_Charging>
0.695697

> <r_epik_Ionization_Penalty_Neutral>
0.000141498

> <r_epik_State_Penalty>
0.717972

> <r_epik_Charging_Adjusted_Penalty>
1.41367

> <i_epik_Tot_Q>
1

> <i_epik_Tot_abs_Q>
1

> <r_epik_Metal_State_Penalty>
0.756569

> <b_epik_Metal_Only>
0

> <s_lp_Force_Field>
OPLS_2005

> <r_lp_Energy>
24.1099

> <b_lp_Chiralities_Consistent>
1

> <s_lp_Variant>
AV-unprocessed.smi:2066-2

> <Gold.Version>
5.8.1

> <Gold.Id.Protein>
6NUR|6NUR_protein|mol2

> <Gold.PLP.Fitness>
43.2455

> <Gold.PLP.PLP>
-30.2819

> <Gold.PLP.part.hbond>
-2.9953

> <Gold.PLP.part.metal>
0.0000

> <Gold.PLP.part.buried>
-7.2305

> <Gold.PLP.part.nonpolar>
-23.4263

> <Gold.PLP.part.repulsive>
2.7017

> <Gold.PLP.ligand.clash>
0.0000

> <Gold.PLP.ligand.torsion>
0.7189

> <Gold.PLP.Chemscore.Hbond>
3.8320

> <Gold.PLP.Chemscore.CHOScore>
0.9387

> <Gold.PLP.Chemscore.Metal>
0.0000

> <Gold.Chemscore.Hbonds>
donor molecule, donor type, donor heavy atom, donor atom, acceptor molecule, acceptor atom, score
      L1  H     5    28       P1  7948  0.91
      L1  H     8    29       P1  7948  0.86
      L1  H    14    40       P1 10175  2.00
      L1  C    11    30       P1 10186  1.00

> <Gold.PLP.Chemscore.Internal.Correction>
0.0893

> <Gold.Rescore>
     Score         DG    S(hbond)    S(metal)    S(lipo)     H(rot)  DE(clash)    DE(int)     intcor
     15.91     -18.09       2.88        0.00      61.08       1.62       0.36       1.82       ----

> <Gold.Chemscore.Fitness>
15.9131

> <Gold.Chemscore.DG>
-18.0915

> <Gold.Chemscore.ZeroCoef>
-5.4800

> <Gold.Chemscore.Hbond>
2.8809

> <Gold.Chemscore.Metal>
0.0000

> <Gold.Chemscore.Lipo>
61.0792

> <Gold.Chemscore.Internal_Hbond>
0.0000

> <Gold.Chemscore.DEClash>
0.3557

> <Gold.Chemscore.DEInternal>
1.8226

> <Gold.Chemscore.Rot>
1.6238

> <Gold.Chemscore.Internal.Correction>
   9.000000E+99

> <Gold.Chemscore.Hbonds>
donor molecule, donor type, donor heavy atom, donor atom, acceptor molecule, acceptor atom, score
      L1  H     5    28       P1  7948  0.87
      L1  H     8    29       P1  7948  0.65
      L1  H    14    40       P1 10175  0.99

> <Gold.Chemscore.Hbond.Weighted>
-9.6222

> <Gold.Chemscore.Metal.Weighted>
-0.0000

> <Gold.Chemscore.Lipo.Weighted>
-7.1463

> <Gold.Chemscore.Internal_Hbond.Weighted>
0.0000

> <Gold.Chemscore.DEClash.Weighted>
0.3557

> <Gold.Chemscore.DEInternal.Weighted>
1.8226

> <Gold.Chemscore.Rot.Weighted>
4.1570

> <Gold.Chemscore.Internal.Correction.Weighted>
   9.000000E+99

> <Gold.Protein.RotatedTorsions>
[ 6907 6896 6895 6894 ] final  -17.93 input  -60.11 | X-H torsion
[ 7974 7965 7964 7962 ] final   68.30 input  175.53 | X-H torsion
[ 8008 7997 7996 7995 ] final   17.21 input   59.86 | X-H torsion
[ 10167 10162 10161 10158 ] final  -36.90 input  -65.29 | X-H torsion
[ 10718 10713 10712 10709 ] final  -53.30 input   66.30 | X-H torsion
[ 10763 10752 10751 10750 ] final    9.95 input  -60.55 | X-H torsion
[ 11005 11000 10999 10996 ] final -163.73 input  -57.11 | X-H torsion

> <Gold.Protein.ActiveResidues>
 VAL166  LYS551  ARG553  GLY616  TRP617  ASP618  TYR619  PRO620  LYS621  CYS622 
 ASP623  PHE694  ASN695  SER759  ASP760  ASP761  ALA762  ILE779  LEU786  VAL792 
 PHE793  MET794  SER795  GLU796  ALA797  LYS798  CYS799  TRP800  GLU811  SER814 

> <Gold.Protein.RotatedAtoms>
  151.2859  135.0727  159.9186 H   0  0  0  0  0  0  0  0  0  0  0  0  # atno 6907 bound_to 6896
  152.5325  133.9982  159.7893 H   0  0  0  0  0  0  0  0  0  0  0  0  # atno 6908 bound_to 6896
  151.0244  133.5796  159.2698 H   0  0  0  0  0  0  0  0  0  0  0  0  # atno 6909 bound_to 6896
  145.8042  139.2998  143.1137 H   0  0  0  0  0  0  0  0  0  0  0  0  # atno 7974 bound_to 7965
  154.8881  140.2983  155.5386 H   0  0  0  0  0  0  0  0  0  0  0  0  # atno 8008 bound_to 7997
  156.3021  140.2429  156.3827 H   0  0  0  0  0  0  0  0  0  0  0  0  # atno 8009 bound_to 7997
  154.8647  140.0404  157.1676 H   0  0  0  0  0  0  0  0  0  0  0  0  # atno 8010 bound_to 7997
  140.7131  143.3377  151.2425 H   0  0  0  0  0  0  0  0  0  0  0  0  # atno 10167 bound_to 10162
  156.1547  130.4150  149.9888 H   0  0  0  0  0  0  0  0  0  0  0  0  # atno 10718 bound_to 10713
  153.2085  135.6866  153.8143 H   0  0  0  0  0  0  0  0  0  0  0  0  # atno 10763 bound_to 10752
  153.7384  135.3242  155.3300 H   0  0  0  0  0  0  0  0  0  0  0  0  # atno 10764 bound_to 10752
  154.8209  135.4652  154.0882 H   0  0  0  0  0  0  0  0  0  0  0  0  # atno 10765 bound_to 10752
  140.5949  134.5007  157.5198 H   0  0  0  0  0  0  0  0  0  0  0  0  # atno 11005 bound_to 11000
  145.9846  140.8654  143.0097 LP  0  0  0  0  0  0  0  0  0  0  0  0  # atno 17320 bound_to 7965
  144.6765  140.2128  143.7375 LP  0  0  0  0  0  0  0  0  0  0  0  0  # atno 17321 bound_to 7965
  139.6877  143.9746  152.2843 LP  0  0  0  0  0  0  0  0  0  0  0  0  # atno 17342 bound_to 10162
  139.9397  144.6689  150.8279 LP  0  0  0  0  0  0  0  0  0  0  0  0  # atno 17343 bound_to 10162
  156.7736  130.9195  151.3645 LP  0  0  0  0  0  0  0  0  0  0  0  0  # atno 17370 bound_to 10713
  157.6685  130.9029  149.9987 LP  0  0  0  0  0  0  0  0  0  0  0  0  # atno 17371 bound_to 10713
  139.9258  134.8059  156.1074 LP  0  0  0  0  0  0  0  0  0  0  0  0  # atno 17394 bound_to 11000
  141.0911  133.6714  156.2542 LP  0  0  0  0  0  0  0  0  0  0  0  0  # atno 17395 bound_to 11000

$$$$
