AV-unprocessed.smi:2499|AV-procd|sdf|9831|dock2
  -GOLD-   2272013463D 1   1.00000     0.00000
 Structure written by MMmdl.
 27 28  0  0  0  0  0  0  0  0  1 V2000
  151.7891  145.0869  158.6359 C   0  0  0  0  0  0  0  0  0  0  0  0
  151.9810  143.6244  158.2112 C   0  0  2  0  0  0  0  0  0  0  0  0
  151.0055  143.3092  157.1721 N   0  0  0  0  0  0  0  0  0  0  0  0
  150.8238  142.1019  156.6170 C   0  0  0  0  0  0  0  0  0  0  0  0
  151.4763  141.1044  156.9256 O   0  0  0  0  0  0  0  0  0  0  0  0
  149.8490  142.1327  155.6929 N   0  0  0  0  0  0  0  0  0  0  0  0
  149.3716  141.0547  154.9055 C   0  0  0  0  0  0  0  0  0  0  0  0
  150.0914  140.0367  154.4313 N   0  0  0  0  0  0  0  0  0  0  0  0
  149.1789  139.2582  153.7340 C   0  0  0  0  0  0  0  0  0  0  0  0
  147.9483  139.8560  153.8261 C   0  0  0  0  0  0  0  0  0  0  0  0
  148.0554  141.0003  154.5701 O   0  0  0  0  0  0  0  0  0  0  0  0
  151.9062  142.6979  159.4133 C   0  0  0  0  0  0  0  0  0  0  0  0
  152.6744  143.0033  160.6776 C   0  0  0  0  0  0  0  0  0  0  0  0
  153.0763  141.8302  159.8138 C   0  0  0  0  0  0  0  0  0  0  0  0
  152.5360  145.3828  159.3732 H   0  0  0  0  0  0  0  0  0  0  0  0
  150.8050  145.2467  159.0780 H   0  0  0  0  0  0  0  0  0  0  0  0
  151.8860  145.7606  157.7837 H   0  0  0  0  0  0  0  0  0  0  0  0
  152.9819  143.5416  157.7826 H   0  0  0  0  0  0  0  0  0  0  0  0
  150.4223  144.0696  156.8549 H   0  0  0  0  0  0  0  0  0  0  0  0
  149.3988  143.0219  155.5350 H   0  0  0  0  0  0  0  0  0  0  0  0
  149.4735  138.3486  153.2319 H   0  0  0  0  0  0  0  0  0  0  0  0
  146.9663  139.6127  153.4480 H   0  0  0  0  0  0  0  0  0  0  0  0
  150.9198  142.2625  159.5635 H   0  0  0  0  0  0  0  0  0  0  0  0
  153.3288  143.8727  160.6771 H   0  0  0  0  0  0  0  0  0  0  0  0
  152.1869  142.7868  161.6258 H   0  0  0  0  0  0  0  0  0  0  0  0
  152.8557  140.8315  160.1845 H   0  0  0  0  0  0  0  0  0  0  0  0
  153.9985  141.9221  159.2436 H   0  0  0  0  0  0  0  0  0  0  0  0
  1  2  1  0  0  0  0
  1 15  1  0  0  0  0
  1 16  1  0  0  0  0
  1 17  1  0  0  0  0
  2  3  1  0  0  0  0
  2 12  1  0  0  0  0
  2 18  1  0  0  0  0
  3  4  1  0  0  0  0
  3 19  1  0  0  0  0
  4  5  2  0  0  0  0
  4  6  1  0  0  0  0
  6  7  1  0  0  0  0
  6 20  1  0  0  0  0
  7 11  1  0  0  0  0
  7  8  2  0  0  0  0
  8  9  1  0  0  0  0
  9 10  2  0  0  0  0
  9 21  1  0  0  0  0
 10 11  1  0  0  0  0
 10 22  1  0  0  0  0
 12 14  1  0  0  0  0
 12 13  1  0  0  0  0
 12 23  1  0  0  0  0
 13 14  1  0  0  0  0
 13 24  1  0  0  0  0
 13 25  1  0  0  0  0
 14 26  1  0  0  0  0
 14 27  1  0  0  0  0
M  END
> <s_m_source_file>
AV-unprocessed.smi

> <i_m_source_file_index>
2499

> <i_lp_mmshare_version>
43012

> <i_f3d_flags>
0

> <s_epik_input>
W0NIMl0xW0NIMl1bQ0hdMVtDQEhdKFtDSDNdKVtOSF1DKD1PKVtOSF1jMm5bY0hdW2NIXW8y

> <s_epik_cmdline>
J2VwaWtfcHl0aG9uJywgJy1waCcsICc3LjAnLCAnLXRuJywgJzgnLCAnLW1hJywgJzIwMCcsICctbWV0YWxfYmluZGluZycsICctaW1hZScsICc8aW5maWxlLm1hZT4nLCAnLW9tYWUnLCAnPG91dGZpbGUubWFlPic=

> <r_lp_tautomer_probability>
0.785861

> <r_epik_Ionization_Penalty>
5.39182e-05

> <r_epik_Ionization_Penalty_Charging>
0

> <r_epik_Ionization_Penalty_Neutral>
5.39182e-05

> <r_epik_State_Penalty>
0.0482803

> <r_epik_Charging_Adjusted_Penalty>
0.0482803

> <i_epik_Tot_Q>
0

> <i_epik_Tot_abs_Q>
0

> <r_epik_Metal_State_Penalty>
0.0621274

> <b_epik_Metal_Only>
0

> <s_lp_Force_Field>
OPLS_2005

> <r_lp_Energy>
12.2154

> <b_lp_Chiralities_Consistent>
1

> <s_lp_Variant>
AV-unprocessed.smi:2499-1

> <Gold.Version>
5.8.1

> <Gold.Id.Protein>
6NUR|6NUR_protein|mol2

> <Gold.PLP.Fitness>
41.7633

> <Gold.PLP.PLP>
-30.8367

> <Gold.PLP.part.hbond>
-3.0000

> <Gold.PLP.part.metal>
0.0000

> <Gold.PLP.part.buried>
-1.2466

> <Gold.PLP.part.nonpolar>
-27.3009

> <Gold.PLP.part.repulsive>
0.4081

> <Gold.PLP.ligand.clash>
0.0000

> <Gold.PLP.ligand.torsion>
1.0897

> <Gold.PLP.Chemscore.Hbond>
3.0000

> <Gold.PLP.Chemscore.CHOScore>
1.0122

> <Gold.PLP.Chemscore.Metal>
0.0000

> <Gold.Chemscore.Hbonds>
donor molecule, donor type, donor heavy atom, donor atom, acceptor molecule, acceptor atom, score
      L1  H     3    19       P1  8028  1.00
      L1  H     6    20       P1  8028  1.00
      P1  H  7989  7998       L1     8  1.00
      L1  C     9    21       P1  7948  0.98
      L1  C     9    21       P1  7957  0.02

> <Gold.PLP.Chemscore.Internal.Correction>
1.0693

> <Gold.Rescore>
     Score         DG    S(hbond)    S(metal)    S(lipo)     H(rot)  DE(clash)    DE(int)     intcor
     17.63     -20.20       2.83        0.00      73.43       1.29       1.41       1.16       ----

> <Gold.Chemscore.Fitness>
17.6312

> <Gold.Chemscore.DG>
-20.2031

> <Gold.Chemscore.ZeroCoef>
-5.4800

> <Gold.Chemscore.Hbond>
2.8258

> <Gold.Chemscore.Metal>
0.0000

> <Gold.Chemscore.Lipo>
73.4279

> <Gold.Chemscore.Internal_Hbond>
0.0000

> <Gold.Chemscore.DEClash>
1.4071

> <Gold.Chemscore.DEInternal>
1.1649

> <Gold.Chemscore.Rot>
1.2915

> <Gold.Chemscore.Internal.Correction>
   9.000000E+99

> <Gold.Chemscore.Hbonds>
donor molecule, donor type, donor heavy atom, donor atom, acceptor molecule, acceptor atom, score
      L1  H     3    19       P1  8028  0.87
      L1  H     6    20       P1  8028  1.00
      P1  H  7989  7998       L1     8  0.47

> <Gold.Chemscore.Hbond.Weighted>
-9.4383

> <Gold.Chemscore.Metal.Weighted>
-0.0000

> <Gold.Chemscore.Lipo.Weighted>
-8.5911

> <Gold.Chemscore.Internal_Hbond.Weighted>
0.0000

> <Gold.Chemscore.DEClash.Weighted>
1.4071

> <Gold.Chemscore.DEInternal.Weighted>
1.1649

> <Gold.Chemscore.Rot.Weighted>
3.3062

> <Gold.Chemscore.Internal.Correction.Weighted>
   9.000000E+99

> <Gold.Protein.RotatedTorsions>
[ 6907 6896 6895 6894 ] final  -75.12 input  -60.11 | X-H torsion
[ 7974 7965 7964 7962 ] final  141.14 input  175.53 | X-H torsion
[ 8008 7997 7996 7995 ] final   19.28 input   59.86 | X-H torsion
[ 10167 10162 10161 10158 ] final   40.72 input  -65.29 | X-H torsion
[ 10718 10713 10712 10709 ] final  158.26 input   66.30 | X-H torsion
[ 10763 10752 10751 10750 ] final  -33.47 input  -60.55 | X-H torsion
[ 11005 11000 10999 10996 ] final  -79.17 input  -57.11 | X-H torsion

> <Gold.Protein.ActiveResidues>
 VAL166  LYS551  ARG553  GLY616  TRP617  ASP618  TYR619  PRO620  LYS621  CYS622 
 ASP623  PHE694  ASN695  SER759  ASP760  ASP761  ALA762  ILE779  LEU786  VAL792 
 PHE793  MET794  SER795  GLU796  ALA797  LYS798  CYS799  TRP800  GLU811  SER814 

> <Gold.Protein.RotatedAtoms>
  150.7069  134.4768  159.5451 H   0  0  0  0  0  0  0  0  0  0  0  0  # atno 6907 bound_to 6896
  152.2413  134.8222  160.0469 H   0  0  0  0  0  0  0  0  0  0  0  0  # atno 6908 bound_to 6896
  151.9003  133.3501  159.3865 H   0  0  0  0  0  0  0  0  0  0  0  0  # atno 6909 bound_to 6896
  144.9123  139.5277  143.5703 H   0  0  0  0  0  0  0  0  0  0  0  0  # atno 7974 bound_to 7965
  154.9183  140.3024  155.5229 H   0  0  0  0  0  0  0  0  0  0  0  0  # atno 8008 bound_to 7997
  156.3011  140.2376  156.4167 H   0  0  0  0  0  0  0  0  0  0  0  0  # atno 8009 bound_to 7997
  154.8356  140.0416  157.1495 H   0  0  0  0  0  0  0  0  0  0  0  0  # atno 8010 bound_to 7997
  140.3714  144.2100  150.6133 H   0  0  0  0  0  0  0  0  0  0  0  0  # atno 10167 bound_to 10162
  157.1803  131.0631  151.2135 H   0  0  0  0  0  0  0  0  0  0  0  0  # atno 10718 bound_to 10713
  153.8307  135.6866  153.4815 H   0  0  0  0  0  0  0  0  0  0  0  0  # atno 10763 bound_to 10752
  153.1512  135.4617  154.9638 H   0  0  0  0  0  0  0  0  0  0  0  0  # atno 10764 bound_to 10752
  154.7888  135.3294  154.7771 H   0  0  0  0  0  0  0  0  0  0  0  0  # atno 10765 bound_to 10752
  141.1667  133.7094  156.8082 H   0  0  0  0  0  0  0  0  0  0  0  0  # atno 11005 bound_to 11000
  146.3164  139.7938  142.8980 LP  0  0  0  0  0  0  0  0  0  0  0  0  # atno 17320 bound_to 7965
  145.3434  141.0292  143.3379 LP  0  0  0  0  0  0  0  0  0  0  0  0  # atno 17321 bound_to 7965
  140.5029  143.2312  151.8651 LP  0  0  0  0  0  0  0  0  0  0  0  0  # atno 17342 bound_to 10162
  139.4803  144.5038  151.9024 LP  0  0  0  0  0  0  0  0  0  0  0  0  # atno 17343 bound_to 10162
  157.3959  130.7307  149.6731 LP  0  0  0  0  0  0  0  0  0  0  0  0  # atno 17370 bound_to 10713
  155.9725  130.4134  150.4080 LP  0  0  0  0  0  0  0  0  0  0  0  0  # atno 17371 bound_to 10713
  140.2207  134.8759  157.3374 LP  0  0  0  0  0  0  0  0  0  0  0  0  # atno 17394 bound_to 11000
  140.1991  134.4277  155.7673 LP  0  0  0  0  0  0  0  0  0  0  0  0  # atno 17395 bound_to 11000

$$$$
