AV-unprocessed.smi:481|AV-procd|sdf|2681|dock9
  -GOLD-   2262023103D 1   1.00000     0.00000
 Structure written by MMmdl.
 43 45  0  0  0  0  0  0  0  0  1 V2000
  147.9658  132.9307  159.6436 C   0  0  0  0  0  0  0  0  0  0  0  0
  148.8450  133.3031  158.5940 O   0  0  0  0  0  0  0  0  0  0  0  0
  148.1864  133.6821  157.3935 C   0  0  0  0  0  0  0  0  0  0  0  0
  147.2322  134.8679  157.6144 C   0  0  0  0  0  0  0  0  0  0  0  0
  147.9625  136.1262  157.7187 N   0  0  0  0  0  0  0  0  0  0  0  0
  148.1773  136.8731  158.8314 C   0  0  0  0  0  0  0  0  0  0  0  0
  147.6617  136.4401  160.0611 N   0  0  0  0  0  0  0  0  0  0  0  0
  147.8311  137.1192  161.1966 N   0  0  0  0  0  0  0  0  0  0  0  0
  147.0510  136.9582  162.2166 C   0  0  0  0  0  0  0  0  0  0  0  0
  145.9711  135.9601  162.3760 C   0  0  0  0  0  0  0  0  0  0  0  0
  146.2219  134.5688  162.4476 C   0  0  0  0  0  0  0  0  0  0  0  0
  145.1585  133.6579  162.5984 C   0  0  0  0  0  0  0  0  0  0  0  0
  143.8354  134.1281  162.6921 C   0  0  0  0  0  0  0  0  0  0  0  0
  143.5779  135.5109  162.6414 C   0  0  0  0  0  0  0  0  0  0  0  0
  144.6416  136.4218  162.4893 C   0  0  0  0  0  0  0  0  0  0  0  0
  148.8869  137.9888  158.6194 N   0  0  0  0  0  0  0  0  0  0  0  0
  149.1415  137.9461  157.2569 C   0  0  0  0  0  0  0  0  0  0  0  0
  148.6007  136.8330  156.7003 C   0  0  0  0  0  0  0  0  0  0  0  0
  148.7269  136.5238  155.2709 C   0  0  0  0  0  0  0  0  0  0  0  0
  148.2568  135.5135  154.7524 O   0  0  0  0  0  0  0  0  0  0  0  0
  149.4185  137.4656  154.5838 N   0  0  0  0  0  0  0  0  0  0  0  0
  149.9834  138.6091  155.0794 C   0  0  0  0  0  0  0  0  0  0  0  0
  150.5856  139.3742  154.3263 O   0  0  0  0  0  0  0  0  0  0  0  0
  149.8510  138.8557  156.4223 N   0  0  0  0  0  0  0  0  0  0  0  0
  150.4393  140.0622  157.0070 C   0  0  0  0  0  0  0  0  0  0  0  0
  149.5322  137.3039  153.5938 H   0  0  0  0  0  0  0  0  0  0  0  0
  148.5457  132.7088  160.5394 H   0  0  0  0  0  0  0  0  0  0  0  0
  147.3895  132.0398  159.3951 H   0  0  0  0  0  0  0  0  0  0  0  0
  147.2747  133.7390  159.8857 H   0  0  0  0  0  0  0  0  0  0  0  0
  148.9095  133.8979  156.6054 H   0  0  0  0  0  0  0  0  0  0  0  0
  147.6113  132.8198  157.0551 H   0  0  0  0  0  0  0  0  0  0  0  0
  146.5151  134.9392  156.7976 H   0  0  0  0  0  0  0  0  0  0  0  0
  146.6345  134.7283  158.5142 H   0  0  0  0  0  0  0  0  0  0  0  0
  147.4895  135.4464  160.1108 H   0  0  0  0  0  0  0  0  0  0  0  0
  147.1947  137.6405  163.0545 H   0  0  0  0  0  0  0  0  0  0  0  0
  147.2306  134.1872  162.3907 H   0  0  0  0  0  0  0  0  0  0  0  0
  145.3592  132.5977  162.6452 H   0  0  0  0  0  0  0  0  0  0  0  0
  143.0198  133.4297  162.8082 H   0  0  0  0  0  0  0  0  0  0  0  0
  142.5637  135.8741  162.7188 H   0  0  0  0  0  0  0  0  0  0  0  0
  144.4264  137.4802  162.4495 H   0  0  0  0  0  0  0  0  0  0  0  0
  151.5204  140.0690  156.8615 H   0  0  0  0  0  0  0  0  0  0  0  0
  150.2546  140.1429  158.0781 H   0  0  0  0  0  0  0  0  0  0  0  0
  150.0265  140.9560  156.5374 H   0  0  0  0  0  0  0  0  0  0  0  0
  1  2  1  0  0  0  0
  1 27  1  0  0  0  0
  1 28  1  0  0  0  0
  1 29  1  0  0  0  0
  2  3  1  0  0  0  0
  3  4  1  0  0  0  0
  3 30  1  0  0  0  0
  3 31  1  0  0  0  0
  4  5  1  0  0  0  0
  4 32  1  0  0  0  0
  4 33  1  0  0  0  0
  5 18  1  0  0  0  0
  5  6  1  0  0  0  0
  6  7  1  0  0  0  0
  6 16  2  0  0  0  0
  7  8  1  0  0  0  0
  7 34  1  0  0  0  0
  8  9  2  0  0  0  0
  9 10  1  0  0  0  0
  9 35  1  0  0  0  0
 10 15  1  0  0  0  0
 10 11  2  0  0  0  0
 11 12  1  0  0  0  0
 11 36  1  0  0  0  0
 12 13  2  0  0  0  0
 12 37  1  0  0  0  0
 13 14  1  0  0  0  0
 13 38  1  0  0  0  0
 14 15  2  0  0  0  0
 14 39  1  0  0  0  0
 15 40  1  0  0  0  0
 16 17  1  0  0  0  0
 17 24  1  0  0  0  0
 17 18  2  0  0  0  0
 18 19  1  0  0  0  0
 19 20  2  0  0  0  0
 19 21  1  0  0  0  0
 21 26  1  0  0  0  0
 21 22  1  0  0  0  0
 22 23  2  0  0  0  0
 22 24  1  0  0  0  0
 24 25  1  0  0  0  0
 25 41  1  0  0  0  0
 25 42  1  0  0  0  0
 25 43  1  0  0  0  0
M  END
> <s_m_source_file>
AV-unprocessed.smi

> <i_m_source_file_index>
481

> <i_lp_mmshare_version>
43012

> <i_f3d_flags>
0

> <s_epik_input>
W0NIM11uMWMoPU8pW25IXWMoPU8pYyhjMTIpbihbQ0gyXVtDSDJdT1tDSDNdKWMobjIpW05IXS9OPVtDSF0vYzNbY0hdW2NIXVtjSF1bY0hdW2NIXTM=

> <s_epik_cmdline>
J2VwaWtfcHl0aG9uJywgJy1waCcsICc3LjAnLCAnLXRuJywgJzgnLCAnLW1hJywgJzIwMCcsICctbWV0YWxfYmluZGluZycsICctaW1hZScsICc8aW5maWxlLm1hZT4nLCAnLW9tYWUnLCAnPG91dGZpbGUubWFlPic=

> <r_epik_Ionization_Penalty>
0.000595515

> <r_epik_Ionization_Penalty_Charging>
0.000305988

> <r_epik_Ionization_Penalty_Neutral>
0.000289528

> <r_epik_State_Penalty>
0.000184189

> <r_epik_Charging_Adjusted_Penalty>
0.000490177

> <i_epik_Tot_Q>
0

> <i_epik_Tot_abs_Q>
0

> <r_epik_Metal_State_Penalty>
0.173754

> <b_epik_Metal_Only>
0

> <s_epik_Chemistry_Notes>
This compound has an imine and may undergo hydrolysis.

> <s_lp_Force_Field>
OPLS_2005

> <r_lp_Energy>
46.456

> <b_lp_Chiralities_Consistent>
1

> <s_lp_Variant>
AV-unprocessed.smi:481-2

> <Gold.Version>
5.8.1

> <Gold.Id.Protein>
6NUR|6NUR_protein|mol2

> <Gold.PLP.Fitness>
42.5084

> <Gold.PLP.PLP>
-30.8803

> <Gold.PLP.part.hbond>
-5.0000

> <Gold.PLP.part.metal>
0.0000

> <Gold.PLP.part.buried>
-5.6551

> <Gold.PLP.part.nonpolar>
-22.0225

> <Gold.PLP.part.repulsive>
0.9501

> <Gold.PLP.ligand.clash>
0.0000

> <Gold.PLP.ligand.torsion>
0.8753

> <Gold.PLP.Chemscore.Hbond>
4.2748

> <Gold.PLP.Chemscore.CHOScore>
0.0000

> <Gold.PLP.Chemscore.Metal>
0.0000

> <Gold.Chemscore.Hbonds>
donor molecule, donor type, donor heavy atom, donor atom, acceptor molecule, acceptor atom, score
      L1  H    21    26       P1  7948  0.85
      P1  H  6896  6907       L1     2  0.84
      P1  H  6931  6943       L1     8  1.00
      P1  H  6934  6947       L1     8  0.48
      P1  H  7989  7998       L1    23  1.00

> <Gold.PLP.Chemscore.Internal.Correction>
0.5544

> <Gold.Rescore>
     Score         DG    S(hbond)    S(metal)    S(lipo)     H(rot)  DE(clash)    DE(int)     intcor
     18.16     -19.21       2.90        0.00      68.22       1.54       0.19       0.85       ----

> <Gold.Chemscore.Fitness>
18.1619

> <Gold.Chemscore.DG>
-19.2071

> <Gold.Chemscore.ZeroCoef>
-5.4800

> <Gold.Chemscore.Hbond>
2.9009

> <Gold.Chemscore.Metal>
0.0000

> <Gold.Chemscore.Lipo>
68.2235

> <Gold.Chemscore.Internal_Hbond>
0.0000

> <Gold.Chemscore.DEClash>
0.1935

> <Gold.Chemscore.DEInternal>
0.8516

> <Gold.Chemscore.Rot>
1.5406

> <Gold.Chemscore.Internal.Correction>
   9.000000E+99

> <Gold.Chemscore.Hbonds>
donor molecule, donor type, donor heavy atom, donor atom, acceptor molecule, acceptor atom, score
      L1  H    21    26       P1  7948  0.72
      P1  H  6896  6907       L1     2  0.67
      P1  H  6931  6943       L1     8  0.24
      P1  H  6934  6947       L1     8  0.02
      P1  H  7989  7998       L1    23  0.96

> <Gold.Chemscore.Hbond.Weighted>
-9.6889

> <Gold.Chemscore.Metal.Weighted>
-0.0000

> <Gold.Chemscore.Lipo.Weighted>
-7.9822

> <Gold.Chemscore.Internal_Hbond.Weighted>
0.0000

> <Gold.Chemscore.DEClash.Weighted>
0.1935

> <Gold.Chemscore.DEInternal.Weighted>
0.8516

> <Gold.Chemscore.Rot.Weighted>
3.9440

> <Gold.Chemscore.Internal.Correction.Weighted>
   9.000000E+99

> <Gold.Protein.RotatedTorsions>
[ 6907 6896 6895 6894 ] final -116.97 input  -60.11 | X-H torsion
[ 7974 7965 7964 7962 ] final   80.65 input  175.53 | X-H torsion
[ 8008 7997 7996 7995 ] final   -8.57 input   59.86 | X-H torsion
[ 10167 10162 10161 10158 ] final  176.07 input  -65.29 | X-H torsion
[ 10718 10713 10712 10709 ] final -115.50 input   66.30 | X-H torsion
[ 10763 10752 10751 10750 ] final  -48.54 input  -60.55 | X-H torsion
[ 11005 11000 10999 10996 ] final  148.72 input  -57.11 | X-H torsion

> <Gold.Protein.ActiveResidues>
 VAL166  LYS551  ARG553  GLY616  TRP617  ASP618  TYR619  PRO620  LYS621  CYS622 
 ASP623  PHE694  ASN695  SER759  ASP760  ASP761  ALA762  ILE779  LEU786  VAL792 
 PHE793  MET794  SER795  GLU796  ALA797  LYS798  CYS799  TRP800  GLU811  SER814 

> <Gold.Protein.RotatedAtoms>
  150.8099  133.8441  159.3187 H   0  0  0  0  0  0  0  0  0  0  0  0  # atno 6907 bound_to 6896
  151.6230  135.1028  160.0115 H   0  0  0  0  0  0  0  0  0  0  0  0  # atno 6908 bound_to 6896
  152.4190  133.7046  159.6500 H   0  0  0  0  0  0  0  0  0  0  0  0  # atno 6909 bound_to 6896
  145.6484  139.2442  143.1990 H   0  0  0  0  0  0  0  0  0  0  0  0  # atno 7974 bound_to 7965
  154.5729  140.2377  155.8165 H   0  0  0  0  0  0  0  0  0  0  0  0  # atno 8008 bound_to 7997
  156.2120  140.3023  155.9712 H   0  0  0  0  0  0  0  0  0  0  0  0  # atno 8009 bound_to 7997
  155.2680  140.0417  157.2994 H   0  0  0  0  0  0  0  0  0  0  0  0  # atno 8010 bound_to 7997
  139.5200  144.2958  152.0423 H   0  0  0  0  0  0  0  0  0  0  0  0  # atno 10167 bound_to 10162
  156.0900  130.6084  150.8914 H   0  0  0  0  0  0  0  0  0  0  0  0  # atno 10718 bound_to 10713
  154.0794  135.6593  153.4835 H   0  0  0  0  0  0  0  0  0  0  0  0  # atno 10763 bound_to 10752
  153.0361  135.5176  154.7488 H   0  0  0  0  0  0  0  0  0  0  0  0  # atno 10764 bound_to 10752
  154.6579  135.3010  154.9872 H   0  0  0  0  0  0  0  0  0  0  0  0  # atno 10765 bound_to 10752
  140.0983  134.8999  157.1757 H   0  0  0  0  0  0  0  0  0  0  0  0  # atno 11005 bound_to 11000
  146.1224  140.7292  142.9451 LP  0  0  0  0  0  0  0  0  0  0  0  0  # atno 17320 bound_to 7965
  144.7131  140.4113  143.7065 LP  0  0  0  0  0  0  0  0  0  0  0  0  # atno 17321 bound_to 7965
  140.2407  144.4272  150.6261 LP  0  0  0  0  0  0  0  0  0  0  0  0  # atno 17342 bound_to 10162
  140.6292  143.2185  151.6531 LP  0  0  0  0  0  0  0  0  0  0  0  0  # atno 17343 bound_to 10162
  157.6046  131.0939  150.8901 LP  0  0  0  0  0  0  0  0  0  0  0  0  # atno 17370 bound_to 10713
  156.9052  130.5261  149.5281 LP  0  0  0  0  0  0  0  0  0  0  0  0  # atno 17371 bound_to 10713
  140.3255  134.2868  155.7238 LP  0  0  0  0  0  0  0  0  0  0  0  0  # atno 17394 bound_to 11000
  141.2098  133.7737  156.9971 LP  0  0  0  0  0  0  0  0  0  0  0  0  # atno 17395 bound_to 11000

$$$$
