AV-unprocessed.smi:199|AV-procd|sdf|1575|dock1
  -GOLD-   2262019453D 1   1.00000     0.00000
 Structure written by MMmdl.
 51 55  0  0  0  0  0  0  0  0  1 V2000
  146.9987  132.7677  161.7938 C   0  0  0  0  0  0  0  0  0  0  0  0
  146.7065  134.2036  162.2567 C   0  0  1  0  0  0  0  0  0  0  0  0
  147.5582  134.4828  163.3651 O   0  0  0  0  0  0  0  0  0  0  0  0
  147.8612  135.8664  163.3755 C   0  0  0  0  0  0  0  0  0  0  0  0
  148.0604  136.1679  161.8983 C   0  0  0  0  0  0  0  0  0  0  0  0
  146.9676  135.3399  161.2273 C   0  0  2  0  0  0  0  0  0  0  0  0
  145.7959  136.1364  161.1639 O   0  0  0  0  0  0  0  0  0  0  0  0
  147.3217  134.8963  159.7834 C   0  0  0  0  0  0  0  0  0  0  0  0
  147.5047  136.0094  158.8637 N   0  0  0  0  0  0  0  0  0  0  0  0
  146.5365  136.6024  158.0863 C   0  0  0  0  0  0  0  0  0  0  0  0
  146.9503  137.5895  157.3405 N   0  0  0  0  0  0  0  0  0  0  0  0
  148.3107  137.6797  157.6120 C   0  0  0  0  0  0  0  0  0  0  0  0
  149.3667  138.5192  157.1517 C   0  0  0  0  0  0  0  0  0  0  0  0
  149.1992  139.5093  156.2340 N   0  0  0  0  0  0  0  0  0  0  0  0
  149.7787  140.8291  156.4276 C   0  0  2  0  0  0  0  0  0  0  0  0
  149.1284  141.6372  155.2914 C   0  0  0  0  0  0  0  0  0  0  0  0
  149.0337  140.5755  154.1825 C   0  0  0  0  0  0  0  0  0  0  0  0
  149.6843  139.3609  154.8692 C   0  0  1  0  0  0  0  0  0  0  0  0
  151.2120  139.6080  154.9534 C   0  0  2  0  0  0  0  0  0  0  0  0
  152.0458  138.3330  155.1839 C   0  0  0  0  0  0  0  0  0  0  0  0
  153.3163  138.6698  155.6990 O   0  0  0  0  0  0  0  0  0  0  0  0
  151.2751  140.6238  156.1125 C   0  0  0  0  0  0  0  0  0  0  0  0
  150.6001  138.3165  157.6871 N   0  0  0  0  0  0  0  0  0  0  0  0
  150.8006  137.3464  158.5827 C   0  0  0  0  0  0  0  0  0  0  0  0
  149.9188  136.4810  159.0845 N   0  0  0  0  0  0  0  0  0  0  0  0
  148.6732  136.6913  158.5718 C   0  0  0  0  0  0  0  0  0  0  0  0
  146.3702  132.4860  160.9491 H   0  0  0  0  0  0  0  0  0  0  0  0
  146.8000  132.0586  162.5975 H   0  0  0  0  0  0  0  0  0  0  0  0
  148.0415  132.6446  161.5010 H   0  0  0  0  0  0  0  0  0  0  0  0
  145.6759  134.2443  162.6149 H   0  0  0  0  0  0  0  0  0  0  0  0
  147.0198  136.4277  163.7845 H   0  0  0  0  0  0  0  0  0  0  0  0
  148.7469  136.0806  163.9739 H   0  0  0  0  0  0  0  0  0  0  0  0
  148.0170  137.2327  161.6646 H   0  0  0  0  0  0  0  0  0  0  0  0
  149.0438  135.8024  161.6008 H   0  0  0  0  0  0  0  0  0  0  0  0
  145.0524  135.5914  161.3727 H   0  0  0  0  0  0  0  0  0  0  0  0
  148.2399  134.3086  159.7774 H   0  0  0  0  0  0  0  0  0  0  0  0
  146.5400  134.2505  159.3816 H   0  0  0  0  0  0  0  0  0  0  0  0
  145.5049  136.2810  158.0952 H   0  0  0  0  0  0  0  0  0  0  0  0
  149.5985  141.2706  157.4085 H   0  0  0  0  0  0  0  0  0  0  0  0
  148.1341  141.9833  155.5762 H   0  0  0  0  0  0  0  0  0  0  0  0
  149.7210  142.5051  155.0000 H   0  0  0  0  0  0  0  0  0  0  0  0
  147.9904  140.3693  153.9405 H   0  0  0  0  0  0  0  0  0  0  0  0
  149.5402  140.8715  153.2633 H   0  0  0  0  0  0  0  0  0  0  0  0
  149.4229  138.4293  154.3701 H   0  0  0  0  0  0  0  0  0  0  0  0
  151.5569  140.0692  154.0265 H   0  0  0  0  0  0  0  0  0  0  0  0
  151.5572  137.6468  155.8748 H   0  0  0  0  0  0  0  0  0  0  0  0
  152.1852  137.7986  154.2440 H   0  0  0  0  0  0  0  0  0  0  0  0
  153.3944  138.3050  156.5674 H   0  0  0  0  0  0  0  0  0  0  0  0
  151.7772  141.5505  155.8332 H   0  0  0  0  0  0  0  0  0  0  0  0
  151.7990  140.2112  156.9758 H   0  0  0  0  0  0  0  0  0  0  0  0
  151.8115  137.2510  158.9501 H   0  0  0  0  0  0  0  0  0  0  0  0
  1  2  1  0  0  0  0
  1 27  1  0  0  0  0
  1 28  1  0  0  0  0
  1 29  1  0  0  0  0
  2  6  1  0  0  0  0
  2  3  1  0  0  0  0
  2 30  1  0  0  0  0
  3  4  1  0  0  0  0
  4  5  1  0  0  0  0
  4 31  1  0  0  0  0
  4 32  1  0  0  0  0
  5  6  1  0  0  0  0
  5 33  1  0  0  0  0
  5 34  1  0  0  0  0
  6  7  1  0  0  0  0
  6  8  1  0  0  0  0
  7 35  1  0  0  0  0
  8  9  1  0  0  0  0
  8 36  1  0  0  0  0
  8 37  1  0  0  0  0
  9 26  1  0  0  0  0
  9 10  1  0  0  0  0
 10 11  2  0  0  0  0
 10 38  1  0  0  0  0
 11 12  1  0  0  0  0
 12 26  2  0  0  0  0
 12 13  1  0  0  0  0
 13 14  1  0  0  0  0
 13 23  2  0  0  0  0
 14 18  1  0  0  0  0
 14 15  1  0  0  0  0
 15 22  1  0  0  0  0
 15 16  1  0  0  0  0
 15 39  1  0  0  0  0
 16 17  1  0  0  0  0
 16 40  1  0  0  0  0
 16 41  1  0  0  0  0
 17 18  1  0  0  0  0
 17 42  1  0  0  0  0
 17 43  1  0  0  0  0
 18 19  1  0  0  0  0
 18 44  1  0  0  0  0
 19 20  1  0  0  0  0
 19 22  1  0  0  0  0
 19 45  1  0  0  0  0
 20 21  1  0  0  0  0
 20 46  1  0  0  0  0
 20 47  1  0  0  0  0
 21 48  1  0  0  0  0
 22 49  1  0  0  0  0
 22 50  1  0  0  0  0
 23 24  1  0  0  0  0
 24 25  2  0  0  0  0
 24 51  1  0  0  0  0
 25 26  1  0  0  0  0
M  END
> <s_m_source_file>
AV-unprocessed.smi

> <i_m_source_file_index>
199

> <i_lp_mmshare_version>
43012

> <i_f3d_flags>
0

> <s_epik_input>
W0NIMl0xW0NIMl1PW0NAQEhdKFtDSDNdKVtDQEBdMShbT0hdKVtDSDJdbihbY0hdbjIpYyhjMjMpbltjSF1uYzNOKFtDQEBIXTQ1KVtDQEhdKFtDSDJdW0NIMl00KVtDQEhdKFtDSDJdNSlbQ0gyXVtPSF0=

> <s_epik_cmdline>
J2VwaWtfcHl0aG9uJywgJy1waCcsICc3LjAnLCAnLXRuJywgJzgnLCAnLW1hJywgJzIwMCcsICctbWV0YWxfYmluZGluZycsICctaW1hZScsICc8aW5maWxlLm1hZT4nLCAnLW9tYWUnLCAnPG91dGZpbGUubWFlPic=

> <r_lp_tautomer_probability>
1

> <r_epik_Ionization_Penalty>
0.00583903

> <r_epik_Ionization_Penalty_Charging>
0

> <r_epik_Ionization_Penalty_Neutral>
0.00583903

> <r_epik_State_Penalty>
-0

> <r_epik_Charging_Adjusted_Penalty>
0

> <i_epik_Tot_Q>
0

> <i_epik_Tot_abs_Q>
0

> <r_epik_Metal_State_Penalty>
-0

> <b_epik_Metal_Only>
0

> <s_lp_Force_Field>
OPLS_2005

> <r_lp_Energy>
84.1241

> <b_lp_Chiralities_Consistent>
1

> <s_lp_Variant>
AV-unprocessed.smi:199-16

> <Gold.Version>
5.8.1

> <Gold.Id.Protein>
6NUR|6NUR_protein|mol2

> <Gold.PLP.Fitness>
44.6412

> <Gold.PLP.PLP>
-40.5622

> <Gold.PLP.part.hbond>
-3.4007

> <Gold.PLP.part.metal>
0.0000

> <Gold.PLP.part.buried>
-1.6334

> <Gold.PLP.part.nonpolar>
-35.2568

> <Gold.PLP.part.repulsive>
0.0263

> <Gold.PLP.ligand.clash>
0.0000

> <Gold.PLP.ligand.torsion>
0.8848

> <Gold.PLP.Chemscore.Hbond>
1.9440

> <Gold.PLP.Chemscore.CHOScore>
0.0000

> <Gold.PLP.Chemscore.Metal>
0.0000

> <Gold.Chemscore.Hbonds>
donor molecule, donor type, donor heavy atom, donor atom, acceptor molecule, acceptor atom, score
      P1  H  6896  6907       L1    25  1.00
      P1  H  7997  8010       L1    21  0.59

> <Gold.PLP.Chemscore.Internal.Correction>
0.0165

> <Gold.Rescore>
     Score         DG    S(hbond)    S(metal)    S(lipo)     H(rot)  DE(clash)    DE(int)     intcor
      8.01     -12.39       1.41        0.00      85.93       3.07       0.24       4.14       ----

> <Gold.Chemscore.Fitness>
8.0074

> <Gold.Chemscore.DG>
-12.3883

> <Gold.Chemscore.ZeroCoef>
-5.4800

> <Gold.Chemscore.Hbond>
1.4135

> <Gold.Chemscore.Metal>
0.0000

> <Gold.Chemscore.Lipo>
85.9297

> <Gold.Chemscore.Internal_Hbond>
0.0000

> <Gold.Chemscore.DEClash>
0.2423

> <Gold.Chemscore.DEInternal>
4.1386

> <Gold.Chemscore.Rot>
3.0729

> <Gold.Chemscore.Internal.Correction>
   9.000000E+99

> <Gold.Chemscore.Hbonds>
donor molecule, donor type, donor heavy atom, donor atom, acceptor molecule, acceptor atom, score
      P1  H  6896  6907       L1    25  0.74
      P1  H  7997  8010       L1    21  0.04

> <Gold.Chemscore.Hbond.Weighted>
-4.7212

> <Gold.Chemscore.Metal.Weighted>
-0.0000

> <Gold.Chemscore.Lipo.Weighted>
-10.0538

> <Gold.Chemscore.Internal_Hbond.Weighted>
0.0000

> <Gold.Chemscore.DEClash.Weighted>
0.2423

> <Gold.Chemscore.DEInternal.Weighted>
4.1386

> <Gold.Chemscore.Rot.Weighted>
7.8667

> <Gold.Chemscore.Internal.Correction.Weighted>
   9.000000E+99

> <Gold.Protein.RotatedTorsions>
[ 6907 6896 6895 6894 ] final  -49.61 input  -60.11 | X-H torsion
[ 7974 7965 7964 7962 ] final  -80.80 input  175.53 | X-H torsion
[ 8008 7997 7996 7995 ] final   89.24 input   59.86 | X-H torsion
[ 10167 10162 10161 10158 ] final   96.69 input  -65.29 | X-H torsion
[ 10718 10713 10712 10709 ] final  -68.21 input   66.30 | X-H torsion
[ 10763 10752 10751 10750 ] final -105.95 input  -60.55 | X-H torsion
[ 11005 11000 10999 10996 ] final -129.95 input  -57.11 | X-H torsion

> <Gold.Protein.ActiveResidues>
 VAL166  LYS551  ARG553  GLY616  TRP617  ASP618  TYR619  PRO620  LYS621  CYS622 
 ASP623  PHE694  ASN695  SER759  ASP760  ASP761  ALA762  ILE779  LEU786  VAL792 
 PHE793  MET794  SER795  GLU796  ALA797  LYS798  CYS799  TRP800  GLU811  SER814 

> <Gold.Protein.RotatedAtoms>
  150.8789  134.8176  159.7209 H   0  0  0  0  0  0  0  0  0  0  0  0  # atno 6907 bound_to 6896
  152.4764  134.4828  159.9681 H   0  0  0  0  0  0  0  0  0  0  0  0  # atno 6908 bound_to 6896
  151.4906  133.3487  159.2888 H   0  0  0  0  0  0  0  0  0  0  0  0  # atno 6909 bound_to 6896
  145.5551  140.9491  143.1478 H   0  0  0  0  0  0  0  0  0  0  0  0  # atno 7974 bound_to 7965
  155.9975  140.3363  155.6813 H   0  0  0  0  0  0  0  0  0  0  0  0  # atno 8008 bound_to 7997
  155.6336  140.0687  157.2659 H   0  0  0  0  0  0  0  0  0  0  0  0  # atno 8009 bound_to 7997
  154.4238  140.1755  156.1486 H   0  0  0  0  0  0  0  0  0  0  0  0  # atno 8010 bound_to 7997
  139.7871  144.6866  150.9943 H   0  0  0  0  0  0  0  0  0  0  0  0  # atno 10167 bound_to 10162
  156.0517  130.4291  150.1967 H   0  0  0  0  0  0  0  0  0  0  0  0  # atno 10718 bound_to 10713
  154.7980  135.4730  154.0208 H   0  0  0  0  0  0  0  0  0  0  0  0  # atno 10763 bound_to 10752
  153.1735  135.6829  153.8582 H   0  0  0  0  0  0  0  0  0  0  0  0  # atno 10764 bound_to 10752
  153.8156  135.3211  155.3383 H   0  0  0  0  0  0  0  0  0  0  0  0  # atno 10765 bound_to 10752
  140.9387  134.1222  157.4170 H   0  0  0  0  0  0  0  0  0  0  0  0  # atno 11005 bound_to 11000
  144.7510  139.7194  143.7273 LP  0  0  0  0  0  0  0  0  0  0  0  0  # atno 17320 bound_to 7965
  146.1890  139.5120  142.9817 LP  0  0  0  0  0  0  0  0  0  0  0  0  # atno 17321 bound_to 7965
  140.7820  143.4421  151.0537 LP  0  0  0  0  0  0  0  0  0  0  0  0  # atno 17342 bound_to 10162
  139.8099  143.7965  152.3170 LP  0  0  0  0  0  0  0  0  0  0  0  0  # atno 17343 bound_to 10162
  157.0049  130.9933  151.3381 LP  0  0  0  0  0  0  0  0  0  0  0  0  # atno 17370 bound_to 10713
  157.5450  130.8144  149.8074 LP  0  0  0  0  0  0  0  0  0  0  0  0  # atno 17371 bound_to 10713
  139.8814  135.0029  156.6157 LP  0  0  0  0  0  0  0  0  0  0  0  0  # atno 17394 bound_to 11000
  140.7763  133.8696  155.8532 LP  0  0  0  0  0  0  0  0  0  0  0  0  # atno 17395 bound_to 11000

$$$$
