AV-unprocessed.smi:119|AV-procd|sdf|1133|dock8
  -GOLD-   2262018263D 1   1.00000     0.00000
 Structure written by MMmdl.
 51 54  0  0  0  0  0  0  0  0  1 V2000
  146.5734  134.8567  155.6939 C   0  0  0  0  0  0  0  0  0  0  0  0
  146.8440  135.5223  157.0495 C   0  0  2  0  0  0  0  0  0  0  0  0
  147.5367  136.8879  156.8647 C   0  0  0  0  0  0  0  0  0  0  0  0
  147.6316  137.7386  158.1448 C   0  0  0  0  0  0  0  0  0  0  0  0
  148.5883  137.1834  159.1074 N   0  0  0  0  0  0  0  0  0  0  0  0
  149.9173  137.4336  158.9892 C   0  0  0  0  0  0  0  0  0  0  0  0
  150.7502  136.9037  159.7280 O   0  0  0  0  0  0  0  0  0  0  0  0
  150.4138  138.4143  157.9013 C   0  0  0  0  0  0  0  0  0  0  0  0
  151.2119  139.5260  158.4623 N   0  0  0  0  0  0  0  0  0  0  0  0
  152.4551  139.2429  159.0795 C   0  0  0  0  0  0  0  0  0  0  0  0
  152.8843  138.0909  159.1555 O   0  0  0  0  0  0  0  0  0  0  0  0
  153.1708  140.3983  159.6096 C   0  0  0  0  0  0  0  0  0  0  0  0
  154.3735  140.2299  160.1852 F   0  0  0  0  0  0  0  0  0  0  0  0
  152.6452  141.6382  159.5288 C   0  0  0  0  0  0  0  0  0  0  0  0
  151.4129  141.8947  158.9609 N   0  0  0  0  0  0  0  0  0  0  0  0
  150.9104  143.3181  158.8909 C   0  0  2  0  0  0  0  0  0  0  0  0
  151.8544  144.2661  158.1263 C   0  0  0  0  0  0  0  0  0  0  0  0
  152.1845  145.3277  159.1627 C   0  0  0  0  0  0  0  0  0  0  0  0
  151.0328  145.2030  160.1541 C   0  0  0  0  0  0  0  0  0  0  0  0
  150.7779  143.8074  160.1898 O   0  0  0  0  0  0  0  0  0  0  0  0
  150.6771  140.8349  158.3838 C   0  0  0  0  0  0  0  0  0  0  0  0
  149.5960  141.0402  157.8290 O   0  0  0  0  0  0  0  0  0  0  0  0
  148.0629  136.3107  160.0938 C   0  0  0  0  0  0  0  0  0  0  0  0
  147.9481  136.7580  161.4282 C   0  0  0  0  0  0  0  0  0  0  0  0
  147.4370  135.8994  162.4199 C   0  0  0  0  0  0  0  0  0  0  0  0
  147.0388  134.5919  162.0822 C   0  0  0  0  0  0  0  0  0  0  0  0
  147.1488  134.1425  160.7522 C   0  0  0  0  0  0  0  0  0  0  0  0
  147.6540  134.9991  159.7540 C   0  0  0  0  0  0  0  0  0  0  0  0
  147.8007  134.3885  158.1008 S   0  0  0  0  0  0  0  0  0  0  0  0
  145.9481  135.4877  155.0617 H   0  0  0  0  0  0  0  0  0  0  0  0
  146.0566  133.9051  155.8208 H   0  0  0  0  0  0  0  0  0  0  0  0
  147.5023  134.6622  155.1569 H   0  0  0  0  0  0  0  0  0  0  0  0
  145.8824  135.6797  157.5395 H   0  0  0  0  0  0  0  0  0  0  0  0
  148.5270  136.7489  156.4285 H   0  0  0  0  0  0  0  0  0  0  0  0
  146.9709  137.4631  156.1310 H   0  0  0  0  0  0  0  0  0  0  0  0
  147.9047  138.7634  157.8879 H   0  0  0  0  0  0  0  0  0  0  0  0
  146.6470  137.8159  158.6085 H   0  0  0  0  0  0  0  0  0  0  0  0
  150.9720  137.8396  157.1613 H   0  0  0  0  0  0  0  0  0  0  0  0
  149.5849  138.8413  157.3360 H   0  0  0  0  0  0  0  0  0  0  0  0
  153.2179  142.4599  159.9337 H   0  0  0  0  0  0  0  0  0  0  0  0
  149.9257  143.2669  158.4241 H   0  0  0  0  0  0  0  0  0  0  0  0
  152.7385  143.7574  157.7402 H   0  0  0  0  0  0  0  0  0  0  0  0
  151.3087  144.6951  157.2854 H   0  0  0  0  0  0  0  0  0  0  0  0
  153.1281  145.0924  159.6561 H   0  0  0  0  0  0  0  0  0  0  0  0
  152.2688  146.3272  158.7357 H   0  0  0  0  0  0  0  0  0  0  0  0
  151.2821  145.5921  161.1415 H   0  0  0  0  0  0  0  0  0  0  0  0
  150.1473  145.7261  159.7895 H   0  0  0  0  0  0  0  0  0  0  0  0
  148.2548  137.7595  161.6936 H   0  0  0  0  0  0  0  0  0  0  0  0
  147.3523  136.2430  163.4404 H   0  0  0  0  0  0  0  0  0  0  0  0
  146.6499  133.9326  162.8438 H   0  0  0  0  0  0  0  0  0  0  0  0
  146.8440  133.1372  160.5003 H   0  0  0  0  0  0  0  0  0  0  0  0
  1  2  1  0  0  0  0
  1 30  1  0  0  0  0
  1 31  1  0  0  0  0
  1 32  1  0  0  0  0
  2 29  1  0  0  0  0
  2  3  1  0  0  0  0
  2 33  1  0  0  0  0
  3  4  1  0  0  0  0
  3 34  1  0  0  0  0
  3 35  1  0  0  0  0
  4  5  1  0  0  0  0
  4 36  1  0  0  0  0
  4 37  1  0  0  0  0
  5  6  1  0  0  0  0
  5 23  1  0  0  0  0
  6  7  2  0  0  0  0
  6  8  1  0  0  0  0
  8  9  1  0  0  0  0
  8 38  1  0  0  0  0
  8 39  1  0  0  0  0
  9 21  1  0  0  0  0
  9 10  1  0  0  0  0
 10 11  2  0  0  0  0
 10 12  1  0  0  0  0
 12 13  1  0  0  0  0
 12 14  2  0  0  0  0
 14 15  1  0  0  0  0
 14 40  1  0  0  0  0
 15 16  1  0  0  0  0
 15 21  1  0  0  0  0
 16 20  1  0  0  0  0
 16 17  1  0  0  0  0
 16 41  1  0  0  0  0
 17 18  1  0  0  0  0
 17 42  1  0  0  0  0
 17 43  1  0  0  0  0
 18 19  1  0  0  0  0
 18 44  1  0  0  0  0
 18 45  1  0  0  0  0
 19 20  1  0  0  0  0
 19 46  1  0  0  0  0
 19 47  1  0  0  0  0
 21 22  2  0  0  0  0
 23 28  2  0  0  0  0
 23 24  1  0  0  0  0
 24 25  2  0  0  0  0
 24 48  1  0  0  0  0
 25 26  1  0  0  0  0
 25 49  1  0  0  0  0
 26 27  2  0  0  0  0
 26 50  1  0  0  0  0
 27 28  1  0  0  0  0
 27 51  1  0  0  0  0
 28 29  1  0  0  0  0
M  END
> <s_m_source_file>
AV-unprocessed.smi

> <i_m_source_file_index>
119

> <i_lp_mmshare_version>
43012

> <i_f3d_flags>
0

> <s_epik_input>
W2NIXTFbY0hdW2NIXVtjSF1jKGMxMilTW0NASF0oW0NIM10pW0NIMl1bQ0gyXU4yQyg9TylbQ0gyXW4zYyg9TyljKEYpW2NIXW4oYzM9TylbQ0BASF00W0NIMl1bQ0gyXVtDSDJdTzQ=

> <s_epik_cmdline>
J2VwaWtfcHl0aG9uJywgJy1waCcsICc3LjAnLCAnLXRuJywgJzgnLCAnLW1hJywgJzIwMCcsICctbWV0YWxfYmluZGluZycsICctaW1hZScsICc8aW5maWxlLm1hZT4nLCAnLW9tYWUnLCAnPG91dGZpbGUubWFlPic=

> <r_lp_tautomer_probability>
1

> <r_epik_Ionization_Penalty>
1.68882e-06

> <r_epik_Ionization_Penalty_Charging>
3.67303e-09

> <r_epik_Ionization_Penalty_Neutral>
1.68515e-06

> <r_epik_State_Penalty>
-0

> <r_epik_Charging_Adjusted_Penalty>
3.67303e-09

> <i_epik_Tot_Q>
0

> <i_epik_Tot_abs_Q>
0

> <r_epik_Metal_State_Penalty>
-0

> <b_epik_Metal_Only>
0

> <s_epik_Chemistry_Notes>
This compound contains an acetal/aminal-like group ( X-CH(R)-Y where X, Y are N, S, or O) that may be acid/base labile, releasing an aldehyde.

> <s_lp_Force_Field>
OPLS_2005

> <r_lp_Energy>
42.8221

> <b_lp_Chiralities_Consistent>
1

> <s_lp_Variant>
AV-unprocessed.smi:119-1

> <Gold.Version>
5.8.1

> <Gold.Id.Protein>
6NUR|6NUR_protein|mol2

> <Gold.PLP.Fitness>
55.0588

> <Gold.PLP.PLP>
-52.1528

> <Gold.PLP.part.hbond>
-1.2017

> <Gold.PLP.part.metal>
0.0000

> <Gold.PLP.part.buried>
-3.8893

> <Gold.PLP.part.nonpolar>
-47.3157

> <Gold.PLP.part.repulsive>
0.1281

> <Gold.PLP.ligand.clash>
0.0000

> <Gold.PLP.ligand.torsion>
0.0623

> <Gold.PLP.Chemscore.Hbond>
1.0000

> <Gold.PLP.Chemscore.CHOScore>
0.0000

> <Gold.PLP.Chemscore.Metal>
0.0000

> <Gold.Chemscore.Hbonds>
donor molecule, donor type, donor heavy atom, donor atom, acceptor molecule, acceptor atom, score
      P1  H  6896  6907       L1     7  1.00

> <Gold.PLP.Chemscore.Internal.Correction>
0.0307

> <Gold.Rescore>
     Score         DG    S(hbond)    S(metal)    S(lipo)     H(rot)  DE(clash)    DE(int)     intcor
     14.95     -16.97       0.98        0.00     103.70       1.53       0.22       1.80       ----

> <Gold.Chemscore.Fitness>
14.9472

> <Gold.Chemscore.DG>
-16.9689

> <Gold.Chemscore.ZeroCoef>
-5.4800

> <Gold.Chemscore.Hbond>
0.9774

> <Gold.Chemscore.Metal>
0.0000

> <Gold.Chemscore.Lipo>
103.6964

> <Gold.Chemscore.Internal_Hbond>
0.0000

> <Gold.Chemscore.DEClash>
0.2235

> <Gold.Chemscore.DEInternal>
1.7983

> <Gold.Chemscore.Rot>
1.5266

> <Gold.Chemscore.Internal.Correction>
   9.000000E+99

> <Gold.Chemscore.Hbonds>
donor molecule, donor type, donor heavy atom, donor atom, acceptor molecule, acceptor atom, score
      P1  H  6896  6907       L1     7  1.00

> <Gold.Chemscore.Hbond.Weighted>
-3.2645

> <Gold.Chemscore.Metal.Weighted>
-0.0000

> <Gold.Chemscore.Lipo.Weighted>
-12.1325

> <Gold.Chemscore.Internal_Hbond.Weighted>
0.0000

> <Gold.Chemscore.DEClash.Weighted>
0.2235

> <Gold.Chemscore.DEInternal.Weighted>
1.7983

> <Gold.Chemscore.Rot.Weighted>
3.9081

> <Gold.Chemscore.Internal.Correction.Weighted>
   9.000000E+99

> <Gold.Protein.RotatedTorsions>
[ 6907 6896 6895 6894 ] final  -29.90 input  -60.11 | X-H torsion
[ 7974 7965 7964 7962 ] final  162.26 input  175.53 | X-H torsion
[ 8008 7997 7996 7995 ] final  -71.14 input   59.86 | X-H torsion
[ 10167 10162 10161 10158 ] final   59.30 input  -65.29 | X-H torsion
[ 10718 10713 10712 10709 ] final   43.48 input   66.30 | X-H torsion
[ 10763 10752 10751 10750 ] final  -32.91 input  -60.55 | X-H torsion
[ 11005 11000 10999 10996 ] final -127.04 input  -57.11 | X-H torsion

> <Gold.Protein.ActiveResidues>
 VAL166  LYS551  ARG553  GLY616  TRP617  ASP618  TYR619  PRO620  LYS621  CYS622 
 ASP623  PHE694  ASN695  SER759  ASP760  ASP761  ALA762  ILE779  LEU786  VAL792 
 PHE793  MET794  SER795  GLU796  ALA797  LYS798  CYS799  TRP800  GLU811  SER814 

> <Gold.Protein.RotatedAtoms>
  151.1128  135.0036  159.8501 H   0  0  0  0  0  0  0  0  0  0  0  0  # atno 6907 bound_to 6896
  152.5444  134.1815  159.8647 H   0  0  0  0  0  0  0  0  0  0  0  0  # atno 6908 bound_to 6896
  151.1867  133.4647  159.2627 H   0  0  0  0  0  0  0  0  0  0  0  0  # atno 6909 bound_to 6896
  144.7645  139.8014  143.6320 H   0  0  0  0  0  0  0  0  0  0  0  0  # atno 7974 bound_to 7965
  154.5065  140.0821  156.7904 H   0  0  0  0  0  0  0  0  0  0  0  0  # atno 8008 bound_to 7997
  155.3883  140.3431  155.4232 H   0  0  0  0  0  0  0  0  0  0  0  0  # atno 8009 bound_to 7997
  156.1521  140.1562  156.8740 H   0  0  0  0  0  0  0  0  0  0  0  0  # atno 8010 bound_to 7997
  140.1779  144.4212  150.6629 H   0  0  0  0  0  0  0  0  0  0  0  0  # atno 10167 bound_to 10162
  157.4163  130.7943  149.7475 H   0  0  0  0  0  0  0  0  0  0  0  0  # atno 10718 bound_to 10713
  153.8215  135.6874  153.4826 H   0  0  0  0  0  0  0  0  0  0  0  0  # atno 10763 bound_to 10752
  153.1566  135.4596  154.9711 H   0  0  0  0  0  0  0  0  0  0  0  0  # atno 10764 bound_to 10752
  154.7925  135.3307  154.7687 H   0  0  0  0  0  0  0  0  0  0  0  0  # atno 10765 bound_to 10752
  140.9632  134.0908  157.3947 H   0  0  0  0  0  0  0  0  0  0  0  0  # atno 11005 bound_to 11000
  146.1740  139.4903  142.9909 LP  0  0  0  0  0  0  0  0  0  0  0  0  # atno 17320 bound_to 7965
  145.6513  141.0262  143.1759 LP  0  0  0  0  0  0  0  0  0  0  0  0  # atno 17321 bound_to 7965
  140.6539  143.2232  151.6013 LP  0  0  0  0  0  0  0  0  0  0  0  0  # atno 17342 bound_to 10162
  139.5309  144.2919  152.1145 LP  0  0  0  0  0  0  0  0  0  0  0  0  # atno 17343 bound_to 10162
  155.9866  130.3973  150.3203 LP  0  0  0  0  0  0  0  0  0  0  0  0  # atno 17370 bound_to 10713
  157.1347  131.0281  151.2954 LP  0  0  0  0  0  0  0  0  0  0  0  0  # atno 17371 bound_to 10713
  139.8885  135.0098  156.6625 LP  0  0  0  0  0  0  0  0  0  0  0  0  # atno 17394 bound_to 11000
  140.7437  133.8956  155.8296 LP  0  0  0  0  0  0  0  0  0  0  0  0  # atno 17395 bound_to 11000

$$$$
