AV-unprocessed.smi:1891|AV-procd|sdf|7668|dock1
  -GOLD-   22720 9403D 1   1.00000     0.00000
 Structure written by MMmdl.
 37 39  0  0  0  0  0  0  0  0  2 V2000
  151.5192  136.5923  155.0412 O   0  0  0  0  0  0  0  0  0  0  0  0
  151.8887  137.8794  154.5999 C   0  0  0  0  0  0  0  0  0  0  0  0
  150.7067  138.7664  154.3840 C   0  0  0  0  0  0  0  0  0  0  0  0
  149.6357  138.4801  153.5909 N   0  3  0  0  0  0  0  0  0  0  0  0
  148.7199  139.5319  153.6338 C   0  0  0  0  0  0  0  0  0  0  0  0
  147.4928  139.6994  152.9992 C   0  0  0  0  0  0  0  0  0  0  0  0
  146.8038  140.9020  153.2616 C   0  0  0  0  0  0  0  0  0  0  0  0
  147.3374  141.8810  154.1249 C   0  0  0  0  0  0  0  0  0  0  0  0
  148.5822  141.6994  154.7630 C   0  0  0  0  0  0  0  0  0  0  0  0
  149.2567  140.5078  154.4977 C   0  0  0  0  0  0  0  0  0  0  0  0
  150.4806  139.9932  154.9394 N   0  0  0  0  0  0  0  0  0  0  0  0
  151.2913  140.7906  155.8735 C   0  0  0  0  0  0  0  0  0  0  0  0
  150.7787  140.7241  157.3260 C   0  0  1  0  0  0  0  0  0  0  0  0
  151.3191  139.5868  157.9718 O   0  0  0  0  0  0  0  0  0  0  0  0
  151.0789  142.0172  158.0719 C   0  0  0  0  0  0  0  0  0  0  0  0
  152.4138  142.3969  158.3388 C   0  0  0  0  0  0  0  0  0  0  0  0
  152.6897  143.5980  159.0200 C   0  0  0  0  0  0  0  0  0  0  0  0
  151.6337  144.4304  159.4362 C   0  0  0  0  0  0  0  0  0  0  0  0
  151.8988  145.5854  160.0912 F   0  0  0  0  0  0  0  0  0  0  0  0
  150.3017  144.0624  159.1674 C   0  0  0  0  0  0  0  0  0  0  0  0
  150.0234  142.8619  158.4850 C   0  0  0  0  0  0  0  0  0  0  0  0
  148.7362  142.5284  158.2242 F   0  0  0  0  0  0  0  0  0  0  0  0
  150.8007  136.6799  155.6503 H   0  0  0  0  0  0  0  0  0  0  0  0
  152.5659  138.3305  155.3249 H   0  0  0  0  0  0  0  0  0  0  0  0
  152.4426  137.7838  153.6658 H   0  0  0  0  0  0  0  0  0  0  0  0
  147.0819  138.9509  152.3375 H   0  0  0  0  0  0  0  0  0  0  0  0
  145.8468  141.0771  152.7914 H   0  0  0  0  0  0  0  0  0  0  0  0
  146.7809  142.7900  154.3018 H   0  0  0  0  0  0  0  0  0  0  0  0
  148.9816  142.4549  155.4236 H   0  0  0  0  0  0  0  0  0  0  0  0
  152.3201  140.4349  155.8182 H   0  0  0  0  0  0  0  0  0  0  0  0
  151.3080  141.8209  155.5156 H   0  0  0  0  0  0  0  0  0  0  0  0
  149.6988  140.5767  157.3158 H   0  0  0  0  0  0  0  0  0  0  0  0
  150.6195  138.9704  158.1268 H   0  0  0  0  0  0  0  0  0  0  0  0
  153.2336  141.7701  158.0195 H   0  0  0  0  0  0  0  0  0  0  0  0
  153.7124  143.8812  159.2214 H   0  0  0  0  0  0  0  0  0  0  0  0
  149.4918  144.7034  159.4830 H   0  0  0  0  0  0  0  0  0  0  0  0
  149.5409  137.6226  153.0621 H   0  0  0  0  0  0  0  0  0  0  0  0
  1  2  1  0  0  0  0
  1 23  1  0  0  0  0
  2  3  1  0  0  0  0
  2 24  1  0  0  0  0
  2 25  1  0  0  0  0
  3 11  1  0  0  0  0
  3  4  2  0  0  0  0
  4  5  1  0  0  0  0
  4 37  1  0  0  0  0
  5 10  2  0  0  0  0
  5  6  1  0  0  0  0
  6  7  2  0  0  0  0
  6 26  1  0  0  0  0
  7  8  1  0  0  0  0
  7 27  1  0  0  0  0
  8  9  2  0  0  0  0
  8 28  1  0  0  0  0
  9 10  1  0  0  0  0
  9 29  1  0  0  0  0
 10 11  1  0  0  0  0
 11 12  1  0  0  0  0
 12 13  1  0  0  0  0
 12 30  1  0  0  0  0
 12 31  1  0  0  0  0
 13 14  1  0  0  0  0
 13 15  1  0  0  0  0
 13 32  1  0  0  0  0
 14 33  1  0  0  0  0
 15 21  1  0  0  0  0
 15 16  2  0  0  0  0
 16 17  1  0  0  0  0
 16 34  1  0  0  0  0
 17 18  2  0  0  0  0
 17 35  1  0  0  0  0
 18 19  1  0  0  0  0
 18 20  1  0  0  0  0
 20 21  2  0  0  0  0
 20 36  1  0  0  0  0
 21 22  1  0  0  0  0
M  CHG  1   4   1
M  END
> <s_m_source_file>
AV-unprocessed.smi

> <i_m_source_file_index>
1891

> <i_lp_mmshare_version>
43012

> <i_f3d_flags>
0

> <s_epik_input>
W2NIXTFbY0hdW2NIXVtjSF1jKGMxMiluKGMobjIpW0NIMl1bT0hdKVtDSDJdW0NASF0oW09IXSljM1tjSF1bY0hdYyhGKVtjSF1jM0Y=

> <s_epik_cmdline>
J2VwaWtfcHl0aG9uJywgJy1waCcsICc3LjAnLCAnLXRuJywgJzgnLCAnLW1hJywgJzIwMCcsICctbWV0YWxfYmluZGluZycsICctaW1hZScsICc8aW5maWxlLm1hZT4nLCAnLW9tYWUnLCAnPG91dGZpbGUubWFlPic=

> <r_epik_Ionization_Penalty>
1.35643

> <r_epik_Ionization_Penalty_Charging>
1.35557

> <r_epik_Ionization_Penalty_Neutral>
0.00085758

> <r_epik_State_Penalty>
1.43401

> <r_epik_Charging_Adjusted_Penalty>
2.78958

> <i_epik_Tot_Q>
1

> <i_epik_Tot_abs_Q>
1

> <r_epik_Metal_State_Penalty>
5.47166

> <b_epik_Metal_Only>
0

> <s_lp_Force_Field>
OPLS_2005

> <r_lp_Energy>
14.1785

> <b_lp_Chiralities_Consistent>
1

> <s_lp_Variant>
AV-unprocessed.smi:1891-4

> <Gold.Version>
5.8.1

> <Gold.Id.Protein>
6NUR|6NUR_protein|mol2

> <Gold.PLP.Fitness>
57.1744

> <Gold.PLP.PLP>
-49.4528

> <Gold.PLP.part.hbond>
-3.0000

> <Gold.PLP.part.metal>
0.0000

> <Gold.PLP.part.buried>
1.1694

> <Gold.PLP.part.nonpolar>
-46.8066

> <Gold.PLP.part.repulsive>
0.0721

> <Gold.PLP.ligand.clash>
0.0000

> <Gold.PLP.ligand.torsion>
0.6592

> <Gold.PLP.Chemscore.Hbond>
3.0000

> <Gold.PLP.Chemscore.CHOScore>
0.0000

> <Gold.PLP.Chemscore.Metal>
0.0000

> <Gold.Chemscore.Hbonds>
donor molecule, donor type, donor heavy atom, donor atom, acceptor molecule, acceptor atom, score
      L1  H     4    37       P1  7948  2.00
      P1  H 10752 10764       L1     1  1.00

> <Gold.PLP.Chemscore.Internal.Correction>
0.0400

> <Gold.Rescore>
     Score         DG    S(hbond)    S(metal)    S(lipo)     H(rot)  DE(clash)    DE(int)     intcor
     15.40     -17.65       1.78        0.00     117.76       2.95       1.48       0.77       ----

> <Gold.Chemscore.Fitness>
15.4029

> <Gold.Chemscore.DG>
-17.6519

> <Gold.Chemscore.ZeroCoef>
-5.4800

> <Gold.Chemscore.Hbond>
1.7782

> <Gold.Chemscore.Metal>
0.0000

> <Gold.Chemscore.Lipo>
117.7644

> <Gold.Chemscore.Internal_Hbond>
0.0000

> <Gold.Chemscore.DEClash>
1.4786

> <Gold.Chemscore.DEInternal>
0.7704

> <Gold.Chemscore.Rot>
2.9475

> <Gold.Chemscore.Internal.Correction>
   9.000000E+99

> <Gold.Chemscore.Hbonds>
donor molecule, donor type, donor heavy atom, donor atom, acceptor molecule, acceptor atom, score
      L1  H     4    37       P1  7948  0.82
      P1  H 10752 10764       L1     1  0.35

> <Gold.Chemscore.Hbond.Weighted>
-5.9391

> <Gold.Chemscore.Metal.Weighted>
-0.0000

> <Gold.Chemscore.Lipo.Weighted>
-13.7784

> <Gold.Chemscore.Internal_Hbond.Weighted>
0.0000

> <Gold.Chemscore.DEClash.Weighted>
1.4786

> <Gold.Chemscore.DEInternal.Weighted>
0.7704

> <Gold.Chemscore.Rot.Weighted>
7.5457

> <Gold.Chemscore.Internal.Correction.Weighted>
   9.000000E+99

> <Gold.Protein.RotatedTorsions>
[ 6907 6896 6895 6894 ] final   35.35 input  -60.11 | X-H torsion
[ 7974 7965 7964 7962 ] final   61.46 input  175.53 | X-H torsion
[ 8008 7997 7996 7995 ] final  -51.84 input   59.86 | X-H torsion
[ 10167 10162 10161 10158 ] final   72.04 input  -65.29 | X-H torsion
[ 10718 10713 10712 10709 ] final  -35.29 input   66.30 | X-H torsion
[ 10763 10752 10751 10750 ] final  -63.62 input  -60.55 | X-H torsion
[ 11005 11000 10999 10996 ] final  179.12 input  -57.11 | X-H torsion

> <Gold.Protein.ActiveResidues>
 VAL166  LYS551  ARG553  GLY616  TRP617  ASP618  TYR619  PRO620  LYS621  CYS622 
 ASP623  PHE694  ASN695  SER759  ASP760  ASP761  ALA762  ILE779  LEU786  VAL792 
 PHE793  MET794  SER795  GLU796  ALA797  LYS798  CYS799  TRP800  GLU811  SER814 

> <Gold.Protein.RotatedAtoms>
  152.1149  134.9247  160.0565 H   0  0  0  0  0  0  0  0  0  0  0  0  # atno 6907 bound_to 6896
  152.0410  133.3973  159.4345 H   0  0  0  0  0  0  0  0  0  0  0  0  # atno 6908 bound_to 6896
  150.6845  134.3335  159.4881 H   0  0  0  0  0  0  0  0  0  0  0  0  # atno 6909 bound_to 6896
  145.8845  139.3467  143.0686 H   0  0  0  0  0  0  0  0  0  0  0  0  # atno 7974 bound_to 7965
  154.4092  140.1238  156.4894 H   0  0  0  0  0  0  0  0  0  0  0  0  # atno 8008 bound_to 7997
  155.7005  140.3495  155.4911 H   0  0  0  0  0  0  0  0  0  0  0  0  # atno 8009 bound_to 7997
  155.9389  140.1083  157.1061 H   0  0  0  0  0  0  0  0  0  0  0  0  # atno 8010 bound_to 7997
  140.0396  144.5400  150.7444 H   0  0  0  0  0  0  0  0  0  0  0  0  # atno 10167 bound_to 10162
  156.3404  130.4292  149.7793 H   0  0  0  0  0  0  0  0  0  0  0  0  # atno 10718 bound_to 10713
  154.3177  135.6202  153.5494 H   0  0  0  0  0  0  0  0  0  0  0  0  # atno 10763 bound_to 10752
  152.9823  135.5716  154.5105 H   0  0  0  0  0  0  0  0  0  0  0  0  # atno 10764 bound_to 10752
  154.4767  135.2861  155.1578 H   0  0  0  0  0  0  0  0  0  0  0  0  # atno 10765 bound_to 10752
  140.4027  134.6763  157.4571 H   0  0  0  0  0  0  0  0  0  0  0  0  # atno 11005 bound_to 11000
  145.8983  140.9259  143.0516 LP  0  0  0  0  0  0  0  0  0  0  0  0  # atno 17320 bound_to 7965
  144.6728  140.0998  143.7461 LP  0  0  0  0  0  0  0  0  0  0  0  0  # atno 17321 bound_to 7965
  140.7266  143.2643  151.4098 LP  0  0  0  0  0  0  0  0  0  0  0  0  # atno 17342 bound_to 10162
  139.6023  144.1270  152.2211 LP  0  0  0  0  0  0  0  0  0  0  0  0  # atno 17343 bound_to 10162
  156.5031  130.8138  151.3140 LP  0  0  0  0  0  0  0  0  0  0  0  0  # atno 17370 bound_to 10713
  157.7446  130.9938  150.2685 LP  0  0  0  0  0  0  0  0  0  0  0  0  # atno 17371 bound_to 10713
  140.0324  134.6386  155.9088 LP  0  0  0  0  0  0  0  0  0  0  0  0  # atno 17394 bound_to 11000
  141.1851  133.6554  156.5183 LP  0  0  0  0  0  0  0  0  0  0  0  0  # atno 17395 bound_to 11000

$$$$
