AV-unprocessed.smi:174|AV-procd|sdf|1426|dock2
  -GOLD-   2262019203D 1   1.00000     0.00000
 Structure written by MMmdl.
 51 54  0  0  0  0  0  0  0  0  1 V2000
  146.1702  130.0467  154.5194 N   0  0  0  0  0  0  0  0  0  0  0  0
  146.8144  131.1576  154.8836 C   0  0  0  0  0  0  0  0  0  0  0  0
  146.2215  132.1392  155.3290 O   0  0  0  0  0  0  0  0  0  0  0  0
  148.3389  131.1578  154.6986 C   0  0  0  0  0  0  0  0  0  0  0  0
  148.9409  132.4979  154.7923 N   0  0  0  0  0  0  0  0  0  0  0  0
  149.9949  132.6778  155.7961 C   0  0  0  0  0  0  0  0  0  0  0  0
  150.0088  134.0994  156.3660 C   0  0  0  0  0  0  0  0  0  0  0  0
  150.0812  135.0742  155.2850 N   0  0  0  0  0  0  0  0  0  0  0  0
  150.5248  136.3376  155.5362 C   0  0  0  0  0  0  0  0  0  0  0  0
  150.7149  137.1613  154.4710 N   0  0  0  0  0  0  0  0  0  0  0  0
  151.1571  138.4097  154.6410 C   0  0  0  0  0  0  0  0  0  0  0  0
  151.4651  139.0368  155.7761 N   0  0  0  0  0  0  0  0  0  0  0  0
  151.2688  138.2265  156.8545 C   0  0  0  0  0  0  0  0  0  0  0  0
  150.8063  136.8777  156.8297 C   0  0  0  0  0  0  0  0  0  0  0  0
  150.7240  136.3967  158.1337 N   0  0  0  0  0  0  0  0  0  0  0  0
  151.1249  137.3907  158.8773 C   0  0  0  0  0  0  0  0  0  0  0  0
  151.4724  138.5287  158.1894 N   0  0  0  0  0  0  0  0  0  0  0  0
  151.9500  139.7757  158.7612 C   0  0  0  0  0  0  0  0  0  0  0  0
  151.0878  140.9842  158.3462 C   0  0  1  0  0  0  0  0  0  0  0  0
  149.9057  141.0085  159.1239 O   0  0  0  0  0  0  0  0  0  0  0  0
  151.8323  142.3188  158.5342 C   0  0  2  0  0  0  0  0  0  0  0  0
  152.2389  142.6230  159.9760 C   0  0  0  0  0  0  0  0  0  0  0  0
  152.3902  144.1346  159.9832 C   0  0  0  0  0  0  0  0  0  0  0  0
  151.5905  144.5920  158.7594 C   0  0  0  0  0  0  0  0  0  0  0  0
  150.9809  143.4160  158.2425 O   0  0  0  0  0  0  0  0  0  0  0  0
  149.2389  134.8837  154.0927 C   0  0  0  0  0  0  0  0  0  0  0  0
  148.5872  133.4954  153.9451 C   0  0  0  0  0  0  0  0  0  0  0  0
  147.7463  133.3446  153.0583 O   0  0  0  0  0  0  0  0  0  0  0  0
  145.1675  129.9915  154.6263 H   0  0  0  0  0  0  0  0  0  0  0  0
  146.6857  129.2634  154.1449 H   0  0  0  0  0  0  0  0  0  0  0  0
  148.7913  130.4920  155.4361 H   0  0  0  0  0  0  0  0  0  0  0  0
  148.5629  130.7073  153.7313 H   0  0  0  0  0  0  0  0  0  0  0  0
  149.8826  131.9677  156.6157 H   0  0  0  0  0  0  0  0  0  0  0  0
  150.9542  132.4580  155.3254 H   0  0  0  0  0  0  0  0  0  0  0  0
  149.1100  134.2783  156.9577 H   0  0  0  0  0  0  0  0  0  0  0  0
  150.8693  134.1957  157.0290 H   0  0  0  0  0  0  0  0  0  0  0  0
  151.2820  138.9884  153.7376 H   0  0  0  0  0  0  0  0  0  0  0  0
  151.1790  137.3208  159.9540 H   0  0  0  0  0  0  0  0  0  0  0  0
  151.9726  139.6782  159.8474 H   0  0  0  0  0  0  0  0  0  0  0  0
  152.9828  139.9209  158.4423 H   0  0  0  0  0  0  0  0  0  0  0  0
  150.7972  140.8759  157.3004 H   0  0  0  0  0  0  0  0  0  0  0  0
  149.6653  141.9097  159.2772 H   0  0  0  0  0  0  0  0  0  0  0  0
  152.7063  142.3664  157.8812 H   0  0  0  0  0  0  0  0  0  0  0  0
  151.4414  142.3325  160.6614 H   0  0  0  0  0  0  0  0  0  0  0  0
  153.1488  142.1041  160.2787 H   0  0  0  0  0  0  0  0  0  0  0  0
  152.0104  144.5681  160.9089 H   0  0  0  0  0  0  0  0  0  0  0  0
  153.4369  144.4234  159.8813 H   0  0  0  0  0  0  0  0  0  0  0  0
  150.8367  145.3389  159.0091 H   0  0  0  0  0  0  0  0  0  0  0  0
  152.2537  145.0169  158.0048 H   0  0  0  0  0  0  0  0  0  0  0  0
  148.4467  135.6343  154.0910 H   0  0  0  0  0  0  0  0  0  0  0  0
  149.8388  135.0504  153.1970 H   0  0  0  0  0  0  0  0  0  0  0  0
  1  2  1  0  0  0  0
  1 29  1  0  0  0  0
  1 30  1  0  0  0  0
  2  3  2  0  0  0  0
  2  4  1  0  0  0  0
  4  5  1  0  0  0  0
  4 31  1  0  0  0  0
  4 32  1  0  0  0  0
  5 27  1  0  0  0  0
  5  6  1  0  0  0  0
  6  7  1  0  0  0  0
  6 33  1  0  0  0  0
  6 34  1  0  0  0  0
  7  8  1  0  0  0  0
  7 35  1  0  0  0  0
  7 36  1  0  0  0  0
  8  9  1  0  0  0  0
  8 26  1  0  0  0  0
  9 14  1  0  0  0  0
  9 10  2  0  0  0  0
 10 11  1  0  0  0  0
 11 12  2  0  0  0  0
 11 37  1  0  0  0  0
 12 13  1  0  0  0  0
 13 17  1  0  0  0  0
 13 14  2  0  0  0  0
 14 15  1  0  0  0  0
 15 16  2  0  0  0  0
 16 17  1  0  0  0  0
 16 38  1  0  0  0  0
 17 18  1  0  0  0  0
 18 19  1  0  0  0  0
 18 39  1  0  0  0  0
 18 40  1  0  0  0  0
 19 20  1  0  0  0  0
 19 21  1  0  0  0  0
 19 41  1  0  0  0  0
 20 42  1  0  0  0  0
 21 25  1  0  0  0  0
 21 22  1  0  0  0  0
 21 43  1  0  0  0  0
 22 23  1  0  0  0  0
 22 44  1  0  0  0  0
 22 45  1  0  0  0  0
 23 24  1  0  0  0  0
 23 46  1  0  0  0  0
 23 47  1  0  0  0  0
 24 25  1  0  0  0  0
 24 48  1  0  0  0  0
 24 49  1  0  0  0  0
 26 27  1  0  0  0  0
 26 50  1  0  0  0  0
 26 51  1  0  0  0  0
 27 28  2  0  0  0  0
M  END
> <s_m_source_file>
AV-unprocessed.smi

> <i_m_source_file_index>
174

> <i_lp_mmshare_version>
43012

> <i_f3d_flags>
0

> <s_epik_input>
W05IMl1DKD1PKVtDSDJdTjFbQ0gyXVtDSDJdTihbQ0gyXUMxPU8pYyhuW2NIXW4yKWMoYzIzKW5bY0hdbjNbQ0gyXVtDQEhdKFtPSF0pW0NAQEhdNFtDSDJdW0NIMl1bQ0gyXU80

> <s_epik_cmdline>
J2VwaWtfcHl0aG9uJywgJy1waCcsICc3LjAnLCAnLXRuJywgJzgnLCAnLW1hJywgJzIwMCcsICctbWV0YWxfYmluZGluZycsICctaW1hZScsICc8aW5maWxlLm1hZT4nLCAnLW9tYWUnLCAnPG91dGZpbGUubWFlPic=

> <r_lp_tautomer_probability>
1

> <r_epik_Ionization_Penalty>
0.000250477

> <r_epik_Ionization_Penalty_Charging>
0

> <r_epik_Ionization_Penalty_Neutral>
0.000250477

> <r_epik_State_Penalty>
-0

> <r_epik_Charging_Adjusted_Penalty>
0

> <i_epik_Tot_Q>
0

> <i_epik_Tot_abs_Q>
0

> <r_epik_Metal_State_Penalty>
-0

> <b_epik_Metal_Only>
0

> <s_lp_Force_Field>
OPLS_2005

> <r_lp_Energy>
35.93

> <b_lp_Chiralities_Consistent>
1

> <s_lp_Variant>
AV-unprocessed.smi:174-2

> <Gold.Version>
5.8.1

> <Gold.Id.Protein>
6NUR|6NUR_protein|mol2

> <Gold.PLP.Fitness>
49.1532

> <Gold.PLP.PLP>
-41.3882

> <Gold.PLP.part.hbond>
-3.2527

> <Gold.PLP.part.metal>
0.0000

> <Gold.PLP.part.buried>
-7.2644

> <Gold.PLP.part.nonpolar>
-32.9683

> <Gold.PLP.part.repulsive>
0.5582

> <Gold.PLP.ligand.clash>
0.0000

> <Gold.PLP.ligand.torsion>
0.5695

> <Gold.PLP.Chemscore.Hbond>
2.8882

> <Gold.PLP.Chemscore.CHOScore>
0.0000

> <Gold.PLP.Chemscore.Metal>
0.0000

> <Gold.Chemscore.Hbonds>
donor molecule, donor type, donor heavy atom, donor atom, acceptor molecule, acceptor atom, score
      L1  H     1    29       P1 10956  1.00
      P1  H  6896  6907       L1    15  0.37

> <Gold.PLP.Chemscore.Internal.Correction>
0.2396

> <Gold.Rescore>
     Score         DG    S(hbond)    S(metal)    S(lipo)     H(rot)  DE(clash)    DE(int)     intcor
      9.81     -11.72       1.82        0.00      76.99       3.46       0.19       1.73       ----

> <Gold.Chemscore.Fitness>
9.8101

> <Gold.Chemscore.DG>
-11.7247

> <Gold.Chemscore.ZeroCoef>
-5.4800

> <Gold.Chemscore.Hbond>
1.8240

> <Gold.Chemscore.Metal>
0.0000

> <Gold.Chemscore.Lipo>
76.9914

> <Gold.Chemscore.Internal_Hbond>
0.0000

> <Gold.Chemscore.DEClash>
0.1871

> <Gold.Chemscore.DEInternal>
1.7274

> <Gold.Chemscore.Rot>
3.4591

> <Gold.Chemscore.Internal.Correction>
   9.000000E+99

> <Gold.Chemscore.Hbonds>
donor molecule, donor type, donor heavy atom, donor atom, acceptor molecule, acceptor atom, score
      L1  H     1    29       P1 10956  0.69
      P1  H  6896  6907       L1    15  0.05

> <Gold.Chemscore.Hbond.Weighted>
-6.0920

> <Gold.Chemscore.Metal.Weighted>
-0.0000

> <Gold.Chemscore.Lipo.Weighted>
-9.0080

> <Gold.Chemscore.Internal_Hbond.Weighted>
0.0000

> <Gold.Chemscore.DEClash.Weighted>
0.1871

> <Gold.Chemscore.DEInternal.Weighted>
1.7274

> <Gold.Chemscore.Rot.Weighted>
8.8553

> <Gold.Chemscore.Internal.Correction.Weighted>
   9.000000E+99

> <Gold.Protein.RotatedTorsions>
[ 6907 6896 6895 6894 ] final  -49.17 input  -60.11 | X-H torsion
[ 7974 7965 7964 7962 ] final  109.07 input  175.53 | X-H torsion
[ 8008 7997 7996 7995 ] final -111.12 input   59.86 | X-H torsion
[ 10167 10162 10161 10158 ] final -173.23 input  -65.29 | X-H torsion
[ 10718 10713 10712 10709 ] final  -52.80 input   66.30 | X-H torsion
[ 10763 10752 10751 10750 ] final  170.09 input  -60.55 | X-H torsion
[ 11005 11000 10999 10996 ] final  -66.72 input  -57.11 | X-H torsion

> <Gold.Protein.ActiveResidues>
 VAL166  LYS551  ARG553  GLY616  TRP617  ASP618  TYR619  PRO620  LYS621  CYS622 
 ASP623  PHE694  ASN695  SER759  ASP760  ASP761  ALA762  ILE779  LEU786  VAL792 
 PHE793  MET794  SER795  GLU796  ALA797  LYS798  CYS799  TRP800  GLU811  SER814 

> <Gold.Protein.RotatedAtoms>
  150.8832  134.8226  159.7239 H   0  0  0  0  0  0  0  0  0  0  0  0  # atno 6907 bound_to 6896
  152.4791  134.4763  159.9661 H   0  0  0  0  0  0  0  0  0  0  0  0  # atno 6908 bound_to 6896
  151.4835  133.3502  159.2877 H   0  0  0  0  0  0  0  0  0  0  0  0  # atno 6909 bound_to 6896
  145.2725  139.2661  143.3958 H   0  0  0  0  0  0  0  0  0  0  0  0  # atno 7974 bound_to 7965
  154.9849  140.0396  157.2294 H   0  0  0  0  0  0  0  0  0  0  0  0  # atno 8008 bound_to 7997
  154.7680  140.2796  155.6138 H   0  0  0  0  0  0  0  0  0  0  0  0  # atno 8009 bound_to 7997
  156.2916  140.2615  156.2476 H   0  0  0  0  0  0  0  0  0  0  0  0  # atno 8010 bound_to 7997
  139.5700  144.1665  152.1369 H   0  0  0  0  0  0  0  0  0  0  0  0  # atno 10167 bound_to 10162
  156.1590  130.4150  149.9823 H   0  0  0  0  0  0  0  0  0  0  0  0  # atno 10718 bound_to 10713
  154.3926  135.2754  155.2145 H   0  0  0  0  0  0  0  0  0  0  0  0  # atno 10763 bound_to 10752
  154.4205  135.6001  153.6010 H   0  0  0  0  0  0  0  0  0  0  0  0  # atno 10764 bound_to 10752
  152.9832  135.5971  154.4183 H   0  0  0  0  0  0  0  0  0  0  0  0  # atno 10765 bound_to 10752
  141.1489  133.6705  156.6182 H   0  0  0  0  0  0  0  0  0  0  0  0  # atno 11005 bound_to 11000
  146.3242  140.3171  142.8630 LP  0  0  0  0  0  0  0  0  0  0  0  0  # atno 17320 bound_to 7965
  144.9323  140.7988  143.5682 LP  0  0  0  0  0  0  0  0  0  0  0  0  # atno 17321 bound_to 7965
  140.1196  144.5385  150.6872 LP  0  0  0  0  0  0  0  0  0  0  0  0  # atno 17342 bound_to 10162
  140.6984  143.2418  151.4935 LP  0  0  0  0  0  0  0  0  0  0  0  0  # atno 17343 bound_to 10162
  156.7658  130.9168  151.3643 LP  0  0  0  0  0  0  0  0  0  0  0  0  # atno 17370 bound_to 10713
  157.6718  130.9058  150.0057 LP  0  0  0  0  0  0  0  0  0  0  0  0  # atno 17371 bound_to 10713
  140.3561  134.7727  157.4501 LP  0  0  0  0  0  0  0  0  0  0  0  0  # atno 17394 bound_to 11000
  140.0822  134.5716  155.8529 LP  0  0  0  0  0  0  0  0  0  0  0  0  # atno 17395 bound_to 11000

$$$$
