#       Name:                AV-unprocessed.smi:3241
#       Creating user name   scv26
#       Creation time:       Fri Mar 27 18:25:17 2020


#       File generated by GOLD software.
#

@<TRIPOS>MOLECULE
AV-unprocessed.smi:3241
    47    48     1
SMALL
NO_CHARGES


@<TRIPOS>ATOM
      1 ****        -1.9711  -0.7010   1.5944 C.3            1 S1                 0.0000
      2 ****        -2.4748   0.0535   0.3544 C.3            1 S1                 0.0000
      3 ****        -1.8559   1.4620   0.2565 C.3            1 S1                 0.0000
      4 ****        -2.4076   2.2370  -0.9501 C.3            1 S1                 0.0000
      5 ****        -2.1993   1.4573  -2.2569 C.3            1 S1                 0.0000
      6 ****        -2.8024   0.0448  -2.1689 C.3            1 S1                 0.0000
      7 ****        -2.2623  -0.7388  -0.9579 C.3            1 S1                 0.0000
      8 ****        -0.8722  -0.9594  -1.1650 O.3            1 S1                 0.0000
      9 ****        -0.4573  -2.3100  -1.0308 C.3            1 S1                 0.0000
     10 ****         1.0736  -2.3287  -1.0108 C.3            1 S1                 0.0000
     11 ****         1.5729  -1.6651   0.2083 N.4            1 S1                 1.0000
     12 ****         3.0361  -1.4802   0.2577 C.3            1 S1                 0.0000
     13 ****         3.4566  -0.6938   1.5101 C.3            1 S1                 0.0000
     14 ****         2.9388   0.6635   1.5040 N.pl3          1 S1                 0.0000
     15 ****         3.5367   1.8065   1.0165 C.2            1 S1                 0.0000
     16 ****         2.6650   2.8381   1.2178 C.2            1 S1                 0.0000
     17 ****         1.5470   2.2200   1.8442 C.2            1 S1                 0.0000
     18 ****         1.7129   0.9179   2.0127 N.2            1 S1                 0.0000
     19 ****        -0.8894  -0.8320   1.5720 H              1 S1                 0.0000
     20 ****        -2.4282  -1.6881   1.6671 H              1 S1                 0.0000
     21 ****        -2.2158  -0.1577   2.5075 H              1 S1                 0.0000
     22 ****        -3.5511   0.1803   0.4823 H              1 S1                 0.0000
     23 ****        -2.0553   2.0221   1.1708 H              1 S1                 0.0000
     24 ****        -0.7711   1.3851   0.1734 H              1 S1                 0.0000
     25 ****        -3.4714   2.4289  -0.8051 H              1 S1                 0.0000
     26 ****        -1.9246   3.2122  -1.0179 H              1 S1                 0.0000
     27 ****        -2.6487   2.0010  -3.0883 H              1 S1                 0.0000
     28 ****        -1.1329   1.3888  -2.4754 H              1 S1                 0.0000
     29 ****        -3.8875   0.1228  -2.0919 H              1 S1                 0.0000
     30 ****        -2.6008  -0.5038  -3.0894 H              1 S1                 0.0000
     31 ****        -2.8030  -1.6859  -0.9016 H              1 S1                 0.0000
     32 ****        -0.8495  -2.7585  -0.1167 H              1 S1                 0.0000
     33 ****        -0.8370  -2.8908  -1.8724 H              1 S1                 0.0000
     34 ****         1.4391  -3.3561  -1.0321 H              1 S1                 0.0000
     35 ****         1.4636  -1.8262  -1.8969 H              1 S1                 0.0000
     36 ****         1.1455  -0.7507   0.2605 H              1 S1                 0.0000
     37 ****         3.5169  -2.4590   0.2553 H              1 S1                 0.0000
     38 ****         3.3699  -0.9560  -0.6389 H              1 S1                 0.0000
     39 ****         3.1202  -1.2010   2.4159 H              1 S1                 0.0000
     40 ****         4.5445  -0.6430   1.5672 H              1 S1                 0.0000
     41 ****         4.5201   1.7908   0.5696 H              1 S1                 0.0000
     42 ****         2.8049   3.8767   0.9571 H              1 S1                 0.0000
     43 ****         0.6248   2.6748   2.1754 H              1 S1                 0.0000
     44 ****         1.2820  -2.1980   1.0154 H              1 S1                 0.0000
     45 ****        -0.3675  -0.4112  -0.4981 LP             1 S1                 0.0000
     46 ****        -0.6431  -0.6540  -2.0892 LP             1 S1                 0.0000
     47 ****         1.0741   0.2678   2.4243 LP             1 S1                 0.0000
@<TRIPOS>BOND
    1    1    2 1     
    2    1   19 1     
    3    1   20 1     
    4    1   21 1     
    5    2    7 1     
    6    2    3 1     
    7    2   22 1     
    8    3    4 1     
    9    3   23 1     
   10    3   24 1     
   11    4    5 1     
   12    4   25 1     
   13    4   26 1     
   14    5    6 1     
   15    5   27 1     
   16    5   28 1     
   17    6    7 1     
   18    6   29 1     
   19    6   30 1     
   20    7    8 1     
   21    7   31 1     
   22    8    9 1     
   23    9   10 1     
   24    9   32 1     
   25    9   33 1     
   26   10   11 1     
   27   10   34 1     
   28   10   35 1     
   29   11   12 1     
   30   11   36 1     
   31   11   44 1     
   32   12   13 1     
   33   12   37 1     
   34   12   38 1     
   35   13   14 1     
   36   13   39 1     
   37   13   40 1     
   38   14   18 1     
   39   14   15 1     
   40   15   16 2     
   41   15   41 1     
   42   16   17 1     
   43   16   42 1     
   44   17   18 2     
   45   17   43 1     
   46    8   45 1     
   47    8   46 1     
   48   18   47 1     
@<TRIPOS>SUBSTRUCTURE
      1 S1             1
@<TRIPOS>SET
LONE_PAIRS      STATIC     ATOMS    <user>   **** ""
3 45 46 47
DONOR_HYDROGENS      STATIC     ATOMS    <user>   **** ""
2 36 44
ATOM$BLUE        STATIC     ATOMS    COLORGROUP SYSTEM
3 45 46 47
ATOM$RED        STATIC     ATOMS    COLORGROUP SYSTEM
2 36 44
