#       Name:                AV-unprocessed.smi:140
#       Creating user name   scv26
#       Creation time:       Thu Mar 26 18:33:52 2020


#       File generated by GOLD software.
#

@<TRIPOS>MOLECULE
AV-unprocessed.smi:140
    60    63     1
SMALL
NO_CHARGES


@<TRIPOS>ATOM
      1 ****        -4.9861   1.9941  -0.1704 C.3            1 S1                 0.0000
      2 ****        -3.7838   1.1729   0.1691 C.2            1 S1                 0.0000
      3 ****        -2.5141   1.5703   0.4669 C.2            1 S1                 0.0000
      4 ****        -1.7221   0.4137   0.7110 C.2            1 S1                 0.0000
      5 ****        -0.2883   0.3449   1.0908 C.2            1 S1                 0.0000
      6 ****         0.2883  -0.7090   1.3642 O.2            1 S1                 0.0000
      7 ****         0.4557   1.6927   1.1377 C.3            1 S1                 0.0000
      8 ****         1.8745   1.5519   1.4410 N.am           1 S1                 0.0000
      9 ****         2.2719   1.5979   2.8008 C.2            1 S1                 0.0000
     10 ****         1.4612   1.7517   3.7159 O.2            1 S1                 0.0000
     11 ****         3.7055   1.4367   3.0182 C.2            1 S1                 0.0000
     12 ****         4.1955   1.4717   4.2690 F              1 S1                 0.0000
     13 ****         4.5528   1.2502   1.9830 C.2            1 S1                 0.0000
     14 ****         4.1335   1.1968   0.6638 N.am           1 S1                 0.0000
     15 ****         5.1003   0.9699  -0.4774 C.3            1 S1                 0.0000
     16 ****         5.0314  -0.4894  -0.9608 C.3            1 S1                 0.0000
     17 ****         6.4914  -0.8907  -1.0070 C.3            1 S1                 0.0000
     18 ****         7.0844  -0.0407   0.1071 C.3            1 S1                 0.0000
     19 ****         6.4107   1.2024  -0.0442 O.3            1 S1                 0.0000
     20 ****         2.7633   1.3445   0.3590 C.2            1 S1                 0.0000
     21 ****         2.3664   1.2808  -0.8072 O.2            1 S1                 0.0000
     22 ****        -2.5347  -0.6837   0.5372 C.2            1 S1                 0.0000
     23 ****        -2.2422  -2.1554   0.6337 C.3            1 S1                 0.0000
     24 ****        -3.8131  -0.2152   0.2285 N.pl3          1 S1                 0.0000
     25 ****        -4.9975  -1.0381  -0.0067 C.3            1 S1                 0.0000
     26 ****        -5.1433  -1.5325  -1.4163 C.2            1 S1                 0.0000
     27 ****        -6.0471  -2.4651  -1.8584 C.2            1 S1                 0.0000
     28 ****        -5.9534  -2.7270  -3.2568 C.2            1 S1                 0.0000
     29 ****        -4.9763  -1.9904  -3.8708 C.2            1 S1                 0.0000
     30 ****        -4.1516  -0.9549  -2.7393 S.3            1 S1                 0.0000
     31 ****        -4.7168   3.0429  -0.2962 H              1 S1                 0.0000
     32 ****        -5.7343   1.9346   0.6200 H              1 S1                 0.0000
     33 ****        -5.4422   1.6549  -1.1008 H              1 S1                 0.0000
     34 ****        -2.1887   2.5994   0.5086 H              1 S1                 0.0000
     35 ****         0.3667   2.2230   0.1882 H              1 S1                 0.0000
     36 ****         0.0126   2.3563   1.8816 H              1 S1                 0.0000
     37 ****         5.6002   1.1381   2.2165 H              1 S1                 0.0000
     38 ****         4.8431   1.7061  -1.2412 H              1 S1                 0.0000
     39 ****         4.4925  -1.1016  -0.2356 H              1 S1                 0.0000
     40 ****         4.5310  -0.5600  -1.9266 H              1 S1                 0.0000
     41 ****         6.6466  -1.9596  -0.8579 H              1 S1                 0.0000
     42 ****         6.9288  -0.6097  -1.9660 H              1 S1                 0.0000
     43 ****         6.8620  -0.4728   1.0835 H              1 S1                 0.0000
     44 ****         8.1647   0.0760   0.0198 H              1 S1                 0.0000
     45 ****        -1.2645  -2.3895   0.2140 H              1 S1                 0.0000
     46 ****        -2.9592  -2.7608   0.0811 H              1 S1                 0.0000
     47 ****        -2.2512  -2.4833   1.6732 H              1 S1                 0.0000
     48 ****        -4.9795  -1.8821   0.6830 H              1 S1                 0.0000
     49 ****        -5.8857  -0.4712   0.2705 H              1 S1                 0.0000
     50 ****        -6.7694  -2.9648  -1.2299 H              1 S1                 0.0000
     51 ****        -6.5968  -3.4364  -3.7562 H              1 S1                 0.0000
     52 ****        -4.6923  -1.9915  -4.9127 H              1 S1                 0.0000
     53 ****        -0.2119  -1.5744   1.3363 LP             1 S1                 0.0000
     54 ****         1.2565  -0.6990   1.6141 LP             1 S1                 0.0000
     55 ****         0.4874   1.8489   3.5102 LP             1 S1                 0.0000
     56 ****         1.7770   1.7794   4.6643 LP             1 S1                 0.0000
     57 ****         6.3921   1.6811   0.8336 LP             1 S1                 0.0000
     58 ****         6.8910   1.7625  -0.7192 LP             1 S1                 0.0000
     59 ****         1.3918   1.3766  -1.0096 LP             1 S1                 0.0000
     60 ****         3.0192   1.1334  -1.5502 LP             1 S1                 0.0000
@<TRIPOS>BOND
    1    1    2 1     
    2    1   31 1     
    3    1   32 1     
    4    1   33 1     
    5    2   24 1     
    6    2    3 2     
    7    3    4 1     
    8    3   34 1     
    9    4    5 1     
   10    4   22 2     
   11    5    6 2     
   12    5    7 1     
   13    7    8 1     
   14    7   35 1     
   15    7   36 1     
   16    8   20 am    
   17    8    9 am    
   18    9   10 2     
   19    9   11 1     
   20   11   12 1     
   21   11   13 2     
   22   13   14 1     
   23   13   37 1     
   24   14   15 1     
   25   14   20 am    
   26   15   19 1     
   27   15   16 1     
   28   15   38 1     
   29   16   17 1     
   30   16   39 1     
   31   16   40 1     
   32   17   18 1     
   33   17   41 1     
   34   17   42 1     
   35   18   19 1     
   36   18   43 1     
   37   18   44 1     
   38   20   21 2     
   39   22   23 1     
   40   22   24 1     
   41   23   45 1     
   42   23   46 1     
   43   23   47 1     
   44   24   25 1     
   45   25   26 1     
   46   25   48 1     
   47   25   49 1     
   48   26   30 1     
   49   26   27 2     
   50   27   28 1     
   51   27   50 1     
   52   28   29 2     
   53   28   51 1     
   54   29   30 1     
   55   29   52 1     
   56    6   53 1     
   57    6   54 1     
   58   10   55 1     
   59   10   56 1     
   60   19   57 1     
   61   19   58 1     
   62   21   59 1     
   63   21   60 1     
@<TRIPOS>SUBSTRUCTURE
      1 S1             1
@<TRIPOS>SET
LONE_PAIRS      STATIC     ATOMS    <user>   **** ""
8 53 54 55 56 57 58 59 60
ATOM$BLUE        STATIC     ATOMS    COLORGROUP SYSTEM
8 53 54 55 56 57 58 59 60
