#       Name:                AV-unprocessed.smi:3143
#       Creating user name   scv26
#       Creation time:       Fri Mar 27 17:37:49 2020


#       File generated by GOLD software.
#

@<TRIPOS>MOLECULE
AV-unprocessed.smi:3143
    41    42     1
SMALL
NO_CHARGES


@<TRIPOS>ATOM
      1 ****        -0.8121   2.9362   1.4324 C.3            1 S1                 0.0000
      2 ****        -0.4062   1.6360   0.7216 C.3            1 S1                 0.0000
      3 ****         1.0244   1.6922   0.3674 N.3            1 S1                 0.0000
      4 ****         1.4644   0.5685  -0.4525 C.3            1 S1                 0.0000
      5 ****         2.9415   0.7591  -0.8259 C.3            1 S1                 0.0000
      6 ****         3.4202  -0.3140  -1.6755 N.pl3          1 S1                 0.0000
      7 ****         3.6234  -0.3019  -3.0395 C.2            1 S1                 0.0000
      8 ****         4.0775  -1.5400  -3.3934 C.2            1 S1                 0.0000
      9 ****         4.1198  -2.2496  -2.1605 C.2            1 S1                 0.0000
     10 ****         3.7263  -1.5128  -1.1342 N.2            1 S1                 0.0000
     11 ****        -0.7735   0.4214   1.6046 C.2            1 S1                 0.0000
     12 ****        -0.0249   0.1190   2.5356 O.2            1 S1                 0.0000
     13 ****        -1.8972  -0.2809   1.3407 N.am           1 S1                 0.0000
     14 ****        -2.2995  -1.4596   2.1070 C.3            1 S1                 0.0000
     15 ****        -3.4602  -2.0841   1.3333 C.3            1 S1                 0.0000
     16 ****        -4.0659  -0.9155   0.5699 C.3            1 S1                 0.0000
     17 ****        -2.8778   0.0063   0.2937 C.3            1 S1                 0.0000
     18 ****        -1.8762   2.9417   1.6725 H              1 S1                 0.0000
     19 ****        -0.6171   3.8044   0.8022 H              1 S1                 0.0000
     20 ****        -0.2608   3.0733   2.3638 H              1 S1                 0.0000
     21 ****        -0.9564   1.5982  -0.2175 H              1 S1                 0.0000
     22 ****         1.2514   2.5561  -0.1034 H              1 S1                 0.0000
     23 ****         1.3404  -0.3754   0.0794 H              1 S1                 0.0000
     24 ****         0.8573   0.5161  -1.3575 H              1 S1                 0.0000
     25 ****         3.0845   1.7046  -1.3512 H              1 S1                 0.0000
     26 ****         3.5628   0.7969   0.0705 H              1 S1                 0.0000
     27 ****         3.4295   0.5762  -3.6378 H              1 S1                 0.0000
     28 ****         4.3396  -1.8862  -4.3821 H              1 S1                 0.0000
     29 ****         4.4235  -3.2705  -1.9818 H              1 S1                 0.0000
     30 ****        -1.4798  -2.1693   2.2311 H              1 S1                 0.0000
     31 ****        -2.6266  -1.1428   3.0984 H              1 S1                 0.0000
     32 ****        -3.0747  -2.8206   0.6270 H              1 S1                 0.0000
     33 ****        -4.1793  -2.5862   1.9811 H              1 S1                 0.0000
     34 ****        -4.5820  -1.2252  -0.3393 H              1 S1                 0.0000
     35 ****        -4.7883  -0.4011   1.2050 H              1 S1                 0.0000
     36 ****        -3.1884   1.0521   0.2948 H              1 S1                 0.0000
     37 ****        -2.4386  -0.2220  -0.6786 H              1 S1                 0.0000
     38 ****         1.5142   1.6400   1.2376 LP             1 S1                 0.0000
     39 ****         3.6685  -1.7831  -0.1732 LP             1 S1                 0.0000
     40 ****         0.8012   0.6556   2.7074 LP             1 S1                 0.0000
     41 ****        -0.2436  -0.6630   3.1192 LP             1 S1                 0.0000
@<TRIPOS>BOND
    1    1    2 1     
    2    1   18 1     
    3    1   19 1     
    4    1   20 1     
    5    2    3 1     
    6    2   11 1     
    7    2   21 1     
    8    3    4 1     
    9    3   22 1     
   10    4    5 1     
   11    4   23 1     
   12    4   24 1     
   13    5    6 1     
   14    5   25 1     
   15    5   26 1     
   16    6   10 1     
   17    6    7 1     
   18    7    8 2     
   19    7   27 1     
   20    8    9 1     
   21    8   28 1     
   22    9   10 2     
   23    9   29 1     
   24   11   12 2     
   25   11   13 am    
   26   13   17 1     
   27   13   14 1     
   28   14   15 1     
   29   14   30 1     
   30   14   31 1     
   31   15   16 1     
   32   15   32 1     
   33   15   33 1     
   34   16   17 1     
   35   16   34 1     
   36   16   35 1     
   37   17   36 1     
   38   17   37 1     
   39    3   38 1     
   40   10   39 1     
   41   12   40 1     
   42   12   41 1     
@<TRIPOS>SUBSTRUCTURE
      1 S1             1
@<TRIPOS>SET
LONE_PAIRS      STATIC     ATOMS    <user>   **** ""
4 38 39 40 41
DONOR_HYDROGENS      STATIC     ATOMS    <user>   **** ""
1 22
ATOM$BLUE        STATIC     ATOMS    COLORGROUP SYSTEM
4 38 39 40 41
ATOM$RED        STATIC     ATOMS    COLORGROUP SYSTEM
1 22
