#       Name:                AV-unprocessed.smi:2495
#       Creating user name   scv26
#       Creation time:       Fri Mar 27 13:45:34 2020


#       File generated by GOLD software.
#

@<TRIPOS>MOLECULE
AV-unprocessed.smi:2495
    40    41     1
SMALL
NO_CHARGES


@<TRIPOS>ATOM
      1 ****        -4.4438  -3.0225   0.7545 C.3            1 S1                 0.0000
      2 ****        -3.0825  -2.5765   1.0081 N.am           1 S1                 0.0000
      3 ****        -2.3699  -1.8039   0.1742 C.2            1 S1                 0.0000
      4 ****        -2.8097  -1.4058  -0.9053 O.2            1 S1                 0.0000
      5 ****        -0.9425  -1.4454   0.6147 C.3            1 S1                 0.0000
      6 ****        -0.4449  -0.1265  -0.0203 C.3            1 S1                 0.0000
      7 ****         0.8635   0.2462   0.5134 N.3            1 S1                 0.0000
      8 ****         1.5350   1.2801  -0.1751 C.ar           1 S1                 0.0000
      9 ****         1.6868   1.2400  -1.5824 C.ar           1 S1                 0.0000
     10 ****         2.3706   2.3180  -2.1823 C.ar           1 S1                 0.0000
     11 ****         2.5879   2.3769  -3.6795 C.3            1 S1                 0.0000
     12 ****         2.8598   3.3449  -1.4554 N.ar           1 S1                 0.0000
     13 ****         2.6696   3.2855  -0.1363 C.ar           1 S1                 0.0000
     14 ****         2.0429   2.3176   0.5364 N.ar           1 S1                 0.0000
     15 ****         0.9186   0.2521   1.9734 C.3            1 S1                 0.0000
     16 ****         0.3968  -1.0802   2.5325 C.3            1 S1                 0.0000
     17 ****        -0.9147  -1.3222   2.0372 O.3            1 S1                 0.0000
     18 ****        -4.7678  -3.6963   1.5476 H              1 S1                 0.0000
     19 ****        -4.5102  -3.5565  -0.1944 H              1 S1                 0.0000
     20 ****        -5.1287  -2.1741   0.7255 H              1 S1                 0.0000
     21 ****        -2.6540  -2.8634   1.8765 H              1 S1                 0.0000
     22 ****        -0.2915  -2.2682   0.3137 H              1 S1                 0.0000
     23 ****        -0.4093  -0.2454  -1.1023 H              1 S1                 0.0000
     24 ****        -1.1478   0.6822   0.1861 H              1 S1                 0.0000
     25 ****         1.3146   0.4219  -2.1808 H              1 S1                 0.0000
     26 ****         2.5637   1.3775  -4.1148 H              1 S1                 0.0000
     27 ****         3.5538   2.8249  -3.9153 H              1 S1                 0.0000
     28 ****         1.8069   2.9748  -4.1492 H              1 S1                 0.0000
     29 ****         3.0636   4.1040   0.4475 H              1 S1                 0.0000
     30 ****         1.9432   0.4075   2.3138 H              1 S1                 0.0000
     31 ****         0.3178   1.0791   2.3546 H              1 S1                 0.0000
     32 ****         1.0590  -1.9041   2.2615 H              1 S1                 0.0000
     33 ****         0.3638  -1.0426   3.6215 H              1 S1                 0.0000
     34 ****        -3.7342  -1.6571  -1.1918 LP             1 S1                 0.0000
     35 ****        -2.2423  -0.8313  -1.4951 LP             1 S1                 0.0000
     36 ****         1.4683  -0.5156   0.2815 LP             1 S1                 0.0000
     37 ****         3.3399   4.1105  -1.8835 LP             1 S1                 0.0000
     38 ****         1.9509   2.3560   1.5314 LP             1 S1                 0.0000
     39 ****        -1.2594  -2.1700   2.4403 LP             1 S1                 0.0000
     40 ****        -1.5054  -0.5613   2.3057 LP             1 S1                 0.0000
@<TRIPOS>BOND
    1    1    2 1     
    2    1   18 1     
    3    1   19 1     
    4    1   20 1     
    5    2    3 am    
    6    2   21 1     
    7    3    4 2     
    8    3    5 1     
    9    5   17 1     
   10    5    6 1     
   11    5   22 1     
   12    6    7 1     
   13    6   23 1     
   14    6   24 1     
   15    7    8 1     
   16    7   15 1     
   17    8   14 ar    
   18    8    9 ar    
   19    9   10 ar    
   20    9   25 1     
   21   10   11 1     
   22   10   12 ar    
   23   11   26 1     
   24   11   27 1     
   25   11   28 1     
   26   12   13 ar    
   27   13   14 ar    
   28   13   29 1     
   29   15   16 1     
   30   15   30 1     
   31   15   31 1     
   32   16   17 1     
   33   16   32 1     
   34   16   33 1     
   35    4   34 1     
   36    4   35 1     
   37    7   36 1     
   38   12   37 1     
   39   14   38 1     
   40   17   39 1     
   41   17   40 1     
@<TRIPOS>SUBSTRUCTURE
      1 S1             1
@<TRIPOS>SET
LONE_PAIRS      STATIC     ATOMS    <user>   **** ""
7 34 35 36 37 38 39 40
DONOR_HYDROGENS      STATIC     ATOMS    <user>   **** ""
1 21
ATOM$BLUE        STATIC     ATOMS    COLORGROUP SYSTEM
7 34 35 36 37 38 39 40
ATOM$RED        STATIC     ATOMS    COLORGROUP SYSTEM
1 21
