AV-unprocessed.smi:236|AV-procd|sdf|1816|dock2
  -GOLD-   2262020403D 1   1.00000     0.00000
 Structure written by MMmdl.
 58 62  0  0  0  0  0  0  0  0  1 V2000
  143.7027  133.5528  161.7080 C   0  0  0  0  0  0  0  0  0  0  0  0
  145.0693  134.1051  162.1390 C   0  0  1  0  0  0  0  0  0  0  0  0
  146.0773  133.1039  162.0267 O   0  0  0  0  0  0  0  0  0  0  0  0
  147.3223  133.6982  161.6704 C   0  0  0  0  0  0  0  0  0  0  0  0
  147.0857  135.2055  161.7013 C   0  0  0  0  0  0  0  0  0  0  0  0
  145.6058  135.3190  161.3569 C   0  0  2  0  0  0  0  0  0  0  0  0
  145.0999  136.5208  161.9068 O   0  0  0  0  0  0  0  0  0  0  0  0
  145.3101  135.2734  159.8319 C   0  0  0  0  0  0  0  0  0  0  0  0
  146.0373  136.2685  159.0594 N   0  0  0  0  0  0  0  0  0  0  0  0
  145.6676  137.5765  158.8417 C   0  0  0  0  0  0  0  0  0  0  0  0
  146.4886  138.2708  158.1023 N   0  0  0  0  0  0  0  0  0  0  0  0
  147.5151  137.3816  157.8043 C   0  0  0  0  0  0  0  0  0  0  0  0
  148.7181  137.4710  157.0468 C   0  0  0  0  0  0  0  0  0  0  0  0
  149.1103  138.6088  156.4173 N   0  0  0  0  0  0  0  0  0  0  0  0
  149.4018  138.5343  154.9875 C   0  0  0  0  0  0  0  0  0  0  0  0
  149.5584  139.9471  154.4047 C   0  0  0  0  0  0  0  0  0  0  0  0
  150.5521  140.6532  155.1397 O   0  0  0  0  0  0  0  0  0  0  0  0
  150.1929  140.8209  156.5092 C   0  0  2  0  0  0  0  0  0  0  0  0
  151.2742  141.6696  157.1893 C   0  0  0  0  0  0  0  0  0  0  0  0
  150.9980  141.7401  158.5785 O   0  0  0  0  0  0  0  0  0  0  0  0
  152.1279  142.1230  159.3426 C   0  0  0  0  0  0  0  0  0  0  0  0
  152.5028  143.5462  158.9883 C   0  0  0  0  0  0  0  0  0  0  0  0
  151.9138  144.7079  159.7559 C   0  0  0  0  0  0  0  0  0  0  0  0
  151.5017  144.4653  158.3260 C   0  0  0  0  0  0  0  0  0  0  0  0
  150.0668  139.4277  157.1562 C   0  0  0  0  0  0  0  0  0  0  0  0
  149.4862  136.3511  156.9639 N   0  0  0  0  0  0  0  0  0  0  0  0
  149.1154  135.2276  157.5847 C   0  0  0  0  0  0  0  0  0  0  0  0
  148.0289  135.0035  158.3252 N   0  0  0  0  0  0  0  0  0  0  0  0
  147.2460  136.1174  158.4024 C   0  0  0  0  0  0  0  0  0  0  0  0
  142.9348  134.3250  161.7582 H   0  0  0  0  0  0  0  0  0  0  0  0
  143.3947  132.7368  162.3619 H   0  0  0  0  0  0  0  0  0  0  0  0
  143.7266  133.1626  160.6904 H   0  0  0  0  0  0  0  0  0  0  0  0
  145.0187  134.3648  163.1983 H   0  0  0  0  0  0  0  0  0  0  0  0
  148.1179  133.3916  162.3497 H   0  0  0  0  0  0  0  0  0  0  0  0
  147.5906  133.3711  160.6654 H   0  0  0  0  0  0  0  0  0  0  0  0
  147.2648  135.5673  162.7154 H   0  0  0  0  0  0  0  0  0  0  0  0
  147.7531  135.7595  161.0427 H   0  0  0  0  0  0  0  0  0  0  0  0
  145.7811  136.9262  162.4212 H   0  0  0  0  0  0  0  0  0  0  0  0
  145.5510  134.2899  159.4266 H   0  0  0  0  0  0  0  0  0  0  0  0
  144.2458  135.4237  159.6467 H   0  0  0  0  0  0  0  0  0  0  0  0
  144.7567  137.9988  159.2408 H   0  0  0  0  0  0  0  0  0  0  0  0
  150.3197  137.9656  154.8313 H   0  0  0  0  0  0  0  0  0  0  0  0
  148.5993  138.0107  154.4661 H   0  0  0  0  0  0  0  0  0  0  0  0
  149.8613  139.8907  153.3592 H   0  0  0  0  0  0  0  0  0  0  0  0
  148.6122  140.4896  154.4340 H   0  0  0  0  0  0  0  0  0  0  0  0
  149.2362  141.3423  156.5799 H   0  0  0  0  0  0  0  0  0  0  0  0
  152.2527  141.2090  157.0423 H   0  0  0  0  0  0  0  0  0  0  0  0
  151.3111  142.6674  156.7489 H   0  0  0  0  0  0  0  0  0  0  0  0
  151.9094  142.0509  160.4093 H   0  0  0  0  0  0  0  0  0  0  0  0
  152.9753  141.4706  159.1270 H   0  0  0  0  0  0  0  0  0  0  0  0
  153.5383  143.6615  158.6734 H   0  0  0  0  0  0  0  0  0  0  0  0
  151.1829  144.4874  160.5314 H   0  0  0  0  0  0  0  0  0  0  0  0
  152.5630  145.5582  159.9554 H   0  0  0  0  0  0  0  0  0  0  0  0
  151.8757  145.1531  157.5703 H   0  0  0  0  0  0  0  0  0  0  0  0
  150.4993  144.0798  158.1499 H   0  0  0  0  0  0  0  0  0  0  0  0
  149.7720  139.5402  158.1987 H   0  0  0  0  0  0  0  0  0  0  0  0
  151.0347  138.9243  157.1547 H   0  0  0  0  0  0  0  0  0  0  0  0
  149.7850  134.3879  157.4700 H   0  0  0  0  0  0  0  0  0  0  0  0
  1  2  1  0  0  0  0
  1 30  1  0  0  0  0
  1 31  1  0  0  0  0
  1 32  1  0  0  0  0
  2  6  1  0  0  0  0
  2  3  1  0  0  0  0
  2 33  1  0  0  0  0
  3  4  1  0  0  0  0
  4  5  1  0  0  0  0
  4 34  1  0  0  0  0
  4 35  1  0  0  0  0
  5  6  1  0  0  0  0
  5 36  1  0  0  0  0
  5 37  1  0  0  0  0
  6  7  1  0  0  0  0
  6  8  1  0  0  0  0
  7 38  1  0  0  0  0
  8  9  1  0  0  0  0
  8 39  1  0  0  0  0
  8 40  1  0  0  0  0
  9 29  1  0  0  0  0
  9 10  1  0  0  0  0
 10 11  2  0  0  0  0
 10 41  1  0  0  0  0
 11 12  1  0  0  0  0
 12 29  2  0  0  0  0
 12 13  1  0  0  0  0
 13 14  1  0  0  0  0
 13 26  2  0  0  0  0
 14 25  1  0  0  0  0
 14 15  1  0  0  0  0
 15 16  1  0  0  0  0
 15 42  1  0  0  0  0
 15 43  1  0  0  0  0
 16 17  1  0  0  0  0
 16 44  1  0  0  0  0
 16 45  1  0  0  0  0
 17 18  1  0  0  0  0
 18 19  1  0  0  0  0
 18 25  1  0  0  0  0
 18 46  1  0  0  0  0
 19 20  1  0  0  0  0
 19 47  1  0  0  0  0
 19 48  1  0  0  0  0
 20 21  1  0  0  0  0
 21 22  1  0  0  0  0
 21 49  1  0  0  0  0
 21 50  1  0  0  0  0
 22 24  1  0  0  0  0
 22 23  1  0  0  0  0
 22 51  1  0  0  0  0
 23 24  1  0  0  0  0
 23 52  1  0  0  0  0
 23 53  1  0  0  0  0
 24 54  1  0  0  0  0
 24 55  1  0  0  0  0
 25 56  1  0  0  0  0
 25 57  1  0  0  0  0
 26 27  1  0  0  0  0
 27 28  2  0  0  0  0
 27 58  1  0  0  0  0
 28 29  1  0  0  0  0
M  END
> <s_m_source_file>
AV-unprocessed.smi

> <i_m_source_file_index>
236

> <i_lp_mmshare_version>
43012

> <i_f3d_flags>
0

> <s_epik_input>
W0NIMl0xW0NIMl1PW0NAQEhdKFtDSDNdKVtDQEBdMShbT0hdKVtDSDJdbihbY0hdbjIpYyhjMjMpbltjSF1uYzNONFtDSDJdW0NIMl1PW0NASF0oW0NIMl00KVtDSDJdT1tDSDJdW0NIXTVbQ0gyXVtDSDJdNQ==

> <s_epik_cmdline>
J2VwaWtfcHl0aG9uJywgJy1waCcsICc3LjAnLCAnLXRuJywgJzgnLCAnLW1hJywgJzIwMCcsICctbWV0YWxfYmluZGluZycsICctaW1hZScsICc8aW5maWxlLm1hZT4nLCAnLW9tYWUnLCAnPG91dGZpbGUubWFlPic=

> <r_lp_tautomer_probability>
1

> <r_epik_Ionization_Penalty>
7.21838e-05

> <r_epik_Ionization_Penalty_Charging>
0

> <r_epik_Ionization_Penalty_Neutral>
7.21838e-05

> <r_epik_State_Penalty>
-0

> <r_epik_Charging_Adjusted_Penalty>
0

> <i_epik_Tot_Q>
0

> <i_epik_Tot_abs_Q>
0

> <r_epik_Metal_State_Penalty>
-0

> <b_epik_Metal_Only>
0

> <s_lp_Force_Field>
OPLS_2005

> <r_lp_Energy>
48.2383

> <b_lp_Chiralities_Consistent>
1

> <s_lp_Variant>
AV-unprocessed.smi:236-8

> <Gold.Version>
5.8.1

> <Gold.Id.Protein>
6NUR|6NUR_protein|mol2

> <Gold.PLP.Fitness>
45.8673

> <Gold.PLP.PLP>
-44.5933

> <Gold.PLP.part.hbond>
-2.1449

> <Gold.PLP.part.metal>
0.0000

> <Gold.PLP.part.buried>
-7.7606

> <Gold.PLP.part.nonpolar>
-34.2547

> <Gold.PLP.part.repulsive>
0.1320

> <Gold.PLP.ligand.clash>
0.0000

> <Gold.PLP.ligand.torsion>
1.3546

> <Gold.PLP.Chemscore.Hbond>
1.0000

> <Gold.PLP.Chemscore.CHOScore>
0.0000

> <Gold.PLP.Chemscore.Metal>
0.0000

> <Gold.Chemscore.Hbonds>
donor molecule, donor type, donor heavy atom, donor atom, acceptor molecule, acceptor atom, score
      P1  H  7989  7998       L1    17  0.50

> <Gold.PLP.Chemscore.Internal.Correction>
0.9831

> <Gold.Rescore>
     Score         DG    S(hbond)    S(metal)    S(lipo)     H(rot)  DE(clash)    DE(int)     intcor
     12.91     -14.56       0.90        0.00     114.53       2.87       0.24       1.42       ----

> <Gold.Chemscore.Fitness>
12.9051

> <Gold.Chemscore.DG>
-14.5626

> <Gold.Chemscore.ZeroCoef>
-5.4800

> <Gold.Chemscore.Hbond>
0.9037

> <Gold.Chemscore.Metal>
0.0000

> <Gold.Chemscore.Lipo>
114.5300

> <Gold.Chemscore.Internal_Hbond>
0.0000

> <Gold.Chemscore.DEClash>
0.2410

> <Gold.Chemscore.DEInternal>
1.4165

> <Gold.Chemscore.Rot>
2.8655

> <Gold.Chemscore.Internal.Correction>
   9.000000E+99

> <Gold.Chemscore.Hbonds>
donor molecule, donor type, donor heavy atom, donor atom, acceptor molecule, acceptor atom, score
      P1  H  7989  7998       L1    17  0.03

> <Gold.Chemscore.Hbond.Weighted>
-3.0183

> <Gold.Chemscore.Metal.Weighted>
-0.0000

> <Gold.Chemscore.Lipo.Weighted>
-13.4000

> <Gold.Chemscore.Internal_Hbond.Weighted>
0.0000

> <Gold.Chemscore.DEClash.Weighted>
0.2410

> <Gold.Chemscore.DEInternal.Weighted>
1.4165

> <Gold.Chemscore.Rot.Weighted>
7.3358

> <Gold.Chemscore.Internal.Correction.Weighted>
   9.000000E+99

> <Gold.Protein.RotatedTorsions>
[ 6907 6896 6895 6894 ] final  146.75 input  -60.11 | X-H torsion
[ 7974 7965 7964 7962 ] final -134.38 input  175.53 | X-H torsion
[ 8008 7997 7996 7995 ] final -102.89 input   59.86 | X-H torsion
[ 10167 10162 10161 10158 ] final  -89.08 input  -65.29 | X-H torsion
[ 10718 10713 10712 10709 ] final   -7.61 input   66.30 | X-H torsion
[ 10763 10752 10751 10750 ] final -142.25 input  -60.55 | X-H torsion
[ 11005 11000 10999 10996 ] final    0.92 input  -57.11 | X-H torsion

> <Gold.Protein.ActiveResidues>
 VAL166  LYS551  ARG553  GLY616  TRP617  ASP618  TYR619  PRO620  LYS621  CYS622 
 ASP623  PHE694  ASN695  SER759  ASP760  ASP761  ALA762  ILE779  LEU786  VAL792 
 PHE793  MET794  SER795  GLU796  ALA797  LYS798  CYS799  TRP800  GLU811  SER814 

> <Gold.Protein.RotatedAtoms>
  152.1639  133.4599  159.4874 H   0  0  0  0  0  0  0  0  0  0  0  0  # atno 6907 bound_to 6896
  150.6910  134.2038  159.4341 H   0  0  0  0  0  0  0  0  0  0  0  0  # atno 6908 bound_to 6896
  151.9941  134.9963  160.0613 H   0  0  0  0  0  0  0  0  0  0  0  0  # atno 6909 bound_to 6896
  144.9108  140.6892  143.5026 H   0  0  0  0  0  0  0  0  0  0  0  0  # atno 7974 bound_to 7965
  154.8631  140.0426  157.1678 H   0  0  0  0  0  0  0  0  0  0  0  0  # atno 8008 bound_to 7997
  154.8819  140.2974  155.5400 H   0  0  0  0  0  0  0  0  0  0  0  0  # atno 8009 bound_to 7997
  156.2998  140.2410  156.3822 H   0  0  0  0  0  0  0  0  0  0  0  0  # atno 8010 bound_to 7997
  140.3683  143.2807  151.9531 H   0  0  0  0  0  0  0  0  0  0  0  0  # atno 10167 bound_to 10162
  156.7147  130.5132  149.5883 H   0  0  0  0  0  0  0  0  0  0  0  0  # atno 10718 bound_to 10713
  154.8516  135.3501  154.5997 H   0  0  0  0  0  0  0  0  0  0  0  0  # atno 10763 bound_to 10752
  153.6606  135.6990  153.5183 H   0  0  0  0  0  0  0  0  0  0  0  0  # atno 10764 bound_to 10752
  153.2821  135.4260  155.1045 H   0  0  0  0  0  0  0  0  0  0  0  0  # atno 10765 bound_to 10752
  140.6212  133.9660  155.8225 H   0  0  0  0  0  0  0  0  0  0  0  0  # atno 11005 bound_to 11000
  145.3458  139.1719  143.4461 LP  0  0  0  0  0  0  0  0  0  0  0  0  # atno 17320 bound_to 7965
  146.3157  140.3505  142.8655 LP  0  0  0  0  0  0  0  0  0  0  0  0  # atno 17321 bound_to 7965
  139.4806  144.5930  151.7739 LP  0  0  0  0  0  0  0  0  0  0  0  0  # atno 17342 bound_to 10162
  140.5058  144.1100  150.5982 LP  0  0  0  0  0  0  0  0  0  0  0  0  # atno 17343 bound_to 10162
  156.1636  130.6390  151.0750 LP  0  0  0  0  0  0  0  0  0  0  0  0  # atno 17370 bound_to 10713
  157.6922  131.0806  150.7074 LP  0  0  0  0  0  0  0  0  0  0  0  0  # atno 17371 bound_to 10713
  141.0741  134.0161  157.3483 LP  0  0  0  0  0  0  0  0  0  0  0  0  # atno 17394 bound_to 11000
  139.9153  135.0196  156.7855 LP  0  0  0  0  0  0  0  0  0  0  0  0  # atno 17395 bound_to 11000

$$$$
