AV-unprocessed.smi:1419|AV-procd|sdf|5785|dock2
  -GOLD-   22720 5433D 1   1.00000     0.00000
 Structure written by MMmdl.
 41 42  0  0  0  0  0  0  0  0  1 V2000
  145.6481  135.9801  151.8134 C   0  0  0  0  0  0  0  0  0  0  0  0
  145.9964  134.8905  152.8407 C   0  0  1  0  0  0  0  0  0  0  0  0
  146.4580  133.5676  152.1901 C   0  0  0  0  0  0  0  0  0  0  0  0
  145.4232  132.9466  151.3851 N   0  0  0  0  0  0  0  0  0  0  0  0
  144.0992  133.3474  151.2635 C   0  0  0  0  0  0  0  0  0  0  0  0
  143.4997  132.4637  150.3948 C   0  0  0  0  0  0  0  0  0  0  0  0
  144.4314  131.5198  149.9688 N   0  0  0  0  0  0  0  0  0  0  0  0
  145.5472  131.8718  150.5945 C   0  0  0  0  0  0  0  0  0  0  0  0
  147.0296  135.3980  153.7381 N   0  0  0  0  0  0  0  0  0  0  0  0
  147.5814  134.7229  154.7608 C   0  0  0  0  0  0  0  0  0  0  0  0
  147.2454  133.5722  155.0441 O   0  0  0  0  0  0  0  0  0  0  0  0
  148.5328  135.4072  155.4432 N   0  0  0  0  0  0  0  0  0  0  0  0
  149.2261  136.6286  155.0125 C   0  0  0  0  0  0  0  0  0  0  0  0
  150.6921  136.2675  154.7061 C   0  0  1  0  0  0  0  0  0  0  0  0
  151.5183  137.4970  154.3132 C   0  0  0  0  0  0  0  0  0  0  0  0
  151.2927  135.6851  155.8662 O   0  0  0  0  0  0  0  0  0  0  0  0
  150.6141  134.5501  156.4144 C   0  0  2  0  0  0  0  0  0  0  0  0
  150.8108  133.3006  155.5363 C   0  0  0  0  0  0  0  0  0  0  0  0
  149.1350  134.9036  156.6799 C   0  0  0  0  0  0  0  0  0  0  0  0
  144.8129  135.6811  151.1797 H   0  0  0  0  0  0  0  0  0  0  0  0
  146.4970  136.1986  151.1649 H   0  0  0  0  0  0  0  0  0  0  0  0
  145.3599  136.9078  152.3089 H   0  0  0  0  0  0  0  0  0  0  0  0
  145.0963  134.6963  153.4272 H   0  0  0  0  0  0  0  0  0  0  0  0
  147.3300  133.7411  151.5579 H   0  0  0  0  0  0  0  0  0  0  0  0
  146.7647  132.8508  152.9533 H   0  0  0  0  0  0  0  0  0  0  0  0
  143.7033  134.2020  151.7923 H   0  0  0  0  0  0  0  0  0  0  0  0
  142.4782  132.4355  150.0454 H   0  0  0  0  0  0  0  0  0  0  0  0
  146.4765  131.3335  150.4775 H   0  0  0  0  0  0  0  0  0  0  0  0
  147.3561  136.3379  153.5670 H   0  0  0  0  0  0  0  0  0  0  0  0
  148.7728  137.1123  154.1474 H   0  0  0  0  0  0  0  0  0  0  0  0
  149.1810  137.3668  155.8149 H   0  0  0  0  0  0  0  0  0  0  0  0
  150.7285  135.5562  153.8803 H   0  0  0  0  0  0  0  0  0  0  0  0
  151.1113  137.9758  153.4224 H   0  0  0  0  0  0  0  0  0  0  0  0
  152.5504  137.2191  154.0988 H   0  0  0  0  0  0  0  0  0  0  0  0
  151.5320  138.2364  155.1146 H   0  0  0  0  0  0  0  0  0  0  0  0
  151.0869  134.3445  157.3751 H   0  0  0  0  0  0  0  0  0  0  0  0
  150.3683  132.4233  156.0089 H   0  0  0  0  0  0  0  0  0  0  0  0
  151.8708  133.0950  155.3870 H   0  0  0  0  0  0  0  0  0  0  0  0
  150.3514  133.4048  154.5539 H   0  0  0  0  0  0  0  0  0  0  0  0
  149.0708  135.6771  157.4465 H   0  0  0  0  0  0  0  0  0  0  0  0
  148.6097  134.0395  157.0891 H   0  0  0  0  0  0  0  0  0  0  0  0
  1  2  1  0  0  0  0
  1 20  1  0  0  0  0
  1 21  1  0  0  0  0
  1 22  1  0  0  0  0
  2  3  1  0  0  0  0
  2  9  1  0  0  0  0
  2 23  1  0  0  0  0
  3  4  1  0  0  0  0
  3 24  1  0  0  0  0
  3 25  1  0  0  0  0
  4  8  1  0  0  0  0
  4  5  1  0  0  0  0
  5  6  2  0  0  0  0
  5 26  1  0  0  0  0
  6  7  1  0  0  0  0
  6 27  1  0  0  0  0
  7  8  2  0  0  0  0
  8 28  1  0  0  0  0
  9 10  1  0  0  0  0
  9 29  1  0  0  0  0
 10 11  2  0  0  0  0
 10 12  1  0  0  0  0
 12 19  1  0  0  0  0
 12 13  1  0  0  0  0
 13 14  1  0  0  0  0
 13 30  1  0  0  0  0
 13 31  1  0  0  0  0
 14 15  1  0  0  0  0
 14 16  1  0  0  0  0
 14 32  1  0  0  0  0
 15 33  1  0  0  0  0
 15 34  1  0  0  0  0
 15 35  1  0  0  0  0
 16 17  1  0  0  0  0
 17 18  1  0  0  0  0
 17 19  1  0  0  0  0
 17 36  1  0  0  0  0
 18 37  1  0  0  0  0
 18 38  1  0  0  0  0
 18 39  1  0  0  0  0
 19 40  1  0  0  0  0
 19 41  1  0  0  0  0
M  END
> <s_m_source_file>
AV-unprocessed.smi

> <i_m_source_file_index>
1419

> <i_lp_mmshare_version>
43012

> <i_f3d_flags>
0

> <s_epik_input>
W2NIXTFuW2NIXVtjSF1uMVtDSDJdW0NAQEhdKFtDSDNdKVtOSF1DKD1PKU4yW0NIMl1bQ0BASF0oW0NIM10pT1tDQEBIXShbQ0gzXSlbQ0gyXTI=

> <s_epik_cmdline>
J2VwaWtfcHl0aG9uJywgJy1waCcsICc3LjAnLCAnLXRuJywgJzgnLCAnLW1hJywgJzIwMCcsICctbWV0YWxfYmluZGluZycsICctaW1hZScsICc8aW5maWxlLm1hZT4nLCAnLW9tYWUnLCAnPG91dGZpbGUubWFlPic=

> <r_lp_tautomer_probability>
1

> <r_epik_Ionization_Penalty>
0.625124

> <r_epik_Ionization_Penalty_Charging>
0.625093

> <r_epik_Ionization_Penalty_Neutral>
3.17415e-05

> <r_epik_State_Penalty>
0.641455

> <r_epik_Charging_Adjusted_Penalty>
1.26655

> <i_epik_Tot_Q>
0

> <i_epik_Tot_abs_Q>
0

> <r_epik_Metal_State_Penalty>
0.307717

> <b_epik_Metal_Only>
0

> <s_lp_Force_Field>
OPLS_2005

> <r_lp_Energy>
31.3243

> <b_lp_Chiralities_Consistent>
1

> <s_lp_Variant>
AV-unprocessed.smi:1419-12

> <Gold.Version>
5.8.1

> <Gold.Id.Protein>
6NUR|6NUR_protein|mol2

> <Gold.PLP.Fitness>
37.3841

> <Gold.PLP.PLP>
-26.0935

> <Gold.PLP.part.hbond>
-3.0000

> <Gold.PLP.part.metal>
0.0000

> <Gold.PLP.part.buried>
-2.1191

> <Gold.PLP.part.nonpolar>
-21.0134

> <Gold.PLP.part.repulsive>
0.2183

> <Gold.PLP.ligand.clash>
0.0000

> <Gold.PLP.ligand.torsion>
0.1338

> <Gold.PLP.Chemscore.Hbond>
1.2797

> <Gold.PLP.Chemscore.CHOScore>
2.5580

> <Gold.PLP.Chemscore.Metal>
0.0000

> <Gold.Chemscore.Hbonds>
donor molecule, donor type, donor heavy atom, donor atom, acceptor molecule, acceptor atom, score
      L1  H     9    29       P1  7948  0.03
      P1  H 10752 10765       L1    16  0.81
      P1  H 10785 10796       L1     7  0.29
      L1  C     6    27       P1 10186  0.94
      L1  C     6    27       P1 10952  0.58
      L1  C     8    28       P1 10747  0.96

> <Gold.PLP.Chemscore.Internal.Correction>
0.0451

> <Gold.Rescore>
     Score         DG    S(hbond)    S(metal)    S(lipo)     H(rot)  DE(clash)    DE(int)     intcor
      9.54     -11.01       0.76        0.00      59.95       1.58       0.20       1.27       ----

> <Gold.Chemscore.Fitness>
9.5393

> <Gold.Chemscore.DG>
-11.0125

> <Gold.Chemscore.ZeroCoef>
-5.4800

> <Gold.Chemscore.Hbond>
0.7650

> <Gold.Chemscore.Metal>
0.0000

> <Gold.Chemscore.Lipo>
59.9523

> <Gold.Chemscore.Internal_Hbond>
0.0000

> <Gold.Chemscore.DEClash>
0.2040

> <Gold.Chemscore.DEInternal>
1.2692

> <Gold.Chemscore.Rot>
1.5769

> <Gold.Chemscore.Internal.Correction>
   9.000000E+99

> <Gold.Chemscore.Hbonds>
donor molecule, donor type, donor heavy atom, donor atom, acceptor molecule, acceptor atom, score
      L1  H     9    29       P1  7948  0.03
      P1  H 10752 10765       L1    16  0.13
      P1  H 10785 10796       L1     7  0.13

> <Gold.Chemscore.Hbond.Weighted>
-2.5550

> <Gold.Chemscore.Metal.Weighted>
-0.0000

> <Gold.Chemscore.Lipo.Weighted>
-7.0144

> <Gold.Chemscore.Internal_Hbond.Weighted>
0.0000

> <Gold.Chemscore.DEClash.Weighted>
0.2040

> <Gold.Chemscore.DEInternal.Weighted>
1.2692

> <Gold.Chemscore.Rot.Weighted>
4.0369

> <Gold.Chemscore.Internal.Correction.Weighted>
   9.000000E+99

> <Gold.Protein.RotatedTorsions>
[ 6907 6896 6895 6894 ] final  130.62 input  -60.11 | X-H torsion
[ 7974 7965 7964 7962 ] final   94.26 input  175.53 | X-H torsion
[ 8008 7997 7996 7995 ] final -169.28 input   59.86 | X-H torsion
[ 10167 10162 10161 10158 ] final  113.29 input  -65.29 | X-H torsion
[ 10718 10713 10712 10709 ] final -162.70 input   66.30 | X-H torsion
[ 10763 10752 10751 10750 ] final -146.78 input  -60.55 | X-H torsion
[ 11005 11000 10999 10996 ] final -153.20 input  -57.11 | X-H torsion

> <Gold.Protein.ActiveResidues>
 VAL166  LYS551  ARG553  GLY616  TRP617  ASP618  TYR619  PRO620  LYS621  CYS622 
 ASP623  PHE694  ASN695  SER759  ASP760  ASP761  ALA762  ILE779  LEU786  VAL792 
 PHE793  MET794  SER795  GLU796  ALA797  LYS798  CYS799  TRP800  GLU811  SER814 

> <Gold.Protein.RotatedAtoms>
  152.3508  133.6177  159.5942 H   0  0  0  0  0  0  0  0  0  0  0  0  # atno 6907 bound_to 6896
  150.7536  133.9578  159.3514 H   0  0  0  0  0  0  0  0  0  0  0  0  # atno 6908 bound_to 6896
  151.7430  135.0851  160.0370 H   0  0  0  0  0  0  0  0  0  0  0  0  # atno 6909 bound_to 6896
  145.4680  139.2283  143.2951 H   0  0  0  0  0  0  0  0  0  0  0  0  # atno 7974 bound_to 7965
  155.9029  140.1044  157.1337 H   0  0  0  0  0  0  0  0  0  0  0  0  # atno 8008 bound_to 7997
  154.4028  140.1289  156.4523 H   0  0  0  0  0  0  0  0  0  0  0  0  # atno 8009 bound_to 7997
  155.7402  140.3467  155.5103 H   0  0  0  0  0  0  0  0  0  0  0  0  # atno 8010 bound_to 7997
  139.6472  144.7127  151.2119 H   0  0  0  0  0  0  0  0  0  0  0  0  # atno 10167 bound_to 10162
  156.6142  130.8863  151.2943 H   0  0  0  0  0  0  0  0  0  0  0  0  # atno 10718 bound_to 10713
  154.8319  135.3377  154.6715 H   0  0  0  0  0  0  0  0  0  0  0  0  # atno 10763 bound_to 10752
  153.7334  135.6950  153.4988 H   0  0  0  0  0  0  0  0  0  0  0  0  # atno 10764 bound_to 10752
  153.2295  135.4421  155.0532 H   0  0  0  0  0  0  0  0  0  0  0  0  # atno 10765 bound_to 10752
  140.7106  134.3836  157.5198 H   0  0  0  0  0  0  0  0  0  0  0  0  # atno 11005 bound_to 11000
  146.2413  140.5455  142.8933 LP  0  0  0  0  0  0  0  0  0  0  0  0  # atno 17320 bound_to 7965
  144.7962  140.6128  143.6508 LP  0  0  0  0  0  0  0  0  0  0  0  0  # atno 17321 bound_to 7965
  140.7520  143.6211  150.8512 LP  0  0  0  0  0  0  0  0  0  0  0  0  # atno 17342 bound_to 10162
  139.9855  143.5904  152.2928 LP  0  0  0  0  0  0  0  0  0  0  0  0  # atno 17343 bound_to 10162
  157.7246  130.9604  150.1579 LP  0  0  0  0  0  0  0  0  0  0  0  0  # atno 17370 bound_to 10713
  156.2365  130.3687  149.8386 LP  0  0  0  0  0  0  0  0  0  0  0  0  # atno 17371 bound_to 10713
  139.8872  134.8888  156.2539 LP  0  0  0  0  0  0  0  0  0  0  0  0  # atno 17394 bound_to 11000
  141.0087  133.7108  156.1077 LP  0  0  0  0  0  0  0  0  0  0  0  0  # atno 17395 bound_to 11000

$$$$
