AV-unprocessed.smi:2510|AV-procd|sdf|9880|dock1
  -GOLD-   2272013513D 1   1.00000     0.00000
 Structure written by MMmdl.
 48 49  0  0  0  0  0  0  0  0  1 V2000
  147.0246  141.3924  153.8308 C   0  0  0  0  0  0  0  0  0  0  0  0
  148.4721  140.9370  154.0936 C   0  0  0  0  0  0  0  0  0  0  0  0
  148.6703  139.7765  155.1123 C   0  0  0  0  0  0  0  0  0  0  0  0
  147.8040  140.0266  156.3619 C   0  0  0  0  0  0  0  0  0  0  0  0
  147.8961  138.9317  157.4365 C   0  0  0  0  0  0  0  0  0  0  0  0
  148.6254  138.3201  154.5678 C   0  0  1  0  0  0  0  0  0  0  0  0
  147.8542  138.1251  153.3455 N   0  0  0  0  0  0  0  0  0  0  0  0
  146.5161  138.0479  153.2953 C   0  0  0  0  0  0  0  0  0  0  0  0
  145.7921  138.1541  154.2850 O   0  0  0  0  0  0  0  0  0  0  0  0
  145.8975  137.8229  151.9158 C   0  0  0  0  0  0  0  0  0  0  0  0
  145.6576  136.3681  151.6718 C   0  0  0  0  0  0  0  0  0  0  0  0
  144.5192  135.6835  151.3501 C   0  0  0  0  0  0  0  0  0  0  0  0
  144.9392  134.3245  151.2531 C   0  0  0  0  0  0  0  0  0  0  0  0
  144.1067  133.1194  150.9271 C   0  0  0  0  0  0  0  0  0  0  0  0
  146.2335  134.1771  151.4938 N   0  0  0  0  0  0  0  0  0  0  0  0
  146.6612  135.4282  151.7447 N   0  0  0  0  0  0  0  0  0  0  0  0
  150.1333  138.3812  154.3014 C   0  0  2  0  0  0  0  0  0  0  0  0
  150.9519  137.1036  154.4356 C   0  0  0  0  0  0  0  0  0  0  0  0
  150.1523  139.4303  155.4235 C   0  0  1  0  0  0  0  0  0  0  0  0
  151.0318  140.5253  155.2116 O   0  0  0  0  0  0  0  0  0  0  0  0
  150.9120  141.5394  156.1932 C   0  0  0  0  0  0  0  0  0  0  0  0
  147.6279  135.6226  151.9639 H   0  0  0  0  0  0  0  0  0  0  0  0
  147.0023  142.1347  153.0328 H   0  0  0  0  0  0  0  0  0  0  0  0
  146.5801  141.8603  154.7084 H   0  0  0  0  0  0  0  0  0  0  0  0
  146.3783  140.5732  153.5251 H   0  0  0  0  0  0  0  0  0  0  0  0
  148.9096  140.6673  153.1326 H   0  0  0  0  0  0  0  0  0  0  0  0
  149.0399  141.8116  154.4121 H   0  0  0  0  0  0  0  0  0  0  0  0
  148.0285  140.9969  156.8035 H   0  0  0  0  0  0  0  0  0  0  0  0
  146.7573  140.1013  156.0649 H   0  0  0  0  0  0  0  0  0  0  0  0
  147.1988  139.1342  158.2496 H   0  0  0  0  0  0  0  0  0  0  0  0
  148.8929  138.8732  157.8727 H   0  0  0  0  0  0  0  0  0  0  0  0
  147.6497  137.9518  157.0272 H   0  0  0  0  0  0  0  0  0  0  0  0
  148.3995  137.5912  155.3506 H   0  0  0  0  0  0  0  0  0  0  0  0
  148.3735  138.0342  152.4845 H   0  0  0  0  0  0  0  0  0  0  0  0
  144.9560  138.3699  151.8553 H   0  0  0  0  0  0  0  0  0  0  0  0
  146.5461  138.2372  151.1425 H   0  0  0  0  0  0  0  0  0  0  0  0
  143.5302  136.0933  151.2076 H   0  0  0  0  0  0  0  0  0  0  0  0
  143.1286  133.4092  150.5427 H   0  0  0  0  0  0  0  0  0  0  0  0
  143.9459  132.5036  151.8121 H   0  0  0  0  0  0  0  0  0  0  0  0
  144.5880  132.4985  150.1710 H   0  0  0  0  0  0  0  0  0  0  0  0
  150.3310  138.8650  153.3430 H   0  0  0  0  0  0  0  0  0  0  0  0
  150.8250  136.6504  155.4190 H   0  0  0  0  0  0  0  0  0  0  0  0
  152.0156  137.2929  154.2934 H   0  0  0  0  0  0  0  0  0  0  0  0
  150.6496  136.3654  153.6925 H   0  0  0  0  0  0  0  0  0  0  0  0
  150.2686  138.9824  156.4137 H   0  0  0  0  0  0  0  0  0  0  0  0
  151.5711  142.3695  155.9398 H   0  0  0  0  0  0  0  0  0  0  0  0
  151.2004  141.1750  157.1787 H   0  0  0  0  0  0  0  0  0  0  0  0
  149.8922  141.9230  156.2433 H   0  0  0  0  0  0  0  0  0  0  0  0
  1  2  1  0  0  0  0
  1 23  1  0  0  0  0
  1 24  1  0  0  0  0
  1 25  1  0  0  0  0
  2  3  1  0  0  0  0
  2 26  1  0  0  0  0
  2 27  1  0  0  0  0
  3 19  1  0  0  0  0
  3  4  1  0  0  0  0
  3  6  1  0  0  0  0
  4  5  1  0  0  0  0
  4 28  1  0  0  0  0
  4 29  1  0  0  0  0
  5 30  1  0  0  0  0
  5 31  1  0  0  0  0
  5 32  1  0  0  0  0
  6  7  1  0  0  0  0
  6 17  1  0  0  0  0
  6 33  1  0  0  0  0
  7  8  1  0  0  0  0
  7 34  1  0  0  0  0
  8  9  2  0  0  0  0
  8 10  1  0  0  0  0
 10 35  1  0  0  0  0
 10 36  1  0  0  0  0
 10 11  1  0  0  0  0
 11 16  1  0  0  0  0
 11 12  2  0  0  0  0
 12 13  1  0  0  0  0
 12 37  1  0  0  0  0
 13 14  1  0  0  0  0
 13 15  2  0  0  0  0
 14 38  1  0  0  0  0
 14 39  1  0  0  0  0
 14 40  1  0  0  0  0
 15 16  1  0  0  0  0
 16 22  1  0  0  0  0
 17 18  1  0  0  0  0
 17 19  1  0  0  0  0
 17 41  1  0  0  0  0
 18 42  1  0  0  0  0
 18 43  1  0  0  0  0
 18 44  1  0  0  0  0
 19 20  1  0  0  0  0
 19 45  1  0  0  0  0
 20 21  1  0  0  0  0
 21 46  1  0  0  0  0
 21 47  1  0  0  0  0
 21 48  1  0  0  0  0
M  END
> <s_m_source_file>
AV-unprocessed.smi

> <i_m_source_file_index>
2510

> <i_lp_mmshare_version>
43012

> <i_f3d_flags>
0

> <s_epik_input>
W0NIM11PW0NAQEhdMVtDQEhdKFtDSDNdKVtDQEBIXShDMShbQ0gyXVtDSDNdKVtDSDJdW0NIM10pW05IXUMoPU8pW0NIMl1jMltjSF1jKFtDSDNdKVtuSF1uMg==

> <s_epik_cmdline>
J2VwaWtfcHl0aG9uJywgJy1waCcsICc3LjAnLCAnLXRuJywgJzgnLCAnLW1hJywgJzIwMCcsICctbWV0YWxfYmluZGluZycsICctaW1hZScsICc8aW5maWxlLm1hZT4nLCAnLW9tYWUnLCAnPG91dGZpbGUubWFlPic=

> <r_lp_tautomer_probability>
0.5

> <r_epik_Ionization_Penalty>
0.000134763

> <r_epik_Ionization_Penalty_Charging>
0

> <r_epik_Ionization_Penalty_Neutral>
0.000134763

> <r_epik_State_Penalty>
0.41068

> <r_epik_Charging_Adjusted_Penalty>
0.41068

> <i_epik_Tot_Q>
0

> <i_epik_Tot_abs_Q>
0

> <r_epik_Metal_State_Penalty>
0.410661

> <b_epik_Metal_Only>
0

> <s_lp_Force_Field>
OPLS_2005

> <r_lp_Energy>
25.8263

> <b_lp_Chiralities_Consistent>
1

> <s_lp_Variant>
AV-unprocessed.smi:2510-11

> <Gold.Version>
5.8.1

> <Gold.Id.Protein>
6NUR|6NUR_protein|mol2

> <Gold.PLP.Fitness>
39.8107

> <Gold.PLP.PLP>
-33.2004

> <Gold.PLP.part.hbond>
-2.9265

> <Gold.PLP.part.metal>
0.0000

> <Gold.PLP.part.buried>
-5.0137

> <Gold.PLP.part.nonpolar>
-27.0296

> <Gold.PLP.part.repulsive>
0.3741

> <Gold.PLP.ligand.clash>
0.0000

> <Gold.PLP.ligand.torsion>
0.8648

> <Gold.PLP.Chemscore.Hbond>
2.5600

> <Gold.PLP.Chemscore.CHOScore>
0.0000

> <Gold.PLP.Chemscore.Metal>
0.0000

> <Gold.Chemscore.Hbonds>
donor molecule, donor type, donor heavy atom, donor atom, acceptor molecule, acceptor atom, score
      L1  H     7    34       P1  7948  0.43
      L1  H    16    22       P1  7948  0.75
      P1  H  7989  7998       L1    20  0.96

> <Gold.PLP.Chemscore.Internal.Correction>
0.6598

> <Gold.Rescore>
     Score         DG    S(hbond)    S(metal)    S(lipo)     H(rot)  DE(clash)    DE(int)     intcor
     17.61     -18.98       2.62        0.00      80.30       1.81       0.59       0.78       ----

> <Gold.Chemscore.Fitness>
17.6052

> <Gold.Chemscore.DG>
-18.9775

> <Gold.Chemscore.ZeroCoef>
-5.4800

> <Gold.Chemscore.Hbond>
2.6157

> <Gold.Chemscore.Metal>
0.0000

> <Gold.Chemscore.Lipo>
80.3011

> <Gold.Chemscore.Internal_Hbond>
0.0000

> <Gold.Chemscore.DEClash>
0.5947

> <Gold.Chemscore.DEInternal>
0.7775

> <Gold.Chemscore.Rot>
1.8102

> <Gold.Chemscore.Internal.Correction>
   9.000000E+99

> <Gold.Chemscore.Hbonds>
donor molecule, donor type, donor heavy atom, donor atom, acceptor molecule, acceptor atom, score
      L1  H     7    34       P1  7948  0.41
      L1  H    16    22       P1  7948  0.74
      P1  H  7989  7998       L1    20  0.89

> <Gold.Chemscore.Hbond.Weighted>
-8.7363

> <Gold.Chemscore.Metal.Weighted>
-0.0000

> <Gold.Chemscore.Lipo.Weighted>
-9.3952

> <Gold.Chemscore.Internal_Hbond.Weighted>
0.0000

> <Gold.Chemscore.DEClash.Weighted>
0.5947

> <Gold.Chemscore.DEInternal.Weighted>
0.7775

> <Gold.Chemscore.Rot.Weighted>
4.6341

> <Gold.Chemscore.Internal.Correction.Weighted>
   9.000000E+99

> <Gold.Protein.RotatedTorsions>
[ 6907 6896 6895 6894 ] final   17.09 input  -60.11 | X-H torsion
[ 7974 7965 7964 7962 ] final  120.21 input  175.53 | X-H torsion
[ 8008 7997 7996 7995 ] final   20.70 input   59.86 | X-H torsion
[ 10167 10162 10161 10158 ] final    3.80 input  -65.29 | X-H torsion
[ 10718 10713 10712 10709 ] final   87.09 input   66.30 | X-H torsion
[ 10763 10752 10751 10750 ] final   54.36 input  -60.55 | X-H torsion
[ 11005 11000 10999 10996 ] final   23.04 input  -57.11 | X-H torsion

> <Gold.Protein.ActiveResidues>
 VAL166  LYS551  ARG553  GLY616  TRP617  ASP618  TYR619  PRO620  LYS621  CYS622 
 ASP623  PHE694  ASN695  SER759  ASP760  ASP761  ALA762  ILE779  LEU786  VAL792 
 PHE793  MET794  SER795  GLU796  ALA797  LYS798  CYS799  TRP800  GLU811  SER814 

> <Gold.Protein.RotatedAtoms>
  151.8442  135.0580  160.0451 H   0  0  0  0  0  0  0  0  0  0  0  0  # atno 6907 bound_to 6896
  152.2786  133.5444  159.5492 H   0  0  0  0  0  0  0  0  0  0  0  0  # atno 6908 bound_to 6896
  150.7180  134.0513  159.3841 H   0  0  0  0  0  0  0  0  0  0  0  0  # atno 6909 bound_to 6896
  145.1339  139.3310  143.4651 H   0  0  0  0  0  0  0  0  0  0  0  0  # atno 7974 bound_to 7965
  154.9395  140.3051  155.5128 H   0  0  0  0  0  0  0  0  0  0  0  0  # atno 8008 bound_to 7997
  156.2997  140.2339  156.4400 H   0  0  0  0  0  0  0  0  0  0  0  0  # atno 8009 bound_to 7997
  154.8159  140.0426  157.1365 H   0  0  0  0  0  0  0  0  0  0  0  0  # atno 8010 bound_to 7997
  140.6567  143.7408  150.7667 H   0  0  0  0  0  0  0  0  0  0  0  0  # atno 10167 bound_to 10162
  157.6936  131.0242  150.3071 H   0  0  0  0  0  0  0  0  0  0  0  0  # atno 10718 bound_to 10713
  152.9804  135.5747  154.4892 H   0  0  0  0  0  0  0  0  0  0  0  0  # atno 10763 bound_to 10752
  154.4429  135.2776  155.1837 H   0  0  0  0  0  0  0  0  0  0  0  0  # atno 10764 bound_to 10752
  154.3498  135.6211  153.5690 H   0  0  0  0  0  0  0  0  0  0  0  0  # atno 10765 bound_to 10752
  140.3740  134.1992  155.7665 H   0  0  0  0  0  0  0  0  0  0  0  0  # atno 11005 bound_to 11000
  146.3511  140.1349  142.8596 LP  0  0  0  0  0  0  0  0  0  0  0  0  # atno 17320 bound_to 7965
  145.0605  140.9084  143.4941 LP  0  0  0  0  0  0  0  0  0  0  0  0  # atno 17321 bound_to 7965
  140.1069  143.4735  152.2393 LP  0  0  0  0  0  0  0  0  0  0  0  0  # atno 17342 bound_to 10162
  139.5792  144.7502  151.3685 LP  0  0  0  0  0  0  0  0  0  0  0  0  # atno 17343 bound_to 10162
  156.3578  130.3842  149.7276 LP  0  0  0  0  0  0  0  0  0  0  0  0  # atno 17370 bound_to 10713
  156.4732  130.8006  151.3023 LP  0  0  0  0  0  0  0  0  0  0  0  0  # atno 17371 bound_to 10713
  141.1945  133.8126  157.0753 LP  0  0  0  0  0  0  0  0  0  0  0  0  # atno 17394 bound_to 11000
  140.0530  134.9795  157.1170 LP  0  0  0  0  0  0  0  0  0  0  0  0  # atno 17395 bound_to 11000

$$$$
