AV-unprocessed.smi:1748|AV-procd|sdf|7041|dock4
  -GOLD-   22720 8263D 1   1.00000     0.00000
 Structure written by MMmdl.
 39 40  0  0  0  0  0  0  0  0  3 V2000
  145.5130  134.7645  151.5929 C   0  0  0  0  0  0  0  0  0  0  0  0
  146.7683  134.4388  152.3028 N   0  3  2  0  0  0  0  0  0  0  0  0
  147.2863  133.0924  151.9522 C   0  0  0  0  0  0  0  0  0  0  0  0
  148.6547  132.8353  152.6075 C   0  0  0  0  0  0  0  0  0  0  0  0
  148.5975  133.0531  154.1298 C   0  0  0  0  0  0  0  0  0  0  0  0
  148.0191  134.4395  154.4673 C   0  0  1  0  0  0  0  0  0  0  0  0
  148.9650  135.4815  154.0684 N   0  0  0  0  0  0  0  0  0  0  0  0
  149.5218  136.3826  154.8897 C   0  0  0  0  0  0  0  0  0  0  0  0
  149.3034  136.4156  156.1005 O   0  0  0  0  0  0  0  0  0  0  0  0
  150.2973  137.2390  154.2022 N   0  0  0  0  0  0  0  0  0  0  0  0
  151.0330  138.3381  154.6740 C   0  0  0  0  0  0  0  0  0  0  0  0
  150.5568  139.2716  155.5432 C   0  0  0  0  0  0  0  0  0  0  0  0
  151.3683  140.3897  156.0075 C   0  0  0  0  0  0  0  0  0  0  0  0
  150.8957  141.4003  157.0379 C   0  0  0  0  0  0  0  0  0  0  0  0
  149.5920  141.2655  157.2827 F   0  0  0  0  0  0  0  0  0  0  0  0
  151.5549  141.2235  158.1822 F   0  0  0  0  0  0  0  0  0  0  0  0
  151.1179  142.6460  156.6190 F   0  0  0  0  0  0  0  0  0  0  0  0
  152.6488  140.3587  155.4892 C   0  0  0  0  0  0  0  0  0  0  0  0
  153.1939  139.4788  154.6203 N   0  5  0  0  0  0  0  0  0  0  0  0
  152.4246  138.4396  154.1898 C   0  0  0  0  0  0  0  0  0  0  0  0
  152.8612  137.5928  153.4092 O   0  0  0  0  0  0  0  0  0  0  0  0
  146.6507  134.6166  153.7719 C   0  0  0  0  0  0  0  0  0  0  0  0
  144.7074  134.0935  151.8935 H   0  0  0  0  0  0  0  0  0  0  0  0
  145.6472  134.6775  150.5143 H   0  0  0  0  0  0  0  0  0  0  0  0
  145.2047  135.7883  151.8077 H   0  0  0  0  0  0  0  0  0  0  0  0
  146.5702  132.3325  152.2692 H   0  0  0  0  0  0  0  0  0  0  0  0
  147.3808  133.0068  150.8689 H   0  0  0  0  0  0  0  0  0  0  0  0
  148.9855  131.8193  152.3904 H   0  0  0  0  0  0  0  0  0  0  0  0
  149.4000  133.4986  152.1667 H   0  0  0  0  0  0  0  0  0  0  0  0
  147.9710  132.2816  154.5798 H   0  0  0  0  0  0  0  0  0  0  0  0
  149.5896  132.9345  154.5672 H   0  0  0  0  0  0  0  0  0  0  0  0
  147.8805  134.5015  155.5481 H   0  0  0  0  0  0  0  0  0  0  0  0
  149.2084  135.5247  153.0894 H   0  0  0  0  0  0  0  0  0  0  0  0
  150.3167  137.1279  153.1989 H   0  0  0  0  0  0  0  0  0  0  0  0
  149.5547  139.2000  155.9335 H   0  0  0  0  0  0  0  0  0  0  0  0
  153.3422  141.1575  155.8286 H   0  0  0  0  0  0  0  0  0  0  0  0
  146.2408  135.6038  153.9899 H   0  0  0  0  0  0  0  0  0  0  0  0
  145.9352  133.8938  154.1674 H   0  0  0  0  0  0  0  0  0  0  0  0
  147.4567  135.1075  151.9874 H   0  0  0  0  0  0  0  0  0  0  0  0
  1  2  1  0  0  0  0
  1 23  1  0  0  0  0
  1 24  1  0  0  0  0
  1 25  1  0  0  0  0
  2 22  1  0  0  0  0
  2  3  1  0  0  0  0
  2 39  1  0  0  0  0
  3  4  1  0  0  0  0
  3 26  1  0  0  0  0
  3 27  1  0  0  0  0
  4  5  1  0  0  0  0
  4 28  1  0  0  0  0
  4 29  1  0  0  0  0
  5  6  1  0  0  0  0
  5 30  1  0  0  0  0
  5 31  1  0  0  0  0
  6  7  1  0  0  0  0
  6 22  1  0  0  0  0
  6 32  1  0  0  0  0
  7  8  1  0  0  0  0
  7 33  1  0  0  0  0
  8  9  2  0  0  0  0
  8 10  1  0  0  0  0
 10 11  1  0  0  0  0
 10 34  1  0  0  0  0
 11 20  1  0  0  0  0
 11 12  2  0  0  0  0
 12 13  1  0  0  0  0
 12 35  1  0  0  0  0
 13 14  1  0  0  0  0
 13 18  2  0  0  0  0
 14 15  1  0  0  0  0
 14 16  1  0  0  0  0
 14 17  1  0  0  0  0
 18 19  1  0  0  0  0
 18 36  1  0  0  0  0
 19 20  1  0  0  0  0
 20 21  2  0  0  0  0
 22 37  1  0  0  0  0
 22 38  1  0  0  0  0
M  CHG  1   2   1
M  CHG  1  19  -1
M  END
> <s_m_source_file>
AV-unprocessed.smi

> <i_m_source_file_index>
1748

> <i_lp_mmshare_version>
43012

> <i_f3d_flags>
0

> <s_epik_input>
W0NIM11OMVtDSDJdW0NIMl1bQ0gyXVtDQEhdKFtDSDJdMSlbTkhdQyg9TylbTkhdYzJbY0hdYyhDKEYpKEYpRilbY0hdW25IXWMyPU8=

> <s_epik_cmdline>
J2VwaWtfcHl0aG9uJywgJy1waCcsICc3LjAnLCAnLXRuJywgJzgnLCAnLW1hJywgJzIwMCcsICctbWV0YWxfYmluZGluZycsICctaW1hZScsICc8aW5maWxlLm1hZT4nLCAnLW9tYWUnLCAnPG91dGZpbGUubWFlPic=

> <r_lp_tautomer_probability>
1

> <r_epik_Ionization_Penalty>
3.00907

> <r_epik_Ionization_Penalty_Charging>
0.148702

> <r_epik_Ionization_Penalty_Neutral>
2.86036

> <r_epik_State_Penalty>
2.85557

> <r_epik_Charging_Adjusted_Penalty>
3.00428

> <i_epik_Tot_Q>
0

> <i_epik_Tot_abs_Q>
2

> <r_epik_Metal_State_Penalty>
0.443779

> <b_epik_Metal_Only>
1

> <s_lp_Force_Field>
OPLS_2005

> <r_lp_Energy>
32.6678

> <b_lp_Chiralities_Consistent>
1

> <s_lp_Variant>
AV-unprocessed.smi:1748-6

> <Gold.Version>
5.8.1

> <Gold.Id.Protein>
6NUR|6NUR_protein|mol2

> <Gold.PLP.Fitness>
45.9294

> <Gold.PLP.PLP>
-30.9957

> <Gold.PLP.part.hbond>
-4.7184

> <Gold.PLP.part.metal>
0.0000

> <Gold.PLP.part.buried>
-1.9810

> <Gold.PLP.part.nonpolar>
-25.5118

> <Gold.PLP.part.repulsive>
0.2077

> <Gold.PLP.ligand.clash>
0.0000

> <Gold.PLP.ligand.torsion>
0.5942

> <Gold.PLP.Chemscore.Hbond>
5.3561

> <Gold.PLP.Chemscore.CHOScore>
0.0000

> <Gold.PLP.Chemscore.Metal>
0.0000

> <Gold.Chemscore.Hbonds>
donor molecule, donor type, donor heavy atom, donor atom, acceptor molecule, acceptor atom, score
      L1  H     2    39       P1  7948  2.00
      L1  H     7    33       P1  7948  0.63
      L1  H    10    34       P1  7948  0.35
      P1  H 10752 10764       L1    21  0.58

> <Gold.PLP.Chemscore.Internal.Correction>
0.0539

> <Gold.Rescore>
     Score         DG    S(hbond)    S(metal)    S(lipo)     H(rot)  DE(clash)    DE(int)     intcor
     17.99     -18.85       2.93        0.00      52.48       1.00       0.41       0.45       ----

> <Gold.Chemscore.Fitness>
17.9915

> <Gold.Chemscore.DG>
-18.8477

> <Gold.Chemscore.ZeroCoef>
-5.4800

> <Gold.Chemscore.Hbond>
2.9306

> <Gold.Chemscore.Metal>
0.0000

> <Gold.Chemscore.Lipo>
52.4750

> <Gold.Chemscore.Internal_Hbond>
0.0000

> <Gold.Chemscore.DEClash>
0.4085

> <Gold.Chemscore.DEInternal>
0.4478

> <Gold.Chemscore.Rot>
1.0000

> <Gold.Chemscore.Internal.Correction>
   9.000000E+99

> <Gold.Chemscore.Hbonds>
donor molecule, donor type, donor heavy atom, donor atom, acceptor molecule, acceptor atom, score
      L1  H     2    39       P1  7948  0.96
      L1  H     7    33       P1  7948  0.15
      L1  H    10    34       P1  7948  0.02
      P1  H 10752 10764       L1    21  0.55

> <Gold.Chemscore.Hbond.Weighted>
-9.7882

> <Gold.Chemscore.Metal.Weighted>
-0.0000

> <Gold.Chemscore.Lipo.Weighted>
-6.1396

> <Gold.Chemscore.Internal_Hbond.Weighted>
0.0000

> <Gold.Chemscore.DEClash.Weighted>
0.4085

> <Gold.Chemscore.DEInternal.Weighted>
0.4478

> <Gold.Chemscore.Rot.Weighted>
2.5600

> <Gold.Chemscore.Internal.Correction.Weighted>
   9.000000E+99

> <Gold.Protein.RotatedTorsions>
[ 6907 6896 6895 6894 ] final  -57.52 input  -60.11 | X-H torsion
[ 7974 7965 7964 7962 ] final -175.79 input  175.53 | X-H torsion
[ 8008 7997 7996 7995 ] final  117.38 input   59.86 | X-H torsion
[ 10167 10162 10161 10158 ] final -126.48 input  -65.29 | X-H torsion
[ 10718 10713 10712 10709 ] final -153.60 input   66.30 | X-H torsion
[ 10763 10752 10751 10750 ] final  -92.12 input  -60.55 | X-H torsion
[ 11005 11000 10999 10996 ] final  -23.31 input  -57.11 | X-H torsion

> <Gold.Protein.ActiveResidues>
 VAL166  LYS551  ARG553  GLY616  TRP617  ASP618  TYR619  PRO620  LYS621  CYS622 
 ASP623  PHE694  ASN695  SER759  ASP760  ASP761  ALA762  ILE779  LEU786  VAL792 
 PHE793  MET794  SER795  GLU796  ALA797  LYS798  CYS799  TRP800  GLU811  SER814 

> <Gold.Protein.RotatedAtoms>
  150.8079  134.7216  159.6661 H   0  0  0  0  0  0  0  0  0  0  0  0  # atno 6907 bound_to 6896
  152.4199  134.5971  159.9999 H   0  0  0  0  0  0  0  0  0  0  0  0  # atno 6908 bound_to 6896
  151.6189  133.3303  159.3119 H   0  0  0  0  0  0  0  0  0  0  0  0  # atno 6909 bound_to 6896
  144.7127  140.1268  143.6401 H   0  0  0  0  0  0  0  0  0  0  0  0  # atno 7974 bound_to 7965
  156.2491  140.2897  156.0670 H   0  0  0  0  0  0  0  0  0  0  0  0  # atno 8008 bound_to 7997
  155.1713  140.0402  157.2880 H   0  0  0  0  0  0  0  0  0  0  0  0  # atno 8009 bound_to 7997
  154.6324  140.2502  155.7425 H   0  0  0  0  0  0  0  0  0  0  0  0  # atno 8010 bound_to 7997
  139.9710  143.5846  152.2413 H   0  0  0  0  0  0  0  0  0  0  0  0  # atno 10167 bound_to 10162
  156.4880  130.8334  151.2558 H   0  0  0  0  0  0  0  0  0  0  0  0  # atno 10718 bound_to 10713
  154.6829  135.5243  153.8287 H   0  0  0  0  0  0  0  0  0  0  0  0  # atno 10763 bound_to 10752
  153.0577  135.6557  154.0547 H   0  0  0  0  0  0  0  0  0  0  0  0  # atno 10764 bound_to 10752
  154.0431  135.2975  155.3331 H   0  0  0  0  0  0  0  0  0  0  0  0  # atno 10765 bound_to 10752
  140.8740  133.7700  156.0220 H   0  0  0  0  0  0  0  0  0  0  0  0  # atno 11005 bound_to 11000
  145.9322  139.2614  143.1318 LP  0  0  0  0  0  0  0  0  0  0  0  0  # atno 17320 bound_to 7965
  145.9510  140.8908  143.0259 LP  0  0  0  0  0  0  0  0  0  0  0  0  # atno 17321 bound_to 7965
  139.6481  144.7659  151.2202 LP  0  0  0  0  0  0  0  0  0  0  0  0  # atno 17342 bound_to 10162
  140.7522  143.6205  150.8518 LP  0  0  0  0  0  0  0  0  0  0  0  0  # atno 17343 bound_to 10162
  157.7476  131.0023  150.2994 LP  0  0  0  0  0  0  0  0  0  0  0  0  # atno 17370 bound_to 10713
  156.3454  130.3822  149.7373 LP  0  0  0  0  0  0  0  0  0  0  0  0  # atno 17371 bound_to 10713
  140.8540  134.2920  157.5263 LP  0  0  0  0  0  0  0  0  0  0  0  0  # atno 17394 bound_to 11000
  139.8714  134.9483  156.3992 LP  0  0  0  0  0  0  0  0  0  0  0  0  # atno 17395 bound_to 11000

$$$$
