AV-unprocessed.smi:2100|AV-procd|sdf|8574|dock5
  -GOLD-   2272011303D 1   1.00000     0.00000
 Structure written by MMmdl.
 41 42  0  0  0  0  0  0  0  0  1 V2000
  149.0130  136.4983  159.5934 C   0  0  0  0  0  0  0  0  0  0  0  0
  149.2589  136.9507  158.1501 C   0  0  1  0  0  0  0  0  0  0  0  0
  150.4040  137.9747  158.0510 C   0  0  0  0  0  0  0  0  0  0  0  0
  150.7050  138.2985  156.6454 N   0  0  0  0  0  0  0  0  0  0  0  0
  151.7745  139.6258  156.3442 S   0  0  0  0  0  0  0  0  0  0  0  0
  153.1317  139.0965  156.1408 O   0  0  0  0  0  0  0  0  0  0  0  0
  151.1561  140.5196  155.3529 O   0  0  0  0  0  0  0  0  0  0  0  0
  151.7033  140.4053  157.8833 N   0  0  0  0  0  0  0  0  0  0  0  0
  152.9115  140.5235  158.7022 C   0  0  0  0  0  0  0  0  0  0  0  0
  152.6244  141.2349  160.0342 C   0  0  0  0  0  0  0  0  0  0  0  0
  152.2304  142.6862  159.8354 C   0  0  0  0  0  0  0  0  0  0  0  0
  152.8813  143.4838  158.8702 C   0  0  0  0  0  0  0  0  0  0  0  0
  152.4796  144.8261  158.7274 C   0  0  0  0  0  0  0  0  0  0  0  0
  151.4496  145.3173  159.5525 C   0  0  0  0  0  0  0  0  0  0  0  0
  150.8650  144.4407  160.4880 C   0  0  0  0  0  0  0  0  0  0  0  0
  151.2422  143.1518  160.6324 N   0  0  0  0  0  0  0  0  0  0  0  0
  150.8802  137.1052  155.8025 C   0  0  0  0  0  0  0  0  0  0  0  0
  149.7181  136.1134  155.9948 C   0  0  1  0  0  0  0  0  0  0  0  0
  149.9461  134.8038  155.2318 C   0  0  0  0  0  0  0  0  0  0  0  0
  149.5805  135.8043  157.3748 O   0  0  0  0  0  0  0  0  0  0  0  0
  148.7565  137.3441  160.2317 H   0  0  0  0  0  0  0  0  0  0  0  0
  149.8974  136.0180  160.0129 H   0  0  0  0  0  0  0  0  0  0  0  0
  148.1910  135.7839  159.6427 H   0  0  0  0  0  0  0  0  0  0  0  0
  148.3379  137.3955  157.7686 H   0  0  0  0  0  0  0  0  0  0  0  0
  150.1353  138.8805  158.5940 H   0  0  0  0  0  0  0  0  0  0  0  0
  151.3064  137.5792  158.5194 H   0  0  0  0  0  0  0  0  0  0  0  0
  151.1467  141.2593  157.8604 H   0  0  0  0  0  0  0  0  0  0  0  0
  153.3307  139.5311  158.8726 H   0  0  0  0  0  0  0  0  0  0  0  0
  153.6528  141.0889  158.1368 H   0  0  0  0  0  0  0  0  0  0  0  0
  151.8295  140.7163  160.5716 H   0  0  0  0  0  0  0  0  0  0  0  0
  153.5025  141.2057  160.6801 H   0  0  0  0  0  0  0  0  0  0  0  0
  153.6697  143.0789  158.2530 H   0  0  0  0  0  0  0  0  0  0  0  0
  152.9536  145.4672  157.9990 H   0  0  0  0  0  0  0  0  0  0  0  0
  151.1163  146.3413  159.4711 H   0  0  0  0  0  0  0  0  0  0  0  0
  150.0737  144.7838  161.1380 H   0  0  0  0  0  0  0  0  0  0  0  0
  150.9422  137.4021  154.7553 H   0  0  0  0  0  0  0  0  0  0  0  0
  151.8302  136.6335  156.0579 H   0  0  0  0  0  0  0  0  0  0  0  0
  148.7912  136.5633  155.6346 H   0  0  0  0  0  0  0  0  0  0  0  0
  150.0406  134.9850  154.1609 H   0  0  0  0  0  0  0  0  0  0  0  0
  149.1127  134.1166  155.3797 H   0  0  0  0  0  0  0  0  0  0  0  0
  150.8545  134.3034  155.5684 H   0  0  0  0  0  0  0  0  0  0  0  0
  1  2  1  0  0  0  0
  1 21  1  0  0  0  0
  1 22  1  0  0  0  0
  1 23  1  0  0  0  0
  2 20  1  0  0  0  0
  2  3  1  0  0  0  0
  2 24  1  0  0  0  0
  3  4  1  0  0  0  0
  3 25  1  0  0  0  0
  3 26  1  0  0  0  0
  4  5  1  0  0  0  0
  4 17  1  0  0  0  0
  5  6  2  0  0  0  0
  5  7  2  0  0  0  0
  5  8  1  0  0  0  0
  8  9  1  0  0  0  0
  8 27  1  0  0  0  0
  9 10  1  0  0  0  0
  9 28  1  0  0  0  0
  9 29  1  0  0  0  0
 10 11  1  0  0  0  0
 10 30  1  0  0  0  0
 10 31  1  0  0  0  0
 11 16  1  0  0  0  0
 11 12  2  0  0  0  0
 12 13  1  0  0  0  0
 12 32  1  0  0  0  0
 13 14  2  0  0  0  0
 13 33  1  0  0  0  0
 14 15  1  0  0  0  0
 14 34  1  0  0  0  0
 15 16  2  0  0  0  0
 15 35  1  0  0  0  0
 17 18  1  0  0  0  0
 17 36  1  0  0  0  0
 17 37  1  0  0  0  0
 18 19  1  0  0  0  0
 18 20  1  0  0  0  0
 18 38  1  0  0  0  0
 19 39  1  0  0  0  0
 19 40  1  0  0  0  0
 19 41  1  0  0  0  0
M  END
> <s_m_source_file>
AV-unprocessed.smi

> <i_m_source_file_index>
2100

> <i_lp_mmshare_version>
43012

> <i_f3d_flags>
0

> <s_epik_input>
W0NIM11bQ0BASF0xW0NIMl1OKFtDSDJdW0NASF0oTzEpW0NIM10pUyg9TykoPU8pW05IXVtDSDJdW0NIMl1jMltjSF1bY0hdW2NIXVtjSF1uMg==

> <s_epik_cmdline>
J2VwaWtfcHl0aG9uJywgJy1waCcsICc3LjAnLCAnLXRuJywgJzgnLCAnLW1hJywgJzIwMCcsICctbWV0YWxfYmluZGluZycsICctaW1hZScsICc8aW5maWxlLm1hZT4nLCAnLW9tYWUnLCAnPG91dGZpbGUubWFlPic=

> <r_epik_Ionization_Penalty>
0.085378

> <r_epik_Ionization_Penalty_Charging>
0

> <r_epik_Ionization_Penalty_Neutral>
0.085378

> <r_epik_State_Penalty>
0.0441186

> <r_epik_Charging_Adjusted_Penalty>
0.0441186

> <i_epik_Tot_Q>
0

> <i_epik_Tot_abs_Q>
0

> <r_epik_Metal_State_Penalty>
0.24397

> <b_epik_Metal_Only>
0

> <s_lp_Force_Field>
OPLS_2005

> <r_lp_Energy>
5.36855

> <b_lp_Chiralities_Consistent>
1

> <s_lp_Variant>
AV-unprocessed.smi:2100-2

> <Gold.Version>
5.8.1

> <Gold.Id.Protein>
6NUR|6NUR_protein|mol2

> <Gold.PLP.Fitness>
42.7235

> <Gold.PLP.PLP>
-38.4255

> <Gold.PLP.part.hbond>
-3.0000

> <Gold.PLP.part.metal>
0.0000

> <Gold.PLP.part.buried>
-5.8129

> <Gold.PLP.part.nonpolar>
-29.7763

> <Gold.PLP.part.repulsive>
0.1164

> <Gold.PLP.ligand.clash>
0.0000

> <Gold.PLP.ligand.torsion>
1.1487

> <Gold.PLP.Chemscore.Hbond>
1.9600

> <Gold.PLP.Chemscore.CHOScore>
0.0000

> <Gold.PLP.Chemscore.Metal>
0.0000

> <Gold.Chemscore.Hbonds>
donor molecule, donor type, donor heavy atom, donor atom, acceptor molecule, acceptor atom, score
      P1  H  7989  7998       L1     7  0.91
      P1  H  7997  8008       L1     6  1.00

> <Gold.PLP.Chemscore.Internal.Correction>
0.7154

> <Gold.Rescore>
     Score         DG    S(hbond)    S(metal)    S(lipo)     H(rot)  DE(clash)    DE(int)     intcor
     17.96     -19.09       1.92        0.00      98.71       1.71       0.07       1.06       ----

> <Gold.Chemscore.Fitness>
17.9646

> <Gold.Chemscore.DG>
-19.0906

> <Gold.Chemscore.ZeroCoef>
-5.4800

> <Gold.Chemscore.Hbond>
1.9248

> <Gold.Chemscore.Metal>
0.0000

> <Gold.Chemscore.Lipo>
98.7104

> <Gold.Chemscore.Internal_Hbond>
0.0000

> <Gold.Chemscore.DEClash>
0.0667

> <Gold.Chemscore.DEInternal>
1.0593

> <Gold.Chemscore.Rot>
1.7060

> <Gold.Chemscore.Internal.Correction>
   9.000000E+99

> <Gold.Chemscore.Hbonds>
donor molecule, donor type, donor heavy atom, donor atom, acceptor molecule, acceptor atom, score
      P1  H  6933  6945       L1    16  0.01
      P1  H  7989  7998       L1     7  0.89
      P1  H  7997  8008       L1     6  0.93

> <Gold.Chemscore.Hbond.Weighted>
-6.4288

> <Gold.Chemscore.Metal.Weighted>
-0.0000

> <Gold.Chemscore.Lipo.Weighted>
-11.5491

> <Gold.Chemscore.Internal_Hbond.Weighted>
0.0000

> <Gold.Chemscore.DEClash.Weighted>
0.0667

> <Gold.Chemscore.DEInternal.Weighted>
1.0593

> <Gold.Chemscore.Rot.Weighted>
4.3674

> <Gold.Chemscore.Internal.Correction.Weighted>
   9.000000E+99

> <Gold.Protein.RotatedTorsions>
[ 6907 6896 6895 6894 ] final  178.36 input  -60.11 | X-H torsion
[ 7974 7965 7964 7962 ] final -114.76 input  175.53 | X-H torsion
[ 8008 7997 7996 7995 ] final  -41.30 input   59.86 | X-H torsion
[ 10167 10162 10161 10158 ] final -158.24 input  -65.29 | X-H torsion
[ 10718 10713 10712 10709 ] final -125.02 input   66.30 | X-H torsion
[ 10763 10752 10751 10750 ] final   64.37 input  -60.55 | X-H torsion
[ 11005 11000 10999 10996 ] final -131.32 input  -57.11 | X-H torsion

> <Gold.Protein.ActiveResidues>
 VAL166  LYS551  ARG553  GLY616  TRP617  ASP618  TYR619  PRO620  LYS621  CYS622 
 ASP623  PHE694  ASN695  SER759  ASP760  ASP761  ALA762  ILE779  LEU786  VAL792 
 PHE793  MET794  SER795  GLU796  ALA797  LYS798  CYS799  TRP800  GLU811  SER814 

> <Gold.Protein.RotatedAtoms>
  151.6892  133.3311  159.3238 H   0  0  0  0  0  0  0  0  0  0  0  0  # atno 6907 bound_to 6896
  150.7787  134.6714  159.6403 H   0  0  0  0  0  0  0  0  0  0  0  0  # atno 6908 bound_to 6896
  152.3837  134.6553  160.0185 H   0  0  0  0  0  0  0  0  0  0  0  0  # atno 6909 bound_to 6896
  145.1163  140.8642  143.3840 H   0  0  0  0  0  0  0  0  0  0  0  0  # atno 7974 bound_to 7965
  154.4005  140.1503  156.3168 H   0  0  0  0  0  0  0  0  0  0  0  0  # atno 8008 bound_to 7997
  155.8565  140.3455  155.5706 H   0  0  0  0  0  0  0  0  0  0  0  0  # atno 8009 bound_to 7997
  155.7927  140.0859  157.1991 H   0  0  0  0  0  0  0  0  0  0  0  0  # atno 8010 bound_to 7997
  139.6707  143.9750  152.2282 H   0  0  0  0  0  0  0  0  0  0  0  0  # atno 10167 bound_to 10162
  156.1638  130.6620  151.0087 H   0  0  0  0  0  0  0  0  0  0  0  0  # atno 10718 bound_to 10713
  153.0053  135.5395  154.6499 H   0  0  0  0  0  0  0  0  0  0  0  0  # atno 10763 bound_to 10752
  154.5734  135.2843  155.0807 H   0  0  0  0  0  0  0  0  0  0  0  0  # atno 10764 bound_to 10752
  154.1964  135.6491  153.5127 H   0  0  0  0  0  0  0  0  0  0  0  0  # atno 10765 bound_to 10752
  140.9269  134.1371  157.4268 H   0  0  0  0  0  0  0  0  0  0  0  0  # atno 11005 bound_to 11000
  145.0790  139.2974  143.5793 LP  0  0  0  0  0  0  0  0  0  0  0  0  # atno 17320 bound_to 7965
  146.3523  140.0290  142.8652 LP  0  0  0  0  0  0  0  0  0  0  0  0  # atno 17321 bound_to 7965
  139.9513  144.6618  150.8169 LP  0  0  0  0  0  0  0  0  0  0  0  0  # atno 17342 bound_to 10162
  140.7617  143.3180  151.2687 LP  0  0  0  0  0  0  0  0  0  0  0  0  # atno 17343 bound_to 10162
  157.6753  131.0852  150.7511 LP  0  0  0  0  0  0  0  0  0  0  0  0  # atno 17370 bound_to 10713
  156.7573  130.4787  149.5444 LP  0  0  0  0  0  0  0  0  0  0  0  0  # atno 17371 bound_to 10713
  139.8787  134.9991  156.5937 LP  0  0  0  0  0  0  0  0  0  0  0  0  # atno 17394 bound_to 11000
  140.7915  133.8579  155.8649 LP  0  0  0  0  0  0  0  0  0  0  0  0  # atno 17395 bound_to 11000

$$$$
