AV-unprocessed.smi:129|AV-procd|sdf|1158|dock5
  -GOLD-   2262018293D 1   1.00000     0.00000
 Structure written by MMmdl.
 58 61  0  0  0  0  0  0  0  0  1 V2000
  150.3365  141.2761  156.9397 C   0  0  0  0  0  0  0  0  0  0  0  0
  151.3927  141.3422  157.8867 O   0  0  0  0  0  0  0  0  0  0  0  0
  151.7724  142.5824  158.3618 C   0  0  0  0  0  0  0  0  0  0  0  0
  151.2103  143.8007  157.9009 C   0  0  0  0  0  0  0  0  0  0  0  0
  151.6379  145.0324  158.4294 C   0  0  0  0  0  0  0  0  0  0  0  0
  152.6251  145.0644  159.4284 C   0  0  0  0  0  0  0  0  0  0  0  0
  153.1911  143.8648  159.8951 C   0  0  0  0  0  0  0  0  0  0  0  0
  152.7796  142.6207  159.3567 C   0  0  0  0  0  0  0  0  0  0  0  0
  153.3026  141.3737  159.8017 N   0  0  0  0  0  0  0  0  0  0  0  0
  154.4035  141.1240  160.5363 C   0  0  0  0  0  0  0  0  0  0  0  0
  155.1480  141.9817  161.0109 O   0  0  0  0  0  0  0  0  0  0  0  0
  154.6621  139.6689  160.8064 C   0  0  0  0  0  0  0  0  0  0  0  0
  155.7777  139.2843  161.5812 C   0  0  0  0  0  0  0  0  0  0  0  0
  156.0451  137.9234  161.8215 C   0  0  0  0  0  0  0  0  0  0  0  0
  155.2047  136.9228  161.2935 C   0  0  0  0  0  0  0  0  0  0  0  0
  155.5568  135.5730  161.5653 N   0  0  0  0  0  0  0  0  0  0  0  0
  155.2540  134.4619  160.8698 C   0  0  0  0  0  0  0  0  0  0  0  0
  154.5479  134.4389  159.8609 O   0  0  0  0  0  0  0  0  0  0  0  0
  155.8217  133.1580  161.4520 C   0  0  0  0  0  0  0  0  0  0  0  0
  155.2528  132.8039  162.7707 N   0  0  0  0  0  0  0  0  0  0  0  0
  155.6469  133.5608  163.9019 C   0  0  0  0  0  0  0  0  0  0  0  0
  156.4392  134.4986  163.7982 O   0  0  0  0  0  0  0  0  0  0  0  0
  155.0593  133.1485  165.1714 C   0  0  0  0  0  0  0  0  0  0  0  0
  155.3690  133.8162  166.2959 F   0  0  0  0  0  0  0  0  0  0  0  0
  154.2067  132.1053  165.2366 C   0  0  0  0  0  0  0  0  0  0  0  0
  153.8402  131.3670  164.1254 N   0  0  0  0  0  0  0  0  0  0  0  0
  152.8922  130.1907  164.2188 C   0  0  1  0  0  0  0  0  0  0  0  0
  152.5979  129.8494  165.6909 C   0  0  0  0  0  0  0  0  0  0  0  0
  151.0846  129.7727  165.7175 C   0  0  0  0  0  0  0  0  0  0  0  0
  150.7011  130.7636  164.6286 C   0  0  0  0  0  0  0  0  0  0  0  0
  151.6705  130.5159  163.6181 O   0  0  0  0  0  0  0  0  0  0  0  0
  154.3627  131.7071  162.8588 C   0  0  0  0  0  0  0  0  0  0  0  0
  154.0547  131.0561  161.8579 O   0  0  0  0  0  0  0  0  0  0  0  0
  154.1002  137.3034  160.4942 C   0  0  0  0  0  0  0  0  0  0  0  0
  153.8319  138.6655  160.2556 C   0  0  0  0  0  0  0  0  0  0  0  0
  150.1588  140.2344  156.6732 H   0  0  0  0  0  0  0  0  0  0  0  0
  150.5873  141.8119  156.0233 H   0  0  0  0  0  0  0  0  0  0  0  0
  149.4073  141.6740  157.3500 H   0  0  0  0  0  0  0  0  0  0  0  0
  150.4451  143.8190  157.1401 H   0  0  0  0  0  0  0  0  0  0  0  0
  151.2022  145.9536  158.0718 H   0  0  0  0  0  0  0  0  0  0  0  0
  152.9448  146.0095  159.8421 H   0  0  0  0  0  0  0  0  0  0  0  0
  153.9297  143.9268  160.6786 H   0  0  0  0  0  0  0  0  0  0  0  0
  152.8234  140.5591  159.4458 H   0  0  0  0  0  0  0  0  0  0  0  0
  156.4363  140.0315  162.0001 H   0  0  0  0  0  0  0  0  0  0  0  0
  156.9027  137.6506  162.4192 H   0  0  0  0  0  0  0  0  0  0  0  0
  156.0647  135.4263  162.4256 H   0  0  0  0  0  0  0  0  0  0  0  0
  155.6592  132.3500  160.7362 H   0  0  0  0  0  0  0  0  0  0  0  0
  156.9075  133.2512  161.5005 H   0  0  0  0  0  0  0  0  0  0  0  0
  153.8062  131.8528  166.2063 H   0  0  0  0  0  0  0  0  0  0  0  0
  153.3627  129.3816  163.6572 H   0  0  0  0  0  0  0  0  0  0  0  0
  153.0830  128.9172  165.9820 H   0  0  0  0  0  0  0  0  0  0  0  0
  152.9504  130.6517  166.3417 H   0  0  0  0  0  0  0  0  0  0  0  0
  150.7541  128.7700  165.4431 H   0  0  0  0  0  0  0  0  0  0  0  0
  150.6598  130.0208  166.6904 H   0  0  0  0  0  0  0  0  0  0  0  0
  149.6875  130.6124  164.2572 H   0  0  0  0  0  0  0  0  0  0  0  0
  150.7862  131.7891  164.9906 H   0  0  0  0  0  0  0  0  0  0  0  0
  153.4544  136.5695  160.0377 H   0  0  0  0  0  0  0  0  0  0  0  0
  152.9877  138.9287  159.6343 H   0  0  0  0  0  0  0  0  0  0  0  0
  1  2  1  0  0  0  0
  1 36  1  0  0  0  0
  1 37  1  0  0  0  0
  1 38  1  0  0  0  0
  2  3  1  0  0  0  0
  3  8  1  0  0  0  0
  3  4  2  0  0  0  0
  4  5  1  0  0  0  0
  4 39  1  0  0  0  0
  5  6  2  0  0  0  0
  5 40  1  0  0  0  0
  6  7  1  0  0  0  0
  6 41  1  0  0  0  0
  7  8  2  0  0  0  0
  7 42  1  0  0  0  0
  8  9  1  0  0  0  0
  9 10  1  0  0  0  0
  9 43  1  0  0  0  0
 10 11  2  0  0  0  0
 10 12  1  0  0  0  0
 12 35  1  0  0  0  0
 12 13  2  0  0  0  0
 13 14  1  0  0  0  0
 13 44  1  0  0  0  0
 14 15  2  0  0  0  0
 14 45  1  0  0  0  0
 15 16  1  0  0  0  0
 15 34  1  0  0  0  0
 16 17  1  0  0  0  0
 16 46  1  0  0  0  0
 17 18  2  0  0  0  0
 17 19  1  0  0  0  0
 19 20  1  0  0  0  0
 19 47  1  0  0  0  0
 19 48  1  0  0  0  0
 20 32  1  0  0  0  0
 20 21  1  0  0  0  0
 21 22  2  0  0  0  0
 21 23  1  0  0  0  0
 23 24  1  0  0  0  0
 23 25  2  0  0  0  0
 25 26  1  0  0  0  0
 25 49  1  0  0  0  0
 26 27  1  0  0  0  0
 26 32  1  0  0  0  0
 27 31  1  0  0  0  0
 27 28  1  0  0  0  0
 27 50  1  0  0  0  0
 28 29  1  0  0  0  0
 28 51  1  0  0  0  0
 28 52  1  0  0  0  0
 29 30  1  0  0  0  0
 29 53  1  0  0  0  0
 29 54  1  0  0  0  0
 30 31  1  0  0  0  0
 30 55  1  0  0  0  0
 30 56  1  0  0  0  0
 32 33  2  0  0  0  0
 34 35  2  0  0  0  0
 34 57  1  0  0  0  0
 35 58  1  0  0  0  0
M  END
> <s_m_source_file>
AV-unprocessed.smi

> <i_m_source_file_index>
129

> <i_lp_mmshare_version>
43012

> <i_f3d_flags>
0

> <s_epik_input>
W0NIM11PYzFbY0hdW2NIXVtjSF1bY0hdYzFbTkhdQyg9TyljMltjSF1bY0hdYyhbY0hdW2NIXTIpW05IXUMoPU8pW0NIMl1uM2MoPU8pYyhGKVtjSF1uKGMzPU8pW0NAQEhdNFtDSDJdW0NIMl1bQ0gyXU80

> <s_epik_cmdline>
J2VwaWtfcHl0aG9uJywgJy1waCcsICc3LjAnLCAnLXRuJywgJzgnLCAnLW1hJywgJzIwMCcsICctbWV0YWxfYmluZGluZycsICctaW1hZScsICc8aW5maWxlLm1hZT4nLCAnLW9tYWUnLCAnPG91dGZpbGUubWFlPic=

> <r_lp_tautomer_probability>
1

> <r_epik_Ionization_Penalty>
2.57954e-06

> <r_epik_Ionization_Penalty_Charging>
3.88729e-08

> <r_epik_Ionization_Penalty_Neutral>
2.54066e-06

> <r_epik_State_Penalty>
-0

> <r_epik_Charging_Adjusted_Penalty>
3.88729e-08

> <i_epik_Tot_Q>
0

> <i_epik_Tot_abs_Q>
0

> <r_epik_Metal_State_Penalty>
-0

> <b_epik_Metal_Only>
0

> <s_epik_Chemistry_Notes>
This compound contains an acetal/aminal-like group ( X-CH(R)-Y where X, Y are N, S, or O) that may be acid/base labile, releasing an aldehyde.

> <s_lp_Force_Field>
OPLS_2005

> <r_lp_Energy>
51.387

> <b_lp_Chiralities_Consistent>
1

> <s_lp_Variant>
AV-unprocessed.smi:129-2

> <Gold.Version>
5.8.1

> <Gold.Id.Protein>
6NUR|6NUR_protein|mol2

> <Gold.PLP.Fitness>
60.6772

> <Gold.PLP.PLP>
-58.5889

> <Gold.PLP.part.hbond>
-2.0000

> <Gold.PLP.part.metal>
0.0000

> <Gold.PLP.part.buried>
-5.7090

> <Gold.PLP.part.nonpolar>
-50.8550

> <Gold.PLP.part.repulsive>
0.2140

> <Gold.PLP.ligand.clash>
0.0000

> <Gold.PLP.ligand.torsion>
0.5198

> <Gold.PLP.Chemscore.Hbond>
1.0000

> <Gold.PLP.Chemscore.CHOScore>
0.0000

> <Gold.PLP.Chemscore.Metal>
0.0000

> <Gold.Chemscore.Hbonds>
donor molecule, donor type, donor heavy atom, donor atom, acceptor molecule, acceptor atom, score
      P1  H  6896  6908       L1    18  1.00

> <Gold.PLP.Chemscore.Internal.Correction>
0.1278

> <Gold.Rescore>
     Score         DG    S(hbond)    S(metal)    S(lipo)     H(rot)  DE(clash)    DE(int)     intcor
     14.90     -20.63       0.74        0.00     150.89       1.94       0.99       4.74       ----

> <Gold.Chemscore.Fitness>
14.8975

> <Gold.Chemscore.DG>
-20.6254

> <Gold.Chemscore.ZeroCoef>
-5.4800

> <Gold.Chemscore.Hbond>
0.7380

> <Gold.Chemscore.Metal>
0.0000

> <Gold.Chemscore.Lipo>
150.8943

> <Gold.Chemscore.Internal_Hbond>
0.0000

> <Gold.Chemscore.DEClash>
0.9906

> <Gold.Chemscore.DEInternal>
4.7373

> <Gold.Chemscore.Rot>
1.9430

> <Gold.Chemscore.Internal.Correction>
   9.000000E+99

> <Gold.Chemscore.Hbonds>
donor molecule, donor type, donor heavy atom, donor atom, acceptor molecule, acceptor atom, score
      P1  H  6896  6908       L1    18  0.97

> <Gold.Chemscore.Hbond.Weighted>
-2.4649

> <Gold.Chemscore.Metal.Weighted>
-0.0000

> <Gold.Chemscore.Lipo.Weighted>
-17.6546

> <Gold.Chemscore.Internal_Hbond.Weighted>
0.0000

> <Gold.Chemscore.DEClash.Weighted>
0.9906

> <Gold.Chemscore.DEInternal.Weighted>
4.7373

> <Gold.Chemscore.Rot.Weighted>
4.9741

> <Gold.Chemscore.Internal.Correction.Weighted>
   9.000000E+99

> <Gold.Protein.RotatedTorsions>
[ 6907 6896 6895 6894 ] final  -44.53 input  -60.11 | X-H torsion
[ 7974 7965 7964 7962 ] final -104.90 input  175.53 | X-H torsion
[ 8008 7997 7996 7995 ] final -107.60 input   59.86 | X-H torsion
[ 10167 10162 10161 10158 ] final   43.09 input  -65.29 | X-H torsion
[ 10718 10713 10712 10709 ] final  -22.11 input   66.30 | X-H torsion
[ 10763 10752 10751 10750 ] final  164.61 input  -60.55 | X-H torsion
[ 11005 11000 10999 10996 ] final  -48.62 input  -57.11 | X-H torsion

> <Gold.Protein.ActiveResidues>
 VAL166  LYS551  ARG553  GLY616  TRP617  ASP618  TYR619  PRO620  LYS621  CYS622 
 ASP623  PHE694  ASN695  SER759  ASP760  ASP761  ALA762  ILE779  LEU786  VAL792 
 PHE793  MET794  SER795  GLU796  ALA797  LYS798  CYS799  TRP800  GLU811  SER814 

> <Gold.Protein.RotatedAtoms>
  150.9319  134.8733  159.7556 H   0  0  0  0  0  0  0  0  0  0  0  0  # atno 6907 bound_to 6896
  152.5041  134.4067  159.9445 H   0  0  0  0  0  0  0  0  0  0  0  0  # atno 6908 bound_to 6896
  151.4094  133.3692  159.2777 H   0  0  0  0  0  0  0  0  0  0  0  0  # atno 6909 bound_to 6896
  145.2372  140.9192  143.3170 H   0  0  0  0  0  0  0  0  0  0  0  0  # atno 7974 bound_to 7965
  154.9317  140.0405  157.2051 H   0  0  0  0  0  0  0  0  0  0  0  0  # atno 8008 bound_to 7997
  154.8154  140.2875  155.5802 H   0  0  0  0  0  0  0  0  0  0  0  0  # atno 8009 bound_to 7997
  156.2975  140.2529  156.3050 H   0  0  0  0  0  0  0  0  0  0  0  0  # atno 8010 bound_to 7997
  140.3479  144.2388  150.6148 H   0  0  0  0  0  0  0  0  0  0  0  0  # atno 10167 bound_to 10162
  156.5090  130.4605  149.6658 H   0  0  0  0  0  0  0  0  0  0  0  0  # atno 10718 bound_to 10713
  154.3115  135.2757  155.2563 H   0  0  0  0  0  0  0  0  0  0  0  0  # atno 10763 bound_to 10752
  154.4956  135.5822  153.6495 H   0  0  0  0  0  0  0  0  0  0  0  0  # atno 10764 bound_to 10752
  152.9887  135.6145  154.3293 H   0  0  0  0  0  0  0  0  0  0  0  0  # atno 10765 bound_to 10752
  141.0712  133.6679  156.3468 H   0  0  0  0  0  0  0  0  0  0  0  0  # atno 11005 bound_to 11000
  144.9622  139.3968  143.6350 LP  0  0  0  0  0  0  0  0  0  0  0  0  # atno 17320 bound_to 7965
  146.3338  139.8680  142.8845 LP  0  0  0  0  0  0  0  0  0  0  0  0  # atno 17321 bound_to 7965
  140.5247  143.2257  151.8333 LP  0  0  0  0  0  0  0  0  0  0  0  0  # atno 17342 bound_to 10162
  139.4830  144.4794  151.9326 LP  0  0  0  0  0  0  0  0  0  0  0  0  # atno 17343 bound_to 10162
  156.3258  130.7305  151.2225 LP  0  0  0  0  0  0  0  0  0  0  0  0  # atno 17370 bound_to 10713
  157.7453  131.0443  150.4787 LP  0  0  0  0  0  0  0  0  0  0  0  0  # atno 17371 bound_to 10713
  140.5670  134.5878  157.5448 LP  0  0  0  0  0  0  0  0  0  0  0  0  # atno 17394 bound_to 11000
  139.9525  134.7592  156.0416 LP  0  0  0  0  0  0  0  0  0  0  0  0  # atno 17395 bound_to 11000

$$$$
