AV-unprocessed.smi:1268|AV-procd|sdf|5323|dock7
  -GOLD-   22720 4453D 1   1.00000     0.00000
 Structure written by MMmdl.
 40 41  0  0  0  0  0  0  0  0  2 V2000
  147.3592  138.5394  154.9014 O   0  0  0  0  0  0  0  0  0  0  0  0
  147.9531  138.8455  153.8673 C   0  0  0  0  0  0  0  0  0  0  0  0
  147.4815  138.5796  152.6408 N   0  0  0  0  0  0  0  0  0  0  0  0
  146.2350  137.8763  152.3557 C   0  0  0  0  0  0  0  0  0  0  0  0
  146.3393  136.9919  151.0949 C   0  0  2  0  0  0  0  0  0  0  0  0
  146.5012  137.8342  149.9703 O   0  0  0  0  0  0  0  0  0  0  0  0
  145.0475  136.1794  150.8663 C   0  0  0  0  0  0  0  0  0  0  0  0
  145.3140  134.7844  150.4284 N   0  3  0  0  0  0  0  0  0  0  0  0
  144.0758  134.0873  149.9919 C   0  0  0  0  0  0  0  0  0  0  0  0
  144.3907  132.6978  149.4129 C   0  0  0  0  0  0  0  0  0  0  0  0
  145.1671  131.8445  150.4236 C   0  0  0  0  0  0  0  0  0  0  0  0
  146.4255  132.5937  150.8792 C   0  0  0  0  0  0  0  0  0  0  0  0
  146.0694  133.9848  151.4303 C   0  0  0  0  0  0  0  0  0  0  0  0
  149.1379  139.4781  153.8082 N   0  0  0  0  0  0  0  0  0  0  0  0
  149.9528  139.9163  154.8851 C   0  0  0  0  0  0  0  0  0  0  0  0
  151.2630  140.1694  154.7857 N   0  0  0  0  0  0  0  0  0  0  0  0
  151.8097  140.5883  156.0013 C   0  0  0  0  0  0  0  0  0  0  0  0
  150.8956  140.6457  157.0236 C   0  0  0  0  0  0  0  0  0  0  0  0
  149.3019  140.1740  156.4971 S   0  0  0  0  0  0  0  0  0  0  0  0
  148.0348  138.8660  151.8464 H   0  0  0  0  0  0  0  0  0  0  0  0
  146.0469  137.2473  153.2263 H   0  0  0  0  0  0  0  0  0  0  0  0
  145.3913  138.5669  152.2981 H   0  0  0  0  0  0  0  0  0  0  0  0
  147.2001  136.3291  151.1815 H   0  0  0  0  0  0  0  0  0  0  0  0
  145.6792  138.2716  149.8013 H   0  0  0  0  0  0  0  0  0  0  0  0
  144.4402  136.1584  151.7725 H   0  0  0  0  0  0  0  0  0  0  0  0
  144.4475  136.6936  150.1135 H   0  0  0  0  0  0  0  0  0  0  0  0
  143.3907  133.9976  150.8364 H   0  0  0  0  0  0  0  0  0  0  0  0
  143.5670  134.6813  149.2315 H   0  0  0  0  0  0  0  0  0  0  0  0
  143.4664  132.1926  149.1315 H   0  0  0  0  0  0  0  0  0  0  0  0
  144.9751  132.8056  148.4980 H   0  0  0  0  0  0  0  0  0  0  0  0
  144.5352  131.6254  151.2853 H   0  0  0  0  0  0  0  0  0  0  0  0
  145.4369  130.8854  149.9809 H   0  0  0  0  0  0  0  0  0  0  0  0
  146.9487  132.0136  151.6398 H   0  0  0  0  0  0  0  0  0  0  0  0
  147.1151  132.6971  150.0401 H   0  0  0  0  0  0  0  0  0  0  0  0
  146.9892  134.4962  151.7111 H   0  0  0  0  0  0  0  0  0  0  0  0
  145.4751  133.8845  152.3401 H   0  0  0  0  0  0  0  0  0  0  0  0
  149.5067  139.6581  152.8862 H   0  0  0  0  0  0  0  0  0  0  0  0
  152.8622  140.8263  156.0492 H   0  0  0  0  0  0  0  0  0  0  0  0
  151.0626  140.9363  158.0501 H   0  0  0  0  0  0  0  0  0  0  0  0
  145.8978  134.8583  149.6069 H   0  0  0  0  0  0  0  0  0  0  0  0
  1  2  2  0  0  0  0
  2  3  1  0  0  0  0
  2 14  1  0  0  0  0
  3  4  1  0  0  0  0
  3 20  1  0  0  0  0
  4  5  1  0  0  0  0
  4 21  1  0  0  0  0
  4 22  1  0  0  0  0
  5  6  1  0  0  0  0
  5  7  1  0  0  0  0
  5 23  1  0  0  0  0
  6 24  1  0  0  0  0
  7  8  1  0  0  0  0
  7 25  1  0  0  0  0
  7 26  1  0  0  0  0
  8 13  1  0  0  0  0
  8  9  1  0  0  0  0
  8 40  1  0  0  0  0
  9 10  1  0  0  0  0
  9 27  1  0  0  0  0
  9 28  1  0  0  0  0
 10 11  1  0  0  0  0
 10 29  1  0  0  0  0
 10 30  1  0  0  0  0
 11 12  1  0  0  0  0
 11 31  1  0  0  0  0
 11 32  1  0  0  0  0
 12 13  1  0  0  0  0
 12 33  1  0  0  0  0
 12 34  1  0  0  0  0
 13 35  1  0  0  0  0
 13 36  1  0  0  0  0
 14 15  1  0  0  0  0
 14 37  1  0  0  0  0
 15 19  1  0  0  0  0
 15 16  2  0  0  0  0
 16 17  1  0  0  0  0
 17 18  2  0  0  0  0
 17 38  1  0  0  0  0
 18 19  1  0  0  0  0
 18 39  1  0  0  0  0
M  CHG  1   8   1
M  END
> <s_m_source_file>
AV-unprocessed.smi

> <i_m_source_file_index>
1268

> <i_lp_mmshare_version>
43012

> <i_f3d_flags>
0

> <s_epik_input>
czFbY0hdW2NIXW5jMVtOSF1DKD1PKVtOSF1bQ0gyXVtDQEhdKFtPSF0pW0NIMl1OMltDSDJdW0NIMl1bQ0gyXVtDSDJdW0NIMl0y

> <s_epik_cmdline>
J2VwaWtfcHl0aG9uJywgJy1waCcsICc3LjAnLCAnLXRuJywgJzgnLCAnLW1hJywgJzIwMCcsICctbWV0YWxfYmluZGluZycsICctaW1hZScsICc8aW5maWxlLm1hZT4nLCAnLW9tYWUnLCAnPG91dGZpbGUubWFlPic=

> <r_lp_tautomer_probability>
0.999

> <r_epik_Ionization_Penalty>
0.00539631

> <r_epik_Ionization_Penalty_Charging>
0.00525788

> <r_epik_Ionization_Penalty_Neutral>
0.000138432

> <r_epik_State_Penalty>
0.0038355

> <r_epik_Charging_Adjusted_Penalty>
0.00909338

> <i_epik_Tot_Q>
1

> <i_epik_Tot_abs_Q>
1

> <r_epik_Metal_State_Penalty>
0.0500806

> <b_epik_Metal_Only>
0

> <s_lp_Force_Field>
OPLS_2005

> <r_lp_Energy>
16.7111

> <b_lp_Chiralities_Consistent>
1

> <s_lp_Variant>
AV-unprocessed.smi:1268-1

> <Gold.Version>
5.8.1

> <Gold.Id.Protein>
6NUR|6NUR_protein|mol2

> <Gold.PLP.Fitness>
46.9972

> <Gold.PLP.PLP>
-32.0973

> <Gold.PLP.part.hbond>
-6.6883

> <Gold.PLP.part.metal>
0.0000

> <Gold.PLP.part.buried>
3.8202

> <Gold.PLP.part.nonpolar>
-27.9659

> <Gold.PLP.part.repulsive>
0.3541

> <Gold.PLP.ligand.clash>
0.0000

> <Gold.PLP.ligand.torsion>
0.8996

> <Gold.PLP.Chemscore.Hbond>
5.5590

> <Gold.PLP.Chemscore.CHOScore>
0.0000

> <Gold.PLP.Chemscore.Metal>
0.0000

> <Gold.Chemscore.Hbonds>
donor molecule, donor type, donor heavy atom, donor atom, acceptor molecule, acceptor atom, score
      L1  H     3    20       P1  7957  0.92
      L1  H     6    24       P1 10171  1.00
      L1  H     8    40       P1  7921  1.00
      L1  H    14    37       P1  7957  1.00
      P1  H  7954  7966       L1     6  0.61
      P1  H  7989  7998       L1    16  0.94

> <Gold.PLP.Chemscore.Internal.Correction>
0.0222

> <Gold.Rescore>
     Score         DG    S(hbond)    S(metal)    S(lipo)     H(rot)  DE(clash)    DE(int)     intcor
     20.58     -24.41       4.79        0.00      80.67       2.54       1.98       1.85       ----

> <Gold.Chemscore.Fitness>
20.5826

> <Gold.Chemscore.DG>
-24.4118

> <Gold.Chemscore.ZeroCoef>
-5.4800

> <Gold.Chemscore.Hbond>
4.7880

> <Gold.Chemscore.Metal>
0.0000

> <Gold.Chemscore.Lipo>
80.6652

> <Gold.Chemscore.Internal_Hbond>
0.0000

> <Gold.Chemscore.DEClash>
1.9776

> <Gold.Chemscore.DEInternal>
1.8516

> <Gold.Chemscore.Rot>
2.5383

> <Gold.Chemscore.Internal.Correction>
   9.000000E+99

> <Gold.Chemscore.Hbonds>
donor molecule, donor type, donor heavy atom, donor atom, acceptor molecule, acceptor atom, score
      L1  H     3    20       P1  7957  0.78
      L1  H     6    24       P1 10171  1.00
      L1  H     8    40       P1  7921  0.77
      L1  H    14    37       P1  7957  1.00
      P1  H  7954  7966       L1     6  0.18
      P1  H  7989  7998       L1    16  0.77

> <Gold.Chemscore.Hbond.Weighted>
-15.9920

> <Gold.Chemscore.Metal.Weighted>
-0.0000

> <Gold.Chemscore.Lipo.Weighted>
-9.4378

> <Gold.Chemscore.Internal_Hbond.Weighted>
0.0000

> <Gold.Chemscore.DEClash.Weighted>
1.9776

> <Gold.Chemscore.DEInternal.Weighted>
1.8516

> <Gold.Chemscore.Rot.Weighted>
6.4981

> <Gold.Chemscore.Internal.Correction.Weighted>
   9.000000E+99

> <Gold.Protein.RotatedTorsions>
[ 6907 6896 6895 6894 ] final  101.07 input  -60.11 | X-H torsion
[ 7974 7965 7964 7962 ] final   -7.09 input  175.53 | X-H torsion
[ 8008 7997 7996 7995 ] final -121.88 input   59.86 | X-H torsion
[ 10167 10162 10161 10158 ] final  146.09 input  -65.29 | X-H torsion
[ 10718 10713 10712 10709 ] final -139.45 input   66.30 | X-H torsion
[ 10763 10752 10751 10750 ] final   77.27 input  -60.55 | X-H torsion
[ 11005 11000 10999 10996 ] final -108.66 input  -57.11 | X-H torsion

> <Gold.Protein.ActiveResidues>
 VAL166  LYS551  ARG553  GLY616  TRP617  ASP618  TYR619  PRO620  LYS621  CYS622 
 ASP623  PHE694  ASN695  SER759  ASP760  ASP761  ALA762  ILE779  LEU786  VAL792 
 PHE793  MET794  SER795  GLU796  ALA797  LYS798  CYS799  TRP800  GLU811  SER814 

> <Gold.Protein.RotatedAtoms>
  152.5358  134.0181  159.7968 H   0  0  0  0  0  0  0  0  0  0  0  0  # atno 6907 bound_to 6896
  151.0372  133.5730  159.2662 H   0  0  0  0  0  0  0  0  0  0  0  0  # atno 6908 bound_to 6896
  151.2714  135.0693  159.9189 H   0  0  0  0  0  0  0  0  0  0  0  0  # atno 6909 bound_to 6896
  146.2315  140.2267  142.8339 H   0  0  0  0  0  0  0  0  0  0  0  0  # atno 7974 bound_to 7965
  155.1552  140.0404  157.2830 H   0  0  0  0  0  0  0  0  0  0  0  0  # atno 8008 bound_to 7997
  154.6376  140.2539  155.7333 H   0  0  0  0  0  0  0  0  0  0  0  0  # atno 8009 bound_to 7997
  156.2516  140.2862  156.0755 H   0  0  0  0  0  0  0  0  0  0  0  0  # atno 8010 bound_to 7997
  139.4913  144.5854  151.6788 H   0  0  0  0  0  0  0  0  0  0  0  0  # atno 10167 bound_to 10162
  156.3109  130.7481  151.1557 H   0  0  0  0  0  0  0  0  0  0  0  0  # atno 10718 bound_to 10713
  153.0786  135.4920  154.8456 H   0  0  0  0  0  0  0  0  0  0  0  0  # atno 10763 bound_to 10752
  154.7121  135.3022  154.9183 H   0  0  0  0  0  0  0  0  0  0  0  0  # atno 10764 bound_to 10752
  153.9874  135.6782  153.4805 H   0  0  0  0  0  0  0  0  0  0  0  0  # atno 10765 bound_to 10752
  141.0889  133.9089  157.2120 H   0  0  0  0  0  0  0  0  0  0  0  0  # atno 11005 bound_to 11000
  144.9590  140.8255  143.5525 LP  0  0  0  0  0  0  0  0  0  0  0  0  # atno 17320 bound_to 7965
  145.2235  139.2148  143.5080 LP  0  0  0  0  0  0  0  0  0  0  0  0  # atno 17321 bound_to 7965
  140.5469  144.0488  150.6111 LP  0  0  0  0  0  0  0  0  0  0  0  0  # atno 17342 bound_to 10162
  140.3529  143.2952  152.0467 LP  0  0  0  0  0  0  0  0  0  0  0  0  # atno 17343 bound_to 10162
  157.7391  131.0533  150.5255 LP  0  0  0  0  0  0  0  0  0  0  0  0  # atno 17370 bound_to 10713
  156.5395  130.4204  149.6161 LP  0  0  0  0  0  0  0  0  0  0  0  0  # atno 17371 bound_to 10713
  139.9712  135.0127  156.9517 LP  0  0  0  0  0  0  0  0  0  0  0  0  # atno 17394 bound_to 11000
  140.5297  134.0825  155.7312 LP  0  0  0  0  0  0  0  0  0  0  0  0  # atno 17395 bound_to 11000

$$$$
