#       Name:                AV-unprocessed.smi:19
#       Creating user name   scv26
#       Creation time:       Thu Mar 26 15:27:37 2020


#       File generated by GOLD software.
#

@<TRIPOS>MOLECULE
AV-unprocessed.smi:19
    69    72     1
SMALL
NO_CHARGES


@<TRIPOS>ATOM
      1 ****        -5.1659   0.2795  -5.1680 C.3            1 S1                 0.0000
      2 ****        -4.5532   0.8244  -4.0126 O.3            1 S1                 0.0000
      3 ****        -4.8323   0.0717  -2.8426 C.3            1 S1                 0.0000
      4 ****        -4.1569   0.7180  -1.6249 C.3            1 S1                 0.0000
      5 ****        -2.6373   0.8939  -1.8016 C.3            1 S1                 0.0000
      6 ****        -2.0775   1.5984  -0.6543 N.3            1 S1                 0.0000
      7 ****        -0.7246   1.5431  -0.5529 C.ar           1 S1                 0.0000
      8 ****         0.0090   2.6871  -0.6114 N.ar           1 S1                 0.0000
      9 ****         1.3414   2.6411  -0.5265 C.ar           1 S1                 0.0000
     10 ****         2.1310   1.5766  -0.3774 N.ar           1 S1                 0.0000
     11 ****         1.4036   0.4259  -0.3018 C.ar           1 S1                 0.0000
     12 ****        -0.0144   0.3204  -0.3833 C.ar           1 S1                 0.0000
     13 ****        -0.3951  -1.0108  -0.2644 N.2            1 S1                 0.0000
     14 ****         0.7319  -1.6550  -0.1348 C.2            1 S1                 0.0000
     15 ****         1.8630  -0.8693  -0.1296 N.pl3          1 S1                 0.0000
     16 ****         3.2407  -1.3271  -0.0033 C.3            1 S1                 0.0000
     17 ****         3.7462  -1.5026   1.4602 C.3            1 S1                 0.0000
     18 ****         3.7047  -0.1465   2.2215 C.3            1 S1                 0.0000
     19 ****         4.5323   0.8298   1.6219 O.3            1 S1                 0.0000
     20 ****         2.8668  -2.5404   2.2040 C.3            1 S1                 0.0000
     21 ****         3.4833  -3.0159   3.5333 C.3            1 S1                 0.0000
     22 ****         4.7905  -3.5292   3.3140 O.3            1 S1                 0.0000
     23 ****         5.6830  -2.5549   2.7897 C.3            1 S1                 0.0000
     24 ****         5.1838  -2.0804   1.4138 C.3            1 S1                 0.0000
     25 ****        -2.7337   2.8781  -0.3973 C.3            1 S1                 0.0000
     26 ****        -4.2575   2.6957  -0.2558 C.3            1 S1                 0.0000
     27 ****        -4.6754   2.0587   1.0811 C.3            1 S1                 0.0000
     28 ****        -4.7771   1.9799  -1.3786 O.3            1 S1                 0.0000
     29 ****        -4.9171   0.8885  -6.0370 H              1 S1                 0.0000
     30 ****        -6.2520   0.2639  -5.0682 H              1 S1                 0.0000
     31 ****        -4.8166  -0.7363  -5.3580 H              1 S1                 0.0000
     32 ****        -5.9095   0.0094  -2.6801 H              1 S1                 0.0000
     33 ****        -4.4635  -0.9475  -2.9683 H              1 S1                 0.0000
     34 ****        -4.3403   0.0649  -0.7716 H              1 S1                 0.0000
     35 ****        -2.1735  -0.0818  -1.9397 H              1 S1                 0.0000
     36 ****        -2.4242   1.4739  -2.7005 H              1 S1                 0.0000
     37 ****         1.8475   3.5933  -0.5873 H              1 S1                 0.0000
     38 ****         0.7684  -2.7298  -0.0320 H              1 S1                 0.0000
     39 ****         3.3190  -2.2735  -0.5400 H              1 S1                 0.0000
     40 ****         3.8823  -0.6319  -0.5460 H              1 S1                 0.0000
     41 ****         2.6875   0.2425   2.2674 H              1 S1                 0.0000
     42 ****         4.0289  -0.2541   3.2550 H              1 S1                 0.0000
     43 ****         4.4436   1.6372   2.1049 H              1 S1                 0.0000
     44 ****         1.8728  -2.1354   2.3961 H              1 S1                 0.0000
     45 ****         2.7219  -3.4144   1.5673 H              1 S1                 0.0000
     46 ****         3.5127  -2.2152   4.2727 H              1 S1                 0.0000
     47 ****         2.8691  -3.8078   3.9619 H              1 S1                 0.0000
     48 ****         5.7923  -1.7238   3.4872 H              1 S1                 0.0000
     49 ****         6.6696  -3.0072   2.6887 H              1 S1                 0.0000
     50 ****         5.2101  -2.9351   0.7364 H              1 S1                 0.0000
     51 ****         5.8817  -1.3539   0.9967 H              1 S1                 0.0000
     52 ****        -2.3307   3.3392   0.5055 H              1 S1                 0.0000
     53 ****        -2.5232   3.5552  -1.2264 H              1 S1                 0.0000
     54 ****        -4.7144   3.6851  -0.2895 H              1 S1                 0.0000
     55 ****        -4.3877   2.6956   1.9180 H              1 S1                 0.0000
     56 ****        -4.2085   1.0872   1.2401 H              1 S1                 0.0000
     57 ****        -5.7561   1.9234   1.1264 H              1 S1                 0.0000
     58 ****        -4.8889   1.7572  -3.8813 LP             1 S1                 0.0000
     59 ****        -3.5633   0.8431  -4.1532 LP             1 S1                 0.0000
     60 ****        -2.3242   1.0665   0.1559 LP             1 S1                 0.0000
     61 ****        -0.4520   3.5680  -0.7186 LP             1 S1                 0.0000
     62 ****         3.1289   1.6172  -0.3274 LP             1 S1                 0.0000
     63 ****        -1.3210  -1.3885  -0.2756 LP             1 S1                 0.0000
     64 ****         4.2520   0.9723   0.6727 LP             1 S1                 0.0000
     65 ****         5.4845   0.5254   1.6462 LP             1 S1                 0.0000
     66 ****         4.7311  -4.2894   2.6670 LP             1 S1                 0.0000
     67 ****         5.1542  -3.8603   4.1847 LP             1 S1                 0.0000
     68 ****        -5.7521   1.8218  -1.2223 LP             1 S1                 0.0000
     69 ****        -4.6579   2.5489  -2.1922 LP             1 S1                 0.0000
@<TRIPOS>BOND
    1    1    2 1     
    2    1   29 1     
    3    1   30 1     
    4    1   31 1     
    5    2    3 1     
    6    3    4 1     
    7    3   32 1     
    8    3   33 1     
    9    4   28 1     
   10    4    5 1     
   11    4   34 1     
   12    5    6 1     
   13    5   35 1     
   14    5   36 1     
   15    6    7 1     
   16    6   25 1     
   17    7   12 ar    
   18    7    8 ar    
   19    8    9 ar    
   20    9   10 ar    
   21    9   37 1     
   22   10   11 ar    
   23   11   15 1     
   24   11   12 ar    
   25   12   13 1     
   26   13   14 2     
   27   14   15 1     
   28   14   38 1     
   29   15   16 1     
   30   16   17 1     
   31   16   39 1     
   32   16   40 1     
   33   17   24 1     
   34   17   18 1     
   35   17   20 1     
   36   18   19 1     
   37   18   41 1     
   38   18   42 1     
   39   19   43 1     
   40   20   21 1     
   41   20   44 1     
   42   20   45 1     
   43   21   22 1     
   44   21   46 1     
   45   21   47 1     
   46   22   23 1     
   47   23   24 1     
   48   23   48 1     
   49   23   49 1     
   50   24   50 1     
   51   24   51 1     
   52   25   26 1     
   53   25   52 1     
   54   25   53 1     
   55   26   27 1     
   56   26   28 1     
   57   26   54 1     
   58   27   55 1     
   59   27   56 1     
   60   27   57 1     
   61    2   58 1     
   62    2   59 1     
   63    6   60 1     
   64    8   61 1     
   65   10   62 1     
   66   13   63 1     
   67   19   64 1     
   68   19   65 1     
   69   22   66 1     
   70   22   67 1     
   71   28   68 1     
   72   28   69 1     
@<TRIPOS>SUBSTRUCTURE
      1 S1             1
@<TRIPOS>SET
LONE_PAIRS      STATIC     ATOMS    <user>   **** ""
12 58 59 60 61 62 63 64 65 66 67 68 69
DONOR_HYDROGENS      STATIC     ATOMS    <user>   **** ""
1 43
ATOM$BLUE        STATIC     ATOMS    COLORGROUP SYSTEM
12 58 59 60 61 62 63 64 65 66 67 68 69
ATOM$RED        STATIC     ATOMS    COLORGROUP SYSTEM
1 43
