AV-unprocessed.smi:1229|AV-procd|sdf|5150|dock7
  -GOLD-   22720 4223D 1   1.00000     0.00000
 Structure written by MMmdl.
 46 47  0  0  0  0  0  0  0  0  2 V2000
  151.0279  144.8628  158.3907 C   0  0  0  0  0  0  0  0  0  0  0  0
  151.6850  143.5307  158.7139 C   0  0  0  0  0  0  0  0  0  0  0  0
  152.5852  143.4505  159.7977 C   0  0  0  0  0  0  0  0  0  0  0  0
  153.1919  142.2185  160.0956 C   0  0  0  0  0  0  0  0  0  0  0  0
  152.8717  141.1118  159.2908 C   0  0  0  0  0  0  0  0  0  0  0  0
  152.0132  141.1794  158.2527 N   0  0  0  0  0  0  0  0  0  0  0  0
  151.4178  142.3613  157.9525 C   0  0  0  0  0  0  0  0  0  0  0  0
  150.5027  142.5074  156.8717 N   0  0  0  0  0  0  0  0  0  0  0  0
  150.2823  141.6700  155.8429 C   0  0  0  0  0  0  0  0  0  0  0  0
  150.8520  140.5934  155.6617 O   0  0  0  0  0  0  0  0  0  0  0  0
  149.3507  142.1574  155.0098 N   0  0  0  0  0  0  0  0  0  0  0  0
  148.8820  141.4911  153.7982 C   0  0  0  0  0  0  0  0  0  0  0  0
  147.4008  141.0725  153.9049 C   0  0  2  0  0  0  0  0  0  0  0  0
  146.9868  140.5948  152.6398 O   0  0  0  0  0  0  0  0  0  0  0  0
  146.4976  142.2675  154.2713 C   0  0  0  0  0  0  0  0  0  0  0  0
  145.1346  141.8424  154.6819 N   0  3  0  0  0  0  0  0  0  0  0  0
  144.3160  142.9751  155.1869 C   0  0  0  0  0  0  0  0  0  0  0  0
  142.8676  142.5347  155.4608 C   0  0  0  0  0  0  0  0  0  0  0  0
  142.8253  141.3514  156.4363 C   0  0  0  0  0  0  0  0  0  0  0  0
  143.7067  140.2094  155.9140 C   0  0  0  0  0  0  0  0  0  0  0  0
  145.1370  140.7018  155.6375 C   0  0  0  0  0  0  0  0  0  0  0  0
  151.3368  145.6385  159.0918 H   0  0  0  0  0  0  0  0  0  0  0  0
  149.9421  144.7767  158.4438 H   0  0  0  0  0  0  0  0  0  0  0  0
  151.3021  145.1895  157.3872 H   0  0  0  0  0  0  0  0  0  0  0  0
  152.8101  144.3211  160.3965 H   0  0  0  0  0  0  0  0  0  0  0  0
  153.8847  142.1245  160.9189 H   0  0  0  0  0  0  0  0  0  0  0  0
  153.3157  140.1466  159.4848 H   0  0  0  0  0  0  0  0  0  0  0  0
  149.9538  143.3540  156.8845 H   0  0  0  0  0  0  0  0  0  0  0  0
  148.9302  143.0479  155.2320 H   0  0  0  0  0  0  0  0  0  0  0  0
  149.0182  142.1765  152.9597 H   0  0  0  0  0  0  0  0  0  0  0  0
  149.5181  140.6303  153.5872 H   0  0  0  0  0  0  0  0  0  0  0  0
  147.2900  140.2766  154.6403 H   0  0  0  0  0  0  0  0  0  0  0  0
  146.5348  141.2926  152.1891 H   0  0  0  0  0  0  0  0  0  0  0  0
  146.9425  142.8550  155.0759 H   0  0  0  0  0  0  0  0  0  0  0  0
  146.4387  142.9338  153.4088 H   0  0  0  0  0  0  0  0  0  0  0  0
  144.7678  143.3770  156.0952 H   0  0  0  0  0  0  0  0  0  0  0  0
  144.3082  143.7812  154.4521 H   0  0  0  0  0  0  0  0  0  0  0  0
  142.2933  143.3699  155.8629 H   0  0  0  0  0  0  0  0  0  0  0  0
  142.3881  142.2529  154.5224 H   0  0  0  0  0  0  0  0  0  0  0  0
  143.1768  141.6694  157.4187 H   0  0  0  0  0  0  0  0  0  0  0  0
  141.7992  141.0067  156.5680 H   0  0  0  0  0  0  0  0  0  0  0  0
  143.7262  139.3936  156.6371 H   0  0  0  0  0  0  0  0  0  0  0  0
  143.2763  139.8013  154.9984 H   0  0  0  0  0  0  0  0  0  0  0  0
  145.7248  139.8733  155.2445 H   0  0  0  0  0  0  0  0  0  0  0  0
  145.6129  141.0087  156.5704 H   0  0  0  0  0  0  0  0  0  0  0  0
  144.6783  141.5223  153.8394 H   0  0  0  0  0  0  0  0  0  0  0  0
  1  2  1  0  0  0  0
  1 22  1  0  0  0  0
  1 23  1  0  0  0  0
  1 24  1  0  0  0  0
  2  7  1  0  0  0  0
  2  3  2  0  0  0  0
  3  4  1  0  0  0  0
  3 25  1  0  0  0  0
  4  5  2  0  0  0  0
  4 26  1  0  0  0  0
  5  6  1  0  0  0  0
  5 27  1  0  0  0  0
  6  7  2  0  0  0  0
  7  8  1  0  0  0  0
  8  9  1  0  0  0  0
  8 28  1  0  0  0  0
  9 10  2  0  0  0  0
  9 11  1  0  0  0  0
 11 12  1  0  0  0  0
 11 29  1  0  0  0  0
 12 13  1  0  0  0  0
 12 30  1  0  0  0  0
 12 31  1  0  0  0  0
 13 14  1  0  0  0  0
 13 15  1  0  0  0  0
 13 32  1  0  0  0  0
 14 33  1  0  0  0  0
 15 16  1  0  0  0  0
 15 34  1  0  0  0  0
 15 35  1  0  0  0  0
 16 21  1  0  0  0  0
 16 17  1  0  0  0  0
 16 46  1  0  0  0  0
 17 18  1  0  0  0  0
 17 36  1  0  0  0  0
 17 37  1  0  0  0  0
 18 19  1  0  0  0  0
 18 38  1  0  0  0  0
 18 39  1  0  0  0  0
 19 20  1  0  0  0  0
 19 40  1  0  0  0  0
 19 41  1  0  0  0  0
 20 21  1  0  0  0  0
 20 42  1  0  0  0  0
 20 43  1  0  0  0  0
 21 44  1  0  0  0  0
 21 45  1  0  0  0  0
M  CHG  1  16   1
M  END
> <s_m_source_file>
AV-unprocessed.smi

> <i_m_source_file_index>
1229

> <i_lp_mmshare_version>
43012

> <i_f3d_flags>
0

> <s_epik_input>
W0NIM11jMVtjSF1bY0hdW2NIXW5jMVtOSF1DKD1PKVtOSF1bQ0gyXVtDQEhdKFtPSF0pW0NIMl1OMltDSDJdW0NIMl1bQ0gyXVtDSDJdW0NIMl0y

> <s_epik_cmdline>
J2VwaWtfcHl0aG9uJywgJy1waCcsICc3LjAnLCAnLXRuJywgJzgnLCAnLW1hJywgJzIwMCcsICctbWV0YWxfYmluZGluZycsICctaW1hZScsICc8aW5maWxlLm1hZT4nLCAnLW9tYWUnLCAnPG91dGZpbGUubWFlPic=

> <r_epik_Ionization_Penalty>
0.00511007

> <r_epik_Ionization_Penalty_Charging>
0.00506051

> <r_epik_Ionization_Penalty_Neutral>
4.95577e-05

> <r_epik_State_Penalty>
0.00368188

> <r_epik_Charging_Adjusted_Penalty>
0.0087424

> <i_epik_Tot_Q>
1

> <i_epik_Tot_abs_Q>
1

> <r_epik_Metal_State_Penalty>
-0

> <b_epik_Metal_Only>
0

> <s_lp_Force_Field>
OPLS_2005

> <r_lp_Energy>
20.9384

> <b_lp_Chiralities_Consistent>
1

> <s_lp_Variant>
AV-unprocessed.smi:1229-1

> <Gold.Version>
5.8.1

> <Gold.Id.Protein>
6NUR|6NUR_protein|mol2

> <Gold.PLP.Fitness>
50.4464

> <Gold.PLP.PLP>
-37.8884

> <Gold.PLP.part.hbond>
-4.8945

> <Gold.PLP.part.metal>
0.0000

> <Gold.PLP.part.buried>
-1.4956

> <Gold.PLP.part.nonpolar>
-30.6274

> <Gold.PLP.part.repulsive>
0.3114

> <Gold.PLP.ligand.clash>
0.0000

> <Gold.PLP.ligand.torsion>
0.2440

> <Gold.PLP.Chemscore.Hbond>
4.3283

> <Gold.PLP.Chemscore.CHOScore>
0.0000

> <Gold.PLP.Chemscore.Metal>
0.0000

> <Gold.Chemscore.Hbonds>
donor molecule, donor type, donor heavy atom, donor atom, acceptor molecule, acceptor atom, score
      L1  H     8    28       P1  8028  0.70
      L1  H    11    29       P1  8028  1.00
      L1  H    16    46       P1 10175  1.80
      P1  H  7989  7998       L1    10  0.28

> <Gold.PLP.Chemscore.Internal.Correction>
0.0609

> <Gold.Rescore>
     Score         DG    S(hbond)    S(metal)    S(lipo)     H(rot)  DE(clash)    DE(int)     intcor
     16.08     -19.19       2.88        0.00      85.49       2.31       1.66       1.46       ----

> <Gold.Chemscore.Fitness>
16.0826

> <Gold.Chemscore.DG>
-19.1947

> <Gold.Chemscore.ZeroCoef>
-5.4800

> <Gold.Chemscore.Hbond>
2.8819

> <Gold.Chemscore.Metal>
0.0000

> <Gold.Chemscore.Lipo>
85.4855

> <Gold.Chemscore.Internal_Hbond>
0.0000

> <Gold.Chemscore.DEClash>
1.6564

> <Gold.Chemscore.DEInternal>
1.4558

> <Gold.Chemscore.Rot>
2.3095

> <Gold.Chemscore.Internal.Correction>
   9.000000E+99

> <Gold.Chemscore.Hbonds>
donor molecule, donor type, donor heavy atom, donor atom, acceptor molecule, acceptor atom, score
      L1  H     8    28       P1  8028  0.68
      L1  H    11    29       P1  8028  0.99
      L1  H    16    46       P1 10175  0.18
      P1  H  7989  7998       L1    10  0.07

> <Gold.Chemscore.Hbond.Weighted>
-9.6254

> <Gold.Chemscore.Metal.Weighted>
-0.0000

> <Gold.Chemscore.Lipo.Weighted>
-10.0018

> <Gold.Chemscore.Internal_Hbond.Weighted>
0.0000

> <Gold.Chemscore.DEClash.Weighted>
1.6564

> <Gold.Chemscore.DEInternal.Weighted>
1.4558

> <Gold.Chemscore.Rot.Weighted>
5.9124

> <Gold.Chemscore.Internal.Correction.Weighted>
   9.000000E+99

> <Gold.Protein.RotatedTorsions>
[ 6907 6896 6895 6894 ] final   68.45 input  -60.11 | X-H torsion
[ 7974 7965 7964 7962 ] final   37.59 input  175.53 | X-H torsion
[ 8008 7997 7996 7995 ] final  -28.36 input   59.86 | X-H torsion
[ 10167 10162 10161 10158 ] final -169.80 input  -65.29 | X-H torsion
[ 10718 10713 10712 10709 ] final -108.70 input   66.30 | X-H torsion
[ 10763 10752 10751 10750 ] final  -37.45 input  -60.55 | X-H torsion
[ 11005 11000 10999 10996 ] final  117.76 input  -57.11 | X-H torsion

> <Gold.Protein.ActiveResidues>
 VAL166  LYS551  ARG553  GLY616  TRP617  ASP618  TYR619  PRO620  LYS621  CYS622 
 ASP623  PHE694  ASN695  SER759  ASP760  ASP761  ALA762  ILE779  LEU786  VAL792 
 PHE793  MET794  SER795  GLU796  ALA797  LYS798  CYS799  TRP800  GLU811  SER814 

> <Gold.Protein.RotatedAtoms>
  152.4621  134.5161  159.9768 H   0  0  0  0  0  0  0  0  0  0  0  0  # atno 6907 bound_to 6896
  151.5207  133.3461  159.2909 H   0  0  0  0  0  0  0  0  0  0  0  0  # atno 6908 bound_to 6896
  150.8588  134.7964  159.7129 H   0  0  0  0  0  0  0  0  0  0  0  0  # atno 6909 bound_to 6896
  146.1126  139.5875  142.9342 H   0  0  0  0  0  0  0  0  0  0  0  0  # atno 7974 bound_to 7965
  154.4335  140.1847  156.1078 H   0  0  0  0  0  0  0  0  0  0  0  0  # atno 8008 bound_to 7997
  156.0242  140.3337  155.7045 H   0  0  0  0  0  0  0  0  0  0  0  0  # atno 8009 bound_to 7997
  155.5933  140.0633  157.2743 H   0  0  0  0  0  0  0  0  0  0  0  0  # atno 8010 bound_to 7997
  139.5900  144.1234  152.1623 H   0  0  0  0  0  0  0  0  0  0  0  0  # atno 10167 bound_to 10162
  156.0499  130.5726  150.7998 H   0  0  0  0  0  0  0  0  0  0  0  0  # atno 10718 bound_to 10713
  153.8965  135.6807  153.4757 H   0  0  0  0  0  0  0  0  0  0  0  0  # atno 10763 bound_to 10752
  153.1152  135.4764  154.9101 H   0  0  0  0  0  0  0  0  0  0  0  0  # atno 10764 bound_to 10752
  154.7596  135.3207  154.8357 H   0  0  0  0  0  0  0  0  0  0  0  0  # atno 10765 bound_to 10752
  139.9086  134.9613  156.7401 H   0  0  0  0  0  0  0  0  0  0  0  0  # atno 11005 bound_to 11000
  145.5633  141.0402  143.2214 LP  0  0  0  0  0  0  0  0  0  0  0  0  # atno 17320 bound_to 7965
  144.7524  139.7159  143.7267 LP  0  0  0  0  0  0  0  0  0  0  0  0  # atno 17321 bound_to 7965
  140.0806  144.5704  150.7125 LP  0  0  0  0  0  0  0  0  0  0  0  0  # atno 17342 bound_to 10162
  140.7165  143.2549  151.4418 LP  0  0  0  0  0  0  0  0  0  0  0  0  # atno 17343 bound_to 10162
  157.5414  131.0941  150.9821 LP  0  0  0  0  0  0  0  0  0  0  0  0  # atno 17370 bound_to 10713
  157.0103  130.5634  149.5320 LP  0  0  0  0  0  0  0  0  0  0  0  0  # atno 17371 bound_to 10713
  140.6857  133.9435  155.7936 LP  0  0  0  0  0  0  0  0  0  0  0  0  # atno 17394 bound_to 11000
  141.0478  134.0528  157.3822 LP  0  0  0  0  0  0  0  0  0  0  0  0  # atno 17395 bound_to 11000

$$$$
