#       Name:                AV-unprocessed.smi:1867
#       Creating user name   scv26
#       Creation time:       Fri Mar 27 09:29:22 2020


#       File generated by GOLD software.
#

@<TRIPOS>MOLECULE
AV-unprocessed.smi:1867
    55    58     1
SMALL
NO_CHARGES


@<TRIPOS>ATOM
      1 ****        -0.1955   2.5542   0.6306 O.2            1 S1                 0.0000
      2 ****        -0.6945   1.4521   0.4096 C.2            1 S1                 0.0000
      3 ****         0.1148   0.4280   0.0412 N.am           1 S1                 0.0000
      4 ****         1.5320   0.4008  -0.0526 C.ar           1 S1                 0.0000
      5 ****         2.1195  -0.5117  -0.9530 C.ar           1 S1                 0.0000
      6 ****         3.5236  -0.5838  -1.0591 C.ar           1 S1                 0.0000
      7 ****         4.3312   0.2489  -0.2487 C.ar           1 S1                 0.0000
      8 ****         5.7377   0.2364  -0.3052 N.pl3          1 S1                 0.0000
      9 ****         6.5467   0.9493   0.6704 C.3            1 S1                 0.0000
     10 ****         7.9845   0.5512   0.3412 C.3            1 S1                 0.0000
     11 ****         7.8380  -0.8798  -0.1770 C.3            1 S1                 0.0000
     12 ****         6.4669  -0.8933  -0.8637 C.3            1 S1                 0.0000
     13 ****         3.7236   1.0996   0.6123 N.pl3          1 S1                 1.0000
     14 ****         2.3835   1.2023   0.7436 C.ar           1 S1                 0.0000
     15 ****        -2.0444   1.2549   0.5035 N.pl3          1 S1                -1.0000
     16 ****        -2.8195   0.0244   0.2917 C.3            1 S1                 0.0000
     17 ****        -2.8883  -0.8345   1.5696 C.3            1 S1                 0.0000
     18 ****        -4.3057  -1.4388   1.5871 C.3            1 S1                 0.0000
     19 ****        -4.9699  -0.9261   0.3733 N.4            1 S1                 1.0000
     20 ****        -6.4441  -0.8022   0.4087 C.3            1 S1                 0.0000
     21 ****        -6.9511  -0.3568  -0.9781 C.3            1 S1                 0.0000
     22 ****        -6.2356   0.9188  -1.4692 C.3            1 S1                 0.0000
     23 ****        -4.7036   0.7594  -1.4043 C.3            1 S1                 0.0000
     24 ****        -4.2969   0.3347   0.0222 C.3            1 S1                 0.0000
     25 ****        -0.3572  -0.4157  -0.2488 H              1 S1                 0.0000
     26 ****         1.4997  -1.1483  -1.5677 H              1 S1                 0.0000
     27 ****         3.9627  -1.2734  -1.7646 H              1 S1                 0.0000
     28 ****         6.4018   2.0283   0.6050 H              1 S1                 0.0000
     29 ****         6.2770   0.6228   1.6758 H              1 S1                 0.0000
     30 ****         8.3732   1.1917  -0.4518 H              1 S1                 0.0000
     31 ****         8.6540   0.6301   1.1981 H              1 S1                 0.0000
     32 ****         8.6481  -1.1755  -0.8444 H              1 S1                 0.0000
     33 ****         7.8312  -1.5719   0.6662 H              1 S1                 0.0000
     34 ****         5.9552  -1.8411  -0.6928 H              1 S1                 0.0000
     35 ****         6.5714  -0.7480  -1.9393 H              1 S1                 0.0000
     36 ****         2.0493   1.9111   1.4869 H              1 S1                 0.0000
     37 ****        -2.4349  -0.5866  -0.5271 H              1 S1                 0.0000
     38 ****        -2.1165  -1.6048   1.5693 H              1 S1                 0.0000
     39 ****        -2.7433  -0.2305   2.4671 H              1 S1                 0.0000
     40 ****        -4.2930  -2.5292   1.5830 H              1 S1                 0.0000
     41 ****        -4.8414  -1.1122   2.4803 H              1 S1                 0.0000
     42 ****        -6.8859  -1.7611   0.6811 H              1 S1                 0.0000
     43 ****        -6.7374  -0.0813   1.1734 H              1 S1                 0.0000
     44 ****        -6.7838  -1.1599  -1.6972 H              1 S1                 0.0000
     45 ****        -8.0286  -0.1924  -0.9468 H              1 S1                 0.0000
     46 ****        -6.5456   1.1550  -2.4874 H              1 S1                 0.0000
     47 ****        -6.5378   1.7644  -0.8500 H              1 S1                 0.0000
     48 ****        -4.3858   0.0174  -2.1397 H              1 S1                 0.0000
     49 ****        -4.2251   1.7008  -1.6810 H              1 S1                 0.0000
     50 ****        -4.6297   1.1004   0.7277 H              1 S1                 0.0000
     51 ****        -4.7403  -1.5742  -0.3663 H              1 S1                 0.0000
     52 ****         4.3088   1.6952   1.1980 H              1 S1                 0.0000
     53 ****         0.7917   2.6838   0.5376 LP             1 S1                 0.0000
     54 ****        -0.7769   3.3208   0.9032 LP             1 S1                 0.0000
     55 ****        -2.5799   2.0622   0.7513 LP             1 S1                 0.0000
@<TRIPOS>BOND
    1    1    2 2     
    2    2    3 am    
    3    2   15 1     
    4    3    4 1     
    5    3   25 1     
    6    4   14 ar    
    7    4    5 ar    
    8    5    6 ar    
    9    5   26 1     
   10    6    7 ar    
   11    6   27 1     
   12    7    8 1     
   13    7   13 ar    
   14    8   12 1     
   15    8    9 1     
   16    9   10 1     
   17    9   28 1     
   18    9   29 1     
   19   10   11 1     
   20   10   30 1     
   21   10   31 1     
   22   11   12 1     
   23   11   32 1     
   24   11   33 1     
   25   12   34 1     
   26   12   35 1     
   27   13   14 ar    
   28   13   52 1     
   29   14   36 1     
   30   15   16 1     
   31   16   24 1     
   32   16   17 1     
   33   16   37 1     
   34   17   18 1     
   35   17   38 1     
   36   17   39 1     
   37   18   19 1     
   38   18   40 1     
   39   18   41 1     
   40   19   24 1     
   41   19   20 1     
   42   19   51 1     
   43   20   21 1     
   44   20   42 1     
   45   20   43 1     
   46   21   22 1     
   47   21   44 1     
   48   21   45 1     
   49   22   23 1     
   50   22   46 1     
   51   22   47 1     
   52   23   24 1     
   53   23   48 1     
   54   23   49 1     
   55   24   50 1     
   56    1   53 1     
   57    1   54 1     
   58   15   55 1     
@<TRIPOS>SUBSTRUCTURE
      1 S1             1
@<TRIPOS>SET
LONE_PAIRS      STATIC     ATOMS    <user>   **** ""
3 53 54 55
DONOR_HYDROGENS      STATIC     ATOMS    <user>   **** ""
3 25 52 51
ATOM$BLUE        STATIC     ATOMS    COLORGROUP SYSTEM
3 53 54 55
ATOM$RED        STATIC     ATOMS    COLORGROUP SYSTEM
3 25 52 51
