AV-unprocessed.smi:3253|AV-procd|sdf|12447|dock10
  -GOLD-   2272018343D 1   1.00000     0.00000
 Structure written by MMmdl.
 37 38  0  0  0  0  0  0  0  0  2 V2000
  149.0340  140.0475  157.1041 C   0  0  0  0  0  0  0  0  0  0  0  0
  149.2822  141.1986  156.1160 C   0  0  2  0  0  0  0  0  0  0  0  0
  149.5366  140.7110  154.6722 C   0  0  0  0  0  0  0  0  0  0  0  0
  148.3415  140.1399  154.0451 N   0  0  0  0  0  0  0  0  0  0  0  0
  148.2007  138.8907  153.4967 C   0  0  0  0  0  0  0  0  0  0  0  0
  146.9119  138.8104  153.0350 C   0  0  0  0  0  0  0  0  0  0  0  0
  146.3231  140.0145  153.3160 N   0  3  0  0  0  0  0  0  0  0  0  0
  147.1952  140.8225  153.9278 C   0  0  0  0  0  0  0  0  0  0  0  0
  150.4065  142.0017  156.5875 N   0  0  0  0  0  0  0  0  0  0  0  0
  150.4565  142.6480  157.7629 C   0  0  0  0  0  0  0  0  0  0  0  0
  149.5297  142.6432  158.5742 O   0  0  0  0  0  0  0  0  0  0  0  0
  151.7507  143.4179  158.0691 C   0  0  1  0  0  0  0  0  0  0  0  0
  151.5021  144.9394  158.1193 C   0  0  0  0  0  0  0  0  0  0  0  0
  151.7262  145.3019  159.5779 C   0  0  0  0  0  0  0  0  0  0  0  0
  151.5224  146.4294  160.0252 O   0  0  0  0  0  0  0  0  0  0  0  0
  152.1533  144.2441  160.2731 N   0  0  0  0  0  0  0  0  0  0  0  0
  152.4573  144.2283  161.6975 C   0  0  0  0  0  0  0  0  0  0  0  0
  152.3377  143.0594  159.4526 C   0  0  0  0  0  0  0  0  0  0  0  0
  148.1429  139.4780  156.8395 H   0  0  0  0  0  0  0  0  0  0  0  0
  148.8857  140.4251  158.1164 H   0  0  0  0  0  0  0  0  0  0  0  0
  149.8770  139.3558  157.1270 H   0  0  0  0  0  0  0  0  0  0  0  0
  148.3903  141.8285  156.1203 H   0  0  0  0  0  0  0  0  0  0  0  0
  149.8795  141.5294  154.0371 H   0  0  0  0  0  0  0  0  0  0  0  0
  150.3194  139.9512  154.6561 H   0  0  0  0  0  0  0  0  0  0  0  0
  149.0051  138.1695  153.4789 H   0  0  0  0  0  0  0  0  0  0  0  0
  146.3841  138.0085  152.5396 H   0  0  0  0  0  0  0  0  0  0  0  0
  147.0097  141.8276  154.2636 H   0  0  0  0  0  0  0  0  0  0  0  0
  151.2120  142.0604  155.9809 H   0  0  0  0  0  0  0  0  0  0  0  0
  152.4882  143.1931  157.2964 H   0  0  0  0  0  0  0  0  0  0  0  0
  152.2197  145.4757  157.4975 H   0  0  0  0  0  0  0  0  0  0  0  0
  150.4988  145.2314  157.8040 H   0  0  0  0  0  0  0  0  0  0  0  0
  153.2506  144.9403  161.9278 H   0  0  0  0  0  0  0  0  0  0  0  0
  152.7864  143.2393  162.0182 H   0  0  0  0  0  0  0  0  0  0  0  0
  151.5745  144.4963  162.2791 H   0  0  0  0  0  0  0  0  0  0  0  0
  151.8533  142.1963  159.9133 H   0  0  0  0  0  0  0  0  0  0  0  0
  153.4026  142.8359  159.3758 H   0  0  0  0  0  0  0  0  0  0  0  0
  145.3671  140.2614  153.0919 H   0  0  0  0  0  0  0  0  0  0  0  0
  1  2  1  0  0  0  0
  1 19  1  0  0  0  0
  1 20  1  0  0  0  0
  1 21  1  0  0  0  0
  2  3  1  0  0  0  0
  2  9  1  0  0  0  0
  2 22  1  0  0  0  0
  3  4  1  0  0  0  0
  3 23  1  0  0  0  0
  3 24  1  0  0  0  0
  4  8  1  0  0  0  0
  4  5  1  0  0  0  0
  5  6  2  0  0  0  0
  5 25  1  0  0  0  0
  6  7  1  0  0  0  0
  6 26  1  0  0  0  0
  7  8  2  0  0  0  0
  7 37  1  0  0  0  0
  8 27  1  0  0  0  0
  9 10  1  0  0  0  0
  9 28  1  0  0  0  0
 10 11  2  0  0  0  0
 10 12  1  0  0  0  0
 12 18  1  0  0  0  0
 12 13  1  0  0  0  0
 12 29  1  0  0  0  0
 13 14  1  0  0  0  0
 13 30  1  0  0  0  0
 13 31  1  0  0  0  0
 14 15  2  0  0  0  0
 14 16  1  0  0  0  0
 16 17  1  0  0  0  0
 16 18  1  0  0  0  0
 17 32  1  0  0  0  0
 17 33  1  0  0  0  0
 17 34  1  0  0  0  0
 18 35  1  0  0  0  0
 18 36  1  0  0  0  0
M  CHG  1   7   1
M  END
> <s_m_source_file>
AV-unprocessed.smi

> <i_m_source_file_index>
3253

> <i_lp_mmshare_version>
43012

> <i_f3d_flags>
0

> <s_epik_input>
W2NIXTFuW2NIXVtjSF1uMVtDSDJdW0NAQEhdKFtDSDNdKVtOSF1DKD1PKVtDQEBIXTJbQ0gyXUMoPU8pTihbQ0gzXSlbQ0gyXTI=

> <s_epik_cmdline>
J2VwaWtfcHl0aG9uJywgJy1waCcsICc3LjAnLCAnLXRuJywgJzgnLCAnLW1hJywgJzIwMCcsICctbWV0YWxfYmluZGluZycsICctaW1hZScsICc8aW5maWxlLm1hZT4nLCAnLW9tYWUnLCAnPG91dGZpbGUubWFlPic=

> <r_lp_tautomer_probability>
1

> <r_epik_Ionization_Penalty>
0.251561

> <r_epik_Ionization_Penalty_Charging>
0

> <r_epik_Ionization_Penalty_Neutral>
0.251561

> <r_epik_State_Penalty>
0.242926

> <r_epik_Charging_Adjusted_Penalty>
0.242926

> <i_epik_Tot_Q>
1

> <i_epik_Tot_abs_Q>
1

> <r_epik_Metal_State_Penalty>
0.533885

> <b_epik_Metal_Only>
0

> <s_lp_Force_Field>
OPLS_2005

> <r_lp_Energy>
14.6529

> <b_lp_Chiralities_Consistent>
1

> <s_lp_Variant>
AV-unprocessed.smi:3253-3

> <Gold.Version>
5.8.1

> <Gold.Id.Protein>
6NUR|6NUR_protein|mol2

> <Gold.PLP.Fitness>
49.7193

> <Gold.PLP.PLP>
-41.2731

> <Gold.PLP.part.hbond>
-2.3566

> <Gold.PLP.part.metal>
0.0000

> <Gold.PLP.part.buried>
-2.8391

> <Gold.PLP.part.nonpolar>
-35.4079

> <Gold.PLP.part.repulsive>
0.4120

> <Gold.PLP.ligand.clash>
0.0000

> <Gold.PLP.ligand.torsion>
0.1942

> <Gold.PLP.Chemscore.Hbond>
2.0000

> <Gold.PLP.Chemscore.CHOScore>
0.9362

> <Gold.PLP.Chemscore.Metal>
0.0000

> <Gold.Chemscore.Hbonds>
donor molecule, donor type, donor heavy atom, donor atom, acceptor molecule, acceptor atom, score
      L1  H     7    37       P1 10175  2.00
      L1  C     5    25       P1  7948  0.82

> <Gold.PLP.Chemscore.Internal.Correction>
0.0259

> <Gold.Rescore>
     Score         DG    S(hbond)    S(metal)    S(lipo)     H(rot)  DE(clash)    DE(int)     intcor
     12.25     -12.43       1.00        0.00      75.42       2.03       0.12       0.06       ----

> <Gold.Chemscore.Fitness>
12.2526

> <Gold.Chemscore.DG>
-12.4347

> <Gold.Chemscore.ZeroCoef>
-5.4800

> <Gold.Chemscore.Hbond>
0.9995

> <Gold.Chemscore.Metal>
0.0000

> <Gold.Chemscore.Lipo>
75.4165

> <Gold.Chemscore.Internal_Hbond>
0.0000

> <Gold.Chemscore.DEClash>
0.1243

> <Gold.Chemscore.DEInternal>
0.0578

> <Gold.Chemscore.Rot>
2.0341

> <Gold.Chemscore.Internal.Correction>
   9.000000E+99

> <Gold.Chemscore.Hbonds>
donor molecule, donor type, donor heavy atom, donor atom, acceptor molecule, acceptor atom, score
      L1  H     7    37       P1 10175  0.99

> <Gold.Chemscore.Hbond.Weighted>
-3.3382

> <Gold.Chemscore.Metal.Weighted>
-0.0000

> <Gold.Chemscore.Lipo.Weighted>
-8.8237

> <Gold.Chemscore.Internal_Hbond.Weighted>
0.0000

> <Gold.Chemscore.DEClash.Weighted>
0.1243

> <Gold.Chemscore.DEInternal.Weighted>
0.0578

> <Gold.Chemscore.Rot.Weighted>
5.2072

> <Gold.Chemscore.Internal.Correction.Weighted>
   9.000000E+99

> <Gold.Protein.RotatedTorsions>
[ 6907 6896 6895 6894 ] final  126.96 input  -60.11 | X-H torsion
[ 7974 7965 7964 7962 ] final -149.74 input  175.53 | X-H torsion
[ 8008 7997 7996 7995 ] final  -85.94 input   59.86 | X-H torsion
[ 10167 10162 10161 10158 ] final   -9.92 input  -65.29 | X-H torsion
[ 10718 10713 10712 10709 ] final  -24.39 input   66.30 | X-H torsion
[ 10763 10752 10751 10750 ] final  164.33 input  -60.55 | X-H torsion
[ 11005 11000 10999 10996 ] final -155.67 input  -57.11 | X-H torsion

> <Gold.Protein.ActiveResidues>
 VAL166  LYS551  ARG553  GLY616  TRP617  ASP618  TYR619  PRO620  LYS621  CYS622 
 ASP623  PHE694  ASN695  SER759  ASP760  ASP761  ALA762  ILE779  LEU786  VAL792 
 PHE793  MET794  SER795  GLU796  ALA797  LYS798  CYS799  TRP800  GLU811  SER814 

> <Gold.Protein.RotatedAtoms>
  152.3856  133.6606  159.6195 H   0  0  0  0  0  0  0  0  0  0  0  0  # atno 6907 bound_to 6896
  150.7776  133.9041  159.3359 H   0  0  0  0  0  0  0  0  0  0  0  0  # atno 6908 bound_to 6896
  151.6838  135.0959  160.0272 H   0  0  0  0  0  0  0  0  0  0  0  0  # atno 6909 bound_to 6896
  144.7949  140.5025  143.5747 H   0  0  0  0  0  0  0  0  0  0  0  0  # atno 7974 bound_to 7965
  154.6463  140.0585  156.9904 H   0  0  0  0  0  0  0  0  0  0  0  0  # atno 8008 bound_to 7997
  155.1439  140.3268  155.4427 H   0  0  0  0  0  0  0  0  0  0  0  0  # atno 8009 bound_to 7997
  156.2555  140.1959  156.6554 H   0  0  0  0  0  0  0  0  0  0  0  0  # atno 8010 bound_to 7997
  140.7100  143.5805  150.8997 H   0  0  0  0  0  0  0  0  0  0  0  0  # atno 10167 bound_to 10162
  156.4783  130.4539  149.6827 H   0  0  0  0  0  0  0  0  0  0  0  0  # atno 10718 bound_to 10713
  154.3073  135.2758  155.2583 H   0  0  0  0  0  0  0  0  0  0  0  0  # atno 10763 bound_to 10752
  154.4993  135.5812  153.6522 H   0  0  0  0  0  0  0  0  0  0  0  0  # atno 10764 bound_to 10752
  152.9892  135.6154  154.3248 H   0  0  0  0  0  0  0  0  0  0  0  0  # atno 10765 bound_to 10752
  140.6840  134.4114  157.5224 H   0  0  0  0  0  0  0  0  0  0  0  0  # atno 11005 bound_to 11000
  145.5699  139.1483  143.3294 LP  0  0  0  0  0  0  0  0  0  0  0  0  # atno 17320 bound_to 7965
  146.2214  140.5832  142.9015 LP  0  0  0  0  0  0  0  0  0  0  0  0  # atno 17321 bound_to 7965
  139.9531  143.6249  152.3023 LP  0  0  0  0  0  0  0  0  0  0  0  0  # atno 17342 bound_to 10162
  139.6775  144.7657  151.1669 LP  0  0  0  0  0  0  0  0  0  0  0  0  # atno 17343 bound_to 10162
  156.3548  130.7451  151.2415 LP  0  0  0  0  0  0  0  0  0  0  0  0  # atno 17370 bound_to 10713
  157.7485  131.0367  150.4421 LP  0  0  0  0  0  0  0  0  0  0  0  0  # atno 17371 bound_to 10713
  139.8943  134.8709  156.2182 LP  0  0  0  0  0  0  0  0  0  0  0  0  # atno 17394 bound_to 11000
  141.0295  133.6996  156.1405 LP  0  0  0  0  0  0  0  0  0  0  0  0  # atno 17395 bound_to 11000

$$$$
