AV-unprocessed.smi:24|AV-procd|sdf|177|dock2
  -GOLD-   2262015433D 1   1.00000     0.00000
 Structure written by MMmdl.
 61 65  0  0  0  0  0  0  0  0  1 V2000
  153.8564  138.4653  155.1640 C   0  0  0  0  0  0  0  0  0  0  0  0
  153.0249  139.4681  155.7292 O   0  0  0  0  0  0  0  0  0  0  0  0
  151.7110  139.5296  155.3168 C   0  0  0  0  0  0  0  0  0  0  0  0
  150.9087  140.5414  155.8817 C   0  0  0  0  0  0  0  0  0  0  0  0
  149.5561  140.6780  155.5173 C   0  0  0  0  0  0  0  0  0  0  0  0
  148.9775  139.7936  154.5809 C   0  0  0  0  0  0  0  0  0  0  0  0
  147.5139  139.9232  154.1603 C   0  0  2  0  0  0  0  0  0  0  0  0
  147.1949  141.3187  153.6170 C   0  0  0  0  0  0  0  0  0  0  0  0
  146.0959  141.7529  154.5276 C   0  0  0  0  0  0  0  0  0  0  0  0
  145.4608  143.0834  154.4019 C   0  0  0  0  0  0  0  0  0  0  0  0
  145.6919  143.8564  153.2409 C   0  0  0  0  0  0  0  0  0  0  0  0
  145.0921  145.1254  153.1230 C   0  0  0  0  0  0  0  0  0  0  0  0
  144.2697  145.6183  154.1554 C   0  0  0  0  0  0  0  0  0  0  0  0
  144.0427  144.8443  155.3107 C   0  0  0  0  0  0  0  0  0  0  0  0
  144.6362  143.5731  155.4400 C   0  0  0  0  0  0  0  0  0  0  0  0
  145.7738  140.8761  155.4049 N   0  0  0  0  0  0  0  0  0  0  0  0
  146.5396  139.7673  155.2489 N   0  0  0  0  0  0  0  0  0  0  0  0
  146.3425  138.6277  155.9483 C   0  0  0  0  0  0  0  0  0  0  0  0
  146.9655  137.5941  155.6985 O   0  0  0  0  0  0  0  0  0  0  0  0
  145.2973  138.6404  157.0840 C   0  0  0  0  0  0  0  0  0  0  0  0
  145.1718  137.3439  157.7855 N   0  0  0  0  0  0  0  0  0  0  0  0
  143.9835  136.5940  157.6082 C   0  0  0  0  0  0  0  0  0  0  0  0
  143.0650  137.0088  156.8994 O   0  0  0  0  0  0  0  0  0  0  0  0
  143.9351  135.3193  158.3128 C   0  0  0  0  0  0  0  0  0  0  0  0
  142.8701  134.5141  158.1597 F   0  0  0  0  0  0  0  0  0  0  0  0
  144.9528  134.9234  159.1042 C   0  0  0  0  0  0  0  0  0  0  0  0
  146.0856  135.6918  159.3183 N   0  0  0  0  0  0  0  0  0  0  0  0
  147.2598  135.2086  160.1573 C   0  0  1  0  0  0  0  0  0  0  0  0
  147.3985  135.9102  161.5146 C   0  0  0  0  0  0  0  0  0  0  0  0
  146.6914  134.9583  162.4758 C   0  0  0  0  0  0  0  0  0  0  0  0
  146.2479  133.7783  161.6038 C   0  0  0  0  0  0  0  0  0  0  0  0
  147.0703  133.8606  160.4478 O   0  0  0  0  0  0  0  0  0  0  0  0
  146.2298  136.9130  158.6213 C   0  0  0  0  0  0  0  0  0  0  0  0
  147.2523  137.5910  158.7450 O   0  0  0  0  0  0  0  0  0  0  0  0
  149.7762  138.7843  154.0065 C   0  0  0  0  0  0  0  0  0  0  0  0
  151.1303  138.6491  154.3701 C   0  0  0  0  0  0  0  0  0  0  0  0
  154.8558  138.5438  155.5920 H   0  0  0  0  0  0  0  0  0  0  0  0
  153.9495  138.5871  154.0841 H   0  0  0  0  0  0  0  0  0  0  0  0
  153.4814  137.4651  155.3845 H   0  0  0  0  0  0  0  0  0  0  0  0
  151.3357  141.2229  156.6028 H   0  0  0  0  0  0  0  0  0  0  0  0
  148.9682  141.4673  155.9623 H   0  0  0  0  0  0  0  0  0  0  0  0
  147.2953  139.1758  153.3950 H   0  0  0  0  0  0  0  0  0  0  0  0
  148.0473  141.9965  153.6840 H   0  0  0  0  0  0  0  0  0  0  0  0
  146.8602  141.2771  152.5799 H   0  0  0  0  0  0  0  0  0  0  0  0
  146.3195  143.4959  152.4387 H   0  0  0  0  0  0  0  0  0  0  0  0
  145.2638  145.7221  152.2393 H   0  0  0  0  0  0  0  0  0  0  0  0
  143.8121  146.5922  154.0613 H   0  0  0  0  0  0  0  0  0  0  0  0
  143.4123  145.2272  156.0998 H   0  0  0  0  0  0  0  0  0  0  0  0
  144.4479  142.9999  156.3356 H   0  0  0  0  0  0  0  0  0  0  0  0
  145.5561  139.4271  157.7948 H   0  0  0  0  0  0  0  0  0  0  0  0
  144.3397  138.9608  156.6705 H   0  0  0  0  0  0  0  0  0  0  0  0
  144.8590  133.9561  159.5714 H   0  0  0  0  0  0  0  0  0  0  0  0
  148.1438  135.3662  159.5372 H   0  0  0  0  0  0  0  0  0  0  0  0
  148.4589  135.9585  161.7640 H   0  0  0  0  0  0  0  0  0  0  0  0
  147.0167  136.9307  161.5045 H   0  0  0  0  0  0  0  0  0  0  0  0
  147.3843  134.6255  163.2491 H   0  0  0  0  0  0  0  0  0  0  0  0
  145.8411  135.4275  162.9712 H   0  0  0  0  0  0  0  0  0  0  0  0
  146.3675  132.8189  162.1073 H   0  0  0  0  0  0  0  0  0  0  0  0
  145.2002  133.8776  161.3170 H   0  0  0  0  0  0  0  0  0  0  0  0
  149.3511  138.1052  153.2821 H   0  0  0  0  0  0  0  0  0  0  0  0
  151.7029  137.8603  153.9069 H   0  0  0  0  0  0  0  0  0  0  0  0
  1  2  1  0  0  0  0
  1 37  1  0  0  0  0
  1 38  1  0  0  0  0
  1 39  1  0  0  0  0
  2  3  1  0  0  0  0
  3 36  1  0  0  0  0
  3  4  2  0  0  0  0
  4  5  1  0  0  0  0
  4 40  1  0  0  0  0
  5  6  2  0  0  0  0
  5 41  1  0  0  0  0
  6  7  1  0  0  0  0
  6 35  1  0  0  0  0
  7 17  1  0  0  0  0
  7  8  1  0  0  0  0
  7 42  1  0  0  0  0
  8  9  1  0  0  0  0
  8 43  1  0  0  0  0
  8 44  1  0  0  0  0
  9 10  1  0  0  0  0
  9 16  2  0  0  0  0
 10 15  1  0  0  0  0
 10 11  2  0  0  0  0
 11 12  1  0  0  0  0
 11 45  1  0  0  0  0
 12 13  2  0  0  0  0
 12 46  1  0  0  0  0
 13 14  1  0  0  0  0
 13 47  1  0  0  0  0
 14 15  2  0  0  0  0
 14 48  1  0  0  0  0
 15 49  1  0  0  0  0
 16 17  1  0  0  0  0
 17 18  1  0  0  0  0
 18 19  2  0  0  0  0
 18 20  1  0  0  0  0
 20 21  1  0  0  0  0
 20 50  1  0  0  0  0
 20 51  1  0  0  0  0
 21 33  1  0  0  0  0
 21 22  1  0  0  0  0
 22 23  2  0  0  0  0
 22 24  1  0  0  0  0
 24 25  1  0  0  0  0
 24 26  2  0  0  0  0
 26 27  1  0  0  0  0
 26 52  1  0  0  0  0
 27 28  1  0  0  0  0
 27 33  1  0  0  0  0
 28 32  1  0  0  0  0
 28 29  1  0  0  0  0
 28 53  1  0  0  0  0
 29 30  1  0  0  0  0
 29 54  1  0  0  0  0
 29 55  1  0  0  0  0
 30 31  1  0  0  0  0
 30 56  1  0  0  0  0
 30 57  1  0  0  0  0
 31 32  1  0  0  0  0
 31 58  1  0  0  0  0
 31 59  1  0  0  0  0
 33 34  2  0  0  0  0
 35 36  2  0  0  0  0
 35 60  1  0  0  0  0
 36 61  1  0  0  0  0
M  END
> <s_m_source_file>
AV-unprocessed.smi

> <i_m_source_file_index>
24

> <i_lp_mmshare_version>
43012

> <i_f3d_flags>
0

> <s_epik_input>
W0NIM11PYzFbY0hdW2NIXWMoW2NIXVtjSF0xKVtDQEBIXTJbQ0gyXUMoYzNbY0hdW2NIXVtjSF1bY0hdW2NIXTMpPU5OMkMoPU8pW0NIMl1uNGMoPU8pYyhGKVtjSF1uKGM0PU8pW0NAQEhdNVtDSDJdW0NIMl1bQ0gyXU81

> <s_epik_cmdline>
J2VwaWtfcHl0aG9uJywgJy1waCcsICc3LjAnLCAnLXRuJywgJzgnLCAnLW1hJywgJzIwMCcsICctbWV0YWxfYmluZGluZycsICctaW1hZScsICc8aW5maWxlLm1hZT4nLCAnLW9tYWUnLCAnPG91dGZpbGUubWFlPic=

> <r_lp_tautomer_probability>
1

> <r_epik_Ionization_Penalty>
1.46326e-08

> <r_epik_Ionization_Penalty_Charging>
4.53232e-09

> <r_epik_Ionization_Penalty_Neutral>
1.01002e-08

> <r_epik_State_Penalty>
-0

> <r_epik_Charging_Adjusted_Penalty>
4.53232e-09

> <i_epik_Tot_Q>
0

> <i_epik_Tot_abs_Q>
0

> <r_epik_Metal_State_Penalty>
-0

> <b_epik_Metal_Only>
0

> <s_epik_Chemistry_Notes>
This compound has an imine and may undergo hydrolysis. This compound contains an acetal/aminal-like group ( X-CH(R)-Y where X, Y are N, S, or O) that may be acid/base labile, releasing an aldehyde.

> <s_lp_Force_Field>
OPLS_2005

> <r_lp_Energy>
47.9394

> <b_lp_Chiralities_Consistent>
1

> <s_lp_Variant>
AV-unprocessed.smi:24-3

> <Gold.Version>
5.8.1

> <Gold.Id.Protein>
6NUR|6NUR_protein|mol2

> <Gold.PLP.Fitness>
55.1530

> <Gold.PLP.PLP>
-54.2358

> <Gold.PLP.part.hbond>
-2.0000

> <Gold.PLP.part.metal>
0.0000

> <Gold.PLP.part.buried>
-2.5731

> <Gold.PLP.part.nonpolar>
-49.5023

> <Gold.PLP.part.repulsive>
0.0691

> <Gold.PLP.ligand.clash>
0.0000

> <Gold.PLP.ligand.torsion>
0.5331

> <Gold.PLP.Chemscore.Hbond>
0.5540

> <Gold.PLP.Chemscore.CHOScore>
0.0000

> <Gold.PLP.Chemscore.Metal>
0.0000

> <Gold.Chemscore.Hbonds>
donor molecule, donor type, donor heavy atom, donor atom, acceptor molecule, acceptor atom, score
      P1  H  7997  8009       L1     2  0.23

> <Gold.PLP.Chemscore.Internal.Correction>
0.3212

> <Gold.Rescore>
     Score         DG    S(hbond)    S(metal)    S(lipo)     H(rot)  DE(clash)    DE(int)     intcor
     15.40     -16.59       0.34        0.00     128.57       1.98       0.02       1.17       ----

> <Gold.Chemscore.Fitness>
15.4002

> <Gold.Chemscore.DG>
-16.5920

> <Gold.Chemscore.ZeroCoef>
-5.4800

> <Gold.Chemscore.Hbond>
0.3368

> <Gold.Chemscore.Metal>
0.0000

> <Gold.Chemscore.Lipo>
128.5737

> <Gold.Chemscore.Internal_Hbond>
0.0000

> <Gold.Chemscore.DEClash>
0.0191

> <Gold.Chemscore.DEInternal>
1.1727

> <Gold.Chemscore.Rot>
1.9750

> <Gold.Chemscore.Internal.Correction>
   9.000000E+99

> <Gold.Chemscore.Hbonds>
donor molecule, donor type, donor heavy atom, donor atom, acceptor molecule, acceptor atom, score
      P1  H  7997  8009       L1     2  0.01

> <Gold.Chemscore.Hbond.Weighted>
-1.1249

> <Gold.Chemscore.Metal.Weighted>
-0.0000

> <Gold.Chemscore.Lipo.Weighted>
-15.0431

> <Gold.Chemscore.Internal_Hbond.Weighted>
0.0000

> <Gold.Chemscore.DEClash.Weighted>
0.0191

> <Gold.Chemscore.DEInternal.Weighted>
1.1727

> <Gold.Chemscore.Rot.Weighted>
5.0561

> <Gold.Chemscore.Internal.Correction.Weighted>
   9.000000E+99

> <Gold.Protein.RotatedTorsions>
[ 6907 6896 6895 6894 ] final  139.83 input  -60.11 | X-H torsion
[ 7974 7965 7964 7962 ] final  157.71 input  175.53 | X-H torsion
[ 8008 7997 7996 7995 ] final  168.09 input   59.86 | X-H torsion
[ 10167 10162 10161 10158 ] final  -39.88 input  -65.29 | X-H torsion
[ 10718 10713 10712 10709 ] final  -76.18 input   66.30 | X-H torsion
[ 10763 10752 10751 10750 ] final  -37.46 input  -60.55 | X-H torsion
[ 11005 11000 10999 10996 ] final  -81.82 input  -57.11 | X-H torsion

> <Gold.Protein.ActiveResidues>
 VAL166  LYS551  ARG553  GLY616  TRP617  ASP618  TYR619  PRO620  LYS621  CYS622 
 ASP623  PHE694  ASN695  SER759  ASP760  ASP761  ALA762  ILE779  LEU786  VAL792 
 PHE793  MET794  SER795  GLU796  ALA797  LYS798  CYS799  TRP800  GLU811  SER814 

> <Gold.Protein.RotatedAtoms>
  152.2503  133.5209  159.5321 H   0  0  0  0  0  0  0  0  0  0  0  0  # atno 6907 bound_to 6896
  150.7091  134.0969  159.3961 H   0  0  0  0  0  0  0  0  0  0  0  0  # atno 6908 bound_to 6896
  151.8889  135.0424  160.0546 H   0  0  0  0  0  0  0  0  0  0  0  0  # atno 6909 bound_to 6896
  144.7888  139.7377  143.6230 H   0  0  0  0  0  0  0  0  0  0  0  0  # atno 7974 bound_to 7965
  156.1577  140.1599  156.8665 H   0  0  0  0  0  0  0  0  0  0  0  0  # atno 8008 bound_to 7997
  154.5131  140.0796  156.8064 H   0  0  0  0  0  0  0  0  0  0  0  0  # atno 8009 bound_to 7997
  155.3770  140.3403  155.4247 H   0  0  0  0  0  0  0  0  0  0  0  0  # atno 8010 bound_to 7997
  140.7051  143.3187  151.2845 H   0  0  0  0  0  0  0  0  0  0  0  0  # atno 10167 bound_to 10162
  156.0183  130.4459  150.3155 H   0  0  0  0  0  0  0  0  0  0  0  0  # atno 10718 bound_to 10713
  153.8966  135.6806  153.4757 H   0  0  0  0  0  0  0  0  0  0  0  0  # atno 10763 bound_to 10752
  153.1152  135.4765  154.9100 H   0  0  0  0  0  0  0  0  0  0  0  0  # atno 10764 bound_to 10752
  154.7596  135.3207  154.8358 H   0  0  0  0  0  0  0  0  0  0  0  0  # atno 10765 bound_to 10752
  141.1665  133.7214  156.8479 H   0  0  0  0  0  0  0  0  0  0  0  0  # atno 11005 bound_to 11000
  146.2131  139.5501  142.9668 LP  0  0  0  0  0  0  0  0  0  0  0  0  # atno 17320 bound_to 7965
  145.5850  141.0377  143.2101 LP  0  0  0  0  0  0  0  0  0  0  0  0  # atno 17321 bound_to 7965
  139.6634  144.0148  152.2707 LP  0  0  0  0  0  0  0  0  0  0  0  0  # atno 17342 bound_to 10162
  139.9723  144.6485  150.7977 LP  0  0  0  0  0  0  0  0  0  0  0  0  # atno 17343 bound_to 10162
  157.1256  131.0258  151.2991 LP  0  0  0  0  0  0  0  0  0  0  0  0  # atno 17370 bound_to 10713
  157.4592  130.7643  149.7221 LP  0  0  0  0  0  0  0  0  0  0  0  0  # atno 17371 bound_to 10713
  140.1937  134.8947  157.3089 LP  0  0  0  0  0  0  0  0  0  0  0  0  # atno 17394 bound_to 11000
  140.2263  134.3963  155.7542 LP  0  0  0  0  0  0  0  0  0  0  0  0  # atno 17395 bound_to 11000

$$$$
