AV-unprocessed.smi:1724|AV-procd|sdf|6950|dock9
  -GOLD-   22720 8163D 1   1.00000     0.00000
 Structure written by MMmdl.
 38 39  0  0  0  0  0  0  0  0  1 V2000
  146.1751  136.2659  155.3612 O   0  0  0  0  0  0  0  0  0  0  0  0
  147.0134  136.2962  154.4611 C   0  0  0  0  0  0  0  0  0  0  0  0
  148.2420  136.8099  154.6179 N   0  0  0  0  0  0  0  0  0  0  0  0
  148.7696  137.3957  155.8473 C   0  0  0  0  0  0  0  0  0  0  0  0
  149.3403  138.8110  155.6243 C   0  0  1  0  0  0  0  0  0  0  0  0
  149.3893  139.6534  156.9132 C   0  0  0  0  0  0  0  0  0  0  0  0
  150.0519  141.0080  156.6378 C   0  0  0  0  0  0  0  0  0  0  0  0
  151.4177  140.8110  155.9638 C   0  0  0  0  0  0  0  0  0  0  0  0
  151.2586  140.0526  154.7703 O   0  0  0  0  0  0  0  0  0  0  0  0
  150.7518  138.7431  155.0063 C   0  0  0  0  0  0  0  0  0  0  0  0
  146.8495  135.8302  153.2089 N   0  0  0  0  0  0  0  0  0  0  0  0
  145.7328  135.2192  152.6113 C   0  0  0  0  0  0  0  0  0  0  0  0
  145.7784  134.1673  151.7514 C   0  0  0  0  0  0  0  0  0  0  0  0
  144.5736  133.5892  151.1766 C   0  0  0  0  0  0  0  0  0  0  0  0
  144.6113  132.4198  150.2057 C   0  0  0  0  0  0  0  0  0  0  0  0
  145.8727  132.1136  149.9034 F   0  0  0  0  0  0  0  0  0  0  0  0
  144.0492  131.3447  150.7579 F   0  0  0  0  0  0  0  0  0  0  0  0
  143.9643  132.6961  149.0731 F   0  0  0  0  0  0  0  0  0  0  0  0
  143.4055  134.1452  151.5442 C   0  0  0  0  0  0  0  0  0  0  0  0
  143.3493  135.2209  152.4322 N   0  0  0  0  0  0  0  0  0  0  0  0
  144.4341  135.7987  152.9948 C   0  0  0  0  0  0  0  0  0  0  0  0
  144.3004  136.7442  153.7710 O   0  0  0  0  0  0  0  0  0  0  0  0
  142.4339  135.5808  152.6603 H   0  0  0  0  0  0  0  0  0  0  0  0
  148.8658  136.7908  153.8243 H   0  0  0  0  0  0  0  0  0  0  0  0
  148.0134  137.4107  156.6342 H   0  0  0  0  0  0  0  0  0  0  0  0
  149.5614  136.7367  156.2047 H   0  0  0  0  0  0  0  0  0  0  0  0
  148.6938  139.3247  154.9110 H   0  0  0  0  0  0  0  0  0  0  0  0
  148.3875  139.8138  157.3120 H   0  0  0  0  0  0  0  0  0  0  0  0
  149.9511  139.1210  157.6818 H   0  0  0  0  0  0  0  0  0  0  0  0
  149.4094  141.6053  155.9895 H   0  0  0  0  0  0  0  0  0  0  0  0
  150.1664  141.5673  157.5667 H   0  0  0  0  0  0  0  0  0  0  0  0
  151.8549  141.7772  155.7115 H   0  0  0  0  0  0  0  0  0  0  0  0
  152.1161  140.3105  156.6365 H   0  0  0  0  0  0  0  0  0  0  0  0
  151.4360  138.1903  155.6525 H   0  0  0  0  0  0  0  0  0  0  0  0
  150.7191  138.2133  154.0540 H   0  0  0  0  0  0  0  0  0  0  0  0
  147.6517  135.9074  152.6006 H   0  0  0  0  0  0  0  0  0  0  0  0
  146.7162  133.7182  151.4722 H   0  0  0  0  0  0  0  0  0  0  0  0
  142.4402  133.8136  151.1910 H   0  0  0  0  0  0  0  0  0  0  0  0
  1  2  2  0  0  0  0
  2  3  1  0  0  0  0
  2 11  1  0  0  0  0
  3  4  1  0  0  0  0
  3 24  1  0  0  0  0
  4  5  1  0  0  0  0
  4 25  1  0  0  0  0
  4 26  1  0  0  0  0
  5 10  1  0  0  0  0
  5  6  1  0  0  0  0
  5 27  1  0  0  0  0
  6  7  1  0  0  0  0
  6 28  1  0  0  0  0
  6 29  1  0  0  0  0
  7  8  1  0  0  0  0
  7 30  1  0  0  0  0
  7 31  1  0  0  0  0
  8  9  1  0  0  0  0
  8 32  1  0  0  0  0
  8 33  1  0  0  0  0
  9 10  1  0  0  0  0
 10 34  1  0  0  0  0
 10 35  1  0  0  0  0
 11 12  1  0  0  0  0
 11 36  1  0  0  0  0
 12 21  1  0  0  0  0
 12 13  2  0  0  0  0
 13 14  1  0  0  0  0
 13 37  1  0  0  0  0
 14 15  1  0  0  0  0
 14 19  2  0  0  0  0
 15 16  1  0  0  0  0
 15 17  1  0  0  0  0
 15 18  1  0  0  0  0
 19 20  1  0  0  0  0
 19 38  1  0  0  0  0
 20 23  1  0  0  0  0
 20 21  1  0  0  0  0
 21 22  2  0  0  0  0
M  END
> <s_m_source_file>
AV-unprocessed.smi

> <i_m_source_file_index>
1724

> <i_lp_mmshare_version>
43012

> <i_f3d_flags>
0

> <s_epik_input>
Tz1jMVtuSF1bY0hdYyhDKEYpKEYpRilbY0hdYzFbTkhdQyg9TylbTkhdW0NIMl1bQ0BASF0yW0NIMl1bQ0gyXVtDSDJdT1tDSDJdMg==

> <s_epik_cmdline>
J2VwaWtfcHl0aG9uJywgJy1waCcsICc3LjAnLCAnLXRuJywgJzgnLCAnLW1hJywgJzIwMCcsICctbWV0YWxfYmluZGluZycsICctaW1hZScsICc8aW5maWxlLm1hZT4nLCAnLW9tYWUnLCAnPG91dGZpbGUubWFlPic=

> <r_lp_tautomer_probability>
1

> <r_epik_Ionization_Penalty>
0.00384958

> <r_epik_Ionization_Penalty_Charging>
0.00382926

> <r_epik_Ionization_Penalty_Neutral>
2.03186e-05

> <r_epik_State_Penalty>
-0

> <r_epik_Charging_Adjusted_Penalty>
0.00382926

> <i_epik_Tot_Q>
0

> <i_epik_Tot_abs_Q>
0

> <r_epik_Metal_State_Penalty>
0.371494

> <b_epik_Metal_Only>
0

> <s_lp_Force_Field>
OPLS_2005

> <r_lp_Energy>
21.778

> <b_lp_Chiralities_Consistent>
1

> <s_lp_Variant>
AV-unprocessed.smi:1724-2

> <Gold.Version>
5.8.1

> <Gold.Id.Protein>
6NUR|6NUR_protein|mol2

> <Gold.PLP.Fitness>
42.3088

> <Gold.PLP.PLP>
-31.9848

> <Gold.PLP.part.hbond>
-2.9690

> <Gold.PLP.part.metal>
0.0000

> <Gold.PLP.part.buried>
-4.3701

> <Gold.PLP.part.nonpolar>
-25.3964

> <Gold.PLP.part.repulsive>
0.1712

> <Gold.PLP.ligand.clash>
0.0000

> <Gold.PLP.ligand.torsion>
0.6300

> <Gold.PLP.Chemscore.Hbond>
2.8553

> <Gold.PLP.Chemscore.CHOScore>
1.0000

> <Gold.PLP.Chemscore.Metal>
0.0000

> <Gold.Chemscore.Hbonds>
donor molecule, donor type, donor heavy atom, donor atom, acceptor molecule, acceptor atom, score
      L1  H     3    24       P1  7948  0.86
      L1  H    11    36       P1  7948  0.98
      P1  H  7989  7998       L1     9  1.00
      L1  C    19    38       P1 10186  1.00

> <Gold.PLP.Chemscore.Internal.Correction>
0.0183

> <Gold.Rescore>
     Score         DG    S(hbond)    S(metal)    S(lipo)     H(rot)  DE(clash)    DE(int)     intcor
     12.83     -17.83       2.85        0.00      53.42       1.33       0.47       4.54       ----

> <Gold.Chemscore.Fitness>
12.8300

> <Gold.Chemscore.DG>
-17.8321

> <Gold.Chemscore.ZeroCoef>
-5.4800

> <Gold.Chemscore.Hbond>
2.8496

> <Gold.Chemscore.Metal>
0.0000

> <Gold.Chemscore.Lipo>
53.4215

> <Gold.Chemscore.Internal_Hbond>
0.0000

> <Gold.Chemscore.DEClash>
0.4655

> <Gold.Chemscore.DEInternal>
4.5366

> <Gold.Chemscore.Rot>
1.3344

> <Gold.Chemscore.Internal.Correction>
   9.000000E+99

> <Gold.Chemscore.Hbonds>
donor molecule, donor type, donor heavy atom, donor atom, acceptor molecule, acceptor atom, score
      L1  H     3    24       P1  7948  0.79
      L1  H    11    36       P1  7948  0.91
      P1  H  7989  7998       L1     9  0.79

> <Gold.Chemscore.Hbond.Weighted>
-9.5177

> <Gold.Chemscore.Metal.Weighted>
-0.0000

> <Gold.Chemscore.Lipo.Weighted>
-6.2503

> <Gold.Chemscore.Internal_Hbond.Weighted>
0.0000

> <Gold.Chemscore.DEClash.Weighted>
0.4655

> <Gold.Chemscore.DEInternal.Weighted>
4.5366

> <Gold.Chemscore.Rot.Weighted>
3.4160

> <Gold.Chemscore.Internal.Correction.Weighted>
   9.000000E+99

> <Gold.Protein.RotatedTorsions>
[ 6907 6896 6895 6894 ] final  -71.15 input  -60.11 | X-H torsion
[ 7974 7965 7964 7962 ] final   79.99 input  175.53 | X-H torsion
[ 8008 7997 7996 7995 ] final  -25.83 input   59.86 | X-H torsion
[ 10167 10162 10161 10158 ] final   75.62 input  -65.29 | X-H torsion
[ 10718 10713 10712 10709 ] final -132.24 input   66.30 | X-H torsion
[ 10763 10752 10751 10750 ] final  173.72 input  -60.55 | X-H torsion
[ 11005 11000 10999 10996 ] final   -7.21 input  -57.11 | X-H torsion

> <Gold.Protein.ActiveResidues>
 VAL166  LYS551  ARG553  GLY616  TRP617  ASP618  TYR619  PRO620  LYS621  CYS622 
 ASP623  PHE694  ASN695  SER759  ASP760  ASP761  ALA762  ILE779  LEU786  VAL792 
 PHE793  MET794  SER795  GLU796  ALA797  LYS798  CYS799  TRP800  GLU811  SER814 

> <Gold.Protein.RotatedAtoms>
  150.7225  134.5349  159.5718 H   0  0  0  0  0  0  0  0  0  0  0  0  # atno 6907 bound_to 6896
  152.2874  134.7758  160.0394 H   0  0  0  0  0  0  0  0  0  0  0  0  # atno 6908 bound_to 6896
  151.8383  133.3384  159.3672 H   0  0  0  0  0  0  0  0  0  0  0  0  # atno 6909 bound_to 6896
  145.6570  139.2462  143.1944 H   0  0  0  0  0  0  0  0  0  0  0  0  # atno 7974 bound_to 7965
  154.4456  140.1916  156.0680 H   0  0  0  0  0  0  0  0  0  0  0  0  # atno 8008 bound_to 7997
  156.0532  140.3306  155.7349 H   0  0  0  0  0  0  0  0  0  0  0  0  # atno 8009 bound_to 7997
  155.5524  140.0596  157.2838 H   0  0  0  0  0  0  0  0  0  0  0  0  # atno 8010 bound_to 7997
  140.0010  144.5686  150.7737 H   0  0  0  0  0  0  0  0  0  0  0  0  # atno 10167 bound_to 10162
  156.2326  130.7047  151.0874 H   0  0  0  0  0  0  0  0  0  0  0  0  # atno 10718 bound_to 10713
  154.4440  135.2763  155.1828 H   0  0  0  0  0  0  0  0  0  0  0  0  # atno 10763 bound_to 10752
  154.3682  135.6114  153.5730 H   0  0  0  0  0  0  0  0  0  0  0  0  # atno 10764 bound_to 10752
  152.9842  135.5851  154.4773 H   0  0  0  0  0  0  0  0  0  0  0  0  # atno 10765 bound_to 10752
  140.7103  133.8915  155.8746 H   0  0  0  0  0  0  0  0  0  0  0  0  # atno 11005 bound_to 11000
  146.1156  140.7373  142.9482 LP  0  0  0  0  0  0  0  0  0  0  0  0  # atno 17320 bound_to 7965
  144.7102  140.4010  143.7086 LP  0  0  0  0  0  0  0  0  0  0  0  0  # atno 17321 bound_to 7965
  140.7418  143.2824  151.3561 LP  0  0  0  0  0  0  0  0  0  0  0  0  # atno 17342 bound_to 10162
  139.6271  144.0792  152.2444 LP  0  0  0  0  0  0  0  0  0  0  0  0  # atno 17343 bound_to 10162
  157.7140  131.0719  150.6397 LP  0  0  0  0  0  0  0  0  0  0  0  0  # atno 17370 bound_to 10713
  156.6465  130.4473  149.5734 LP  0  0  0  0  0  0  0  0  0  0  0  0  # atno 17371 bound_to 10713
  141.0090  134.1046  157.4241 LP  0  0  0  0  0  0  0  0  0  0  0  0  # atno 17394 bound_to 11000
  139.8873  135.0089  156.6554 LP  0  0  0  0  0  0  0  0  0  0  0  0  # atno 17395 bound_to 11000

$$$$
