AV-unprocessed.smi:279|AV-procd|sdf|2096|dock5
  -GOLD-   2262021383D 1   1.00000     0.00000
 Structure written by MMmdl.
 50 54  0  0  0  0  0  0  0  0  1 V2000
  153.6345  139.0954  158.2604 O   0  0  0  0  0  0  0  0  0  0  0  0
  152.2759  139.6555  158.2011 S   0  0  0  0  0  0  0  0  0  0  0  0
  151.1385  138.9436  158.8040 O   0  0  0  0  0  0  0  0  0  0  0  0
  152.2977  141.3740  158.8198 C   0  0  0  0  0  0  0  0  0  0  0  0
  151.2699  142.1048  157.9510 C   0  0  0  0  0  0  0  0  0  0  0  0
  151.3922  141.5918  156.4976 C   0  0  2  0  0  0  0  0  0  0  0  0
  150.0735  141.6036  155.7081 C   0  0  0  0  0  0  0  0  0  0  0  0
  149.9860  140.3095  155.0462 N   0  0  0  0  0  0  0  0  0  0  0  0
  148.8304  139.9405  154.4277 C   0  0  0  0  0  0  0  0  0  0  0  0
  148.2213  140.8343  153.6024 N   0  0  0  0  0  0  0  0  0  0  0  0
  147.0884  140.5188  152.9696 C   0  0  0  0  0  0  0  0  0  0  0  0
  146.3934  139.3827  153.0230 N   0  0  0  0  0  0  0  0  0  0  0  0
  146.9818  138.4833  153.8615 C   0  0  0  0  0  0  0  0  0  0  0  0
  148.1902  138.6745  154.5942 C   0  0  0  0  0  0  0  0  0  0  0  0
  148.4693  137.5276  155.3303 N   0  0  0  0  0  0  0  0  0  0  0  0
  147.4963  136.7084  155.0415 C   0  0  0  0  0  0  0  0  0  0  0  0
  146.5438  137.2111  154.1864 N   0  0  0  0  0  0  0  0  0  0  0  0
  145.4015  136.5136  153.6727 C   0  0  0  0  0  0  0  0  0  0  0  0
  145.5574  135.2754  152.7836 C   0  0  0  0  0  0  0  0  0  0  0  0
  144.2661  135.6701  152.0307 C   0  0  0  0  0  0  0  0  0  0  0  0
  144.2598  135.4474  150.5055 C   0  0  0  0  0  0  0  0  0  0  0  0
  145.2535  136.2021  149.8409 O   0  0  0  0  0  0  0  0  0  0  0  0
  142.9881  135.0163  152.5904 C   0  0  0  0  0  0  0  0  0  0  0  0
  142.9829  133.6195  152.3756 O   0  0  0  0  0  0  0  0  0  0  0  0
  144.5573  137.1017  152.5379 C   0  0  0  0  0  0  0  0  0  0  0  0
  150.7150  139.3384  155.8503 C   0  0  0  0  0  0  0  0  0  0  0  0
  151.8679  140.1301  156.4722 C   0  0  2  0  0  0  0  0  0  0  0  0
  152.1357  142.1940  155.9735 H   0  0  0  0  0  0  0  0  0  0  0  0
  152.7679  140.0438  155.8623 H   0  0  0  0  0  0  0  0  0  0  0  0
  152.0653  141.3980  159.8845 H   0  0  0  0  0  0  0  0  0  0  0  0
  153.2972  141.7807  158.6647 H   0  0  0  0  0  0  0  0  0  0  0  0
  150.2778  141.8724  158.3402 H   0  0  0  0  0  0  0  0  0  0  0  0
  151.3863  143.1872  158.0086 H   0  0  0  0  0  0  0  0  0  0  0  0
  149.2099  141.7371  156.3611 H   0  0  0  0  0  0  0  0  0  0  0  0
  150.0820  142.4167  154.9826 H   0  0  0  0  0  0  0  0  0  0  0  0
  146.6793  141.2873  152.3305 H   0  0  0  0  0  0  0  0  0  0  0  0
  147.4457  135.7104  155.4523 H   0  0  0  0  0  0  0  0  0  0  0  0
  144.7763  136.2888  154.5383 H   0  0  0  0  0  0  0  0  0  0  0  0
  146.4590  135.3201  152.1709 H   0  0  0  0  0  0  0  0  0  0  0  0
  145.5033  134.3282  153.3212 H   0  0  0  0  0  0  0  0  0  0  0  0
  144.4242  134.3961  150.2674 H   0  0  0  0  0  0  0  0  0  0  0  0
  143.2975  135.7211  150.0724 H   0  0  0  0  0  0  0  0  0  0  0  0
  145.6066  135.6795  149.1371 H   0  0  0  0  0  0  0  0  0  0  0  0
  142.8864  135.2064  153.6594 H   0  0  0  0  0  0  0  0  0  0  0  0
  142.0935  135.4280  152.1230 H   0  0  0  0  0  0  0  0  0  0  0  0
  142.9881  133.1866  153.2157 H   0  0  0  0  0  0  0  0  0  0  0  0
  143.6836  137.6610  152.8733 H   0  0  0  0  0  0  0  0  0  0  0  0
  145.1533  137.6962  151.8434 H   0  0  0  0  0  0  0  0  0  0  0  0
  150.0419  138.9366  156.6075 H   0  0  0  0  0  0  0  0  0  0  0  0
  151.0870  138.5090  155.2478 H   0  0  0  0  0  0  0  0  0  0  0  0
  1  2  2  0  0  0  0
  2 27  1  0  0  0  0
  2  3  2  0  0  0  0
  2  4  1  0  0  0  0
  4  5  1  0  0  0  0
  4 30  1  0  0  0  0
  4 31  1  0  0  0  0
  5  6  1  0  0  0  0
  5 32  1  0  0  0  0
  5 33  1  0  0  0  0
  6 28  1  0  0  0  0
  6 27  1  0  0  0  0
  6  7  1  0  0  0  0
  7  8  1  0  0  0  0
  7 34  1  0  0  0  0
  7 35  1  0  0  0  0
  8  9  1  0  0  0  0
  8 26  1  0  0  0  0
  9 14  1  0  0  0  0
  9 10  2  0  0  0  0
 10 11  1  0  0  0  0
 11 12  2  0  0  0  0
 11 36  1  0  0  0  0
 12 13  1  0  0  0  0
 13 17  1  0  0  0  0
 13 14  2  0  0  0  0
 14 15  1  0  0  0  0
 15 16  2  0  0  0  0
 16 17  1  0  0  0  0
 16 37  1  0  0  0  0
 17 18  1  0  0  0  0
 18 25  1  0  0  0  0
 18 19  1  0  0  0  0
 18 38  1  0  0  0  0
 19 20  1  0  0  0  0
 19 39  1  0  0  0  0
 19 40  1  0  0  0  0
 20 21  1  0  0  0  0
 20 23  1  0  0  0  0
 20 25  1  0  0  0  0
 21 22  1  0  0  0  0
 21 41  1  0  0  0  0
 21 42  1  0  0  0  0
 22 43  1  0  0  0  0
 23 24  1  0  0  0  0
 23 44  1  0  0  0  0
 23 45  1  0  0  0  0
 24 46  1  0  0  0  0
 25 47  1  0  0  0  0
 25 48  1  0  0  0  0
 26 27  1  0  0  0  0
 26 49  1  0  0  0  0
 26 50  1  0  0  0  0
 27 29  1  0  0  0  0
M  END
> <s_m_source_file>
AV-unprocessed.smi

> <i_m_source_file_index>
279

> <i_lp_mmshare_version>
43012

> <i_f3d_flags>
0

> <s_epik_input>
W0NIMl0xW0NIMl1TKD1PKSg9TylbQ0BASF0oW0NAQEhdMTIpW0NIMl1OKFtDSDJdMiljKG5bY0hdbjMpYyhjMzQpbltjSF1uNFtDSF0oW0NIMl01KVtDSDJdQzUoW0NIMl1bT0hdKVtDSDJdW09IXQ==

> <s_epik_cmdline>
J2VwaWtfcHl0aG9uJywgJy1waCcsICc3LjAnLCAnLXRuJywgJzgnLCAnLW1hJywgJzIwMCcsICctbWV0YWxfYmluZGluZycsICctaW1hZScsICc8aW5maWxlLm1hZT4nLCAnLW9tYWUnLCAnPG91dGZpbGUubWFlPic=

> <r_lp_tautomer_probability>
1

> <r_epik_Ionization_Penalty>
0.000990948

> <r_epik_Ionization_Penalty_Charging>
0

> <r_epik_Ionization_Penalty_Neutral>
0.000990948

> <r_epik_State_Penalty>
0.000515994

> <r_epik_Charging_Adjusted_Penalty>
0.000515994

> <i_epik_Tot_Q>
0

> <i_epik_Tot_abs_Q>
0

> <r_epik_Metal_State_Penalty>
-0

> <b_epik_Metal_Only>
0

> <s_lp_Force_Field>
OPLS_2005

> <r_lp_Energy>
55.7342

> <b_lp_Chiralities_Consistent>
1

> <s_lp_Variant>
AV-unprocessed.smi:279-2

> <Gold.Version>
5.8.1

> <Gold.Id.Protein>
6NUR|6NUR_protein|mol2

> <Gold.PLP.Fitness>
44.5798

> <Gold.PLP.PLP>
-35.2946

> <Gold.PLP.part.hbond>
-4.4646

> <Gold.PLP.part.metal>
0.0000

> <Gold.PLP.part.buried>
-7.5174

> <Gold.PLP.part.nonpolar>
-25.4863

> <Gold.PLP.part.repulsive>
2.3244

> <Gold.PLP.ligand.clash>
0.0000

> <Gold.PLP.ligand.torsion>
0.4957

> <Gold.PLP.Chemscore.Hbond>
3.1710

> <Gold.PLP.Chemscore.CHOScore>
0.0000

> <Gold.PLP.Chemscore.Metal>
0.0000

> <Gold.Chemscore.Hbonds>
donor molecule, donor type, donor heavy atom, donor atom, acceptor molecule, acceptor atom, score
      L1  H    22    43       P1  7921  1.00
      L1  H    24    46       P1 10957  0.75
      P1  H  7989  7998       L1     8  0.16
      P1  H  7997  8010       L1     1  1.00

> <Gold.PLP.Chemscore.Internal.Correction>
0.7637

> <Gold.Rescore>
     Score         DG    S(hbond)    S(metal)    S(lipo)     H(rot)  DE(clash)    DE(int)     intcor
     11.29     -14.15       2.84        0.00      65.22       3.29       0.07       2.80       ----

> <Gold.Chemscore.Fitness>
11.2868

> <Gold.Chemscore.DG>
-14.1505

> <Gold.Chemscore.ZeroCoef>
-5.4800

> <Gold.Chemscore.Hbond>
2.8363

> <Gold.Chemscore.Metal>
0.0000

> <Gold.Chemscore.Lipo>
65.2203

> <Gold.Chemscore.Internal_Hbond>
0.0000

> <Gold.Chemscore.DEClash>
0.0664

> <Gold.Chemscore.DEInternal>
2.7974

> <Gold.Chemscore.Rot>
3.2944

> <Gold.Chemscore.Internal.Correction>
   9.000000E+99

> <Gold.Chemscore.Hbonds>
donor molecule, donor type, donor heavy atom, donor atom, acceptor molecule, acceptor atom, score
      L1  H    22    43       P1  7921  1.00
      L1  H    24    46       P1 10957  0.64
      P1  H  7997  8010       L1     1  0.78

> <Gold.Chemscore.Hbond.Weighted>
-9.4734

> <Gold.Chemscore.Metal.Weighted>
-0.0000

> <Gold.Chemscore.Lipo.Weighted>
-7.6308

> <Gold.Chemscore.Internal_Hbond.Weighted>
0.0000

> <Gold.Chemscore.DEClash.Weighted>
0.0664

> <Gold.Chemscore.DEInternal.Weighted>
2.7974

> <Gold.Chemscore.Rot.Weighted>
8.4337

> <Gold.Chemscore.Internal.Correction.Weighted>
   9.000000E+99

> <Gold.Protein.RotatedTorsions>
[ 6907 6896 6895 6894 ] final   41.91 input  -60.11 | X-H torsion
[ 7974 7965 7964 7962 ] final  138.82 input  175.53 | X-H torsion
[ 8008 7997 7996 7995 ] final   21.45 input   59.86 | X-H torsion
[ 10167 10162 10161 10158 ] final  130.17 input  -65.29 | X-H torsion
[ 10718 10713 10712 10709 ] final   72.53 input   66.30 | X-H torsion
[ 10763 10752 10751 10750 ] final  130.54 input  -60.55 | X-H torsion
[ 11005 11000 10999 10996 ] final -159.09 input  -57.11 | X-H torsion

> <Gold.Protein.ActiveResidues>
 VAL166  LYS551  ARG553  GLY616  TRP617  ASP618  TYR619  PRO620  LYS621  CYS622 
 ASP623  PHE694  ASN695  SER759  ASP760  ASP761  ALA762  ILE779  LEU786  VAL792 
 PHE793  MET794  SER795  GLU796  ALA797  LYS798  CYS799  TRP800  GLU811  SER814 

> <Gold.Protein.RotatedAtoms>
  152.2012  134.8586  160.0507 H   0  0  0  0  0  0  0  0  0  0  0  0  # atno 6907 bound_to 6896
  151.9439  133.3641  159.3983 H   0  0  0  0  0  0  0  0  0  0  0  0  # atno 6908 bound_to 6896
  150.6955  134.4335  159.5303 H   0  0  0  0  0  0  0  0  0  0  0  0  # atno 6909 bound_to 6896
  144.9336  139.5016  143.5606 H   0  0  0  0  0  0  0  0  0  0  0  0  # atno 7974 bound_to 7965
  154.9508  140.3065  155.5076 H   0  0  0  0  0  0  0  0  0  0  0  0  # atno 8008 bound_to 7997
  156.2987  140.2319  156.4523 H   0  0  0  0  0  0  0  0  0  0  0  0  # atno 8009 bound_to 7997
  154.8057  140.0431  157.1294 H   0  0  0  0  0  0  0  0  0  0  0  0  # atno 8010 bound_to 7997
  139.5443  144.6759  151.4524 H   0  0  0  0  0  0  0  0  0  0  0  0  # atno 10167 bound_to 10162
  157.6505  130.9583  150.0942 H   0  0  0  0  0  0  0  0  0  0  0  0  # atno 10718 bound_to 10713
  153.7598  135.3197  155.3335 H   0  0  0  0  0  0  0  0  0  0  0  0  # atno 10763 bound_to 10752
  154.8234  135.4587  154.0849 H   0  0  0  0  0  0  0  0  0  0  0  0  # atno 10764 bound_to 10752
  153.2077  135.6931  153.8236 H   0  0  0  0  0  0  0  0  0  0  0  0  # atno 10765 bound_to 10752
  140.6465  134.4496  157.5234 H   0  0  0  0  0  0  0  0  0  0  0  0  # atno 11005 bound_to 11000
  146.3257  139.8305  142.8909 LP  0  0  0  0  0  0  0  0  0  0  0  0  # atno 17320 bound_to 7965
  145.3102  141.0218  143.3559 LP  0  0  0  0  0  0  0  0  0  0  0  0  # atno 17321 bound_to 7965
  140.6685  143.8346  150.6970 LP  0  0  0  0  0  0  0  0  0  0  0  0  # atno 17342 bound_to 10162
  140.1763  143.4152  152.1965 LP  0  0  0  0  0  0  0  0  0  0  0  0  # atno 17343 bound_to 10162
  156.1883  130.3653  149.8944 LP  0  0  0  0  0  0  0  0  0  0  0  0  # atno 17370 bound_to 10713
  156.6879  130.8884  151.3584 LP  0  0  0  0  0  0  0  0  0  0  0  0  # atno 17371 bound_to 10713
  139.9061  134.8446  156.1701 LP  0  0  0  0  0  0  0  0  0  0  0  0  # atno 17394 bound_to 11000
  141.0569  133.6861  156.1877 LP  0  0  0  0  0  0  0  0  0  0  0  0  # atno 17395 bound_to 11000

$$$$
