#       Name:                AV-unprocessed.smi:3092
#       Creating user name   scv26
#       Creation time:       Fri Mar 27 17:16:33 2020


#       File generated by GOLD software.
#

@<TRIPOS>MOLECULE
AV-unprocessed.smi:3092
    26    27     1
SMALL
NO_CHARGES


@<TRIPOS>ATOM
      1 ****        -2.0355   1.9902   0.0150 C.3            1 S1                 0.0000
      2 ****        -0.5719   2.0390   0.0097 N.pl3          1 S1                 0.0000
      3 ****         0.1993   3.1731   0.0102 C.2            1 S1                 0.0000
      4 ****         1.5054   2.7611   0.0006 C.2            1 S1                 0.0000
      5 ****         1.4782   1.3933  -0.0046 N.pl3          1 S1                 1.0000
      6 ****         0.2147   0.9478   0.0030 C.2            1 S1                 0.0000
      7 ****        -0.2001  -0.4978  -0.0038 C.3            1 S1                 0.0000
      8 ****         0.2669  -1.3095  -1.2097 C.3            1 S1                 0.0000
      9 ****         0.1338  -2.7620  -0.7290 C.3            1 S1                 0.0000
     10 ****         0.1507  -2.7239   0.7498 N.4            1 S1                 1.0000
     11 ****         0.3347  -1.3221   1.1670 C.3            1 S1                 0.0000
     12 ****        -2.4352   3.0048   0.0137 H              1 S1                 0.0000
     13 ****        -2.3766   1.4709   0.9112 H              1 S1                 0.0000
     14 ****        -2.3838   1.4660  -0.8755 H              1 S1                 0.0000
     15 ****        -0.2270   4.1663   0.0163 H              1 S1                 0.0000
     16 ****         2.4277   3.3239  -0.0035 H              1 S1                 0.0000
     17 ****        -1.2894  -0.5263   0.0275 H              1 S1                 0.0000
     18 ****        -0.3067  -1.1009  -2.1134 H              1 S1                 0.0000
     19 ****         1.3157  -1.0987  -1.4241 H              1 S1                 0.0000
     20 ****        -0.8143  -3.1920  -1.0538 H              1 S1                 0.0000
     21 ****         0.9369  -3.3906  -1.1149 H              1 S1                 0.0000
     22 ****        -0.7427  -3.0539   1.0871 H              1 S1                 0.0000
     23 ****         1.4026  -1.1479   1.3075 H              1 S1                 0.0000
     24 ****        -0.1713  -1.1054   2.1082 H              1 S1                 0.0000
     25 ****         0.8881  -3.3068   1.1205 H              1 S1                 0.0000
     26 ****         2.2992   0.8012  -0.0158 H              1 S1                 0.0000
@<TRIPOS>BOND
    1    1    2 1     
    2    1   12 1     
    3    1   13 1     
    4    1   14 1     
    5    2    6 1     
    6    2    3 1     
    7    3    4 2     
    8    3   15 1     
    9    4    5 1     
   10    4   16 1     
   11    5    6 2     
   12    5   26 1     
   13    6    7 1     
   14    7   11 1     
   15    7    8 1     
   16    7   17 1     
   17    8    9 1     
   18    8   18 1     
   19    8   19 1     
   20    9   10 1     
   21    9   20 1     
   22    9   21 1     
   23   10   11 1     
   24   10   22 1     
   25   10   25 1     
   26   11   23 1     
   27   11   24 1     
@<TRIPOS>SUBSTRUCTURE
      1 S1             1
@<TRIPOS>SET
DONOR_HYDROGENS      STATIC     ATOMS    <user>   **** ""
3 26 22 25
ATOM$RED        STATIC     ATOMS    COLORGROUP SYSTEM
3 26 22 25
