AV-unprocessed.smi:1007|AV-procd|sdf|4408|dock8
  -GOLD-   22720 2353D 1   1.00000     0.00000
 Structure written by MMmdl.
 57 59  0  0  0  0  0  0  0  0  3 V2000
  143.3583  146.0194  154.3096 C   0  0  0  0  0  0  0  0  0  0  0  0
  143.4391  144.7619  154.9579 O   0  0  0  0  0  0  0  0  0  0  0  0
  144.3994  143.9041  154.3641 C   0  0  0  0  0  0  0  0  0  0  0  0
  144.4788  142.6081  155.1856 C   0  0  0  0  0  0  0  0  0  0  0  0
  145.4585  141.6413  154.6279 N   0  3  2  0  0  0  0  0  0  0  0  0
  145.6901  140.4887  155.5340 C   0  0  0  0  0  0  0  0  0  0  0  0
  146.6296  139.4534  154.8863 C   0  0  0  0  0  0  0  0  0  0  0  0
  147.9213  140.0615  154.4809 N   0  3  2  0  0  0  0  0  0  0  0  0
  148.8346  140.3166  155.6271 C   0  0  0  0  0  0  0  0  0  0  0  0
  150.2715  140.6716  155.1835 C   0  0  2  0  0  0  0  0  0  0  0  0
  150.6411  139.8240  154.1152 O   0  0  0  0  0  0  0  0  0  0  0  0
  151.3192  140.5086  156.3026 C   0  0  0  0  0  0  0  0  0  0  0  0
  151.2579  141.5821  157.2778 N   0  0  0  0  0  0  0  0  0  0  0  0
  150.5138  142.7022  157.2026 C   0  0  0  0  0  0  0  0  0  0  0  0
  150.5872  143.5506  158.2236 N   0  0  0  0  0  0  0  0  0  0  0  0
  151.4932  142.9130  159.0536 C   0  0  0  0  0  0  0  0  0  0  0  0
  152.0045  143.2885  160.3149 C   0  0  0  0  0  0  0  0  0  0  0  0
  152.9275  142.4644  160.9976 C   0  0  0  0  0  0  0  0  0  0  0  0
  153.4513  142.9071  162.3526 C   0  0  0  0  0  0  0  0  0  0  0  0
  153.3540  141.2426  160.4175 C   0  0  0  0  0  0  0  0  0  0  0  0
  154.3461  140.3415  161.1315 C   0  0  0  0  0  0  0  0  0  0  0  0
  152.8548  140.8534  159.1572 C   0  0  0  0  0  0  0  0  0  0  0  0
  151.9352  141.6809  158.4889 C   0  0  0  0  0  0  0  0  0  0  0  0
  147.6980  141.2302  153.5887 C   0  0  0  0  0  0  0  0  0  0  0  0
  146.7395  142.2682  154.2095 C   0  0  0  0  0  0  0  0  0  0  0  0
  142.6092  146.6387  154.8033 H   0  0  0  0  0  0  0  0  0  0  0  0
  143.0656  145.9066  153.2649 H   0  0  0  0  0  0  0  0  0  0  0  0
  144.3121  146.5472  154.3512 H   0  0  0  0  0  0  0  0  0  0  0  0
  144.1466  143.7034  153.3228 H   0  0  0  0  0  0  0  0  0  0  0  0
  145.3745  144.3932  154.3660 H   0  0  0  0  0  0  0  0  0  0  0  0
  144.7281  142.8285  156.2246 H   0  0  0  0  0  0  0  0  0  0  0  0
  143.4852  142.1576  155.1980 H   0  0  0  0  0  0  0  0  0  0  0  0
  146.1026  140.8424  156.4804 H   0  0  0  0  0  0  0  0  0  0  0  0
  144.7382  140.0092  155.7658 H   0  0  0  0  0  0  0  0  0  0  0  0
  146.7986  138.6125  155.5601 H   0  0  0  0  0  0  0  0  0  0  0  0
  146.1522  139.0370  153.9981 H   0  0  0  0  0  0  0  0  0  0  0  0
  148.4112  141.1051  156.2467 H   0  0  0  0  0  0  0  0  0  0  0  0
  148.8827  139.4317  156.2634 H   0  0  0  0  0  0  0  0  0  0  0  0
  150.3170  141.6992  154.8248 H   0  0  0  0  0  0  0  0  0  0  0  0
  150.6598  138.9313  154.4262 H   0  0  0  0  0  0  0  0  0  0  0  0
  151.1820  139.5593  156.8224 H   0  0  0  0  0  0  0  0  0  0  0  0
  152.3249  140.4888  155.8798 H   0  0  0  0  0  0  0  0  0  0  0  0
  149.8740  142.9009  156.3548 H   0  0  0  0  0  0  0  0  0  0  0  0
  151.6803  144.2196  160.7566 H   0  0  0  0  0  0  0  0  0  0  0  0
  154.5383  142.9890  162.3353 H   0  0  0  0  0  0  0  0  0  0  0  0
  153.1698  142.1901  163.1238 H   0  0  0  0  0  0  0  0  0  0  0  0
  153.0486  143.8796  162.6371 H   0  0  0  0  0  0  0  0  0  0  0  0
  154.5418  139.4337  160.5604 H   0  0  0  0  0  0  0  0  0  0  0  0
  153.9619  140.0459  162.1080 H   0  0  0  0  0  0  0  0  0  0  0  0
  155.2956  140.8580  161.2745 H   0  0  0  0  0  0  0  0  0  0  0  0
  153.1730  139.9258  158.7048 H   0  0  0  0  0  0  0  0  0  0  0  0
  148.6397  141.7028  153.3136 H   0  0  0  0  0  0  0  0  0  0  0  0
  147.2677  140.8622  152.6563 H   0  0  0  0  0  0  0  0  0  0  0  0
  146.5517  143.0505  153.4751 H   0  0  0  0  0  0  0  0  0  0  0  0
  147.2059  142.7563  155.0663 H   0  0  0  0  0  0  0  0  0  0  0  0
  148.3944  139.3614  153.9260 H   0  0  0  0  0  0  0  0  0  0  0  0
  145.0303  141.2601  153.7957 H   0  0  0  0  0  0  0  0  0  0  0  0
  1  2  1  0  0  0  0
  1 26  1  0  0  0  0
  1 27  1  0  0  0  0
  1 28  1  0  0  0  0
  2  3  1  0  0  0  0
  3  4  1  0  0  0  0
  3 29  1  0  0  0  0
  3 30  1  0  0  0  0
  4  5  1  0  0  0  0
  4 31  1  0  0  0  0
  4 32  1  0  0  0  0
  5 25  1  0  0  0  0
  5  6  1  0  0  0  0
  5 57  1  0  0  0  0
  6  7  1  0  0  0  0
  6 33  1  0  0  0  0
  6 34  1  0  0  0  0
  7  8  1  0  0  0  0
  7 35  1  0  0  0  0
  7 36  1  0  0  0  0
  8  9  1  0  0  0  0
  8 24  1  0  0  0  0
  8 56  1  0  0  0  0
  9 10  1  0  0  0  0
  9 37  1  0  0  0  0
  9 38  1  0  0  0  0
 10 11  1  0  0  0  0
 10 12  1  0  0  0  0
 10 39  1  0  0  0  0
 11 40  1  0  0  0  0
 12 13  1  0  0  0  0
 12 41  1  0  0  0  0
 12 42  1  0  0  0  0
 13 23  1  0  0  0  0
 13 14  1  0  0  0  0
 14 15  2  0  0  0  0
 14 43  1  0  0  0  0
 15 16  1  0  0  0  0
 16 23  2  0  0  0  0
 16 17  1  0  0  0  0
 17 18  2  0  0  0  0
 17 44  1  0  0  0  0
 18 19  1  0  0  0  0
 18 20  1  0  0  0  0
 19 45  1  0  0  0  0
 19 46  1  0  0  0  0
 19 47  1  0  0  0  0
 20 21  1  0  0  0  0
 20 22  2  0  0  0  0
 21 48  1  0  0  0  0
 21 49  1  0  0  0  0
 21 50  1  0  0  0  0
 22 23  1  0  0  0  0
 22 51  1  0  0  0  0
 24 25  1  0  0  0  0
 24 52  1  0  0  0  0
 24 53  1  0  0  0  0
 25 54  1  0  0  0  0
 25 55  1  0  0  0  0
M  CHG  1   5   1
M  CHG  1   8   1
M  END
> <s_m_source_file>
AV-unprocessed.smi

> <i_m_source_file_index>
1007

> <i_lp_mmshare_version>
43012

> <i_f3d_flags>
0

> <s_epik_input>
W0NIM11PW0NIMl1bQ0gyXU4xW0NIMl1bQ0gyXU4oW0NIMl1bQ0gyXTEpW0NIMl1bQ0BIXShbT0hdKVtDSDJdbihbY0hdbjIpYyhjMjMpW2NIXWMoW0NIM10pYyhbY0hdMylbQ0gzXQ==

> <s_epik_cmdline>
J2VwaWtfcHl0aG9uJywgJy1waCcsICc3LjAnLCAnLXRuJywgJzgnLCAnLW1hJywgJzIwMCcsICctbWV0YWxfYmluZGluZycsICctaW1hZScsICc8aW5maWxlLm1hZT4nLCAnLW9tYWUnLCAnPG91dGZpbGUubWFlPic=

> <r_epik_Ionization_Penalty>
3.88944

> <r_epik_Ionization_Penalty_Charging>
3.80608

> <r_epik_Ionization_Penalty_Neutral>
0.0833653

> <r_epik_State_Penalty>
2.70739

> <r_epik_Charging_Adjusted_Penalty>
6.51347

> <i_epik_Tot_Q>
2

> <i_epik_Tot_abs_Q>
2

> <r_epik_Metal_State_Penalty>
2.62239

> <b_epik_Metal_Only>
0

> <s_lp_Force_Field>
OPLS_2005

> <r_lp_Energy>
30.4149

> <b_lp_Chiralities_Consistent>
1

> <s_lp_Variant>
AV-unprocessed.smi:1007-11

> <Gold.Version>
5.8.1

> <Gold.Id.Protein>
6NUR|6NUR_protein|mol2

> <Gold.PLP.Fitness>
57.9905

> <Gold.PLP.PLP>
-47.8852

> <Gold.PLP.part.hbond>
-2.6865

> <Gold.PLP.part.metal>
0.0000

> <Gold.PLP.part.buried>
-3.2462

> <Gold.PLP.part.nonpolar>
-41.7959

> <Gold.PLP.part.repulsive>
0.2481

> <Gold.PLP.ligand.clash>
0.0000

> <Gold.PLP.ligand.torsion>
0.4632

> <Gold.PLP.Chemscore.Hbond>
2.6200

> <Gold.PLP.Chemscore.CHOScore>
1.0000

> <Gold.PLP.Chemscore.Metal>
0.0000

> <Gold.Chemscore.Hbonds>
donor molecule, donor type, donor heavy atom, donor atom, acceptor molecule, acceptor atom, score
      L1  H     5    57       P1 10175  2.00
      P1  H  7989  7998       L1    11  0.70
      L1  C    14    43       P1  8028  1.00

> <Gold.PLP.Chemscore.Internal.Correction>
0.1718

> <Gold.Rescore>
     Score         DG    S(hbond)    S(metal)    S(lipo)     H(rot)  DE(clash)    DE(int)     intcor
     17.53     -17.98       1.27        0.00     128.27       2.63       0.01       0.44       ----

> <Gold.Chemscore.Fitness>
17.5284

> <Gold.Chemscore.DG>
-17.9782

> <Gold.Chemscore.ZeroCoef>
-5.4800

> <Gold.Chemscore.Hbond>
1.2681

> <Gold.Chemscore.Metal>
0.0000

> <Gold.Chemscore.Lipo>
128.2699

> <Gold.Chemscore.Internal_Hbond>
0.0000

> <Gold.Chemscore.DEClash>
0.0141

> <Gold.Chemscore.DEInternal>
0.4358

> <Gold.Chemscore.Rot>
2.6347

> <Gold.Chemscore.Internal.Correction>
   9.000000E+99

> <Gold.Chemscore.Hbonds>
donor molecule, donor type, donor heavy atom, donor atom, acceptor molecule, acceptor atom, score
      L1  H     5    57       P1 10175  0.47
      P1  H  7989  7998       L1    11  0.07

> <Gold.Chemscore.Hbond.Weighted>
-4.2354

> <Gold.Chemscore.Metal.Weighted>
-0.0000

> <Gold.Chemscore.Lipo.Weighted>
-15.0076

> <Gold.Chemscore.Internal_Hbond.Weighted>
0.0000

> <Gold.Chemscore.DEClash.Weighted>
0.0141

> <Gold.Chemscore.DEInternal.Weighted>
0.4358

> <Gold.Chemscore.Rot.Weighted>
6.7448

> <Gold.Chemscore.Internal.Correction.Weighted>
   9.000000E+99

> <Gold.Protein.RotatedTorsions>
[ 6907 6896 6895 6894 ] final  107.09 input  -60.11 | X-H torsion
[ 7974 7965 7964 7962 ] final -164.04 input  175.53 | X-H torsion
[ 8008 7997 7996 7995 ] final  164.83 input   59.86 | X-H torsion
[ 10167 10162 10161 10158 ] final    8.14 input  -65.29 | X-H torsion
[ 10718 10713 10712 10709 ] final  -10.27 input   66.30 | X-H torsion
[ 10763 10752 10751 10750 ] final -164.93 input  -60.55 | X-H torsion
[ 11005 11000 10999 10996 ] final  170.23 input  -57.11 | X-H torsion

> <Gold.Protein.ActiveResidues>
 VAL166  LYS551  ARG553  GLY616  TRP617  ASP618  TYR619  PRO620  LYS621  CYS622 
 ASP623  PHE694  ASN695  SER759  ASP760  ASP761  ALA762  ILE779  LEU786  VAL792 
 PHE793  MET794  SER795  GLU796  ALA797  LYS798  CYS799  TRP800  GLU811  SER814 

> <Gold.Protein.RotatedAtoms>
  152.5168  133.9285  159.7568 H   0  0  0  0  0  0  0  0  0  0  0  0  # atno 6907 bound_to 6896
  150.9641  133.6405  159.2756 H   0  0  0  0  0  0  0  0  0  0  0  0  # atno 6908 bound_to 6896
  151.3640  135.0915  159.9496 H   0  0  0  0  0  0  0  0  0  0  0  0  # atno 6909 bound_to 6896
  144.7308  140.3019  143.6203 H   0  0  0  0  0  0  0  0  0  0  0  0  # atno 7974 bound_to 7965
  156.1849  140.1686  156.8204 H   0  0  0  0  0  0  0  0  0  0  0  0  # atno 8008 bound_to 7997
  154.5402  140.0738  156.8530 H   0  0  0  0  0  0  0  0  0  0  0  0  # atno 8009 bound_to 7997
  155.3229  140.3374  155.4243 H   0  0  0  0  0  0  0  0  0  0  0  0  # atno 8010 bound_to 7997
  140.6331  143.7948  150.7322 H   0  0  0  0  0  0  0  0  0  0  0  0  # atno 10167 bound_to 10162
  156.6759  130.5023  149.5986 H   0  0  0  0  0  0  0  0  0  0  0  0  # atno 10718 bound_to 10713
  154.6981  135.2983  154.9381 H   0  0  0  0  0  0  0  0  0  0  0  0  # atno 10763 bound_to 10752
  154.0322  135.6668  153.4786 H   0  0  0  0  0  0  0  0  0  0  0  0  # atno 10764 bound_to 10752
  153.0661  135.5087  154.8110 H   0  0  0  0  0  0  0  0  0  0  0  0  # atno 10765 bound_to 10752
  140.3062  134.7555  157.3955 H   0  0  0  0  0  0  0  0  0  0  0  0  # atno 11005 bound_to 11000
  145.7751  139.1871  143.2190 LP  0  0  0  0  0  0  0  0  0  0  0  0  # atno 17320 bound_to 7965
  146.0879  140.7690  142.9609 LP  0  0  0  0  0  0  0  0  0  0  0  0  # atno 17321 bound_to 7965
  140.1563  143.4313  152.2097 LP  0  0  0  0  0  0  0  0  0  0  0  0  # atno 17342 bound_to 10162
  139.5543  144.7361  151.4340 LP  0  0  0  0  0  0  0  0  0  0  0  0  # atno 17343 bound_to 10162
  156.1903  130.6556  151.1054 LP  0  0  0  0  0  0  0  0  0  0  0  0  # atno 17370 bound_to 10713
  157.7061  131.0756  150.6663 LP  0  0  0  0  0  0  0  0  0  0  0  0  # atno 17371 bound_to 10713
  140.1065  134.5402  155.8304 LP  0  0  0  0  0  0  0  0  0  0  0  0  # atno 17394 bound_to 11000
  141.2118  133.6711  156.6609 LP  0  0  0  0  0  0  0  0  0  0  0  0  # atno 17395 bound_to 11000

$$$$
