#       Name:                AV-unprocessed.smi:2035
#       Creating user name   scv26
#       Creation time:       Fri Mar 27 10:54:09 2020


#       File generated by GOLD software.
#

@<TRIPOS>MOLECULE
AV-unprocessed.smi:2035
    39    40     1
SMALL
NO_CHARGES


@<TRIPOS>ATOM
      1 ****         1.4039   0.8698   0.4153 O.2            1 S1                 0.0000
      2 ****         1.0834  -0.2192  -0.0609 C.2            1 S1                 0.0000
      3 ****         1.9170  -1.2509  -0.2817 N.am           1 S1                 0.0000
      4 ****         3.3176  -1.3315  -0.0523 C.ar           1 S1                 0.0000
      5 ****         3.8962  -2.6157   0.0221 C.ar           1 S1                 0.0000
      6 ****         5.2854  -2.7245   0.2317 C.ar           1 S1                 0.0000
      7 ****         6.1021  -1.6576   0.3581 N.ar           1 S1                 0.0000
      8 ****         5.5493  -0.4292   0.2734 C.ar           1 S1                 0.0000
      9 ****         4.1727  -0.2092   0.0659 C.ar           1 S1                 0.0000
     10 ****        -0.1730  -0.5322  -0.4097 N.am           1 S1                 0.0000
     11 ****        -1.3347   0.3519  -0.3110 C.3            1 S1                 0.0000
     12 ****        -1.8747   0.3862   1.1428 C.3            1 S1                 0.0000
     13 ****        -3.3688   0.7359   1.3062 C.3            1 S1                 0.0000
     14 ****        -3.8213   2.0506   0.6388 C.3            1 S1                 0.0000
     15 ****        -3.5093   2.2074  -0.8685 C.3            1 S1                 0.0000
     16 ****        -3.3672   0.9426  -1.5887 N.am           1 S1                 0.0000
     17 ****        -2.3818   0.0479  -1.4003 C.2            1 S1                 0.0000
     18 ****        -2.3233  -0.9902  -2.0583 O.2            1 S1                 0.0000
     19 ****         1.4858  -2.1036  -0.6071 H              1 S1                 0.0000
     20 ****         3.2902  -3.5049  -0.0740 H              1 S1                 0.0000
     21 ****         5.7530  -3.6958   0.2975 H              1 S1                 0.0000
     22 ****         6.2267   0.4068   0.3666 H              1 S1                 0.0000
     23 ****         3.8098   0.8039  -0.0097 H              1 S1                 0.0000
     24 ****        -0.3442  -1.4506  -0.7930 H              1 S1                 0.0000
     25 ****        -0.9690   1.3526  -0.5456 H              1 S1                 0.0000
     26 ****        -1.7164  -0.5873   1.6095 H              1 S1                 0.0000
     27 ****        -1.2767   1.0892   1.7240 H              1 S1                 0.0000
     28 ****        -3.9765  -0.0872   0.9280 H              1 S1                 0.0000
     29 ****        -3.5992   0.7889   2.3707 H              1 S1                 0.0000
     30 ****        -4.9002   2.1328   0.7757 H              1 S1                 0.0000
     31 ****        -3.3954   2.8981   1.1767 H              1 S1                 0.0000
     32 ****        -4.3007   2.7868  -1.3444 H              1 S1                 0.0000
     33 ****        -2.6027   2.7983  -1.0026 H              1 S1                 0.0000
     34 ****        -4.0592   0.7394  -2.2956 H              1 S1                 0.0000
     35 ****         2.3546   1.0425   0.6731 LP             1 S1                 0.0000
     36 ****         0.7136   1.5817   0.5444 LP             1 S1                 0.0000
     37 ****         7.0838  -1.7732   0.5094 LP             1 S1                 0.0000
     38 ****        -1.5900  -1.6487  -1.8892 LP             1 S1                 0.0000
     39 ****        -3.0090  -1.1753  -2.7622 LP             1 S1                 0.0000
@<TRIPOS>BOND
    1    1    2 2     
    2    2    3 am    
    3    2   10 am    
    4    3    4 1     
    5    3   19 1     
    6    4    9 ar    
    7    4    5 ar    
    8    5    6 ar    
    9    5   20 1     
   10    6    7 ar    
   11    6   21 1     
   12    7    8 ar    
   13    8    9 ar    
   14    8   22 1     
   15    9   23 1     
   16   10   11 1     
   17   10   24 1     
   18   11   17 1     
   19   11   12 1     
   20   11   25 1     
   21   12   13 1     
   22   12   26 1     
   23   12   27 1     
   24   13   14 1     
   25   13   28 1     
   26   13   29 1     
   27   14   15 1     
   28   14   30 1     
   29   14   31 1     
   30   15   16 1     
   31   15   32 1     
   32   15   33 1     
   33   16   17 am    
   34   16   34 1     
   35   17   18 2     
   36    1   35 1     
   37    1   36 1     
   38    7   37 1     
   39   18   38 1     
   40   18   39 1     
@<TRIPOS>SUBSTRUCTURE
      1 S1             1
@<TRIPOS>SET
LONE_PAIRS      STATIC     ATOMS    <user>   **** ""
5 35 36 37 38 39
DONOR_HYDROGENS      STATIC     ATOMS    <user>   **** ""
3 19 24 34
ATOM$BLUE        STATIC     ATOMS    COLORGROUP SYSTEM
5 35 36 37 38 39
ATOM$RED        STATIC     ATOMS    COLORGROUP SYSTEM
3 19 24 34
