#       Name:                AV-unprocessed.smi:1063
#       Creating user name   scv26
#       Creation time:       Fri Mar 27 03:17:27 2020


#       File generated by GOLD software.
#

@<TRIPOS>MOLECULE
AV-unprocessed.smi:1063
    43    44     1
SMALL
NO_CHARGES


@<TRIPOS>ATOM
      1 ****        -7.4881   2.2888  -2.1161 C.3            1 S1                 0.0000
      2 ****        -5.9726   2.0717  -2.1168 C.3            1 S1                 0.0000
      3 ****        -5.4978   0.7064  -1.0198 S.3            1 S1                 0.0000
      4 ****        -3.7384   0.5389  -1.0834 C.ar           1 S1                 0.0000
      5 ****        -2.9276   1.3469  -1.9068 C.ar           1 S1                 0.0000
      6 ****        -1.5371   1.1297  -1.8818 C.ar           1 S1                 0.0000
      7 ****        -1.0057   0.1252  -1.0461 C.ar           1 S1                 0.0000
      8 ****         0.4065  -0.0495  -1.0518 N.am           1 S1                 0.0000
      9 ****         1.1630  -0.9412  -0.3882 C.2            1 S1                 0.0000
     10 ****         0.7425  -1.8361   0.3435 O.2            1 S1                 0.0000
     11 ****         2.4660  -0.7362  -0.6273 N.am           1 S1                 0.0000
     12 ****         3.5583  -1.4981  -0.0321 C.3            1 S1                 0.0000
     13 ****         4.0032  -0.8892   1.3079 C.3            1 S1                 0.0000
     14 ****         5.2122  -1.5819   1.9290 C.3            1 S1                 0.0000
     15 ****         5.1072  -1.1926   3.3928 C.3            1 S1                 0.0000
     16 ****         3.6220  -0.8657   3.5809 C.3            1 S1                 0.0000
     17 ****         3.0154  -1.0702   2.3107 O.3            1 S1                 0.0000
     18 ****        -1.9166  -0.6248  -0.2591 C.ar           1 S1                 0.0000
     19 ****        -3.2522  -0.4257  -0.2763 N.ar           1 S1                 0.0000
     20 ****        -7.7629   3.1129  -2.7748 H              1 S1                 0.0000
     21 ****        -7.8506   2.5266  -1.1157 H              1 S1                 0.0000
     22 ****        -8.0129   1.3974  -2.4607 H              1 S1                 0.0000
     23 ****        -5.6309   1.8511  -3.1283 H              1 S1                 0.0000
     24 ****        -5.4676   2.9813  -1.7910 H              1 S1                 0.0000
     25 ****        -3.3408   2.1134  -2.5436 H              1 S1                 0.0000
     26 ****        -0.8868   1.7319  -2.4997 H              1 S1                 0.0000
     27 ****         0.9129   0.6033  -1.6317 H              1 S1                 0.0000
     28 ****         2.7235   0.0170  -1.2481 H              1 S1                 0.0000
     29 ****         3.2814  -2.5468   0.0897 H              1 S1                 0.0000
     30 ****         4.3922  -1.4794  -0.7343 H              1 S1                 0.0000
     31 ****         4.2067   0.1775   1.1954 H              1 S1                 0.0000
     32 ****         5.1186  -2.6642   1.8291 H              1 S1                 0.0000
     33 ****         6.1561  -1.2795   1.4745 H              1 S1                 0.0000
     34 ****         5.4434  -1.9945   4.0505 H              1 S1                 0.0000
     35 ****         5.7140  -0.3103   3.5999 H              1 S1                 0.0000
     36 ****         3.1503  -1.5012   4.3307 H              1 S1                 0.0000
     37 ****         3.4916   0.1735   3.8853 H              1 S1                 0.0000
     38 ****        -1.5999  -1.4050   0.4130 H              1 S1                 0.0000
     39 ****        -0.2414  -1.9455   0.4849 LP             1 S1                 0.0000
     40 ****         1.3846  -2.4543   0.7970 LP             1 S1                 0.0000
     41 ****         2.6468  -1.9983   2.2580 LP             1 S1                 0.0000
     42 ****         2.2760  -0.4100   2.1794 LP             1 S1                 0.0000
     43 ****        -3.8624  -0.9772   0.2925 LP             1 S1                 0.0000
@<TRIPOS>BOND
    1    1    2 1     
    2    1   20 1     
    3    1   21 1     
    4    1   22 1     
    5    2    3 1     
    6    2   23 1     
    7    2   24 1     
    8    3    4 1     
    9    4   19 ar    
   10    4    5 ar    
   11    5    6 ar    
   12    5   25 1     
   13    6    7 ar    
   14    6   26 1     
   15    7    8 1     
   16    7   18 ar    
   17    8    9 am    
   18    8   27 1     
   19    9   10 2     
   20    9   11 am    
   21   11   12 1     
   22   11   28 1     
   23   12   13 1     
   24   12   29 1     
   25   12   30 1     
   26   13   17 1     
   27   13   14 1     
   28   13   31 1     
   29   14   15 1     
   30   14   32 1     
   31   14   33 1     
   32   15   16 1     
   33   15   34 1     
   34   15   35 1     
   35   16   17 1     
   36   16   36 1     
   37   16   37 1     
   38   18   19 ar    
   39   18   38 1     
   40   10   39 1     
   41   10   40 1     
   42   17   41 1     
   43   17   42 1     
   44   19   43 1     
@<TRIPOS>SUBSTRUCTURE
      1 S1             1
@<TRIPOS>SET
LONE_PAIRS      STATIC     ATOMS    <user>   **** ""
5 39 40 41 42 43
DONOR_HYDROGENS      STATIC     ATOMS    <user>   **** ""
2 27 28
ATOM$BLUE        STATIC     ATOMS    COLORGROUP SYSTEM
5 39 40 41 42 43
ATOM$RED        STATIC     ATOMS    COLORGROUP SYSTEM
2 27 28
