#       Name:                AV-unprocessed.smi:1898
#       Creating user name   scv26
#       Creation time:       Fri Mar 27 09:44:15 2020


#       File generated by GOLD software.
#

@<TRIPOS>MOLECULE
AV-unprocessed.smi:1898
    54    55     1
SMALL
NO_CHARGES


@<TRIPOS>ATOM
      1 ****        -6.1575  -2.3142  -3.2407 C.3            1 S1                 0.0000
      2 ****        -5.7345  -1.7669  -1.9571 N.pl3          1 S1                -1.0000
      3 ****        -5.0095  -2.4685  -1.0453 C.2            1 S1                 0.0000
      4 ****        -4.5760  -3.6251  -1.0776 O.2            1 S1                 0.0000
      5 ****        -4.6944  -1.6137   0.1875 C.3            1 S1                 0.0000
      6 ****        -3.2415  -1.3168   0.2400 N.4            1 S1                 1.0000
      7 ****        -2.7617  -1.0779   1.6244 C.3            1 S1                 0.0000
      8 ****        -1.2315  -0.9301   1.6628 C.3            1 S1                 0.0000
      9 ****        -0.7556   0.1931   0.7275 C.3            1 S1                 0.0000
     10 ****         0.7036   0.2389   0.7120 N.am           1 S1                 0.0000
     11 ****         1.4406   1.3187   0.4153 C.2            1 S1                 0.0000
     12 ****         0.9538   2.4150   0.1414 O.2            1 S1                 0.0000
     13 ****         2.7533   1.0352   0.4691 N.am           1 S1                 0.0000
     14 ****         3.8724   1.8764   0.2098 C.ar           1 S1                 0.0000
     15 ****         3.7914   3.1335  -0.4386 C.ar           1 S1                 0.0000
     16 ****         4.9714   3.8692  -0.6537 C.ar           1 S1                 0.0000
     17 ****         6.1919   3.3218  -0.2189 C.ar           1 S1                 0.0000
     18 ****         6.2872   2.1226   0.3902 N.ar           1 S1                 0.0000
     19 ****         5.1511   1.4108   0.5982 C.ar           1 S1                 0.0000
     20 ****         5.2528   0.1788   1.2164 O.3            1 S1                 0.0000
     21 ****         6.5439  -0.2902   1.5898 C.3            1 S1                 0.0000
     22 ****        -1.3058  -0.0473  -0.6903 C.3            1 S1                 0.0000
     23 ****        -2.8336  -0.2175  -0.6755 C.3            1 S1                 0.0000
     24 ****        -6.7563  -1.6021  -3.8078 H              1 S1                 0.0000
     25 ****        -6.7664  -3.2120  -3.1311 H              1 S1                 0.0000
     26 ****        -5.3125  -2.5815  -3.8760 H              1 S1                 0.0000
     27 ****        -5.2776  -0.6908   0.2279 H              1 S1                 0.0000
     28 ****        -4.9879  -2.1999   1.0595 H              1 S1                 0.0000
     29 ****        -3.2395  -0.1831   2.0266 H              1 S1                 0.0000
     30 ****        -3.0547  -1.9104   2.2653 H              1 S1                 0.0000
     31 ****        -0.9071  -0.7290   2.6845 H              1 S1                 0.0000
     32 ****        -0.7712  -1.8760   1.3724 H              1 S1                 0.0000
     33 ****        -1.1436   1.1411   1.1059 H              1 S1                 0.0000
     34 ****         1.1885  -0.6190   0.9316 H              1 S1                 0.0000
     35 ****         2.9889   0.0998   0.7670 H              1 S1                 0.0000
     36 ****         2.8590   3.5473  -0.7872 H              1 S1                 0.0000
     37 ****         4.9409   4.8305  -1.1448 H              1 S1                 0.0000
     38 ****         7.1171   3.8587  -0.3683 H              1 S1                 0.0000
     39 ****         6.4497  -1.2698   2.0579 H              1 S1                 0.0000
     40 ****         7.0185   0.3764   2.3114 H              1 S1                 0.0000
     41 ****         7.1949  -0.4007   0.7213 H              1 S1                 0.0000
     42 ****        -1.0372   0.7827  -1.3450 H              1 S1                 0.0000
     43 ****        -0.8484  -0.9400  -1.1198 H              1 S1                 0.0000
     44 ****        -3.1750  -0.4229  -1.6903 H              1 S1                 0.0000
     45 ****        -3.3124   0.7126  -0.3655 H              1 S1                 0.0000
     46 ****        -2.7799  -2.1556  -0.0818 H              1 S1                 0.0000
     47 ****        -5.9910  -0.8261  -1.7356 LP             1 S1                 0.0000
     48 ****        -4.7482  -4.2015  -1.8764 LP             1 S1                 0.0000
     49 ****        -4.0529  -3.9848  -0.3049 LP             1 S1                 0.0000
     50 ****        -0.0392   2.5330   0.1327 LP             1 S1                 0.0000
     51 ****         1.5511   3.1879  -0.0725 LP             1 S1                 0.0000
     52 ****         7.1748   1.7661   0.6819 LP             1 S1                 0.0000
     53 ****         4.8623  -0.4978   0.5920 LP             1 S1                 0.0000
     54 ****         4.7016   0.2204   2.0497 LP             1 S1                 0.0000
@<TRIPOS>BOND
    1    1    2 1     
    2    1   24 1     
    3    1   25 1     
    4    1   26 1     
    5    2    3 1     
    6    3    4 2     
    7    3    5 1     
    8    5    6 1     
    9    5   27 1     
   10    5   28 1     
   11    6   23 1     
   12    6    7 1     
   13    6   46 1     
   14    7    8 1     
   15    7   29 1     
   16    7   30 1     
   17    8    9 1     
   18    8   31 1     
   19    8   32 1     
   20    9   10 1     
   21    9   22 1     
   22    9   33 1     
   23   10   11 am    
   24   10   34 1     
   25   11   12 2     
   26   11   13 am    
   27   13   14 1     
   28   13   35 1     
   29   14   19 ar    
   30   14   15 ar    
   31   15   16 ar    
   32   15   36 1     
   33   16   17 ar    
   34   16   37 1     
   35   17   18 ar    
   36   17   38 1     
   37   18   19 ar    
   38   19   20 1     
   39   20   21 1     
   40   21   39 1     
   41   21   40 1     
   42   21   41 1     
   43   22   23 1     
   44   22   42 1     
   45   22   43 1     
   46   23   44 1     
   47   23   45 1     
   48    2   47 1     
   49    4   48 1     
   50    4   49 1     
   51   12   50 1     
   52   12   51 1     
   53   18   52 1     
   54   20   53 1     
   55   20   54 1     
@<TRIPOS>SUBSTRUCTURE
      1 S1             1
@<TRIPOS>SET
LONE_PAIRS      STATIC     ATOMS    <user>   **** ""
8 47 48 49 50 51 52 53 54
DONOR_HYDROGENS      STATIC     ATOMS    <user>   **** ""
3 46 34 35
ATOM$BLUE        STATIC     ATOMS    COLORGROUP SYSTEM
8 47 48 49 50 51 52 53 54
ATOM$RED        STATIC     ATOMS    COLORGROUP SYSTEM
3 46 34 35
