#       Name:                AV-unprocessed.smi:1055
#       Creating user name   scv26
#       Creation time:       Fri Mar 27 03:13:14 2020


#       File generated by GOLD software.
#

@<TRIPOS>MOLECULE
AV-unprocessed.smi:1055
    54    55     1
SMALL
NO_CHARGES


@<TRIPOS>ATOM
      1 ****        -6.4502  -3.7216   0.3600 C.2            1 S1                 0.0000
      2 ****        -5.6566  -3.5863  -0.7152 C.2            1 S1                 0.0000
      3 ****        -4.9599  -4.7728  -1.3547 C.3            1 S1                 0.0000
      4 ****        -5.4231  -2.2359  -1.3772 C.3            1 S1                 0.0000
      5 ****        -4.0173  -1.8307  -1.3992 N.3            1 S1                 0.0000
      6 ****        -3.4803  -1.6764  -0.0423 C.3            1 S1                 0.0000
      7 ****        -1.9866  -1.3117  -0.0936 C.3            1 S1                 0.0000
      8 ****        -1.7586  -0.0190  -0.8952 C.3            1 S1                 0.0000
      9 ****        -0.3328   0.2508  -1.0564 N.am           1 S1                 0.0000
     10 ****         0.4489   0.8367  -0.1383 C.2            1 S1                 0.0000
     11 ****         0.0374   1.2261   0.9544 O.2            1 S1                 0.0000
     12 ****         1.7147   0.9505  -0.5765 N.am           1 S1                 0.0000
     13 ****         2.8436   1.4767   0.1084 C.ar           1 S1                 0.0000
     14 ****         3.9706   1.8390  -0.6584 C.ar           1 S1                 0.0000
     15 ****         5.1193   2.3511  -0.0205 C.ar           1 S1                 0.0000
     16 ****         5.1394   2.4908   1.3892 C.ar           1 S1                 0.0000
     17 ****         6.2500   2.9936   2.1010 N.pl3          1 S1                 0.0000
     18 ****         7.4512   3.3964   1.3812 C.3            1 S1                 0.0000
     19 ****         6.1957   3.0896   3.5556 C.3            1 S1                 0.0000
     20 ****         4.0370   2.1172   2.0837 N.pl3          1 S1                 1.0000
     21 ****         2.9165   1.6242   1.5140 C.ar           1 S1                 0.0000
     22 ****        -2.4254  -0.1594  -2.2710 C.3            1 S1                 0.0000
     23 ****        -3.9023  -0.5661  -2.1282 C.3            1 S1                 0.0000
     24 ****        -6.6157  -4.6861   0.8172 H              1 S1                 0.0000
     25 ****        -6.9463  -2.8691   0.8003 H              1 S1                 0.0000
     26 ****        -5.2628  -4.8709  -2.3973 H              1 S1                 0.0000
     27 ****        -5.2055  -5.7029  -0.8408 H              1 S1                 0.0000
     28 ****        -3.8775  -4.6461  -1.3221 H              1 S1                 0.0000
     29 ****        -5.7954  -2.2997  -2.4006 H              1 S1                 0.0000
     30 ****        -6.0176  -1.4727  -0.8719 H              1 S1                 0.0000
     31 ****        -4.0393  -0.9095   0.4961 H              1 S1                 0.0000
     32 ****        -3.5912  -2.6041   0.5191 H              1 S1                 0.0000
     33 ****        -1.6044  -1.1986   0.9214 H              1 S1                 0.0000
     34 ****        -1.4292  -2.1347  -0.5438 H              1 S1                 0.0000
     35 ****        -2.2281   0.8152  -0.3701 H              1 S1                 0.0000
     36 ****         0.0865  -0.0364  -1.9287 H              1 S1                 0.0000
     37 ****         1.8820   0.6562  -1.5277 H              1 S1                 0.0000
     38 ****         3.9582   1.7309  -1.7332 H              1 S1                 0.0000
     39 ****         5.9690   2.6271  -0.6268 H              1 S1                 0.0000
     40 ****         7.8782   2.5477   0.8463 H              1 S1                 0.0000
     41 ****         8.2123   3.7784   2.0619 H              1 S1                 0.0000
     42 ****         7.2225   4.1844   0.6631 H              1 S1                 0.0000
     43 ****         6.0212   2.1086   3.9987 H              1 S1                 0.0000
     44 ****         5.3921   3.7584   3.8654 H              1 S1                 0.0000
     45 ****         7.1289   3.4779   3.9638 H              1 S1                 0.0000
     46 ****         2.1355   1.3588   2.2104 H              1 S1                 0.0000
     47 ****        -2.3544   0.7809  -2.8189 H              1 S1                 0.0000
     48 ****        -1.9009  -0.9069  -2.8685 H              1 S1                 0.0000
     49 ****        -4.3411  -0.6752  -3.1208 H              1 S1                 0.0000
     50 ****        -4.4631   0.2168  -1.6148 H              1 S1                 0.0000
     51 ****         4.0541   2.2108   3.0994 H              1 S1                 0.0000
     52 ****        -3.4849  -2.5442  -1.8548 LP             1 S1                 0.0000
     53 ****        -0.9263   1.1116   1.1955 LP             1 S1                 0.0000
     54 ****         0.6668   1.6569   1.6012 LP             1 S1                 0.0000
@<TRIPOS>BOND
    1    1    2 2     
    2    1   24 1     
    3    1   25 1     
    4    2    3 1     
    5    2    4 1     
    6    3   26 1     
    7    3   27 1     
    8    3   28 1     
    9    4    5 1     
   10    4   29 1     
   11    4   30 1     
   12    5   23 1     
   13    5    6 1     
   14    6    7 1     
   15    6   31 1     
   16    6   32 1     
   17    7    8 1     
   18    7   33 1     
   19    7   34 1     
   20    8    9 1     
   21    8   22 1     
   22    8   35 1     
   23    9   10 am    
   24    9   36 1     
   25   10   11 2     
   26   10   12 am    
   27   12   13 1     
   28   12   37 1     
   29   13   21 ar    
   30   13   14 ar    
   31   14   15 ar    
   32   14   38 1     
   33   15   16 ar    
   34   15   39 1     
   35   16   17 1     
   36   16   20 ar    
   37   17   18 1     
   38   17   19 1     
   39   18   40 1     
   40   18   41 1     
   41   18   42 1     
   42   19   43 1     
   43   19   44 1     
   44   19   45 1     
   45   20   21 ar    
   46   20   51 1     
   47   21   46 1     
   48   22   23 1     
   49   22   47 1     
   50   22   48 1     
   51   23   49 1     
   52   23   50 1     
   53    5   52 1     
   54   11   53 1     
   55   11   54 1     
@<TRIPOS>SUBSTRUCTURE
      1 S1             1
@<TRIPOS>SET
LONE_PAIRS      STATIC     ATOMS    <user>   **** ""
3 52 53 54
DONOR_HYDROGENS      STATIC     ATOMS    <user>   **** ""
3 36 37 51
ATOM$BLUE        STATIC     ATOMS    COLORGROUP SYSTEM
3 52 53 54
ATOM$RED        STATIC     ATOMS    COLORGROUP SYSTEM
3 36 37 51
