#       Name:                AV-unprocessed.smi:1586
#       Creating user name   scv26
#       Creation time:       Fri Mar 27 07:01:05 2020


#       File generated by GOLD software.
#

@<TRIPOS>MOLECULE
AV-unprocessed.smi:1586
    53    54     1
SMALL
NO_CHARGES


@<TRIPOS>ATOM
      1 ****        -4.7336  -4.0074   0.0530 C.3            1 S1                 0.0000
      2 ****        -3.2148  -3.8112   0.1609 C.3            1 S1                 0.0000
      3 ****        -2.6794  -2.9053  -0.8855 N.4            1 S1                 1.0000
      4 ****        -1.2129  -3.0506  -1.0569 C.3            1 S1                 0.0000
      5 ****        -0.7000  -2.1138  -2.1711 C.3            1 S1                 0.0000
      6 ****        -0.9896  -0.7034  -1.8742 N.3            1 S1                 0.0000
      7 ****        -0.2646  -0.1304  -0.7159 C.3            1 S1                 0.0000
      8 ****        -0.6519   1.3549  -0.5155 C.3            1 S1                 0.0000
      9 ****         1.2722  -0.2808  -0.8820 C.3            1 S1                 0.0000
     10 ****         2.0090   0.2080   0.2810 N.am           1 S1                 0.0000
     11 ****         2.7145   1.3454   0.3621 C.2            1 S1                 0.0000
     12 ****         2.7867   2.0991  -0.6109 O.2            1 S1                 0.0000
     13 ****         3.2815   1.5423   1.5743 N.pl3          1 S1                -1.0000
     14 ****         3.9911   2.6553   1.8162 C.2            1 S1                 0.0000
     15 ****         3.4609   3.9104   2.2221 C.2            1 S1                 0.0000
     16 ****         4.5734   4.6923   2.3514 C.2            1 S1                 0.0000
     17 ****         4.7677   6.1179   2.7414 C.3            1 S1                 0.0000
     18 ****         5.6912   3.9748   2.0585 O.3            1 S1                 0.0000
     19 ****         5.3101   2.6700   1.7228 N.2            1 S1                 0.0000
     20 ****        -2.4551  -0.6028  -1.8090 C.3            1 S1                 0.0000
     21 ****        -3.0429  -1.4795  -0.6821 C.3            1 S1                 0.0000
     22 ****        -5.0753  -4.7495   0.7748 H              1 S1                 0.0000
     23 ****        -5.0164  -4.3590  -0.9396 H              1 S1                 0.0000
     24 ****        -5.2806  -3.0870   0.2548 H              1 S1                 0.0000
     25 ****        -2.9444  -3.4405   1.1508 H              1 S1                 0.0000
     26 ****        -2.7432  -4.7893   0.0577 H              1 S1                 0.0000
     27 ****        -0.6995  -2.8616  -0.1133 H              1 S1                 0.0000
     28 ****        -0.9869  -4.0819  -1.3297 H              1 S1                 0.0000
     29 ****         0.3599  -2.2758  -2.3559 H              1 S1                 0.0000
     30 ****        -1.1853  -2.3777  -3.1120 H              1 S1                 0.0000
     31 ****        -0.5467  -0.6654   0.1897 H              1 S1                 0.0000
     32 ****        -0.0921   1.8134   0.2984 H              1 S1                 0.0000
     33 ****        -1.6980   1.4813  -0.2416 H              1 S1                 0.0000
     34 ****        -0.4594   1.9409  -1.4149 H              1 S1                 0.0000
     35 ****         1.5610  -1.3269  -0.9593 H              1 S1                 0.0000
     36 ****         1.6078   0.2002  -1.8023 H              1 S1                 0.0000
     37 ****         1.9841  -0.3711   1.1073 H              1 S1                 0.0000
     38 ****         2.4315   4.1902   2.3880 H              1 S1                 0.0000
     39 ****         4.5044   6.2695   3.7881 H              1 S1                 0.0000
     40 ****         4.1394   6.7715   2.1364 H              1 S1                 0.0000
     41 ****         5.8047   6.4259   2.6053 H              1 S1                 0.0000
     42 ****        -2.7802   0.4303  -1.7030 H              1 S1                 0.0000
     43 ****        -2.8691  -0.9245  -2.7657 H              1 S1                 0.0000
     44 ****        -4.1270  -1.3720  -0.6917 H              1 S1                 0.0000
     45 ****        -2.7087  -1.1378   0.2981 H              1 S1                 0.0000
     46 ****        -3.0929  -3.1905  -1.7616 H              1 S1                 0.0000
     47 ****        -0.6288  -0.1172  -2.5996 LP             1 S1                 0.0000
     48 ****         2.3187   1.8626  -1.4624 LP             1 S1                 0.0000
     49 ****         3.3133   2.9470  -0.5486 LP             1 S1                 0.0000
     50 ****         3.1714   0.8558   2.2930 LP             1 S1                 0.0000
     51 ****         6.2965   3.9547   2.8542 LP             1 S1                 0.0000
     52 ****         6.1687   4.3953   1.2870 LP             1 S1                 0.0000
     53 ****         5.9082   1.9106   1.4668 LP             1 S1                 0.0000
@<TRIPOS>BOND
    1    1    2 1     
    2    1   22 1     
    3    1   23 1     
    4    1   24 1     
    5    2    3 1     
    6    2   25 1     
    7    2   26 1     
    8    3   21 1     
    9    3    4 1     
   10    3   46 1     
   11    4    5 1     
   12    4   27 1     
   13    4   28 1     
   14    5    6 1     
   15    5   29 1     
   16    5   30 1     
   17    6    7 1     
   18    6   20 1     
   19    7    8 1     
   20    7    9 1     
   21    7   31 1     
   22    8   32 1     
   23    8   33 1     
   24    8   34 1     
   25    9   10 1     
   26    9   35 1     
   27    9   36 1     
   28   10   11 am    
   29   10   37 1     
   30   11   12 2     
   31   11   13 1     
   32   13   14 1     
   33   14   19 2     
   34   14   15 1     
   35   15   16 2     
   36   15   38 1     
   37   16   17 1     
   38   16   18 1     
   39   17   39 1     
   40   17   40 1     
   41   17   41 1     
   42   18   19 1     
   43   20   21 1     
   44   20   42 1     
   45   20   43 1     
   46   21   44 1     
   47   21   45 1     
   48    6   47 1     
   49   12   48 1     
   50   12   49 1     
   51   13   50 1     
   52   18   51 1     
   53   18   52 1     
   54   19   53 1     
@<TRIPOS>SUBSTRUCTURE
      1 S1             1
@<TRIPOS>SET
LONE_PAIRS      STATIC     ATOMS    <user>   **** ""
7 47 48 49 50 51 52 53
DONOR_HYDROGENS      STATIC     ATOMS    <user>   **** ""
2 46 37
ATOM$BLUE        STATIC     ATOMS    COLORGROUP SYSTEM
7 47 48 49 50 51 52 53
ATOM$RED        STATIC     ATOMS    COLORGROUP SYSTEM
2 46 37
