AV-unprocessed.smi:2627|AV-procd|sdf|10239|dock2
  -GOLD-   2272014243D 1   1.00000     0.00000
 Structure written by MMmdl.
 39 41  0  0  0  0  0  0  0  0  1 V2000
  152.6630  137.8897  156.1463 C   0  0  0  0  0  0  0  0  0  0  0  0
  151.7348  139.1031  156.0035 C   0  0  2  0  0  0  0  0  0  0  0  0
  151.9004  139.6332  154.7035 O   0  0  0  0  0  0  0  0  0  0  0  0
  151.9846  140.1282  157.0765 C   0  0  0  0  0  0  0  0  0  0  0  0
  152.9064  139.9539  158.0266 N   0  0  0  0  0  0  0  0  0  0  0  0
  152.7909  141.1038  158.7821 C   0  0  0  0  0  0  0  0  0  0  0  0
  153.5023  141.5249  159.9282 C   0  0  0  0  0  0  0  0  0  0  0  0
  153.2069  142.7623  160.5368 C   0  0  0  0  0  0  0  0  0  0  0  0
  152.1979  143.5941  160.0094 C   0  0  0  0  0  0  0  0  0  0  0  0
  151.4760  143.1922  158.8691 C   0  0  0  0  0  0  0  0  0  0  0  0
  151.7749  141.9559  158.2657 C   0  0  0  0  0  0  0  0  0  0  0  0
  151.2668  141.2779  157.1623 N   0  0  0  0  0  0  0  0  0  0  0  0
  150.1935  141.7409  156.2967 C   0  0  0  0  0  0  0  0  0  0  0  0
  149.0104  140.7656  156.2980 C   0  0  0  0  0  0  0  0  0  0  0  0
  148.2632  140.9596  155.1059 O   0  0  0  0  0  0  0  0  0  0  0  0
  147.2067  141.8445  155.1366 C   0  0  0  0  0  0  0  0  0  0  0  0
  146.7515  142.3402  153.8972 C   0  0  0  0  0  0  0  0  0  0  0  0
  145.6777  143.2489  153.8342 C   0  0  0  0  0  0  0  0  0  0  0  0
  145.0442  143.6719  155.0171 C   0  0  0  0  0  0  0  0  0  0  0  0
  145.4867  143.1845  156.2609 C   0  0  0  0  0  0  0  0  0  0  0  0
  146.5616  142.2762  156.3238 C   0  0  0  0  0  0  0  0  0  0  0  0
  152.5350  137.4112  157.1175 H   0  0  0  0  0  0  0  0  0  0  0  0
  153.7106  138.1790  156.0542 H   0  0  0  0  0  0  0  0  0  0  0  0
  152.4550  137.1418  155.3805 H   0  0  0  0  0  0  0  0  0  0  0  0
  150.7000  138.7675  156.0588 H   0  0  0  0  0  0  0  0  0  0  0  0
  152.3135  138.9768  154.1638 H   0  0  0  0  0  0  0  0  0  0  0  0
  154.2778  140.8954  160.3385 H   0  0  0  0  0  0  0  0  0  0  0  0
  153.7578  143.0752  161.4117 H   0  0  0  0  0  0  0  0  0  0  0  0
  151.9788  144.5412  160.4807 H   0  0  0  0  0  0  0  0  0  0  0  0
  150.7032  143.8277  158.4625 H   0  0  0  0  0  0  0  0  0  0  0  0
  149.8776  142.7357  156.6103 H   0  0  0  0  0  0  0  0  0  0  0  0
  150.5840  141.8531  155.2850 H   0  0  0  0  0  0  0  0  0  0  0  0
  149.3807  139.7406  156.3513 H   0  0  0  0  0  0  0  0  0  0  0  0
  148.3790  140.9456  157.1694 H   0  0  0  0  0  0  0  0  0  0  0  0
  147.2319  142.0213  152.9836 H   0  0  0  0  0  0  0  0  0  0  0  0
  145.3407  143.6209  152.8778 H   0  0  0  0  0  0  0  0  0  0  0  0
  144.2204  144.3687  154.9706 H   0  0  0  0  0  0  0  0  0  0  0  0
  145.0008  143.5078  157.1698 H   0  0  0  0  0  0  0  0  0  0  0  0
  146.8714  141.9247  157.2962 H   0  0  0  0  0  0  0  0  0  0  0  0
  1  2  1  0  0  0  0
  1 22  1  0  0  0  0
  1 23  1  0  0  0  0
  1 24  1  0  0  0  0
  2  3  1  0  0  0  0
  2  4  1  0  0  0  0
  2 25  1  0  0  0  0
  3 26  1  0  0  0  0
  4 12  1  0  0  0  0
  4  5  2  0  0  0  0
  5  6  1  0  0  0  0
  6 11  2  0  0  0  0
  6  7  1  0  0  0  0
  7  8  2  0  0  0  0
  7 27  1  0  0  0  0
  8  9  1  0  0  0  0
  8 28  1  0  0  0  0
  9 10  2  0  0  0  0
  9 29  1  0  0  0  0
 10 11  1  0  0  0  0
 10 30  1  0  0  0  0
 11 12  1  0  0  0  0
 12 13  1  0  0  0  0
 13 14  1  0  0  0  0
 13 31  1  0  0  0  0
 13 32  1  0  0  0  0
 14 15  1  0  0  0  0
 14 33  1  0  0  0  0
 14 34  1  0  0  0  0
 15 16  1  0  0  0  0
 16 21  1  0  0  0  0
 16 17  2  0  0  0  0
 17 18  1  0  0  0  0
 17 35  1  0  0  0  0
 18 19  2  0  0  0  0
 18 36  1  0  0  0  0
 19 20  1  0  0  0  0
 19 37  1  0  0  0  0
 20 21  2  0  0  0  0
 20 38  1  0  0  0  0
 21 39  1  0  0  0  0
M  END
> <s_m_source_file>
AV-unprocessed.smi

> <i_m_source_file_index>
2627

> <i_lp_mmshare_version>
43012

> <i_f3d_flags>
0

> <s_epik_input>
W2NIXTFbY0hdW2NIXVtjSF1jKGMxMiluKGMobjIpW0NASF0oW0NIM10pW09IXSlbQ0gyXVtDSDJdT2MzW2NIXVtjSF1bY0hdW2NIXVtjSF0z

> <s_epik_cmdline>
J2VwaWtfcHl0aG9uJywgJy1waCcsICc3LjAnLCAnLXRuJywgJzgnLCAnLW1hJywgJzIwMCcsICctbWV0YWxfYmluZGluZycsICctaW1hZScsICc8aW5maWxlLm1hZT4nLCAnLW9tYWUnLCAnPG91dGZpbGUubWFlPic=

> <r_lp_tautomer_probability>
1

> <r_epik_Ionization_Penalty>
0.0472514

> <r_epik_Ionization_Penalty_Charging>
0

> <r_epik_Ionization_Penalty_Neutral>
0.0472514

> <r_epik_State_Penalty>
0.040225

> <r_epik_Charging_Adjusted_Penalty>
0.040225

> <i_epik_Tot_Q>
0

> <i_epik_Tot_abs_Q>
0

> <r_epik_Metal_State_Penalty>
4.16204e-05

> <b_epik_Metal_Only>
0

> <s_lp_Force_Field>
OPLS_2005

> <r_lp_Energy>
15.0565

> <b_lp_Chiralities_Consistent>
1

> <s_lp_Variant>
AV-unprocessed.smi:2627-1

> <Gold.Version>
5.8.1

> <Gold.Id.Protein>
6NUR|6NUR_protein|mol2

> <Gold.PLP.Fitness>
48.3314

> <Gold.PLP.PLP>
-43.5972

> <Gold.PLP.part.hbond>
-2.0000

> <Gold.PLP.part.metal>
0.0000

> <Gold.PLP.part.buried>
-6.8144

> <Gold.PLP.part.nonpolar>
-35.7387

> <Gold.PLP.part.repulsive>
0.1008

> <Gold.PLP.ligand.clash>
0.0000

> <Gold.PLP.ligand.torsion>
0.6014

> <Gold.PLP.Chemscore.Hbond>
1.9440

> <Gold.PLP.Chemscore.CHOScore>
0.0000

> <Gold.PLP.Chemscore.Metal>
0.0000

> <Gold.Chemscore.Hbonds>
donor molecule, donor type, donor heavy atom, donor atom, acceptor molecule, acceptor atom, score
      P1  H  7989  7998       L1     3  0.91
      P1  H  7997  8010       L1     5  1.00

> <Gold.PLP.Chemscore.Internal.Correction>
0.1049

> <Gold.Rescore>
     Score         DG    S(hbond)    S(metal)    S(lipo)     H(rot)  DE(clash)    DE(int)     intcor
     16.92     -17.61       1.12        0.00     116.81       2.06       0.09       0.60       ----

> <Gold.Chemscore.Fitness>
16.9161

> <Gold.Chemscore.DG>
-17.6076

> <Gold.Chemscore.ZeroCoef>
-5.4800

> <Gold.Chemscore.Hbond>
1.1164

> <Gold.Chemscore.Metal>
0.0000

> <Gold.Chemscore.Lipo>
116.8105

> <Gold.Chemscore.Internal_Hbond>
0.0000

> <Gold.Chemscore.DEClash>
0.0910

> <Gold.Chemscore.DEInternal>
0.6005

> <Gold.Chemscore.Rot>
2.0577

> <Gold.Chemscore.Internal.Correction>
   9.000000E+99

> <Gold.Chemscore.Hbonds>
donor molecule, donor type, donor heavy atom, donor atom, acceptor molecule, acceptor atom, score
      P1  H  7989  7998       L1     3  0.20
      P1  H  7997  8010       L1     5  0.25

> <Gold.Chemscore.Hbond.Weighted>
-3.7286

> <Gold.Chemscore.Metal.Weighted>
-0.0000

> <Gold.Chemscore.Lipo.Weighted>
-13.6668

> <Gold.Chemscore.Internal_Hbond.Weighted>
0.0000

> <Gold.Chemscore.DEClash.Weighted>
0.0910

> <Gold.Chemscore.DEInternal.Weighted>
0.6005

> <Gold.Chemscore.Rot.Weighted>
5.2678

> <Gold.Chemscore.Internal.Correction.Weighted>
   9.000000E+99

> <Gold.Protein.RotatedTorsions>
[ 6907 6896 6895 6894 ] final  111.92 input  -60.11 | X-H torsion
[ 7974 7965 7964 7962 ] final  -52.93 input  175.53 | X-H torsion
[ 8008 7997 7996 7995 ] final   30.80 input   59.86 | X-H torsion
[ 10167 10162 10161 10158 ] final   59.63 input  -65.29 | X-H torsion
[ 10718 10713 10712 10709 ] final  -60.59 input   66.30 | X-H torsion
[ 10763 10752 10751 10750 ] final    8.72 input  -60.55 | X-H torsion
[ 11005 11000 10999 10996 ] final  136.01 input  -57.11 | X-H torsion

> <Gold.Protein.ActiveResidues>
 VAL166  LYS551  ARG553  GLY616  TRP617  ASP618  TYR619  PRO620  LYS621  CYS622 
 ASP623  PHE694  ASN695  SER759  ASP760  ASP761  ALA762  ILE779  LEU786  VAL792 
 PHE793  MET794  SER795  GLU796  ALA797  LYS798  CYS799  TRP800  GLU811  SER814 

> <Gold.Protein.RotatedAtoms>
  152.4944  133.8590  159.7240 H   0  0  0  0  0  0  0  0  0  0  0  0  # atno 6907 bound_to 6896
  150.9106  133.6993  159.2862 H   0  0  0  0  0  0  0  0  0  0  0  0  # atno 6908 bound_to 6896
  151.4403  135.1024  159.9720 H   0  0  0  0  0  0  0  0  0  0  0  0  # atno 6909 bound_to 6896
  145.9025  140.7982  142.9736 H   0  0  0  0  0  0  0  0  0  0  0  0  # atno 7974 bound_to 7965
  155.0962  140.3225  155.4559 H   0  0  0  0  0  0  0  0  0  0  0  0  # atno 8008 bound_to 7997
  156.2729  140.2069  156.6036 H   0  0  0  0  0  0  0  0  0  0  0  0  # atno 8009 bound_to 7997
  154.6864  140.0521  157.0306 H   0  0  0  0  0  0  0  0  0  0  0  0  # atno 8010 bound_to 7997
  140.1744  144.4245  150.6645 H   0  0  0  0  0  0  0  0  0  0  0  0  # atno 10167 bound_to 10162
  156.0980  130.4190  150.0875 H   0  0  0  0  0  0  0  0  0  0  0  0  # atno 10718 bound_to 10713
  153.2219  135.6882  153.7990 H   0  0  0  0  0  0  0  0  0  0  0  0  # atno 10763 bound_to 10752
  153.7186  135.3271  155.3263 H   0  0  0  0  0  0  0  0  0  0  0  0  # atno 10764 bound_to 10752
  154.8273  135.4607  154.1070 H   0  0  0  0  0  0  0  0  0  0  0  0  # atno 10765 bound_to 10752
  140.0017  134.9475  157.0087 H   0  0  0  0  0  0  0  0  0  0  0  0  # atno 11005 bound_to 11000
  144.6737  140.1700  143.7415 LP  0  0  0  0  0  0  0  0  0  0  0  0  # atno 17320 bound_to 7965
  145.8773  139.2304  143.1626 LP  0  0  0  0  0  0  0  0  0  0  0  0  # atno 17321 bound_to 7965
  140.6561  143.2238  151.5965 LP  0  0  0  0  0  0  0  0  0  0  0  0  # atno 17342 bound_to 10162
  139.5324  144.2879  152.1176 LP  0  0  0  0  0  0  0  0  0  0  0  0  # atno 17343 bound_to 10162
  156.8869  130.9575  151.3593 LP  0  0  0  0  0  0  0  0  0  0  0  0  # atno 17370 bound_to 10713
  157.6145  130.8608  149.9006 LP  0  0  0  0  0  0  0  0  0  0  0  0  # atno 17371 bound_to 10713
  140.4715  134.1382  155.7204 LP  0  0  0  0  0  0  0  0  0  0  0  0  # atno 17394 bound_to 11000
  141.1647  133.8726  157.1748 LP  0  0  0  0  0  0  0  0  0  0  0  0  # atno 17395 bound_to 11000

$$$$
