AV-unprocessed.smi:1489|AV-procd|sdf|6027|dock4
  -GOLD-   22720 6133D 1   1.00000     0.00000
 Structure written by MMmdl.
 47 49  0  0  0  0  0  0  0  0  2 V2000
  149.9137  134.6243  156.3059 O   0  0  0  0  0  0  0  0  0  0  0  0
  149.6599  135.0552  155.1811 C   0  0  0  0  0  0  0  0  0  0  0  0
  150.0638  136.2423  154.6965 N   0  0  0  0  0  0  0  0  0  0  0  0
  150.7994  137.2611  155.3601 C   0  0  0  0  0  0  0  0  0  0  0  0
  151.8175  138.0302  154.7431 C   0  0  0  0  0  0  0  0  0  0  0  0
  152.5008  139.0080  155.4945 C   0  0  0  0  0  0  0  0  0  0  0  0
  152.1661  139.2015  156.8549 C   0  0  0  0  0  0  0  0  0  0  0  0
  152.7815  140.1519  157.6823 N   0  0  0  0  0  0  0  0  0  0  0  0
  153.2404  139.6310  158.9598 C   0  0  0  0  0  0  0  0  0  0  0  0
  153.4544  140.8540  159.8567 C   0  0  0  0  0  0  0  0  0  0  0  0
  152.6462  141.9769  159.1961 C   0  0  0  0  0  0  0  0  0  0  0  0
  151.9695  141.3169  157.9927 C   0  0  0  0  0  0  0  0  0  0  0  0
  151.1991  138.4370  157.4078 N   0  3  0  0  0  0  0  0  0  0  0  0
  150.5219  137.4888  156.7245 C   0  0  0  0  0  0  0  0  0  0  0  0
  148.9492  134.3740  154.2706 N   0  0  0  0  0  0  0  0  0  0  0  0
  148.3726  133.0469  154.4695 C   0  0  2  0  0  0  0  0  0  0  0  0
  148.7417  132.1429  153.2774 C   0  0  0  0  0  0  0  0  0  0  0  0
  148.1076  130.7484  153.4078 C   0  0  0  0  0  0  0  0  0  0  0  0
  146.5808  130.8476  153.5659 C   0  0  1  0  0  0  0  0  0  0  0  0
  146.0399  129.5563  153.7487 O   0  0  0  0  0  0  0  0  0  0  0  0
  146.2072  131.7378  154.7635 C   0  0  0  0  0  0  0  0  0  0  0  0
  146.8401  133.1330  154.6363 C   0  0  0  0  0  0  0  0  0  0  0  0
  149.8613  136.4165  153.7228 H   0  0  0  0  0  0  0  0  0  0  0  0
  152.0976  137.8812  153.7118 H   0  0  0  0  0  0  0  0  0  0  0  0
  153.2739  139.5984  155.0252 H   0  0  0  0  0  0  0  0  0  0  0  0
  152.4904  138.9716  159.3988 H   0  0  0  0  0  0  0  0  0  0  0  0
  154.1606  139.0586  158.8391 H   0  0  0  0  0  0  0  0  0  0  0  0
  153.1303  140.6585  160.8793 H   0  0  0  0  0  0  0  0  0  0  0  0
  154.5104  141.1247  159.8901 H   0  0  0  0  0  0  0  0  0  0  0  0
  151.9187  142.4227  159.8752 H   0  0  0  0  0  0  0  0  0  0  0  0
  153.3184  142.7690  158.8636 H   0  0  0  0  0  0  0  0  0  0  0  0
  151.9166  141.9964  157.1416 H   0  0  0  0  0  0  0  0  0  0  0  0
  150.9520  141.0217  158.2514 H   0  0  0  0  0  0  0  0  0  0  0  0
  149.7754  136.9488  157.2888 H   0  0  0  0  0  0  0  0  0  0  0  0
  148.7959  134.8019  153.3693 H   0  0  0  0  0  0  0  0  0  0  0  0
  148.8020  132.6085  155.3727 H   0  0  0  0  0  0  0  0  0  0  0  0
  148.4072  132.6035  152.3466 H   0  0  0  0  0  0  0  0  0  0  0  0
  149.8256  132.0462  153.2022 H   0  0  0  0  0  0  0  0  0  0  0  0
  148.3560  130.1474  152.5322 H   0  0  0  0  0  0  0  0  0  0  0  0
  148.5381  130.2348  154.2688 H   0  0  0  0  0  0  0  0  0  0  0  0
  146.1488  131.2653  152.6557 H   0  0  0  0  0  0  0  0  0  0  0  0
  145.1723  129.6423  154.1134 H   0  0  0  0  0  0  0  0  0  0  0  0
  145.1231  131.8304  154.8386 H   0  0  0  0  0  0  0  0  0  0  0  0
  146.5432  131.2724  155.6914 H   0  0  0  0  0  0  0  0  0  0  0  0
  146.5870  133.7261  155.5159 H   0  0  0  0  0  0  0  0  0  0  0  0
  146.4041  133.6499  153.7801 H   0  0  0  0  0  0  0  0  0  0  0  0
  150.9689  138.5828  158.3909 H   0  0  0  0  0  0  0  0  0  0  0  0
  1  2  2  0  0  0  0
  2  3  1  0  0  0  0
  2 15  1  0  0  0  0
  3  4  1  0  0  0  0
  3 23  1  0  0  0  0
  4 14  1  0  0  0  0
  4  5  2  0  0  0  0
  5  6  1  0  0  0  0
  5 24  1  0  0  0  0
  6  7  2  0  0  0  0
  6 25  1  0  0  0  0
  7  8  1  0  0  0  0
  7 13  1  0  0  0  0
  8 12  1  0  0  0  0
  8  9  1  0  0  0  0
  9 10  1  0  0  0  0
  9 26  1  0  0  0  0
  9 27  1  0  0  0  0
 10 11  1  0  0  0  0
 10 28  1  0  0  0  0
 10 29  1  0  0  0  0
 11 12  1  0  0  0  0
 11 30  1  0  0  0  0
 11 31  1  0  0  0  0
 12 32  1  0  0  0  0
 12 33  1  0  0  0  0
 13 14  2  0  0  0  0
 13 47  1  0  0  0  0
 14 34  1  0  0  0  0
 15 16  1  0  0  0  0
 15 35  1  0  0  0  0
 16 22  1  0  0  0  0
 16 17  1  0  0  0  0
 16 36  1  0  0  0  0
 17 18  1  0  0  0  0
 17 37  1  0  0  0  0
 17 38  1  0  0  0  0
 18 19  1  0  0  0  0
 18 39  1  0  0  0  0
 18 40  1  0  0  0  0
 19 20  1  0  0  0  0
 19 21  1  0  0  0  0
 19 41  1  0  0  0  0
 20 42  1  0  0  0  0
 21 22  1  0  0  0  0
 21 43  1  0  0  0  0
 21 44  1  0  0  0  0
 22 45  1  0  0  0  0
 22 46  1  0  0  0  0
M  CHG  1  13   1
M  END
> <s_m_source_file>
AV-unprocessed.smi

> <i_m_source_file_index>
1489

> <i_lp_mmshare_version>
43012

> <i_f3d_flags>
0

> <s_epik_input>
W0NIMl0xW0NIMl1bQ0BIXShbT0hdKVtDSDJdW0NIMl1bQ0BIXTFbTkhdQyg9TylbTkhdYzJbY0hdW2NIXWMobltjSF0yKU4zW0NIMl1bQ0gyXVtDSDJdW0NIMl0z

> <s_epik_cmdline>
J2VwaWtfcHl0aG9uJywgJy1waCcsICc3LjAnLCAnLXRuJywgJzgnLCAnLW1hJywgJzIwMCcsICctbWV0YWxfYmluZGluZycsICctaW1hZScsICc8aW5maWxlLm1hZT4nLCAnLW9tYWUnLCAnPG91dGZpbGUubWFlPic=

> <r_lp_tautomer_probability>
0.999994

> <r_epik_Ionization_Penalty>
1.08454

> <r_epik_Ionization_Penalty_Charging>
1.08452

> <r_epik_Ionization_Penalty_Neutral>
2.18252e-05

> <r_epik_State_Penalty>
1.14025

> <r_epik_Charging_Adjusted_Penalty>
2.22477

> <i_epik_Tot_Q>
1

> <i_epik_Tot_abs_Q>
1

> <r_epik_Metal_State_Penalty>
1.22975

> <b_epik_Metal_Only>
0

> <s_lp_Force_Field>
OPLS_2005

> <r_lp_Energy>
44.1541

> <b_lp_Chiralities_Consistent>
1

> <s_lp_Variant>
AV-unprocessed.smi:1489-3

> <Gold.Version>
5.8.1

> <Gold.Id.Protein>
6NUR|6NUR_protein|mol2

> <Gold.PLP.Fitness>
41.9325

> <Gold.PLP.PLP>
-32.2061

> <Gold.PLP.part.hbond>
-4.0000

> <Gold.PLP.part.metal>
0.0000

> <Gold.PLP.part.buried>
-2.9425

> <Gold.PLP.part.nonpolar>
-25.5559

> <Gold.PLP.part.repulsive>
0.0801

> <Gold.PLP.ligand.clash>
0.0000

> <Gold.PLP.ligand.torsion>
0.6813

> <Gold.PLP.Chemscore.Hbond>
3.6913

> <Gold.PLP.Chemscore.CHOScore>
0.0000

> <Gold.PLP.Chemscore.Metal>
0.0000

> <Gold.Chemscore.Hbonds>
donor molecule, donor type, donor heavy atom, donor atom, acceptor molecule, acceptor atom, score
      L1  H     3    23       P1  7948  0.98
      L1  H    15    35       P1  7948  0.96
      L1  H    20    42       P1 10956  1.00
      P1  H  7997  8009       L1     8  0.62

> <Gold.PLP.Chemscore.Internal.Correction>
0.0152

> <Gold.Rescore>
     Score         DG    S(hbond)    S(metal)    S(lipo)     H(rot)  DE(clash)    DE(int)     intcor
     17.28     -19.11       2.61        0.00      78.95       1.69       0.02       1.81       ----

> <Gold.Chemscore.Fitness>
17.2845

> <Gold.Chemscore.DG>
-19.1113

> <Gold.Chemscore.ZeroCoef>
-5.4800

> <Gold.Chemscore.Hbond>
2.6130

> <Gold.Chemscore.Metal>
0.0000

> <Gold.Chemscore.Lipo>
78.9549

> <Gold.Chemscore.Internal_Hbond>
0.0000

> <Gold.Chemscore.DEClash>
0.0217

> <Gold.Chemscore.DEInternal>
1.8051

> <Gold.Chemscore.Rot>
1.6929

> <Gold.Chemscore.Internal.Correction>
   9.000000E+99

> <Gold.Chemscore.Hbonds>
donor molecule, donor type, donor heavy atom, donor atom, acceptor molecule, acceptor atom, score
      L1  H     3    23       P1  7948  0.27
      L1  H    15    35       P1  7948  0.31
      L1  H    20    42       P1 10956  0.75
      P1  H  7997  8009       L1     8  0.01

> <Gold.Chemscore.Hbond.Weighted>
-8.7273

> <Gold.Chemscore.Metal.Weighted>
-0.0000

> <Gold.Chemscore.Lipo.Weighted>
-9.2377

> <Gold.Chemscore.Internal_Hbond.Weighted>
0.0000

> <Gold.Chemscore.DEClash.Weighted>
0.0217

> <Gold.Chemscore.DEInternal.Weighted>
1.8051

> <Gold.Chemscore.Rot.Weighted>
4.3338

> <Gold.Chemscore.Internal.Correction.Weighted>
   9.000000E+99

> <Gold.Protein.RotatedTorsions>
[ 6907 6896 6895 6894 ] final -162.06 input  -60.11 | X-H torsion
[ 7974 7965 7964 7962 ] final   25.27 input  175.53 | X-H torsion
[ 8008 7997 7996 7995 ] final  175.60 input   59.86 | X-H torsion
[ 10167 10162 10161 10158 ] final -149.42 input  -65.29 | X-H torsion
[ 10718 10713 10712 10709 ] final -123.73 input   66.30 | X-H torsion
[ 10763 10752 10751 10750 ] final  -34.79 input  -60.55 | X-H torsion
[ 11005 11000 10999 10996 ] final  -98.75 input  -57.11 | X-H torsion

> <Gold.Protein.ActiveResidues>
 VAL166  LYS551  ARG553  GLY616  TRP617  ASP618  TYR619  PRO620  LYS621  CYS622 
 ASP623  PHE694  ASN695  SER759  ASP760  ASP761  ALA762  ILE779  LEU786  VAL792 
 PHE793  MET794  SER795  GLU796  ALA797  LYS798  CYS799  TRP800  GLU811  SER814 

> <Gold.Protein.RotatedAtoms>
  151.3743  133.3843  159.2702 H   0  0  0  0  0  0  0  0  0  0  0  0  # atno 6907 bound_to 6896
  150.9626  134.9013  159.7750 H   0  0  0  0  0  0  0  0  0  0  0  0  # atno 6908 bound_to 6896
  152.5155  134.3703  159.9368 H   0  0  0  0  0  0  0  0  0  0  0  0  # atno 6909 bound_to 6896
  146.1897  139.7489  142.8841 H   0  0  0  0  0  0  0  0  0  0  0  0  # atno 7974 bound_to 7965
  156.0853  140.1405  156.9661 H   0  0  0  0  0  0  0  0  0  0  0  0  # atno 8008 bound_to 7997
  154.4609  140.0943  156.6938 H   0  0  0  0  0  0  0  0  0  0  0  0  # atno 8009 bound_to 7997
  155.5009  140.3451  155.4373 H   0  0  0  0  0  0  0  0  0  0  0  0  # atno 8010 bound_to 7997
  139.7444  143.8612  152.2571 H   0  0  0  0  0  0  0  0  0  0  0  0  # atno 10167 bound_to 10162
  156.1527  130.6546  150.9937 H   0  0  0  0  0  0  0  0  0  0  0  0  # atno 10718 bound_to 10713
  153.8525  135.6847  153.4791 H   0  0  0  0  0  0  0  0  0  0  0  0  # atno 10763 bound_to 10752
  153.1389  135.4666  154.9462 H   0  0  0  0  0  0  0  0  0  0  0  0  # atno 10764 bound_to 10752
  154.7795  135.3264  154.7967 H   0  0  0  0  0  0  0  0  0  0  0  0  # atno 10765 bound_to 10752
  141.1334  133.8269  157.0880 H   0  0  0  0  0  0  0  0  0  0  0  0  # atno 11005 bound_to 11000
  145.3831  141.0361  143.3166 LP  0  0  0  0  0  0  0  0  0  0  0  0  # atno 17320 bound_to 7965
  144.8463  139.5392  143.6877 LP  0  0  0  0  0  0  0  0  0  0  0  0  # atno 17321 bound_to 7965
  139.8572  144.7135  150.9142 LP  0  0  0  0  0  0  0  0  0  0  0  0  # atno 17342 bound_to 10162
  140.7790  143.3848  151.1413 LP  0  0  0  0  0  0  0  0  0  0  0  0  # atno 17343 bound_to 10162
  157.6670  131.0869  150.7704 LP  0  0  0  0  0  0  0  0  0  0  0  0  # atno 17370 bound_to 10713
  156.7771  130.4847  149.5407 LP  0  0  0  0  0  0  0  0  0  0  0  0  # atno 17371 bound_to 10713
  140.0410  134.9854  157.0961 LP  0  0  0  0  0  0  0  0  0  0  0  0  # atno 17394 bound_to 11000
  140.4136  134.1955  155.7163 LP  0  0  0  0  0  0  0  0  0  0  0  0  # atno 17395 bound_to 11000

$$$$
