AV-unprocessed.smi:12|AV-procd|sdf|66|dock7
  -GOLD-   2262015183D 1   1.00000     0.00000
 Structure written by MMmdl.
 41 44  0  0  0  0  0  0  0  0  1 V2000
  145.3977  140.0713  155.5167 C   0  0  0  0  0  0  0  0  0  0  0  0
  146.8891  140.1673  155.2498 C   0  0  0  0  0  0  0  0  0  0  0  0
  147.7058  139.0952  155.3800 C   0  0  0  0  0  0  0  0  0  0  0  0
  149.0424  139.2362  155.1310 N   0  0  0  0  0  0  0  0  0  0  0  0
  149.5514  140.4891  154.7266 C   0  0  0  0  0  0  0  0  0  0  0  0
  148.8361  141.5608  154.5799 N   0  0  0  0  0  0  0  0  0  0  0  0
  147.4541  141.4769  154.8376 C   0  0  0  0  0  0  0  0  0  0  0  0
  146.7361  142.4688  154.7195 O   0  0  0  0  0  0  0  0  0  0  0  0
  150.8902  140.3728  154.5070 O   0  0  0  0  0  0  0  0  0  0  0  0
  151.3066  139.0219  154.7485 C   0  0  1  0  0  0  0  0  0  0  0  0
  152.2545  138.9415  155.9418 C   0  0  2  0  0  0  0  0  0  0  0  0
  153.5703  138.6473  155.5177 O   0  0  0  0  0  0  0  0  0  0  0  0
  151.6735  137.8027  156.7856 C   0  0  1  0  0  0  0  0  0  0  0  0
  151.9596  137.9158  158.2882 C   0  0  0  0  0  0  0  0  0  0  0  0
  151.8002  139.2650  158.6956 O   0  0  0  0  0  0  0  0  0  0  0  0
  152.8763  140.0649  158.8241 C   0  0  0  0  0  0  0  0  0  0  0  0
  154.0363  139.6489  158.8513 O   0  0  0  0  0  0  0  0  0  0  0  0
  152.5158  141.5086  158.9264 C   0  0  0  0  0  0  0  0  0  0  0  0
  151.5558  142.0483  158.0386 C   0  0  0  0  0  0  0  0  0  0  0  0
  151.1922  143.4069  158.1145 C   0  0  0  0  0  0  0  0  0  0  0  0
  151.7849  144.2431  159.0786 C   0  0  0  0  0  0  0  0  0  0  0  0
  152.7433  143.7191  159.9657 C   0  0  0  0  0  0  0  0  0  0  0  0
  153.1077  142.3604  159.8917 C   0  0  0  0  0  0  0  0  0  0  0  0
  150.2773  137.8945  156.5534 O   0  0  0  0  0  0  0  0  0  0  0  0
  150.0816  138.2114  155.2133 C   0  0  1  0  0  0  0  0  0  0  0  0
  145.1128  139.0616  155.8148 H   0  0  0  0  0  0  0  0  0  0  0  0
  144.8322  140.3306  154.6212 H   0  0  0  0  0  0  0  0  0  0  0  0
  145.1082  140.7531  156.3168 H   0  0  0  0  0  0  0  0  0  0  0  0
  147.3183  138.1330  155.6817 H   0  0  0  0  0  0  0  0  0  0  0  0
  151.7122  138.5647  153.8445 H   0  0  0  0  0  0  0  0  0  0  0  0
  152.2393  139.8778  156.5019 H   0  0  0  0  0  0  0  0  0  0  0  0
  153.5269  137.9860  154.8437 H   0  0  0  0  0  0  0  0  0  0  0  0
  152.0061  136.8342  156.4063 H   0  0  0  0  0  0  0  0  0  0  0  0
  151.2927  137.2654  158.8558 H   0  0  0  0  0  0  0  0  0  0  0  0
  152.9824  137.5967  158.4933 H   0  0  0  0  0  0  0  0  0  0  0  0
  151.0863  141.4258  157.2905 H   0  0  0  0  0  0  0  0  0  0  0  0
  150.4568  143.8073  157.4320 H   0  0  0  0  0  0  0  0  0  0  0  0
  151.5051  145.2847  159.1374 H   0  0  0  0  0  0  0  0  0  0  0  0
  153.2001  144.3600  160.7055 H   0  0  0  0  0  0  0  0  0  0  0  0
  153.8463  141.9914  160.5883 H   0  0  0  0  0  0  0  0  0  0  0  0
  149.7750  137.3880  154.5673 H   0  0  0  0  0  0  0  0  0  0  0  0
  1  2  1  0  0  0  0
  1 26  1  0  0  0  0
  1 27  1  0  0  0  0
  1 28  1  0  0  0  0
  2  7  1  0  0  0  0
  2  3  2  0  0  0  0
  3  4  1  0  0  0  0
  3 29  1  0  0  0  0
  4 25  1  0  0  0  0
  4  5  1  0  0  0  0
  5  6  2  0  0  0  0
  5  9  1  0  0  0  0
  6  7  1  0  0  0  0
  7  8  2  0  0  0  0
  9 10  1  0  0  0  0
 10 25  1  0  0  0  0
 10 11  1  0  0  0  0
 10 30  1  0  0  0  0
 11 12  1  0  0  0  0
 11 13  1  0  0  0  0
 11 31  1  0  0  0  0
 12 32  1  0  0  0  0
 13 14  1  0  0  0  0
 13 24  1  0  0  0  0
 13 33  1  0  0  0  0
 14 15  1  0  0  0  0
 14 34  1  0  0  0  0
 14 35  1  0  0  0  0
 15 16  1  0  0  0  0
 16 17  2  0  0  0  0
 16 18  1  0  0  0  0
 18 23  1  0  0  0  0
 18 19  2  0  0  0  0
 19 20  1  0  0  0  0
 19 36  1  0  0  0  0
 20 21  2  0  0  0  0
 20 37  1  0  0  0  0
 21 22  1  0  0  0  0
 21 38  1  0  0  0  0
 22 23  2  0  0  0  0
 22 39  1  0  0  0  0
 23 40  1  0  0  0  0
 24 25  1  0  0  0  0
 25 41  1  0  0  0  0
M  END
> <s_m_source_file>
AV-unprocessed.smi

> <i_m_source_file_index>
12

> <i_lp_mmshare_version>
43012

> <i_f3d_flags>
0

> <s_epik_input>
W0NIM11jKFtjSF0xKWMoPU8pbmMobjEyKU9bQ0BIXTNbQ0BASF0yT1tDQEBIXShbQ0BASF0zW09IXSlbQ0gyXU9DKD1PKWM0W2NIXVtjSF1bY0hdW2NIXVtjSF00

> <s_epik_cmdline>
J2VwaWtfcHl0aG9uJywgJy1waCcsICc3LjAnLCAnLXRuJywgJzgnLCAnLW1hJywgJzIwMCcsICctbWV0YWxfYmluZGluZycsICctaW1hZScsICc8aW5maWxlLm1hZT4nLCAnLW9tYWUnLCAnPG91dGZpbGUubWFlPic=

> <r_lp_tautomer_probability>
0.933681

> <r_epik_Ionization_Penalty>
0.00399549

> <r_epik_Ionization_Penalty_Charging>
3.09373e-09

> <r_epik_Ionization_Penalty_Neutral>
0.00399549

> <r_epik_State_Penalty>
0.00284953

> <r_epik_Charging_Adjusted_Penalty>
0.00284953

> <i_epik_Tot_Q>
0

> <i_epik_Tot_abs_Q>
0

> <r_epik_Metal_State_Penalty>
-0

> <b_epik_Metal_Only>
0

> <s_epik_Chemistry_Notes>
This compound has an ester and may undergo hydrolysis at high or low pH. This compound contains an acetal/aminal-like group ( X-CH(R)-Y where X, Y are N, S, or O) that may be acid/base labile, releasing an aldehyde.

> <s_lp_Force_Field>
OPLS_2005

> <r_lp_Energy>
41.0284

> <b_lp_Chiralities_Consistent>
1

> <s_lp_Variant>
AV-unprocessed.smi:12-6

> <Gold.Version>
5.8.1

> <Gold.Id.Protein>
6NUR|6NUR_protein|mol2

> <Gold.PLP.Fitness>
44.3173

> <Gold.PLP.PLP>
-40.6321

> <Gold.PLP.part.hbond>
-2.9947

> <Gold.PLP.part.metal>
0.0000

> <Gold.PLP.part.buried>
-6.2482

> <Gold.PLP.part.nonpolar>
-31.6371

> <Gold.PLP.part.repulsive>
0.4388

> <Gold.PLP.ligand.clash>
0.0000

> <Gold.PLP.ligand.torsion>
1.3307

> <Gold.PLP.Chemscore.Hbond>
2.1129

> <Gold.PLP.Chemscore.CHOScore>
0.0000

> <Gold.PLP.Chemscore.Metal>
0.0000

> <Gold.Chemscore.Hbonds>
donor molecule, donor type, donor heavy atom, donor atom, acceptor molecule, acceptor atom, score
      P1  H  7989  7998       L1     9  0.54
      P1  H  7997  8009       L1    17  0.99
      P1  H  7997  8010       L1    12  0.67

> <Gold.PLP.Chemscore.Internal.Correction>
0.0080

> <Gold.Rescore>
     Score         DG    S(hbond)    S(metal)    S(lipo)     H(rot)  DE(clash)    DE(int)     intcor
     16.86     -17.91       2.10        0.00      93.94       2.18       0.02       1.04       ----

> <Gold.Chemscore.Fitness>
16.8570

> <Gold.Chemscore.DG>
-17.9149

> <Gold.Chemscore.ZeroCoef>
-5.4800

> <Gold.Chemscore.Hbond>
2.1034

> <Gold.Chemscore.Metal>
0.0000

> <Gold.Chemscore.Lipo>
93.9353

> <Gold.Chemscore.Internal_Hbond>
0.0000

> <Gold.Chemscore.DEClash>
0.0203

> <Gold.Chemscore.DEInternal>
1.0377

> <Gold.Chemscore.Rot>
2.1800

> <Gold.Chemscore.Internal.Correction>
   9.000000E+99

> <Gold.Chemscore.Hbonds>
donor molecule, donor type, donor heavy atom, donor atom, acceptor molecule, acceptor atom, score
      P1  H  7989  7998       L1     9  0.38
      P1  H  7997  8009       L1    17  0.89
      P1  H  7997  8010       L1    12  0.41

> <Gold.Chemscore.Hbond.Weighted>
-7.0252

> <Gold.Chemscore.Metal.Weighted>
-0.0000

> <Gold.Chemscore.Lipo.Weighted>
-10.9904

> <Gold.Chemscore.Internal_Hbond.Weighted>
0.0000

> <Gold.Chemscore.DEClash.Weighted>
0.0203

> <Gold.Chemscore.DEInternal.Weighted>
1.0377

> <Gold.Chemscore.Rot.Weighted>
5.5807

> <Gold.Chemscore.Internal.Correction.Weighted>
   9.000000E+99

> <Gold.Protein.RotatedTorsions>
[ 6907 6896 6895 6894 ] final -120.81 input  -60.11 | X-H torsion
[ 7974 7965 7964 7962 ] final  134.12 input  175.53 | X-H torsion
[ 8008 7997 7996 7995 ] final  116.81 input   59.86 | X-H torsion
[ 10167 10162 10161 10158 ] final -115.36 input  -65.29 | X-H torsion
[ 10718 10713 10712 10709 ] final   -4.50 input   66.30 | X-H torsion
[ 10763 10752 10751 10750 ] final   96.05 input  -60.55 | X-H torsion
[ 11005 11000 10999 10996 ] final   87.16 input  -57.11 | X-H torsion

> <Gold.Protein.ActiveResidues>
 VAL166  LYS551  ARG553  GLY616  TRP617  ASP618  TYR619  PRO620  LYS621  CYS622 
 ASP623  PHE694  ASN695  SER759  ASP760  ASP761  ALA762  ILE779  LEU786  VAL792 
 PHE793  MET794  SER795  GLU796  ALA797  LYS798  CYS799  TRP800  GLU811  SER814 

> <Gold.Protein.RotatedAtoms>
  150.8426  133.7912  159.3054 H   0  0  0  0  0  0  0  0  0  0  0  0  # atno 6907 bound_to 6896
  151.5608  135.1064  159.9982 H   0  0  0  0  0  0  0  0  0  0  0  0  # atno 6908 bound_to 6896
  152.4487  133.7543  159.6768 H   0  0  0  0  0  0  0  0  0  0  0  0  # atno 6909 bound_to 6896
  144.9796  139.4518  143.5393 H   0  0  0  0  0  0  0  0  0  0  0  0  # atno 7974 bound_to 7965
  156.2460  140.2909  156.0580 H   0  0  0  0  0  0  0  0  0  0  0  0  # atno 8008 bound_to 7997
  155.1807  140.0404  157.2899 H   0  0  0  0  0  0  0  0  0  0  0  0  # atno 8009 bound_to 7997
  154.6262  140.2488  155.7496 H   0  0  0  0  0  0  0  0  0  0  0  0  # atno 8010 bound_to 7997
  140.0910  143.4700  152.1870 H   0  0  0  0  0  0  0  0  0  0  0  0  # atno 10167 bound_to 10162
  156.7603  130.5267  149.5786 H   0  0  0  0  0  0  0  0  0  0  0  0  # atno 10718 bound_to 10713
  153.2603  135.4232  155.0887 H   0  0  0  0  0  0  0  0  0  0  0  0  # atno 10763 bound_to 10752
  154.8417  135.3447  154.6387 H   0  0  0  0  0  0  0  0  0  0  0  0  # atno 10764 bound_to 10752
  153.6807  135.7039  153.5176 H   0  0  0  0  0  0  0  0  0  0  0  0  # atno 10765 bound_to 10752
  139.8926  134.8404  156.2822 H   0  0  0  0  0  0  0  0  0  0  0  0  # atno 11005 bound_to 11000
  146.3404  139.9060  142.8787 LP  0  0  0  0  0  0  0  0  0  0  0  0  # atno 17320 bound_to 7965
  145.2440  141.0020  143.3919 LP  0  0  0  0  0  0  0  0  0  0  0  0  # atno 17321 bound_to 7965
  139.5725  144.7470  151.3853 LP  0  0  0  0  0  0  0  0  0  0  0  0  # atno 17342 bound_to 10162
  140.7029  143.7588  150.7432 LP  0  0  0  0  0  0  0  0  0  0  0  0  # atno 17343 bound_to 10162
  156.1343  130.6200  151.0378 LP  0  0  0  0  0  0  0  0  0  0  0  0  # atno 17370 bound_to 10713
  157.6737  131.0855  150.7547 LP  0  0  0  0  0  0  0  0  0  0  0  0  # atno 17371 bound_to 10713
  141.0031  133.7139  156.0992 LP  0  0  0  0  0  0  0  0  0  0  0  0  # atno 17394 bound_to 11000
  140.7470  134.4087  157.5547 LP  0  0  0  0  0  0  0  0  0  0  0  0  # atno 17395 bound_to 11000

$$$$
