AV-unprocessed.smi:2001|AV-procd|sdf|8112|dock7
  -GOLD-   2272010343D 1   1.00000     0.00000
 Structure written by MMmdl.
 50 51  0  0  0  0  0  0  0  0  3 V2000
  143.5149  135.9960  162.0419 C   0  0  0  0  0  0  0  0  0  0  0  0
  144.8710  136.0448  161.6345 O   0  0  0  0  0  0  0  0  0  0  0  0
  145.7068  136.6470  162.6085 C   0  0  0  0  0  0  0  0  0  0  0  0
  147.1696  136.5350  162.1533 C   0  0  0  0  0  0  0  0  0  0  0  0
  147.4281  135.2469  161.5023 N   0  0  0  0  0  0  0  0  0  0  0  0
  147.8411  135.3552  160.1852 N   0  0  0  0  0  0  0  0  0  0  0  0
  148.1247  134.2962  159.4977 C   0  0  0  0  0  0  0  0  0  0  0  0
  148.5808  134.4124  158.0751 C   0  0  0  0  0  0  0  0  0  0  0  0
  149.4537  133.6031  157.7328 O   0  0  0  0  0  0  0  0  0  0  0  0
  148.0237  135.3712  157.2762 N   0  5  0  0  0  0  0  0  0  0  0  0
  148.5323  135.7808  155.9662 C   0  0  0  0  0  0  0  0  0  0  0  0
  148.0758  137.2192  155.6594 C   0  0  0  0  0  0  0  0  0  0  0  0
  148.7720  137.7743  154.4647 N   0  3  1  0  0  0  0  0  0  0  0  0
  148.2826  139.1052  154.0213 C   0  0  0  0  0  0  0  0  0  0  0  0
  148.8510  140.2368  154.9048 C   0  0  2  0  0  0  0  0  0  0  0  0
  148.4582  141.6239  154.3845 C   0  0  0  0  0  0  0  0  0  0  0  0
  150.2730  140.1551  154.9188 O   0  0  0  0  0  0  0  0  0  0  0  0
  150.7512  138.9246  155.4532 C   0  0  2  0  0  0  0  0  0  0  0  0
  152.2815  138.9899  155.5065 C   0  0  0  0  0  0  0  0  0  0  0  0
  150.2515  137.7689  154.5643 C   0  0  0  0  0  0  0  0  0  0  0  0
  148.0063  132.9729  160.0994 C   0  0  0  0  0  0  0  0  0  0  0  0
  147.6067  132.8846  161.3867 C   0  0  0  0  0  0  0  0  0  0  0  0
  147.2931  134.0703  162.1838 C   0  0  0  0  0  0  0  0  0  0  0  0
  146.9448  134.0154  163.3631 O   0  0  0  0  0  0  0  0  0  0  0  0
  142.9167  135.5139  161.2686 H   0  0  0  0  0  0  0  0  0  0  0  0
  143.1152  136.9984  162.2002 H   0  0  0  0  0  0  0  0  0  0  0  0
  143.3991  135.4235  162.9632 H   0  0  0  0  0  0  0  0  0  0  0  0
  145.4351  137.6963  162.7360 H   0  0  0  0  0  0  0  0  0  0  0  0
  145.5693  136.1515  163.5710 H   0  0  0  0  0  0  0  0  0  0  0  0
  147.4186  137.3612  161.4848 H   0  0  0  0  0  0  0  0  0  0  0  0
  147.8283  136.6521  163.0157 H   0  0  0  0  0  0  0  0  0  0  0  0
  149.6213  135.7410  155.9152 H   0  0  0  0  0  0  0  0  0  0  0  0
  148.1717  135.1216  155.1765 H   0  0  0  0  0  0  0  0  0  0  0  0
  146.9952  137.2385  155.5175 H   0  0  0  0  0  0  0  0  0  0  0  0
  148.2671  137.8397  156.5364 H   0  0  0  0  0  0  0  0  0  0  0  0
  148.5993  139.2539  152.9881 H   0  0  0  0  0  0  0  0  0  0  0  0
  147.1922  139.1270  154.0148 H   0  0  0  0  0  0  0  0  0  0  0  0
  148.4806  140.1397  155.9263 H   0  0  0  0  0  0  0  0  0  0  0  0
  147.3745  141.7435  154.3653 H   0  0  0  0  0  0  0  0  0  0  0  0
  148.8312  141.7868  153.3730 H   0  0  0  0  0  0  0  0  0  0  0  0
  148.8679  142.4090  155.0208 H   0  0  0  0  0  0  0  0  0  0  0  0
  150.3757  138.8033  156.4707 H   0  0  0  0  0  0  0  0  0  0  0  0
  152.6987  138.0720  155.9217 H   0  0  0  0  0  0  0  0  0  0  0  0
  152.6150  139.8183  156.1320 H   0  0  0  0  0  0  0  0  0  0  0  0
  152.7059  139.1312  154.5121 H   0  0  0  0  0  0  0  0  0  0  0  0
  150.6018  136.8040  154.9344 H   0  0  0  0  0  0  0  0  0  0  0  0
  150.6606  137.8762  153.5588 H   0  0  0  0  0  0  0  0  0  0  0  0
  148.2293  132.0732  159.5454 H   0  0  0  0  0  0  0  0  0  0  0  0
  147.5166  131.9098  161.8432 H   0  0  0  0  0  0  0  0  0  0  0  0
  148.5451  137.1187  153.7292 H   0  0  0  0  0  0  0  0  0  0  0  0
  1  2  1  0  0  0  0
  1 25  1  0  0  0  0
  1 26  1  0  0  0  0
  1 27  1  0  0  0  0
  2  3  1  0  0  0  0
  3  4  1  0  0  0  0
  3 28  1  0  0  0  0
  3 29  1  0  0  0  0
  4  5  1  0  0  0  0
  4 30  1  0  0  0  0
  4 31  1  0  0  0  0
  5 23  1  0  0  0  0
  5  6  1  0  0  0  0
  6  7  2  0  0  0  0
  7  8  1  0  0  0  0
  7 21  1  0  0  0  0
  8  9  2  0  0  0  0
  8 10  1  0  0  0  0
 10 11  1  0  0  0  0
 11 12  1  0  0  0  0
 11 32  1  0  0  0  0
 11 33  1  0  0  0  0
 12 13  1  0  0  0  0
 12 34  1  0  0  0  0
 12 35  1  0  0  0  0
 13 20  1  0  0  0  0
 13 14  1  0  0  0  0
 13 50  1  0  0  0  0
 14 15  1  0  0  0  0
 14 36  1  0  0  0  0
 14 37  1  0  0  0  0
 15 16  1  0  0  0  0
 15 17  1  0  0  0  0
 15 38  1  0  0  0  0
 16 39  1  0  0  0  0
 16 40  1  0  0  0  0
 16 41  1  0  0  0  0
 17 18  1  0  0  0  0
 18 19  1  0  0  0  0
 18 20  1  0  0  0  0
 18 42  1  0  0  0  0
 19 43  1  0  0  0  0
 19 44  1  0  0  0  0
 19 45  1  0  0  0  0
 20 46  1  0  0  0  0
 20 47  1  0  0  0  0
 21 22  2  0  0  0  0
 21 48  1  0  0  0  0
 22 23  1  0  0  0  0
 22 49  1  0  0  0  0
 23 24  2  0  0  0  0
M  CHG  1  10  -1
M  CHG  1  13   1
M  END
> <s_m_source_file>
AV-unprocessed.smi

> <i_m_source_file_index>
2001

> <i_lp_mmshare_version>
43012

> <i_f3d_flags>
0

> <s_epik_input>
W0NIM11PW0NIMl1bQ0gyXW4xbmMoW2NIXVtjSF1jMT1PKUMoPU8pW05IXVtDSDJdW0NIMl1OMltDSDJdW0NAQEhdKFtDSDNdKU9bQ0BASF0oW0NIM10pW0NIMl0y

> <s_epik_cmdline>
J2VwaWtfcHl0aG9uJywgJy1waCcsICc3LjAnLCAnLXRuJywgJzgnLCAnLW1hJywgJzIwMCcsICctbWV0YWxfYmluZGluZycsICctaW1hZScsICc8aW5maWxlLm1hZT4nLCAnLW9tYWUnLCAnPG91dGZpbGUubWFlPic=

> <r_lp_tautomer_probability>
1

> <r_epik_Ionization_Penalty>
6.90846

> <r_epik_Ionization_Penalty_Charging>
6.90846

> <r_epik_Ionization_Penalty_Neutral>
1.08445e-11

> <r_epik_State_Penalty>
7.54671

> <r_epik_Charging_Adjusted_Penalty>
14.4552

> <i_epik_Tot_Q>
0

> <i_epik_Tot_abs_Q>
2

> <r_epik_Metal_State_Penalty>
3.46181

> <b_epik_Metal_Only>
1

> <s_lp_Force_Field>
OPLS_2005

> <r_lp_Energy>
41.6735

> <b_lp_Chiralities_Consistent>
1

> <s_lp_Variant>
AV-unprocessed.smi:2001-11

> <Gold.Version>
5.8.1

> <Gold.Id.Protein>
6NUR|6NUR_protein|mol2

> <Gold.PLP.Fitness>
49.2466

> <Gold.PLP.PLP>
-38.8855

> <Gold.PLP.part.hbond>
-4.0000

> <Gold.PLP.part.metal>
0.0000

> <Gold.PLP.part.buried>
-2.1301

> <Gold.PLP.part.nonpolar>
-32.2709

> <Gold.PLP.part.repulsive>
0.0916

> <Gold.PLP.ligand.clash>
0.0000

> <Gold.PLP.ligand.torsion>
0.9196

> <Gold.PLP.Chemscore.Hbond>
4.0000

> <Gold.PLP.Chemscore.CHOScore>
0.0000

> <Gold.PLP.Chemscore.Metal>
0.0000

> <Gold.Chemscore.Hbonds>
donor molecule, donor type, donor heavy atom, donor atom, acceptor molecule, acceptor atom, score
      L1  H    13    50       P1  7948  1.66
      P1  H  6896  6909       L1     9  0.99
      P1  H  7989  7998       L1    17  0.84

> <Gold.PLP.Chemscore.Internal.Correction>
0.2003

> <Gold.Rescore>
     Score         DG    S(hbond)    S(metal)    S(lipo)     H(rot)  DE(clash)    DE(int)     intcor
     15.16     -18.42       2.84        0.00      73.52       2.02       1.25       2.00       ----

> <Gold.Chemscore.Fitness>
15.1598

> <Gold.Chemscore.DG>
-18.4175

> <Gold.Chemscore.ZeroCoef>
-5.4800

> <Gold.Chemscore.Hbond>
2.8448

> <Gold.Chemscore.Metal>
0.0000

> <Gold.Chemscore.Lipo>
73.5202

> <Gold.Chemscore.Internal_Hbond>
0.0000

> <Gold.Chemscore.DEClash>
1.2529

> <Gold.Chemscore.DEInternal>
2.0048

> <Gold.Chemscore.Rot>
2.0179

> <Gold.Chemscore.Internal.Correction>
   9.000000E+99

> <Gold.Chemscore.Hbonds>
donor molecule, donor type, donor heavy atom, donor atom, acceptor molecule, acceptor atom, score
      L1  H    13    50       P1  7948  0.76
      P1  H  6896  6909       L1     9  0.24
      P1  H  7989  7998       L1    17  0.62

> <Gold.Chemscore.Hbond.Weighted>
-9.5015

> <Gold.Chemscore.Metal.Weighted>
-0.0000

> <Gold.Chemscore.Lipo.Weighted>
-8.6019

> <Gold.Chemscore.Internal_Hbond.Weighted>
0.0000

> <Gold.Chemscore.DEClash.Weighted>
1.2529

> <Gold.Chemscore.DEInternal.Weighted>
2.0048

> <Gold.Chemscore.Rot.Weighted>
5.1659

> <Gold.Chemscore.Internal.Correction.Weighted>
   9.000000E+99

> <Gold.Protein.RotatedTorsions>
[ 6907 6896 6895 6894 ] final    3.38 input  -60.11 | X-H torsion
[ 7974 7965 7964 7962 ] final -103.97 input  175.53 | X-H torsion
[ 8008 7997 7996 7995 ] final  -62.78 input   59.86 | X-H torsion
[ 10167 10162 10161 10158 ] final -101.19 input  -65.29 | X-H torsion
[ 10718 10713 10712 10709 ] final  -12.63 input   66.30 | X-H torsion
[ 10763 10752 10751 10750 ] final -177.62 input  -60.55 | X-H torsion
[ 11005 11000 10999 10996 ] final   15.96 input  -57.11 | X-H torsion

> <Gold.Protein.ActiveResidues>
 VAL166  LYS551  ARG553  GLY616  TRP617  ASP618  TYR619  PRO620  LYS621  CYS622 
 ASP623  PHE694  ASN695  SER759  ASP760  ASP761  ALA762  ILE779  LEU786  VAL792 
 PHE793  MET794  SER795  GLU796  ALA797  LYS798  CYS799  TRP800  GLU811  SER814 

> <Gold.Protein.RotatedAtoms>
  151.6242  135.1029  160.0107 H   0  0  0  0  0  0  0  0  0  0  0  0  # atno 6907 bound_to 6896
  152.4141  133.7006  159.6432 H   0  0  0  0  0  0  0  0  0  0  0  0  # atno 6908 bound_to 6896
  150.8030  133.8488  159.3240 H   0  0  0  0  0  0  0  0  0  0  0  0  # atno 6909 bound_to 6896
  145.2491  140.9232  143.3106 H   0  0  0  0  0  0  0  0  0  0  0  0  # atno 7974 bound_to 7965
  154.4518  140.0989  156.6640 H   0  0  0  0  0  0  0  0  0  0  0  0  # atno 8008 bound_to 7997
  155.5262  140.3480  155.4398 H   0  0  0  0  0  0  0  0  0  0  0  0  # atno 8009 bound_to 7997
  156.0696  140.1346  156.9833 H   0  0  0  0  0  0  0  0  0  0  0  0  # atno 8010 bound_to 7997
  140.2439  143.3519  152.0776 H   0  0  0  0  0  0  0  0  0  0  0  0  # atno 10167 bound_to 10162
  156.6418  130.4930  149.6092 H   0  0  0  0  0  0  0  0  0  0  0  0  # atno 10718 bound_to 10713
  154.5578  135.2818  155.0948 H   0  0  0  0  0  0  0  0  0  0  0  0  # atno 10763 bound_to 10752
  154.2368  135.6364  153.5197 H   0  0  0  0  0  0  0  0  0  0  0  0  # atno 10764 bound_to 10752
  153.0020  135.5550  154.6163 H   0  0  0  0  0  0  0  0  0  0  0  0  # atno 10765 bound_to 10752
  140.4524  134.1210  155.7704 H   0  0  0  0  0  0  0  0  0  0  0  0  # atno 11005 bound_to 11000
  144.9519  139.4073  143.6398 LP  0  0  0  0  0  0  0  0  0  0  0  0  # atno 17320 bound_to 7965
  146.3307  139.8531  142.8869 LP  0  0  0  0  0  0  0  0  0  0  0  0  # atno 17321 bound_to 7965
  139.5068  144.6820  151.5983 LP  0  0  0  0  0  0  0  0  0  0  0  0  # atno 17342 bound_to 10162
  140.6092  143.9467  150.6441 LP  0  0  0  0  0  0  0  0  0  0  0  0  # atno 17343 bound_to 10162
  156.2153  130.6704  151.1312 LP  0  0  0  0  0  0  0  0  0  0  0  0  # atno 17370 bound_to 10713
  157.7168  131.0705  150.6293 LP  0  0  0  0  0  0  0  0  0  0  0  0  # atno 17371 bound_to 10713
  141.1658  133.8706  157.1718 LP  0  0  0  0  0  0  0  0  0  0  0  0  # atno 17394 bound_to 11000
  139.9998  135.0032  157.0164 LP  0  0  0  0  0  0  0  0  0  0  0  0  # atno 17395 bound_to 11000

$$$$
