#       Name:                AV-unprocessed.smi:2457
#       Creating user name   scv26
#       Creation time:       Fri Mar 27 13:34:42 2020


#       File generated by GOLD software.
#

@<TRIPOS>MOLECULE
AV-unprocessed.smi:2457
    43    44     1
SMALL
NO_CHARGES


@<TRIPOS>ATOM
      1 ****        -1.8766   1.4687   3.1254 C.3            1 S1                 0.0000
      2 ****        -2.1453   1.1676   1.6850 C.2            1 S1                 0.0000
      3 ****        -2.7292   0.0366   1.1719 C.2            1 S1                 0.0000
      4 ****        -2.8347   0.0923  -0.5656 S.3            1 S1                 0.0000
      5 ****        -2.0660   1.6763  -0.5327 C.2            1 S1                 0.0000
      6 ****        -1.7168   2.4448  -1.7721 C.3            1 S1                 0.0000
      7 ****        -2.4187   3.8095  -1.8212 C.3            1 S1                 0.0000
      8 ****        -0.1951   2.5416  -2.0231 C.3            1 S1                 0.0000
      9 ****         0.4497   1.2293  -2.0094 N.am           1 S1                 0.0000
     10 ****         1.1102   0.7016  -0.9685 C.2            1 S1                 0.0000
     11 ****         1.3441   1.3022   0.0804 O.2            1 S1                 0.0000
     12 ****         1.4449  -0.5768  -1.1898 N.am           1 S1                 0.0000
     13 ****         2.0602  -1.4612  -0.2049 C.3            1 S1                 0.0000
     14 ****         0.9797  -2.0450   0.7306 C.3            1 S1                 0.0000
     15 ****         1.5739  -2.9386   1.8309 C.3            1 S1                 0.0000
     16 ****         2.3259  -4.1492   1.2595 C.3            1 S1                 0.0000
     17 ****         3.7330  -3.6292   0.2405 S.3            1 S1                 0.0000
     18 ****         2.8430  -2.5682  -0.9315 C.3            1 S1                 0.0000
     19 ****        -1.7803   2.0938   0.7045 N.2            1 S1                 0.0000
     20 ****        -2.3614   0.7450   3.7809 H              1 S1                 0.0000
     21 ****        -2.2448   2.4582   3.3972 H              1 S1                 0.0000
     22 ****        -0.8075   1.4426   3.3377 H              1 S1                 0.0000
     23 ****        -3.0985  -0.8251   1.7081 H              1 S1                 0.0000
     24 ****        -2.1254   1.8691  -2.6038 H              1 S1                 0.0000
     25 ****        -3.5003   3.6976  -1.7398 H              1 S1                 0.0000
     26 ****        -2.2088   4.3255  -2.7582 H              1 S1                 0.0000
     27 ****        -2.0879   4.4545  -1.0064 H              1 S1                 0.0000
     28 ****        -0.0086   3.0013  -2.9940 H              1 S1                 0.0000
     29 ****         0.2635   3.2007  -1.2839 H              1 S1                 0.0000
     30 ****         0.3159   0.6513  -2.8260 H              1 S1                 0.0000
     31 ****         1.2092  -0.9836  -2.0830 H              1 S1                 0.0000
     32 ****         2.7689  -0.8817   0.3900 H              1 S1                 0.0000
     33 ****         0.4221  -1.2347   1.2024 H              1 S1                 0.0000
     34 ****         0.2523  -2.6141   0.1500 H              1 S1                 0.0000
     35 ****         2.2437  -2.3519   2.4610 H              1 S1                 0.0000
     36 ****         0.7713  -3.2888   2.4807 H              1 S1                 0.0000
     37 ****         2.6955  -4.7803   2.0680 H              1 S1                 0.0000
     38 ****         1.6565  -4.7626   0.6555 H              1 S1                 0.0000
     39 ****         2.1709  -3.1868  -1.5273 H              1 S1                 0.0000
     40 ****         3.5707  -2.1332  -1.6174 H              1 S1                 0.0000
     41 ****         1.0351   2.2463   0.1956 LP             1 S1                 0.0000
     42 ****         1.8432   0.8460   0.8171 LP             1 S1                 0.0000
     43 ****        -1.3515   2.9743   0.9066 LP             1 S1                 0.0000
@<TRIPOS>BOND
    1    1    2 1     
    2    1   20 1     
    3    1   21 1     
    4    1   22 1     
    5    2   19 1     
    6    2    3 2     
    7    3    4 1     
    8    3   23 1     
    9    4    5 1     
   10    5    6 1     
   11    5   19 2     
   12    6    7 1     
   13    6    8 1     
   14    6   24 1     
   15    7   25 1     
   16    7   26 1     
   17    7   27 1     
   18    8    9 1     
   19    8   28 1     
   20    8   29 1     
   21    9   10 am    
   22    9   30 1     
   23   10   11 2     
   24   10   12 am    
   25   12   13 1     
   26   12   31 1     
   27   13   18 1     
   28   13   14 1     
   29   13   32 1     
   30   14   15 1     
   31   14   33 1     
   32   14   34 1     
   33   15   16 1     
   34   15   35 1     
   35   15   36 1     
   36   16   17 1     
   37   16   37 1     
   38   16   38 1     
   39   17   18 1     
   40   18   39 1     
   41   18   40 1     
   42   11   41 1     
   43   11   42 1     
   44   19   43 1     
@<TRIPOS>SUBSTRUCTURE
      1 S1             1
@<TRIPOS>SET
LONE_PAIRS      STATIC     ATOMS    <user>   **** ""
3 41 42 43
DONOR_HYDROGENS      STATIC     ATOMS    <user>   **** ""
2 30 31
ATOM$BLUE        STATIC     ATOMS    COLORGROUP SYSTEM
3 41 42 43
ATOM$RED        STATIC     ATOMS    COLORGROUP SYSTEM
2 30 31
