AV-unprocessed.smi:1671|AV-procd|sdf|6700|dock6
  -GOLD-   22720 7433D 1   1.00000     0.00000
 Structure written by MMmdl.
 44 45  0  0  0  0  0  0  0  0  1 V2000
  151.5144  135.9676  155.8424 C   0  0  0  0  0  0  0  0  0  0  0  0
  150.0211  134.9701  156.0959 S   0  0  0  0  0  0  0  0  0  0  0  0
  148.9021  135.7012  154.8638 C   0  0  1  0  0  0  0  0  0  0  0  0
  147.5109  135.0556  154.9608 C   0  0  0  0  0  0  0  0  0  0  0  0
  148.8149  137.2259  155.0023 C   0  0  0  0  0  0  0  0  0  0  0  0
  148.4185  137.7348  156.0515 O   0  0  0  0  0  0  0  0  0  0  0  0
  149.1939  137.9462  153.9349 N   0  0  0  0  0  0  0  0  0  0  0  0
  149.1881  139.4038  153.8662 C   0  0  0  0  0  0  0  0  0  0  0  0
  149.9811  140.0898  154.9698 C   0  0  0  0  0  0  0  0  0  0  0  0
  151.2963  139.7022  155.3021 C   0  0  0  0  0  0  0  0  0  0  0  0
  151.9673  140.3790  156.3382 C   0  0  0  0  0  0  0  0  0  0  0  0
  151.3066  141.4281  157.0207 C   0  0  0  0  0  0  0  0  0  0  0  0
  151.9613  142.1242  158.0603 N   0  0  0  0  0  0  0  0  0  0  0  0
  152.4617  141.3504  159.1949 C   0  0  0  0  0  0  0  0  0  0  0  0
  153.3887  142.2145  160.0649 C   0  0  0  0  0  0  0  0  0  0  0  0
  152.7064  143.3995  160.4613 O   0  0  0  0  0  0  0  0  0  0  0  0
  152.3253  144.1983  159.3445 C   0  0  2  0  0  0  0  0  0  0  0  0
  151.6854  145.4870  159.8712 C   0  0  0  0  0  0  0  0  0  0  0  0
  151.3595  143.3968  158.4501 C   0  0  0  0  0  0  0  0  0  0  0  0
  150.0369  141.7868  156.7075 N   0  0  0  0  0  0  0  0  0  0  0  0
  149.3987  141.1356  155.7128 C   0  0  0  0  0  0  0  0  0  0  0  0
  152.3200  135.6008  156.4779 H   0  0  0  0  0  0  0  0  0  0  0  0
  151.3295  137.0118  156.0937 H   0  0  0  0  0  0  0  0  0  0  0  0
  151.8408  135.9099  154.8040 H   0  0  0  0  0  0  0  0  0  0  0  0
  149.3061  135.4625  153.8786 H   0  0  0  0  0  0  0  0  0  0  0  0
  146.8207  135.4868  154.2346 H   0  0  0  0  0  0  0  0  0  0  0  0
  147.0761  135.1854  155.9527 H   0  0  0  0  0  0  0  0  0  0  0  0
  147.5652  133.9847  154.7636 H   0  0  0  0  0  0  0  0  0  0  0  0
  149.5098  137.4505  153.1139 H   0  0  0  0  0  0  0  0  0  0  0  0
  149.5578  139.7254  152.8909 H   0  0  0  0  0  0  0  0  0  0  0  0
  148.1536  139.7419  153.9296 H   0  0  0  0  0  0  0  0  0  0  0  0
  151.7897  138.8967  154.7786 H   0  0  0  0  0  0  0  0  0  0  0  0
  152.9688  140.0763  156.6048 H   0  0  0  0  0  0  0  0  0  0  0  0
  151.6189  140.9937  159.7887 H   0  0  0  0  0  0  0  0  0  0  0  0
  153.0093  140.4746  158.8445 H   0  0  0  0  0  0  0  0  0  0  0  0
  153.6890  141.6628  160.9556 H   0  0  0  0  0  0  0  0  0  0  0  0
  154.3024  142.4698  159.5257 H   0  0  0  0  0  0  0  0  0  0  0  0
  153.2174  144.4633  158.7740 H   0  0  0  0  0  0  0  0  0  0  0  0
  151.3850  146.1393  159.0509 H   0  0  0  0  0  0  0  0  0  0  0  0
  152.3848  146.0414  160.4975 H   0  0  0  0  0  0  0  0  0  0  0  0
  150.8000  145.2718  160.4702 H   0  0  0  0  0  0  0  0  0  0  0  0
  151.0977  144.0005  157.5825 H   0  0  0  0  0  0  0  0  0  0  0  0
  150.4309  143.1943  158.9858 H   0  0  0  0  0  0  0  0  0  0  0  0
  148.3909  141.4628  155.5036 H   0  0  0  0  0  0  0  0  0  0  0  0
  1  2  1  0  0  0  0
  1 22  1  0  0  0  0
  1 23  1  0  0  0  0
  1 24  1  0  0  0  0
  2  3  1  0  0  0  0
  3  4  1  0  0  0  0
  3  5  1  0  0  0  0
  3 25  1  0  0  0  0
  4 26  1  0  0  0  0
  4 27  1  0  0  0  0
  4 28  1  0  0  0  0
  5  6  2  0  0  0  0
  5  7  1  0  0  0  0
  7  8  1  0  0  0  0
  7 29  1  0  0  0  0
  8  9  1  0  0  0  0
  8 30  1  0  0  0  0
  8 31  1  0  0  0  0
  9 21  1  0  0  0  0
  9 10  2  0  0  0  0
 10 11  1  0  0  0  0
 10 32  1  0  0  0  0
 11 12  2  0  0  0  0
 11 33  1  0  0  0  0
 12 13  1  0  0  0  0
 12 20  1  0  0  0  0
 13 19  1  0  0  0  0
 13 14  1  0  0  0  0
 14 15  1  0  0  0  0
 14 34  1  0  0  0  0
 14 35  1  0  0  0  0
 15 16  1  0  0  0  0
 15 36  1  0  0  0  0
 15 37  1  0  0  0  0
 16 17  1  0  0  0  0
 17 18  1  0  0  0  0
 17 19  1  0  0  0  0
 17 38  1  0  0  0  0
 18 39  1  0  0  0  0
 18 40  1  0  0  0  0
 18 41  1  0  0  0  0
 19 42  1  0  0  0  0
 19 43  1  0  0  0  0
 20 21  2  0  0  0  0
 21 44  1  0  0  0  0
M  END
> <s_m_source_file>
AV-unprocessed.smi

> <i_m_source_file_index>
1671

> <i_lp_mmshare_version>
43012

> <i_f3d_flags>
0

> <s_epik_input>
W0NIM11TW0NASF0oW0NIM10pQyg9TylbTkhdW0NIMl1jMVtjSF1bY0hdYyhuW2NIXTEpTjJbQ0gyXVtDSDJdT1tDQEBIXShbQ0gzXSlbQ0gyXTI=

> <s_epik_cmdline>
J2VwaWtfcHl0aG9uJywgJy1waCcsICc3LjAnLCAnLXRuJywgJzgnLCAnLW1hJywgJzIwMCcsICctbWV0YWxfYmluZGluZycsICctaW1hZScsICc8aW5maWxlLm1hZT4nLCAnLW9tYWUnLCAnPG91dGZpbGUubWFlPic=

> <r_lp_tautomer_probability>
1

> <r_epik_Ionization_Penalty>
0.00480033

> <r_epik_Ionization_Penalty_Charging>
0

> <r_epik_Ionization_Penalty_Neutral>
0.00480033

> <r_epik_State_Penalty>
0.00347981

> <r_epik_Charging_Adjusted_Penalty>
0.00347981

> <i_epik_Tot_Q>
0

> <i_epik_Tot_abs_Q>
0

> <r_epik_Metal_State_Penalty>
-0

> <b_epik_Metal_Only>
0

> <s_lp_Force_Field>
OPLS_2005

> <r_lp_Energy>
15.0592

> <b_lp_Chiralities_Consistent>
1

> <s_lp_Variant>
AV-unprocessed.smi:1671-4

> <Gold.Version>
5.8.1

> <Gold.Id.Protein>
6NUR|6NUR_protein|mol2

> <Gold.PLP.Fitness>
38.5394

> <Gold.PLP.PLP>
-35.9049

> <Gold.PLP.part.hbond>
-1.0000

> <Gold.PLP.part.metal>
0.0000

> <Gold.PLP.part.buried>
-1.3895

> <Gold.PLP.part.nonpolar>
-32.8700

> <Gold.PLP.part.repulsive>
0.1767

> <Gold.PLP.ligand.clash>
0.0000

> <Gold.PLP.ligand.torsion>
0.3731

> <Gold.PLP.Chemscore.Hbond>
1.0000

> <Gold.PLP.Chemscore.CHOScore>
0.0000

> <Gold.PLP.Chemscore.Metal>
0.0000

> <Gold.Chemscore.Hbonds>
donor molecule, donor type, donor heavy atom, donor atom, acceptor molecule, acceptor atom, score
      L1  H     7    29       P1  7948  0.88

> <Gold.PLP.Chemscore.Internal.Correction>
0.3807

> <Gold.Rescore>
     Score         DG    S(hbond)    S(metal)    S(lipo)     H(rot)  DE(clash)    DE(int)     intcor
     15.79     -16.26       0.97        0.00      99.96       1.63       0.16       0.32       ----

> <Gold.Chemscore.Fitness>
15.7864

> <Gold.Chemscore.DG>
-16.2636

> <Gold.Chemscore.ZeroCoef>
-5.4800

> <Gold.Chemscore.Hbond>
0.9744

> <Gold.Chemscore.Metal>
0.0000

> <Gold.Chemscore.Lipo>
99.9555

> <Gold.Chemscore.Internal_Hbond>
0.0000

> <Gold.Chemscore.DEClash>
0.1579

> <Gold.Chemscore.DEInternal>
0.3193

> <Gold.Chemscore.Rot>
1.6272

> <Gold.Chemscore.Internal.Correction>
   9.000000E+99

> <Gold.Chemscore.Hbonds>
donor molecule, donor type, donor heavy atom, donor atom, acceptor molecule, acceptor atom, score
      L1  H     7    29       P1  7948  0.74

> <Gold.Chemscore.Hbond.Weighted>
-3.2545

> <Gold.Chemscore.Metal.Weighted>
-0.0000

> <Gold.Chemscore.Lipo.Weighted>
-11.6948

> <Gold.Chemscore.Internal_Hbond.Weighted>
0.0000

> <Gold.Chemscore.DEClash.Weighted>
0.1579

> <Gold.Chemscore.DEInternal.Weighted>
0.3193

> <Gold.Chemscore.Rot.Weighted>
4.1657

> <Gold.Chemscore.Internal.Correction.Weighted>
   9.000000E+99

> <Gold.Protein.RotatedTorsions>
[ 6907 6896 6895 6894 ] final  -36.72 input  -60.11 | X-H torsion
[ 7974 7965 7964 7962 ] final  -93.04 input  175.53 | X-H torsion
[ 8008 7997 7996 7995 ] final    6.44 input   59.86 | X-H torsion
[ 10167 10162 10161 10158 ] final   40.72 input  -65.29 | X-H torsion
[ 10718 10713 10712 10709 ] final  -16.09 input   66.30 | X-H torsion
[ 10763 10752 10751 10750 ] final  157.35 input  -60.55 | X-H torsion
[ 11005 11000 10999 10996 ] final  -64.81 input  -57.11 | X-H torsion

> <Gold.Protein.ActiveResidues>
 VAL166  LYS551  ARG553  GLY616  TRP617  ASP618  TYR619  PRO620  LYS621  CYS622 
 ASP623  PHE694  ASN695  SER759  ASP760  ASP761  ALA762  ILE779  LEU786  VAL792 
 PHE793  MET794  SER795  GLU796  ALA797  LYS798  CYS799  TRP800  GLU811  SER814 

> <Gold.Protein.RotatedAtoms>
  151.0236  134.9487  159.8072 H   0  0  0  0  0  0  0  0  0  0  0  0  # atno 6907 bound_to 6896
  152.5330  134.2872  159.9039 H   0  0  0  0  0  0  0  0  0  0  0  0  # atno 6908 bound_to 6896
  151.2880  133.4137  159.2665 H   0  0  0  0  0  0  0  0  0  0  0  0  # atno 6909 bound_to 6896
  145.3918  140.9529  143.2336 H   0  0  0  0  0  0  0  0  0  0  0  0  # atno 7974 bound_to 7965
  154.7410  140.2749  155.6373 H   0  0  0  0  0  0  0  0  0  0  0  0  # atno 8008 bound_to 7997
  156.2873  140.2697  156.2063 H   0  0  0  0  0  0  0  0  0  0  0  0  # atno 8009 bound_to 7997
  155.0258  140.0371  157.2445 H   0  0  0  0  0  0  0  0  0  0  0  0  # atno 8010 bound_to 7997
  140.3714  144.2100  150.6133 H   0  0  0  0  0  0  0  0  0  0  0  0  # atno 10167 bound_to 10162
  156.5925  130.4803  149.6273 H   0  0  0  0  0  0  0  0  0  0  0  0  # atno 10718 bound_to 10713
  154.1988  135.2791  155.2998 H   0  0  0  0  0  0  0  0  0  0  0  0  # atno 10763 bound_to 10752
  154.5871  135.5571  153.7245 H   0  0  0  0  0  0  0  0  0  0  0  0  # atno 10764 bound_to 10752
  153.0093  135.6359  154.2126 H   0  0  0  0  0  0  0  0  0  0  0  0  # atno 10765 bound_to 10752
  141.1436  133.6671  156.5889 H   0  0  0  0  0  0  0  0  0  0  0  0  # atno 11005 bound_to 11000
  144.8435  139.5435  143.6889 LP  0  0  0  0  0  0  0  0  0  0  0  0  # atno 17320 bound_to 7965
  146.2794  139.6836  142.9240 LP  0  0  0  0  0  0  0  0  0  0  0  0  # atno 17321 bound_to 7965
  140.5029  143.2312  151.8651 LP  0  0  0  0  0  0  0  0  0  0  0  0  # atno 17342 bound_to 10162
  139.4803  144.5039  151.9024 LP  0  0  0  0  0  0  0  0  0  0  0  0  # atno 17343 bound_to 10162
  156.2537  130.6922  151.1668 LP  0  0  0  0  0  0  0  0  0  0  0  0  # atno 17370 bound_to 10713
  157.7300  131.0620  150.5748 LP  0  0  0  0  0  0  0  0  0  0  0  0  # atno 17371 bound_to 10713
  140.3778  134.7549  157.4641 LP  0  0  0  0  0  0  0  0  0  0  0  0  # atno 17394 bound_to 11000
  140.0661  134.5928  155.8694 LP  0  0  0  0  0  0  0  0  0  0  0  0  # atno 17395 bound_to 11000

$$$$
