AV-unprocessed.smi:2091|AV-procd|sdf|8538|dock4
  -GOLD-   2272011263D 1   1.00000     0.00000
 Structure written by MMmdl.
 36 37  0  0  0  0  0  0  0  0  1 V2000
  151.2986  140.3677  155.4264 O   0  0  0  0  0  0  0  0  0  0  0  0
  151.4642  139.7053  156.4516 C   0  0  0  0  0  0  0  0  0  0  0  0
  151.2383  138.1876  156.4455 C   0  0  0  0  0  0  0  0  0  0  0  0
  150.3161  137.7485  157.5021 N   0  0  0  0  0  0  0  0  0  0  0  0
  148.9531  137.9821  157.3868 C   0  0  0  0  0  0  0  0  0  0  0  0
  148.0510  137.6097  158.3256 C   0  0  0  0  0  0  0  0  0  0  0  0
  148.4866  136.9248  159.5379 C   0  0  0  0  0  0  0  0  0  0  0  0
  147.7466  136.5458  160.4427 O   0  0  0  0  0  0  0  0  0  0  0  0
  149.8651  136.7112  159.6183 N   0  0  0  0  0  0  0  0  0  0  0  0
  150.8004  137.0942  158.6558 C   0  0  0  0  0  0  0  0  0  0  0  0
  151.9961  136.8596  158.8274 O   0  0  0  0  0  0  0  0  0  0  0  0
  151.8638  140.2400  157.6165 N   0  0  0  0  0  0  0  0  0  0  0  0
  152.1259  141.6606  157.8576 C   0  0  2  0  0  0  0  0  0  0  0  0
  152.4479  141.8241  159.3609 C   0  0  0  0  0  0  0  0  0  0  0  0
  153.2491  143.0951  159.6915 C   0  0  0  0  0  0  0  0  0  0  0  0
  152.5103  144.4151  159.4251 C   0  0  0  0  0  0  0  0  0  0  0  0
  152.1513  144.6338  157.9456 C   0  0  0  0  0  0  0  0  0  0  0  0
  150.9882  143.8544  157.5426 N   0  0  0  0  0  0  0  0  0  0  0  0
  150.8864  142.5170  157.5047 C   0  0  0  0  0  0  0  0  0  0  0  0
  149.8199  141.9844  157.1976 O   0  0  0  0  0  0  0  0  0  0  0  0
  150.2143  136.2420  160.4412 H   0  0  0  0  0  0  0  0  0  0  0  0
  150.8524  137.9086  155.4641 H   0  0  0  0  0  0  0  0  0  0  0  0
  152.1917  137.6632  156.5393 H   0  0  0  0  0  0  0  0  0  0  0  0
  148.5853  138.4903  156.5066 H   0  0  0  0  0  0  0  0  0  0  0  0
  147.0015  137.8201  158.1790 H   0  0  0  0  0  0  0  0  0  0  0  0
  151.9696  139.6206  158.4065 H   0  0  0  0  0  0  0  0  0  0  0  0
  152.9802  141.9712  157.2535 H   0  0  0  0  0  0  0  0  0  0  0  0
  151.5379  141.7845  159.9623 H   0  0  0  0  0  0  0  0  0  0  0  0
  153.0502  140.9757  159.6895 H   0  0  0  0  0  0  0  0  0  0  0  0
  153.5300  143.0633  160.7446 H   0  0  0  0  0  0  0  0  0  0  0  0
  154.1872  143.0861  159.1354 H   0  0  0  0  0  0  0  0  0  0  0  0
  151.6139  144.4786  160.0439 H   0  0  0  0  0  0  0  0  0  0  0  0
  153.1543  145.2335  159.7489 H   0  0  0  0  0  0  0  0  0  0  0  0
  151.9026  145.6838  157.7891 H   0  0  0  0  0  0  0  0  0  0  0  0
  153.0009  144.4199  157.2956 H   0  0  0  0  0  0  0  0  0  0  0  0
  150.1633  144.3824  157.2966 H   0  0  0  0  0  0  0  0  0  0  0  0
  1  2  2  0  0  0  0
  2  3  1  0  0  0  0
  2 12  1  0  0  0  0
  3  4  1  0  0  0  0
  3 22  1  0  0  0  0
  3 23  1  0  0  0  0
  4 10  1  0  0  0  0
  4  5  1  0  0  0  0
  5  6  2  0  0  0  0
  5 24  1  0  0  0  0
  6  7  1  0  0  0  0
  6 25  1  0  0  0  0
  7  8  2  0  0  0  0
  7  9  1  0  0  0  0
  9 21  1  0  0  0  0
  9 10  1  0  0  0  0
 10 11  2  0  0  0  0
 12 13  1  0  0  0  0
 12 26  1  0  0  0  0
 13 19  1  0  0  0  0
 13 14  1  0  0  0  0
 13 27  1  0  0  0  0
 14 15  1  0  0  0  0
 14 28  1  0  0  0  0
 14 29  1  0  0  0  0
 15 16  1  0  0  0  0
 15 30  1  0  0  0  0
 15 31  1  0  0  0  0
 16 17  1  0  0  0  0
 16 32  1  0  0  0  0
 16 33  1  0  0  0  0
 17 18  1  0  0  0  0
 17 34  1  0  0  0  0
 17 35  1  0  0  0  0
 18 19  1  0  0  0  0
 18 36  1  0  0  0  0
 19 20  2  0  0  0  0
M  END
> <s_m_source_file>
AV-unprocessed.smi

> <i_m_source_file_index>
2091

> <i_lp_mmshare_version>
43012

> <i_f3d_flags>
0

> <s_epik_input>
Tz1jMVtuSF1jKD1PKVtjSF1bY0hdbjFbQ0gyXUMoPU8pW05IXVtDQEBIXTJbQ0gyXVtDSDJdW0NIMl1bQ0gyXVtOSF1DMj1P

> <s_epik_cmdline>
J2VwaWtfcHl0aG9uJywgJy1waCcsICc3LjAnLCAnLXRuJywgJzgnLCAnLW1hJywgJzIwMCcsICctbWV0YWxfYmluZGluZycsICctaW1hZScsICc8aW5maWxlLm1hZT4nLCAnLW9tYWUnLCAnPG91dGZpbGUubWFlPic=

> <r_lp_tautomer_probability>
0.999537

> <r_epik_Ionization_Penalty>
0.00356328

> <r_epik_Ionization_Penalty_Charging>
0.00356323

> <r_epik_Ionization_Penalty_Neutral>
5.33217e-08

> <r_epik_State_Penalty>
0.00253125

> <r_epik_Charging_Adjusted_Penalty>
0.00609448

> <i_epik_Tot_Q>
0

> <i_epik_Tot_abs_Q>
0

> <r_epik_Metal_State_Penalty>
0.368636

> <b_epik_Metal_Only>
0

> <s_lp_Force_Field>
OPLS_2005

> <r_lp_Energy>
10.0871

> <b_lp_Chiralities_Consistent>
1

> <s_lp_Variant>
AV-unprocessed.smi:2091-1

> <Gold.Version>
5.8.1

> <Gold.Id.Protein>
6NUR|6NUR_protein|mol2

> <Gold.PLP.Fitness>
39.6508

> <Gold.PLP.PLP>
-30.7717

> <Gold.PLP.part.hbond>
-3.3652

> <Gold.PLP.part.metal>
0.0000

> <Gold.PLP.part.buried>
-6.5175

> <Gold.PLP.part.nonpolar>
-21.5788

> <Gold.PLP.part.repulsive>
0.5174

> <Gold.PLP.ligand.clash>
0.0000

> <Gold.PLP.ligand.torsion>
0.2399

> <Gold.PLP.Chemscore.Hbond>
3.1191

> <Gold.PLP.Chemscore.CHOScore>
0.0000

> <Gold.PLP.Chemscore.Metal>
0.0000

> <Gold.Chemscore.Hbonds>
donor molecule, donor type, donor heavy atom, donor atom, acceptor molecule, acceptor atom, score
      L1  H    18    36       P1  8028  0.74
      P1  H  6896  6908       L1    11  0.17
      P1  H  7989  7998       L1     1  0.94

> <Gold.PLP.Chemscore.Internal.Correction>
0.0015

> <Gold.Rescore>
     Score         DG    S(hbond)    S(metal)    S(lipo)     H(rot)  DE(clash)    DE(int)     intcor
     17.26     -17.47       2.83        0.00      62.95       1.88       0.03       0.19       ----

> <Gold.Chemscore.Fitness>
17.2556

> <Gold.Chemscore.DG>
-17.4727

> <Gold.Chemscore.ZeroCoef>
-5.4800

> <Gold.Chemscore.Hbond>
2.8298

> <Gold.Chemscore.Metal>
0.0000

> <Gold.Chemscore.Lipo>
62.9524

> <Gold.Chemscore.Internal_Hbond>
0.0000

> <Gold.Chemscore.DEClash>
0.0263

> <Gold.Chemscore.DEInternal>
0.1908

> <Gold.Chemscore.Rot>
1.8844

> <Gold.Chemscore.Internal.Correction>
   9.000000E+99

> <Gold.Chemscore.Hbonds>
donor molecule, donor type, donor heavy atom, donor atom, acceptor molecule, acceptor atom, score
      L1  H    18    36       P1  8028  0.39
      P1  H  7989  7998       L1     1  0.87

> <Gold.Chemscore.Hbond.Weighted>
-9.4515

> <Gold.Chemscore.Metal.Weighted>
-0.0000

> <Gold.Chemscore.Lipo.Weighted>
-7.3654

> <Gold.Chemscore.Internal_Hbond.Weighted>
0.0000

> <Gold.Chemscore.DEClash.Weighted>
0.0263

> <Gold.Chemscore.DEInternal.Weighted>
0.1908

> <Gold.Chemscore.Rot.Weighted>
4.8242

> <Gold.Chemscore.Internal.Correction.Weighted>
   9.000000E+99

> <Gold.Protein.RotatedTorsions>
[ 6907 6896 6895 6894 ] final -135.16 input  -60.11 | X-H torsion
[ 7974 7965 7964 7962 ] final -173.07 input  175.53 | X-H torsion
[ 8008 7997 7996 7995 ] final  -47.36 input   59.86 | X-H torsion
[ 10167 10162 10161 10158 ] final  176.46 input  -65.29 | X-H torsion
[ 10718 10713 10712 10709 ] final   72.34 input   66.30 | X-H torsion
[ 10763 10752 10751 10750 ] final   -4.54 input  -60.55 | X-H torsion
[ 11005 11000 10999 10996 ] final  106.25 input  -57.11 | X-H torsion

> <Gold.Protein.ActiveResidues>
 VAL166  LYS551  ARG553  GLY616  TRP617  ASP618  TYR619  PRO620  LYS621  CYS622 
 ASP623  PHE694  ASN695  SER759  ASP760  ASP761  ALA762  ILE779  LEU786  VAL792 
 PHE793  MET794  SER795  GLU796  ALA797  LYS798  CYS799  TRP800  GLU811  SER814 

> <Gold.Protein.RotatedAtoms>
  150.9946  133.6116  159.2703 H   0  0  0  0  0  0  0  0  0  0  0  0  # atno 6907 bound_to 6896
  151.3324  135.0844  159.9353 H   0  0  0  0  0  0  0  0  0  0  0  0  # atno 6908 bound_to 6896
  152.5256  133.9572  159.7754 H   0  0  0  0  0  0  0  0  0  0  0  0  # atno 6909 bound_to 6896
  144.7141  140.1677  143.6370 H   0  0  0  0  0  0  0  0  0  0  0  0  # atno 7974 bound_to 7965
  154.4016  140.1348  156.4163 H   0  0  0  0  0  0  0  0  0  0  0  0  # atno 8008 bound_to 7997
  155.7686  140.3484  155.5214 H   0  0  0  0  0  0  0  0  0  0  0  0  # atno 8009 bound_to 7997
  155.8789  140.0984  157.1489 H   0  0  0  0  0  0  0  0  0  0  0  0  # atno 8010 bound_to 7997
  139.5215  144.2913  152.0461 H   0  0  0  0  0  0  0  0  0  0  0  0  # atno 10167 bound_to 10162
  157.6496  130.9573  150.0914 H   0  0  0  0  0  0  0  0  0  0  0  0  # atno 10718 bound_to 10713
  153.3862  135.7000  153.6528 H   0  0  0  0  0  0  0  0  0  0  0  0  # atno 10763 bound_to 10752
  153.5119  135.3630  155.2591 H   0  0  0  0  0  0  0  0  0  0  0  0  # atno 10764 bound_to 10752
  154.8698  135.4137  154.3170 H   0  0  0  0  0  0  0  0  0  0  0  0  # atno 10765 bound_to 10752
  139.8812  134.9363  156.5638 H   0  0  0  0  0  0  0  0  0  0  0  0  # atno 11005 bound_to 11000
  145.8972  139.2409  143.1514 LP  0  0  0  0  0  0  0  0  0  0  0  0  # atno 17320 bound_to 7965
  145.9846  140.8654  143.0097 LP  0  0  0  0  0  0  0  0  0  0  0  0  # atno 17321 bound_to 7965
  140.2364  144.4315  150.6278 LP  0  0  0  0  0  0  0  0  0  0  0  0  # atno 17342 bound_to 10162
  140.6320  143.2189  151.6474 LP  0  0  0  0  0  0  0  0  0  0  0  0  # atno 17343 bound_to 10162
  156.1862  130.3652  149.8969 LP  0  0  0  0  0  0  0  0  0  0  0  0  # atno 17370 bound_to 10713
  156.6909  130.8895  151.3588 LP  0  0  0  0  0  0  0  0  0  0  0  0  # atno 17371 bound_to 10713
  140.8149  133.8399  155.8843 LP  0  0  0  0  0  0  0  0  0  0  0  0  # atno 17394 bound_to 11000
  140.9472  134.1826  157.4755 LP  0  0  0  0  0  0  0  0  0  0  0  0  # atno 17395 bound_to 11000

$$$$
