AV-unprocessed.smi:249|AV-procd|sdf|1906|dock9
  -GOLD-   2262020593D 1   1.00000     0.00000
 Structure written by MMmdl.
 64 67  0  0  0  0  0  0  0  0  2 V2000
  146.0782  132.9062  151.1847 C   0  0  0  0  0  0  0  0  0  0  0  0
  145.6546  132.3070  152.5359 C   0  0  0  0  0  0  0  0  0  0  0  0
  146.5694  132.6664  153.6583 N   0  3  2  0  0  0  0  0  0  0  0  0
  146.6970  134.1436  153.8174 C   0  0  0  0  0  0  0  0  0  0  0  0
  147.5177  134.5224  155.0575 C   0  0  0  0  0  0  0  0  0  0  0  0
  148.9230  133.9009  154.9930 C   0  0  1  0  0  0  0  0  0  0  0  0
  149.7813  134.2832  156.1254 N   0  0  0  0  0  0  0  0  0  0  0  0
  151.1239  133.7149  156.1679 C   0  0  0  0  0  0  0  0  0  0  0  0
  149.7204  135.5752  156.5289 C   0  0  0  0  0  0  0  0  0  0  0  0
  149.0420  135.9009  157.6609 N   0  0  0  0  0  0  0  0  0  0  0  0
  149.0420  137.1632  158.1003 C   0  0  0  0  0  0  0  0  0  0  0  0
  149.6546  138.2284  157.5789 N   0  0  0  0  0  0  0  0  0  0  0  0
  150.3180  137.9058  156.4318 C   0  0  0  0  0  0  0  0  0  0  0  0
  150.3819  136.6195  155.8295 C   0  0  0  0  0  0  0  0  0  0  0  0
  151.1308  136.6755  154.6606 N   0  0  0  0  0  0  0  0  0  0  0  0
  151.5144  137.9209  154.5905 C   0  0  0  0  0  0  0  0  0  0  0  0
  151.1058  138.7182  155.6364 N   0  0  0  0  0  0  0  0  0  0  0  0
  151.4300  140.1173  155.8392 C   0  0  0  0  0  0  0  0  0  0  0  0
  151.0024  140.6846  157.2229 C   0  0  2  0  0  0  0  0  0  0  0  0
  149.4779  140.9553  157.2063 C   0  0  0  0  0  0  0  0  0  0  0  0
  149.0084  141.3395  158.4825 O   0  0  0  0  0  0  0  0  0  0  0  0
  151.8101  141.9500  157.6516 C   0  0  1  0  0  0  0  0  0  0  0  0
  151.2919  143.2698  157.0975 C   0  0  0  0  0  0  0  0  0  0  0  0
  151.9349  144.2890  158.0254 C   0  0  0  0  0  0  0  0  0  0  0  0
  151.8542  143.6855  159.3059 O   0  0  0  0  0  0  0  0  0  0  0  0
  151.8132  142.2689  159.1604 C   0  0  0  0  0  0  0  0  0  0  0  0
  148.7715  132.3783  154.8111 C   0  0  0  0  0  0  0  0  0  0  0  0
  147.9146  132.0084  153.5826 C   0  0  1  0  0  0  0  0  0  0  0  0
  147.8385  130.4694  153.4921 C   0  0  0  0  0  0  0  0  0  0  0  0
  145.2977  132.7503  150.4395 H   0  0  0  0  0  0  0  0  0  0  0  0
  146.9836  132.4471  150.7898 H   0  0  0  0  0  0  0  0  0  0  0  0
  146.2457  133.9807  151.2634 H   0  0  0  0  0  0  0  0  0  0  0  0
  144.6544  132.6894  152.7244 H   0  0  0  0  0  0  0  0  0  0  0  0
  145.5642  131.2223  152.4615 H   0  0  0  0  0  0  0  0  0  0  0  0
  147.1536  134.5687  152.9220 H   0  0  0  0  0  0  0  0  0  0  0  0
  145.7179  134.6075  153.9202 H   0  0  0  0  0  0  0  0  0  0  0  0
  147.5832  135.6083  155.1247 H   0  0  0  0  0  0  0  0  0  0  0  0
  146.9894  134.1862  155.9501 H   0  0  0  0  0  0  0  0  0  0  0  0
  149.4163  134.2856  154.0991 H   0  0  0  0  0  0  0  0  0  0  0  0
  151.5890  133.9002  157.1370 H   0  0  0  0  0  0  0  0  0  0  0  0
  151.7639  134.1410  155.3946 H   0  0  0  0  0  0  0  0  0  0  0  0
  151.0839  132.6355  156.0196 H   0  0  0  0  0  0  0  0  0  0  0  0
  148.4848  137.3426  159.0081 H   0  0  0  0  0  0  0  0  0  0  0  0
  152.1369  138.2860  153.7865 H   0  0  0  0  0  0  0  0  0  0  0  0
  152.5050  140.2428  155.7046 H   0  0  0  0  0  0  0  0  0  0  0  0
  150.9547  140.6751  155.0317 H   0  0  0  0  0  0  0  0  0  0  0  0
  151.1782  139.9163  157.9773 H   0  0  0  0  0  0  0  0  0  0  0  0
  149.2228  141.7695  156.5294 H   0  0  0  0  0  0  0  0  0  0  0  0
  148.9302  140.0743  156.8701 H   0  0  0  0  0  0  0  0  0  0  0  0
  149.7013  141.7981  158.9327 H   0  0  0  0  0  0  0  0  0  0  0  0
  152.8435  141.8393  157.3188 H   0  0  0  0  0  0  0  0  0  0  0  0
  151.5648  143.4360  156.0547 H   0  0  0  0  0  0  0  0  0  0  0  0
  150.2053  143.3234  157.1833 H   0  0  0  0  0  0  0  0  0  0  0  0
  152.9838  144.4371  157.7644 H   0  0  0  0  0  0  0  0  0  0  0  0
  151.4340  145.2569  158.0034 H   0  0  0  0  0  0  0  0  0  0  0  0
  150.9067  141.9097  159.6482 H   0  0  0  0  0  0  0  0  0  0  0  0
  152.6684  141.8290  159.6712 H   0  0  0  0  0  0  0  0  0  0  0  0
  149.7604  131.9298  154.7117 H   0  0  0  0  0  0  0  0  0  0  0  0
  148.3128  131.9337  155.6955 H   0  0  0  0  0  0  0  0  0  0  0  0
  148.4205  132.3762  152.6882 H   0  0  0  0  0  0  0  0  0  0  0  0
  148.8283  130.0247  153.6005 H   0  0  0  0  0  0  0  0  0  0  0  0
  147.4612  130.1253  152.5298 H   0  0  0  0  0  0  0  0  0  0  0  0
  147.2072  130.0537  154.2784 H   0  0  0  0  0  0  0  0  0  0  0  0
  146.1339  132.3201  154.5012 H   0  0  0  0  0  0  0  0  0  0  0  0
  1  2  1  0  0  0  0
  1 30  1  0  0  0  0
  1 31  1  0  0  0  0
  1 32  1  0  0  0  0
  2  3  1  0  0  0  0
  2 33  1  0  0  0  0
  2 34  1  0  0  0  0
  3 28  1  0  0  0  0
  3  4  1  0  0  0  0
  3 64  1  0  0  0  0
  4  5  1  0  0  0  0
  4 35  1  0  0  0  0
  4 36  1  0  0  0  0
  5  6  1  0  0  0  0
  5 37  1  0  0  0  0
  5 38  1  0  0  0  0
  6  7  1  0  0  0  0
  6 27  1  0  0  0  0
  6 39  1  0  0  0  0
  7  8  1  0  0  0  0
  7  9  1  0  0  0  0
  8 40  1  0  0  0  0
  8 41  1  0  0  0  0
  8 42  1  0  0  0  0
  9 14  1  0  0  0  0
  9 10  2  0  0  0  0
 10 11  1  0  0  0  0
 11 12  2  0  0  0  0
 11 43  1  0  0  0  0
 12 13  1  0  0  0  0
 13 17  1  0  0  0  0
 13 14  2  0  0  0  0
 14 15  1  0  0  0  0
 15 16  2  0  0  0  0
 16 17  1  0  0  0  0
 16 44  1  0  0  0  0
 17 18  1  0  0  0  0
 18 19  1  0  0  0  0
 18 45  1  0  0  0  0
 18 46  1  0  0  0  0
 19 20  1  0  0  0  0
 19 22  1  0  0  0  0
 19 47  1  0  0  0  0
 20 21  1  0  0  0  0
 20 48  1  0  0  0  0
 20 49  1  0  0  0  0
 21 50  1  0  0  0  0
 22 26  1  0  0  0  0
 22 23  1  0  0  0  0
 22 51  1  0  0  0  0
 23 24  1  0  0  0  0
 23 52  1  0  0  0  0
 23 53  1  0  0  0  0
 24 25  1  0  0  0  0
 24 54  1  0  0  0  0
 24 55  1  0  0  0  0
 25 26  1  0  0  0  0
 26 56  1  0  0  0  0
 26 57  1  0  0  0  0
 27 28  1  0  0  0  0
 27 58  1  0  0  0  0
 27 59  1  0  0  0  0
 28 29  1  0  0  0  0
 28 60  1  0  0  0  0
 29 61  1  0  0  0  0
 29 62  1  0  0  0  0
 29 63  1  0  0  0  0
M  CHG  1   3   1
M  END
> <s_m_source_file>
AV-unprocessed.smi

> <i_m_source_file_index>
249

> <i_lp_mmshare_version>
43012

> <i_f3d_flags>
0

> <s_epik_input>
W0NIM11bQ0gyXU4xW0NIMl1bQ0gyXVtDQEhdKFtDSDJdW0NASF0xW0NIM10pTihbQ0gzXSljKG5bY0hdbjIpYyhjMjMpbltjSF1uM1tDSDJdW0NASF0oW0NIMl1bT0hdKVtDQEBIXTRbQ0gyXVtDSDJdT1tDSDJdNA==

> <s_epik_cmdline>
J2VwaWtfcHl0aG9uJywgJy1waCcsICc3LjAnLCAnLXRuJywgJzgnLCAnLW1hJywgJzIwMCcsICctbWV0YWxfYmluZGluZycsICctaW1hZScsICc8aW5maWxlLm1hZT4nLCAnLW9tYWUnLCAnPG91dGZpbGUubWFlPic=

> <r_lp_tautomer_probability>
1

> <r_epik_Ionization_Penalty>
0.00294688

> <r_epik_Ionization_Penalty_Charging>
0.00169971

> <r_epik_Ionization_Penalty_Neutral>
0.00124717

> <r_epik_State_Penalty>
-0

> <r_epik_Charging_Adjusted_Penalty>
0.00169971

> <i_epik_Tot_Q>
1

> <i_epik_Tot_abs_Q>
1

> <r_epik_Metal_State_Penalty>
-0

> <b_epik_Metal_Only>
0

> <s_lp_Force_Field>
OPLS_2005

> <r_lp_Energy>
53.7377

> <b_lp_Chiralities_Consistent>
1

> <s_lp_Variant>
AV-unprocessed.smi:249-9

> <Gold.Version>
5.8.1

> <Gold.Id.Protein>
6NUR|6NUR_protein|mol2

> <Gold.PLP.Fitness>
42.2810

> <Gold.PLP.PLP>
-40.5968

> <Gold.PLP.part.hbond>
-1.1047

> <Gold.PLP.part.metal>
0.0000

> <Gold.PLP.part.buried>
-5.0919

> <Gold.PLP.part.nonpolar>
-34.7917

> <Gold.PLP.part.repulsive>
0.1993

> <Gold.PLP.ligand.clash>
0.0000

> <Gold.PLP.ligand.torsion>
1.1032

> <Gold.PLP.Chemscore.Hbond>
1.0000

> <Gold.PLP.Chemscore.CHOScore>
0.0000

> <Gold.PLP.Chemscore.Metal>
0.0000

> <Gold.Chemscore.Hbonds>
donor molecule, donor type, donor heavy atom, donor atom, acceptor molecule, acceptor atom, score
      P1  H 10752 10764       L1    15  0.84

> <Gold.PLP.Chemscore.Internal.Correction>
0.8906

> <Gold.Rescore>
     Score         DG    S(hbond)    S(metal)    S(lipo)     H(rot)  DE(clash)    DE(int)     intcor
      9.72     -13.93       0.93        0.00     109.11       2.90       0.22       3.99       ----

> <Gold.Chemscore.Fitness>
9.7195

> <Gold.Chemscore.DG>
-13.9293

> <Gold.Chemscore.ZeroCoef>
-5.4800

> <Gold.Chemscore.Hbond>
0.9308

> <Gold.Chemscore.Metal>
0.0000

> <Gold.Chemscore.Lipo>
109.1106

> <Gold.Chemscore.Internal_Hbond>
0.0000

> <Gold.Chemscore.DEClash>
0.2225

> <Gold.Chemscore.DEInternal>
3.9872

> <Gold.Chemscore.Rot>
2.9006

> <Gold.Chemscore.Internal.Correction>
   9.000000E+99

> <Gold.Chemscore.Hbonds>
donor molecule, donor type, donor heavy atom, donor atom, acceptor molecule, acceptor atom, score
      P1  H 10752 10764       L1    15  0.28

> <Gold.Chemscore.Hbond.Weighted>
-3.1090

> <Gold.Chemscore.Metal.Weighted>
-0.0000

> <Gold.Chemscore.Lipo.Weighted>
-12.7659

> <Gold.Chemscore.Internal_Hbond.Weighted>
0.0000

> <Gold.Chemscore.DEClash.Weighted>
0.2225

> <Gold.Chemscore.DEInternal.Weighted>
3.9872

> <Gold.Chemscore.Rot.Weighted>
7.4256

> <Gold.Chemscore.Internal.Correction.Weighted>
   9.000000E+99

> <Gold.Protein.RotatedTorsions>
[ 6907 6896 6895 6894 ] final   59.89 input  -60.11 | X-H torsion
[ 7974 7965 7964 7962 ] final -173.19 input  175.53 | X-H torsion
[ 8008 7997 7996 7995 ] final  -82.24 input   59.86 | X-H torsion
[ 10167 10162 10161 10158 ] final -119.47 input  -65.29 | X-H torsion
[ 10718 10713 10712 10709 ] final  -76.35 input   66.30 | X-H torsion
[ 10763 10752 10751 10750 ] final  -74.15 input  -60.55 | X-H torsion
[ 11005 11000 10999 10996 ] final  108.27 input  -57.11 | X-H torsion

> <Gold.Protein.ActiveResidues>
 VAL166  LYS551  ARG553  GLY616  TRP617  ASP618  TYR619  PRO620  LYS621  CYS622 
 ASP623  PHE694  ASN695  SER759  ASP760  ASP761  ALA762  ILE779  LEU786  VAL792 
 PHE793  MET794  SER795  GLU796  ALA797  LYS798  CYS799  TRP800  GLU811  SER814 

> <Gold.Protein.RotatedAtoms>
  152.3954  134.6373  160.0090 H   0  0  0  0  0  0  0  0  0  0  0  0  # atno 6907 bound_to 6896
  151.6594  133.3312  159.3178 H   0  0  0  0  0  0  0  0  0  0  0  0  # atno 6908 bound_to 6896
  150.7863  134.6894  159.6533 H   0  0  0  0  0  0  0  0  0  0  0  0  # atno 6909 bound_to 6896
  144.7140  140.1659  143.6372 H   0  0  0  0  0  0  0  0  0  0  0  0  # atno 7974 bound_to 7965
  154.6066  140.0636  156.9439 H   0  0  0  0  0  0  0  0  0  0  0  0  # atno 8008 bound_to 7997
  155.2043  140.3317  155.4320 H   0  0  0  0  0  0  0  0  0  0  0  0  # atno 8009 bound_to 7997
  156.2351  140.1859  156.7124 H   0  0  0  0  0  0  0  0  0  0  0  0  # atno 8010 bound_to 7997
  140.0463  143.5104  152.2105 H   0  0  0  0  0  0  0  0  0  0  0  0  # atno 10167 bound_to 10162
  156.0178  130.4463  150.3181 H   0  0  0  0  0  0  0  0  0  0  0  0  # atno 10718 bound_to 10713
  154.4692  135.5874  153.6310 H   0  0  0  0  0  0  0  0  0  0  0  0  # atno 10763 bound_to 10752
  152.9832  135.6063  154.3388 H   0  0  0  0  0  0  0  0  0  0  0  0  # atno 10764 bound_to 10752
  154.3268  135.2843  155.2471 H   0  0  0  0  0  0  0  0  0  0  0  0  # atno 10765 bound_to 10752
  139.8841  134.9425  156.5947 H   0  0  0  0  0  0  0  0  0  0  0  0  # atno 11005 bound_to 11000
  145.8988  139.2418  143.1506 LP  0  0  0  0  0  0  0  0  0  0  0  0  # atno 17320 bound_to 7965
  145.9831  140.8666  143.0104 LP  0  0  0  0  0  0  0  0  0  0  0  0  # atno 17321 bound_to 7965
  139.5981  144.7574  151.3237 LP  0  0  0  0  0  0  0  0  0  0  0  0  # atno 17342 bound_to 10162
  140.7237  143.7064  150.7804 LP  0  0  0  0  0  0  0  0  0  0  0  0  # atno 17343 bound_to 10162
  157.1282  131.0264  151.2981 LP  0  0  0  0  0  0  0  0  0  0  0  0  # atno 17370 bound_to 10713
  157.4573  130.7632  149.7204 LP  0  0  0  0  0  0  0  0  0  0  0  0  # atno 17371 bound_to 10713
  140.7929  133.8568  155.8661 LP  0  0  0  0  0  0  0  0  0  0  0  0  # atno 17394 bound_to 11000
  140.9661  134.1592  157.4614 LP  0  0  0  0  0  0  0  0  0  0  0  0  # atno 17395 bound_to 11000

$$$$
