AV-unprocessed.smi:994|AV-procd|sdf|4340|dock6
  -GOLD-   22720 2243D 1   1.00000     0.00000
 Structure written by MMmdl.
 38 39  0  0  0  0  0  0  0  0  3 V2000
  151.4735  139.5573  158.1823 O   0  0  0  0  0  0  0  0  0  0  0  0
  151.0559  140.6362  157.7607 C   0  0  0  0  0  0  0  0  0  0  0  0
  150.5074  140.7906  156.5457 N   0  0  0  0  0  0  0  0  0  0  0  0
  150.3735  139.7431  155.5327 C   0  0  1  0  0  0  0  0  0  0  0  0
  149.9845  140.3900  154.1858 C   0  0  0  0  0  0  0  0  0  0  0  0
  148.5372  140.8097  154.0681 C   0  0  0  0  0  0  0  0  0  0  0  0
  147.4225  140.1411  153.5920 C   0  0  0  0  0  0  0  0  0  0  0  0
  146.3407  140.9979  153.7095 N   0  0  0  0  0  0  0  0  0  0  0  0
  146.8045  142.1322  154.2296 C   0  0  0  0  0  0  0  0  0  0  0  0
  148.1146  142.0706  154.4605 N   0  3  0  0  0  0  0  0  0  0  0  0
  151.7238  139.0345  155.3592 C   0  0  0  0  0  0  0  0  0  0  0  0
  152.6954  139.7439  155.0201 O   0  0  0  0  0  0  0  0  0  0  0  0
  151.7664  137.8027  155.5772 O   0  5  0  0  0  0  0  0  0  0  0  0
  151.1294  141.8914  158.6399 C   0  0  0  0  0  0  0  0  0  0  0  0
  151.1115  143.1735  157.7798 C   0  0  0  0  0  0  0  0  0  0  0  0
  151.2093  144.4359  158.6525 C   0  0  0  0  0  0  0  0  0  0  0  0
  152.4566  144.3979  159.5498 C   0  0  0  0  0  0  0  0  0  0  0  0
  152.4848  143.1229  160.4077 C   0  0  0  0  0  0  0  0  0  0  0  0
  152.3873  141.8613  159.5343 C   0  0  0  0  0  0  0  0  0  0  0  0
  145.3853  140.8003  153.4472 H   0  0  0  0  0  0  0  0  0  0  0  0
  150.2109  141.7172  156.2761 H   0  0  0  0  0  0  0  0  0  0  0  0
  149.6162  139.0100  155.8179 H   0  0  0  0  0  0  0  0  0  0  0  0
  150.6062  141.2661  153.9928 H   0  0  0  0  0  0  0  0  0  0  0  0
  150.1807  139.6899  153.3722 H   0  0  0  0  0  0  0  0  0  0  0  0
  147.3011  139.1468  153.1872 H   0  0  0  0  0  0  0  0  0  0  0  0
  146.1929  142.9978  154.4389 H   0  0  0  0  0  0  0  0  0  0  0  0
  150.2515  141.9079  159.2887 H   0  0  0  0  0  0  0  0  0  0  0  0
  151.9407  143.1642  157.0704 H   0  0  0  0  0  0  0  0  0  0  0  0
  150.1983  143.2133  157.1843 H   0  0  0  0  0  0  0  0  0  0  0  0
  151.2344  145.3234  158.0198 H   0  0  0  0  0  0  0  0  0  0  0  0
  150.3157  144.5226  159.2716 H   0  0  0  0  0  0  0  0  0  0  0  0
  153.3534  144.4411  158.9303 H   0  0  0  0  0  0  0  0  0  0  0  0
  152.4810  145.2790  160.1916 H   0  0  0  0  0  0  0  0  0  0  0  0
  153.3992  143.0945  161.0011 H   0  0  0  0  0  0  0  0  0  0  0  0
  151.6559  143.1414  161.1167 H   0  0  0  0  0  0  0  0  0  0  0  0
  152.3721  140.9773  160.1731 H   0  0  0  0  0  0  0  0  0  0  0  0
  153.2852  141.7815  158.9192 H   0  0  0  0  0  0  0  0  0  0  0  0
  148.6927  142.8024  154.8492 H   0  0  0  0  0  0  0  0  0  0  0  0
  1  2  2  0  0  0  0
  2  3  1  0  0  0  0
  2 14  1  0  0  0  0
  3  4  1  0  0  0  0
  3 21  1  0  0  0  0
  4  5  1  0  0  0  0
  4 11  1  0  0  0  0
  4 22  1  0  0  0  0
  5  6  1  0  0  0  0
  5 23  1  0  0  0  0
  5 24  1  0  0  0  0
  6 10  1  0  0  0  0
  6  7  2  0  0  0  0
  7  8  1  0  0  0  0
  7 25  1  0  0  0  0
  8 20  1  0  0  0  0
  8  9  1  0  0  0  0
  9 10  2  0  0  0  0
  9 26  1  0  0  0  0
 10 38  1  0  0  0  0
 11 12  2  0  0  0  0
 11 13  1  0  0  0  0
 14 19  1  0  0  0  0
 14 15  1  0  0  0  0
 14 27  1  0  0  0  0
 15 16  1  0  0  0  0
 15 28  1  0  0  0  0
 15 29  1  0  0  0  0
 16 17  1  0  0  0  0
 16 30  1  0  0  0  0
 16 31  1  0  0  0  0
 17 18  1  0  0  0  0
 17 32  1  0  0  0  0
 17 33  1  0  0  0  0
 18 19  1  0  0  0  0
 18 34  1  0  0  0  0
 18 35  1  0  0  0  0
 19 36  1  0  0  0  0
 19 37  1  0  0  0  0
M  CHG  1  10   1
M  CHG  1  13  -1
M  END
> <s_m_source_file>
AV-unprocessed.smi

> <i_m_source_file_index>
994

> <i_lp_mmshare_version>
43012

> <i_f3d_flags>
0

> <s_epik_input>
W0NIMl0xW0NIMl1bQ0gyXVtDSDJdW0NIMl1bQ0hdMUMoPU8pW05IXVtDQEBIXShDKD1PKVtPSF0pW0NIMl1jMltjSF1bbkhdW2NIXW4y

> <s_epik_cmdline>
J2VwaWtfcHl0aG9uJywgJy1waCcsICc3LjAnLCAnLXRuJywgJzgnLCAnLW1hJywgJzIwMCcsICctbWV0YWxfYmluZGluZycsICctaW1hZScsICc8aW5maWxlLm1hZT4nLCAnLW9tYWUnLCAnPG91dGZpbGUubWFlPic=

> <r_lp_tautomer_probability>
1

> <r_epik_Ionization_Penalty>
0.469853

> <r_epik_Ionization_Penalty_Charging>
5.5863e-05

> <r_epik_Ionization_Penalty_Neutral>
0.469797

> <r_epik_State_Penalty>
0.377582

> <r_epik_Charging_Adjusted_Penalty>
0.377638

> <i_epik_Tot_Q>
0

> <i_epik_Tot_abs_Q>
2

> <r_epik_Metal_State_Penalty>
0.796804

> <b_epik_Metal_Only>
0

> <s_lp_Force_Field>
OPLS_2005

> <r_lp_Energy>
8.41083

> <b_lp_Chiralities_Consistent>
1

> <s_lp_Variant>
AV-unprocessed.smi:994-2

> <Gold.Version>
5.8.1

> <Gold.Id.Protein>
6NUR|6NUR_protein|mol2

> <Gold.PLP.Fitness>
55.7472

> <Gold.PLP.PLP>
-39.0185

> <Gold.PLP.part.hbond>
-3.9863

> <Gold.PLP.part.metal>
0.0000

> <Gold.PLP.part.buried>
-2.3638

> <Gold.PLP.part.nonpolar>
-34.1935

> <Gold.PLP.part.repulsive>
0.3000

> <Gold.PLP.ligand.clash>
0.0000

> <Gold.PLP.ligand.torsion>
1.3186

> <Gold.PLP.Chemscore.Hbond>
6.4376

> <Gold.PLP.Chemscore.CHOScore>
0.0000

> <Gold.PLP.Chemscore.Metal>
0.0000

> <Gold.Chemscore.Hbonds>
donor molecule, donor type, donor heavy atom, donor atom, acceptor molecule, acceptor atom, score
      L1  H     8    20       P1 10175  2.00
      L1  H    10    38       P1  8028  1.74
      P1  H  7989  7998       L1    12  0.34
      P1  H  7997  8008       L1    12  2.00

> <Gold.PLP.Chemscore.Internal.Correction>
0.0530

> <Gold.Rescore>
     Score         DG    S(hbond)    S(metal)    S(lipo)     H(rot)  DE(clash)    DE(int)     intcor
     15.43     -18.73       2.87        0.00      90.99       2.72       1.00       2.30       ----

> <Gold.Chemscore.Fitness>
15.4350

> <Gold.Chemscore.DG>
-18.7326

> <Gold.Chemscore.ZeroCoef>
-5.4800

> <Gold.Chemscore.Hbond>
2.8658

> <Gold.Chemscore.Metal>
0.0000

> <Gold.Chemscore.Lipo>
90.9919

> <Gold.Chemscore.Internal_Hbond>
0.0000

> <Gold.Chemscore.DEClash>
1.0014

> <Gold.Chemscore.DEInternal>
2.2963

> <Gold.Chemscore.Rot>
2.7208

> <Gold.Chemscore.Internal.Correction>
   9.000000E+99

> <Gold.Chemscore.Hbonds>
donor molecule, donor type, donor heavy atom, donor atom, acceptor molecule, acceptor atom, score
      L1  H     8    20       P1 10175  0.80
      L1  H    10    38       P1  8028  0.81
      P1  H  7989  7998       L1    12  0.06
      P1  H  7997  8008       L1    12  0.95

> <Gold.Chemscore.Hbond.Weighted>
-9.5717

> <Gold.Chemscore.Metal.Weighted>
-0.0000

> <Gold.Chemscore.Lipo.Weighted>
-10.6461

> <Gold.Chemscore.Internal_Hbond.Weighted>
0.0000

> <Gold.Chemscore.DEClash.Weighted>
1.0014

> <Gold.Chemscore.DEInternal.Weighted>
2.2963

> <Gold.Chemscore.Rot.Weighted>
6.9652

> <Gold.Chemscore.Internal.Correction.Weighted>
   9.000000E+99

> <Gold.Protein.RotatedTorsions>
[ 6907 6896 6895 6894 ] final  141.04 input  -60.11 | X-H torsion
[ 7974 7965 7964 7962 ] final    0.07 input  175.53 | X-H torsion
[ 8008 7997 7996 7995 ] final  -17.32 input   59.86 | X-H torsion
[ 10167 10162 10161 10158 ] final   63.69 input  -65.29 | X-H torsion
[ 10718 10713 10712 10709 ] final   97.55 input   66.30 | X-H torsion
[ 10763 10752 10751 10750 ] final  -67.28 input  -60.55 | X-H torsion
[ 11005 11000 10999 10996 ] final   45.30 input  -57.11 | X-H torsion

> <Gold.Protein.ActiveResidues>
 VAL166  LYS551  ARG553  GLY616  TRP617  ASP618  TYR619  PRO620  LYS621  CYS622 
 ASP623  PHE694  ASN695  SER759  ASP760  ASP761  ALA762  ILE779  LEU786  VAL792 
 PHE793  MET794  SER795  GLU796  ALA797  LYS798  CYS799  TRP800  GLU811  SER814 

> <Gold.Protein.RotatedAtoms>
  152.2358  133.5095  159.5241 H   0  0  0  0  0  0  0  0  0  0  0  0  # atno 6907 bound_to 6896
  150.7050  134.1155  159.4024 H   0  0  0  0  0  0  0  0  0  0  0  0  # atno 6908 bound_to 6896
  151.9076  135.0352  160.0562 H   0  0  0  0  0  0  0  0  0  0  0  0  # atno 6909 bound_to 6896
  146.2431  140.1193  142.8341 H   0  0  0  0  0  0  0  0  0  0  0  0  # atno 7974 bound_to 7965
  154.4987  140.2146  155.9393 H   0  0  0  0  0  0  0  0  0  0  0  0  # atno 8008 bound_to 7997
  156.1405  140.3180  155.8455 H   0  0  0  0  0  0  0  0  0  0  0  0  # atno 8009 bound_to 7997
  155.4130  140.0492  157.3021 H   0  0  0  0  0  0  0  0  0  0  0  0  # atno 8010 bound_to 7997
  140.1303  144.4649  150.6869 H   0  0  0  0  0  0  0  0  0  0  0  0  # atno 10167 bound_to 10162
  157.6910  131.0613  150.4661 H   0  0  0  0  0  0  0  0  0  0  0  0  # atno 10718 bound_to 10713
  154.3722  135.6093  153.5746 H   0  0  0  0  0  0  0  0  0  0  0  0  # atno 10763 bound_to 10752
  152.9790  135.5840  154.4509 H   0  0  0  0  0  0  0  0  0  0  0  0  # atno 10764 bound_to 10752
  154.4264  135.2847  155.1919 H   0  0  0  0  0  0  0  0  0  0  0  0  # atno 10765 bound_to 10752
  140.1472  134.4508  155.8407 H   0  0  0  0  0  0  0  0  0  0  0  0  # atno 11005 bound_to 11000
  145.0420  140.8953  143.5047 LP  0  0  0  0  0  0  0  0  0  0  0  0  # atno 17320 bound_to 7965
  145.1275  139.2653  143.5556 LP  0  0  0  0  0  0  0  0  0  0  0  0  # atno 17321 bound_to 7965
  140.6821  143.2332  151.5357 LP  0  0  0  0  0  0  0  0  0  0  0  0  # atno 17342 bound_to 10162
  139.5523  144.2364  152.1552 LP  0  0  0  0  0  0  0  0  0  0  0  0  # atno 17343 bound_to 10162
  156.5002  130.4115  149.6357 LP  0  0  0  0  0  0  0  0  0  0  0  0  # atno 17370 bound_to 10713
  156.3335  130.7344  151.2278 LP  0  0  0  0  0  0  0  0  0  0  0  0  # atno 17371 bound_to 10713
  141.2194  133.6857  156.7355 LP  0  0  0  0  0  0  0  0  0  0  0  0  # atno 17394 bound_to 11000
  140.2649  134.8437  157.3793 LP  0  0  0  0  0  0  0  0  0  0  0  0  # atno 17395 bound_to 11000

$$$$
