AV-unprocessed.smi:963|AV-procd|sdf|4276|dock4
  -GOLD-   22720 2183D 1   1.00000     0.00000
 Structure written by MMmdl.
 36 37  0  0  0  0  0  0  0  0  1 V2000
  151.4857  145.8553  160.9708 C   0  0  0  0  0  0  0  0  0  0  0  0
  152.1974  145.5217  159.6551 C   0  0  0  0  0  0  0  0  0  0  0  0
  152.1105  144.0629  159.3146 C   0  0  0  0  0  0  0  0  0  0  0  0
  151.5111  143.6745  158.1123 N   0  0  0  0  0  0  0  0  0  0  0  0
  151.4950  142.3503  157.9480 C   0  0  0  0  0  0  0  0  0  0  0  0
  150.9522  141.6771  156.7323 C   0  0  0  0  0  0  0  0  0  0  0  0
  149.7056  140.8366  157.0387 C   0  0  0  0  0  0  0  0  0  0  0  0
  148.4927  141.5984  156.7642 N   0  0  0  0  0  0  0  0  0  0  0  0
  148.1900  142.1953  155.6006 C   0  0  0  0  0  0  0  0  0  0  0  0
  148.9259  142.1956  154.6142 O   0  0  0  0  0  0  0  0  0  0  0  0
  147.0299  142.8699  155.6465 N   0  0  0  0  0  0  0  0  0  0  0  0
  145.9346  142.8174  156.6105 C   0  0  0  0  0  0  0  0  0  0  0  0
  145.1472  143.6718  155.6197 C   0  0  0  0  0  0  0  0  0  0  0  0
  146.1749  143.3081  154.5503 C   0  0  0  0  0  0  0  0  0  0  0  0
  152.2474  141.4803  159.2770 S   0  0  0  0  0  0  0  0  0  0  0  0
  152.5570  143.0034  160.0703 C   0  0  0  0  0  0  0  0  0  0  0  0
  153.2321  143.0470  161.4010 C   0  0  0  0  0  0  0  0  0  0  0  0
  151.5619  146.9194  161.1943 H   0  0  0  0  0  0  0  0  0  0  0  0
  151.9254  145.3071  161.8045 H   0  0  0  0  0  0  0  0  0  0  0  0
  150.4267  145.6000  160.9221 H   0  0  0  0  0  0  0  0  0  0  0  0
  151.7621  146.1177  158.8522 H   0  0  0  0  0  0  0  0  0  0  0  0
  153.2398  145.8338  159.7215 H   0  0  0  0  0  0  0  0  0  0  0  0
  150.7174  142.4401  155.9893 H   0  0  0  0  0  0  0  0  0  0  0  0
  151.7339  141.0503  156.3009 H   0  0  0  0  0  0  0  0  0  0  0  0
  149.6948  139.9416  156.4159 H   0  0  0  0  0  0  0  0  0  0  0  0
  149.7394  140.4967  158.0752 H   0  0  0  0  0  0  0  0  0  0  0  0
  147.8314  141.6863  157.5218 H   0  0  0  0  0  0  0  0  0  0  0  0
  145.5208  141.8176  156.7525 H   0  0  0  0  0  0  0  0  0  0  0  0
  146.1339  143.3167  157.5592 H   0  0  0  0  0  0  0  0  0  0  0  0
  144.1375  143.3137  155.4163 H   0  0  0  0  0  0  0  0  0  0  0  0
  145.1574  144.7331  155.8735 H   0  0  0  0  0  0  0  0  0  0  0  0
  146.5520  144.1656  153.9919 H   0  0  0  0  0  0  0  0  0  0  0  0
  145.8552  142.4995  153.8912 H   0  0  0  0  0  0  0  0  0  0  0  0
  152.6960  143.7034  162.0868 H   0  0  0  0  0  0  0  0  0  0  0  0
  154.2524  143.4185  161.3039 H   0  0  0  0  0  0  0  0  0  0  0  0
  153.2766  142.0561  161.8533 H   0  0  0  0  0  0  0  0  0  0  0  0
  1  2  1  0  0  0  0
  1 18  1  0  0  0  0
  1 19  1  0  0  0  0
  1 20  1  0  0  0  0
  2  3  1  0  0  0  0
  2 21  1  0  0  0  0
  2 22  1  0  0  0  0
  3 16  2  0  0  0  0
  3  4  1  0  0  0  0
  4  5  2  0  0  0  0
  5  6  1  0  0  0  0
  5 15  1  0  0  0  0
  6  7  1  0  0  0  0
  6 23  1  0  0  0  0
  6 24  1  0  0  0  0
  7  8  1  0  0  0  0
  7 25  1  0  0  0  0
  7 26  1  0  0  0  0
  8  9  1  0  0  0  0
  8 27  1  0  0  0  0
  9 10  2  0  0  0  0
  9 11  1  0  0  0  0
 11 14  1  0  0  0  0
 11 12  1  0  0  0  0
 12 13  1  0  0  0  0
 12 28  1  0  0  0  0
 12 29  1  0  0  0  0
 13 14  1  0  0  0  0
 13 30  1  0  0  0  0
 13 31  1  0  0  0  0
 14 32  1  0  0  0  0
 14 33  1  0  0  0  0
 15 16  1  0  0  0  0
 16 17  1  0  0  0  0
 17 34  1  0  0  0  0
 17 35  1  0  0  0  0
 17 36  1  0  0  0  0
M  END
> <s_m_source_file>
AV-unprocessed.smi

> <i_m_source_file_index>
963

> <i_lp_mmshare_version>
43012

> <i_f3d_flags>
0

> <s_epik_input>
W0NIM11bQ0gyXWMxbmMoc2MxW0NIM10pW0NIMl1bQ0gyXVtOSF1DKD1PKU4yW0NIMl1bQ0gyXVtDSDJdMg==

> <s_epik_cmdline>
J2VwaWtfcHl0aG9uJywgJy1waCcsICc3LjAnLCAnLXRuJywgJzgnLCAnLW1hJywgJzIwMCcsICctbWV0YWxfYmluZGluZycsICctaW1hZScsICc8aW5maWxlLm1hZT4nLCAnLW9tYWUnLCAnPG91dGZpbGUubWFlPic=

> <r_epik_Ionization_Penalty>
0.00446738

> <r_epik_Ionization_Penalty_Charging>
0

> <r_epik_Ionization_Penalty_Neutral>
0.00446738

> <r_epik_State_Penalty>
0.00317617

> <r_epik_Charging_Adjusted_Penalty>
0.00317617

> <i_epik_Tot_Q>
0

> <i_epik_Tot_abs_Q>
0

> <r_epik_Metal_State_Penalty>
-0

> <b_epik_Metal_Only>
0

> <s_lp_Force_Field>
OPLS_2005

> <r_lp_Energy>
11.733

> <b_lp_Chiralities_Consistent>
1

> <s_lp_Variant>
AV-unprocessed.smi:963-1

> <Gold.Version>
5.8.1

> <Gold.Id.Protein>
6NUR|6NUR_protein|mol2

> <Gold.PLP.Fitness>
43.7418

> <Gold.PLP.PLP>
-41.4068

> <Gold.PLP.part.hbond>
-2.0000

> <Gold.PLP.part.metal>
0.0000

> <Gold.PLP.part.buried>
-4.1170

> <Gold.PLP.part.nonpolar>
-34.9666

> <Gold.PLP.part.repulsive>
0.9023

> <Gold.PLP.ligand.clash>
0.0000

> <Gold.PLP.ligand.torsion>
0.4536

> <Gold.PLP.Chemscore.Hbond>
0.9844

> <Gold.PLP.Chemscore.CHOScore>
0.0000

> <Gold.PLP.Chemscore.Metal>
0.0000

> <Gold.PLP.Chemscore.Internal.Correction>
0.2890

> <Gold.Rescore>
     Score         DG    S(hbond)    S(metal)    S(lipo)     H(rot)  DE(clash)    DE(int)     intcor
     13.77     -16.16       0.88        0.00      98.43       1.48       0.39       2.00       ----

> <Gold.Chemscore.Fitness>
13.7684

> <Gold.Chemscore.DG>
-16.1582

> <Gold.Chemscore.ZeroCoef>
-5.4800

> <Gold.Chemscore.Hbond>
0.8803

> <Gold.Chemscore.Metal>
0.0000

> <Gold.Chemscore.Lipo>
98.4263

> <Gold.Chemscore.Internal_Hbond>
0.0000

> <Gold.Chemscore.DEClash>
0.3900

> <Gold.Chemscore.DEInternal>
1.9998

> <Gold.Chemscore.Rot>
1.4758

> <Gold.Chemscore.Internal.Correction>
   9.000000E+99

> <Gold.Chemscore.Hbonds>
donor molecule, donor type, donor heavy atom, donor atom, acceptor molecule, acceptor atom, score
      P1  H  8011  8017       L1    10  0.02

> <Gold.Chemscore.Hbond.Weighted>
-2.9403

> <Gold.Chemscore.Metal.Weighted>
-0.0000

> <Gold.Chemscore.Lipo.Weighted>
-11.5159

> <Gold.Chemscore.Internal_Hbond.Weighted>
0.0000

> <Gold.Chemscore.DEClash.Weighted>
0.3900

> <Gold.Chemscore.DEInternal.Weighted>
1.9998

> <Gold.Chemscore.Rot.Weighted>
3.7780

> <Gold.Chemscore.Internal.Correction.Weighted>
   9.000000E+99

> <Gold.Protein.RotatedTorsions>
[ 6907 6896 6895 6894 ] final  173.98 input  -60.11 | X-H torsion
[ 7974 7965 7964 7962 ] final   89.16 input  175.53 | X-H torsion
[ 8008 7997 7996 7995 ] final  -80.24 input   59.86 | X-H torsion
[ 10167 10162 10161 10158 ] final   -8.26 input  -65.29 | X-H torsion
[ 10718 10713 10712 10709 ] final -177.39 input   66.30 | X-H torsion
[ 10763 10752 10751 10750 ] final  -33.38 input  -60.55 | X-H torsion
[ 11005 11000 10999 10996 ] final  175.48 input  -57.11 | X-H torsion

> <Gold.Protein.ActiveResidues>
 VAL166  LYS551  ARG553  GLY616  TRP617  ASP618  TYR619  PRO620  LYS621  CYS622 
 ASP623  PHE694  ASN695  SER759  ASP760  ASP761  ALA762  ILE779  LEU786  VAL792 
 PHE793  MET794  SER795  GLU796  ALA797  LYS798  CYS799  TRP800  GLU811  SER814 

> <Gold.Protein.RotatedAtoms>
  151.7596  133.3333  159.3413 H   0  0  0  0  0  0  0  0  0  0  0  0  # atno 6907 bound_to 6896
  150.7503  134.6118  159.6099 H   0  0  0  0  0  0  0  0  0  0  0  0  # atno 6908 bound_to 6896
  152.3414  134.7131  160.0314 H   0  0  0  0  0  0  0  0  0  0  0  0  # atno 6909 bound_to 6896
  145.5360  139.2286  143.2592 H   0  0  0  0  0  0  0  0  0  0  0  0  # atno 7974 bound_to 7965
  154.5864  140.0666  156.9177 H   0  0  0  0  0  0  0  0  0  0  0  0  # atno 8008 bound_to 7997
  155.2372  140.3342  155.4278 H   0  0  0  0  0  0  0  0  0  0  0  0  # atno 8009 bound_to 7997
  156.2225  140.1805  156.7426 H   0  0  0  0  0  0  0  0  0  0  0  0  # atno 8010 bound_to 7997
  140.7053  143.5989  150.8818 H   0  0  0  0  0  0  0  0  0  0  0  0  # atno 10167 bound_to 10162
  156.8288  130.9646  151.3107 H   0  0  0  0  0  0  0  0  0  0  0  0  # atno 10718 bound_to 10713
  153.8292  135.6867  153.4817 H   0  0  0  0  0  0  0  0  0  0  0  0  # atno 10763 bound_to 10752
  153.1521  135.4614  154.9650 H   0  0  0  0  0  0  0  0  0  0  0  0  # atno 10764 bound_to 10752
  154.7894  135.3296  154.7757 H   0  0  0  0  0  0  0  0  0  0  0  0  # atno 10765 bound_to 10752
  140.3626  134.7099  157.4341 H   0  0  0  0  0  0  0  0  0  0  0  0  # atno 11005 bound_to 11000
  146.2012  140.6178  142.9101 LP  0  0  0  0  0  0  0  0  0  0  0  0  # atno 17320 bound_to 7965
  144.7601  140.5402  143.6741 LP  0  0  0  0  0  0  0  0  0  0  0  0  # atno 17321 bound_to 7965
  139.9714  143.6053  152.2972 LP  0  0  0  0  0  0  0  0  0  0  0  0  # atno 17342 bound_to 10162
  139.6641  144.7662  151.1907 LP  0  0  0  0  0  0  0  0  0  0  0  0  # atno 17343 bound_to 10162
  157.6418  130.8812  149.9462 LP  0  0  0  0  0  0  0  0  0  0  0  0  # atno 17370 bound_to 10713
  156.0946  130.3660  150.0330 LP  0  0  0  0  0  0  0  0  0  0  0  0  # atno 17371 bound_to 10713
  140.0614  134.5990  155.8744 LP  0  0  0  0  0  0  0  0  0  0  0  0  # atno 17394 bound_to 11000
  141.1979  133.6599  156.5766 LP  0  0  0  0  0  0  0  0  0  0  0  0  # atno 17395 bound_to 11000

$$$$
