AV-unprocessed.smi:1945|AV-procd|sdf|7859|dock8
  -GOLD-   2272010 03D 1   1.00000     0.00000
 Structure written by MMmdl.
 47 48  0  0  0  0  0  0  0  0  1 V2000
  143.4368  132.3708  149.6386 C   0  0  0  0  0  0  0  0  0  0  0  0
  144.5235  133.0657  150.4044 C   0  0  0  0  0  0  0  0  0  0  0  0
  144.6762  134.4626  150.6397 C   0  0  0  0  0  0  0  0  0  0  0  0
  145.8253  134.5198  151.3804 C   0  0  0  0  0  0  0  0  0  0  0  0
  146.4535  135.6116  151.8914 N   0  0  0  0  0  0  0  0  0  0  0  0
  145.9052  136.7358  152.3830 C   0  0  0  0  0  0  0  0  0  0  0  0
  144.7023  136.9197  152.5702 O   0  0  0  0  0  0  0  0  0  0  0  0
  146.8419  137.6647  152.6238 N   0  0  0  0  0  0  0  0  0  0  0  0
  146.5675  139.0514  152.9869 C   0  0  0  0  0  0  0  0  0  0  0  0
  146.6958  139.2547  154.5041 C   0  0  0  0  0  0  0  0  0  0  0  0
  148.0510  139.0640  154.8809 O   0  0  0  0  0  0  0  0  0  0  0  0
  149.0046  139.7331  154.0655 C   0  0  2  0  0  0  0  0  0  0  0  0
  150.3387  138.9759  154.2007 C   0  0  0  0  0  0  0  0  0  0  0  0
  150.9108  139.0705  155.6258 C   0  0  0  0  0  0  0  0  0  0  0  0
  151.0585  140.5328  156.0726 C   0  0  0  0  0  0  0  0  0  0  0  0
  149.7275  141.2912  155.9509 C   0  0  0  0  0  0  0  0  0  0  0  0
  149.1576  141.2059  154.5204 C   0  0  2  0  0  0  0  0  0  0  0  0
  147.8603  142.0165  154.3781 C   0  0  0  0  0  0  0  0  0  0  0  0
  146.3003  133.2388  151.5643 N   0  0  0  0  0  0  0  0  0  0  0  0
  147.4753  132.7674  152.2722 C   0  0  0  0  0  0  0  0  0  0  0  0
  145.4916  132.3440  150.9572 N   0  0  0  0  0  0  0  0  0  0  0  0
  142.7303  133.0873  149.2192 H   0  0  0  0  0  0  0  0  0  0  0  0
  142.8770  131.6910  150.2814 H   0  0  0  0  0  0  0  0  0  0  0  0
  143.8480  131.7892  148.8134 H   0  0  0  0  0  0  0  0  0  0  0  0
  144.0381  135.2695  150.3120 H   0  0  0  0  0  0  0  0  0  0  0  0
  147.4583  135.6115  151.7994 H   0  0  0  0  0  0  0  0  0  0  0  0
  147.8075  137.4222  152.4573 H   0  0  0  0  0  0  0  0  0  0  0  0
  147.2228  139.7372  152.4476 H   0  0  0  0  0  0  0  0  0  0  0  0
  145.5498  139.2838  152.6731 H   0  0  0  0  0  0  0  0  0  0  0  0
  146.3862  140.2636  154.7795 H   0  0  0  0  0  0  0  0  0  0  0  0
  146.0387  138.5592  155.0279 H   0  0  0  0  0  0  0  0  0  0  0  0
  148.7047  139.7031  153.0161 H   0  0  0  0  0  0  0  0  0  0  0  0
  150.2028  137.9302  153.9235 H   0  0  0  0  0  0  0  0  0  0  0  0
  151.0609  139.3880  153.4951 H   0  0  0  0  0  0  0  0  0  0  0  0
  150.2568  138.5416  156.3205 H   0  0  0  0  0  0  0  0  0  0  0  0
  151.8776  138.5690  155.6713 H   0  0  0  0  0  0  0  0  0  0  0  0
  151.4157  140.5723  157.1021 H   0  0  0  0  0  0  0  0  0  0  0  0
  151.8169  141.0260  155.4632 H   0  0  0  0  0  0  0  0  0  0  0  0
  149.0093  140.8848  156.6637 H   0  0  0  0  0  0  0  0  0  0  0  0
  149.8778  142.3343  156.2314 H   0  0  0  0  0  0  0  0  0  0  0  0
  149.8869  141.6707  153.8552 H   0  0  0  0  0  0  0  0  0  0  0  0
  147.0825  141.6491  155.0467 H   0  0  0  0  0  0  0  0  0  0  0  0
  147.4770  141.9689  153.3586 H   0  0  0  0  0  0  0  0  0  0  0  0
  148.0283  143.0666  154.6178 H   0  0  0  0  0  0  0  0  0  0  0  0
  148.0828  133.6054  152.6139 H   0  0  0  0  0  0  0  0  0  0  0  0
  148.0788  132.1456  151.6101 H   0  0  0  0  0  0  0  0  0  0  0  0
  147.1699  132.1766  153.1360 H   0  0  0  0  0  0  0  0  0  0  0  0
  1  2  1  0  0  0  0
  1 22  1  0  0  0  0
  1 23  1  0  0  0  0
  1 24  1  0  0  0  0
  2 21  2  0  0  0  0
  2  3  1  0  0  0  0
  3  4  2  0  0  0  0
  3 25  1  0  0  0  0
  4  5  1  0  0  0  0
  4 19  1  0  0  0  0
  5  6  1  0  0  0  0
  5 26  1  0  0  0  0
  6  7  2  0  0  0  0
  6  8  1  0  0  0  0
  8  9  1  0  0  0  0
  8 27  1  0  0  0  0
  9 10  1  0  0  0  0
  9 28  1  0  0  0  0
  9 29  1  0  0  0  0
 10 11  1  0  0  0  0
 10 30  1  0  0  0  0
 10 31  1  0  0  0  0
 11 12  1  0  0  0  0
 12 17  1  0  0  0  0
 12 13  1  0  0  0  0
 12 32  1  0  0  0  0
 13 14  1  0  0  0  0
 13 33  1  0  0  0  0
 13 34  1  0  0  0  0
 14 15  1  0  0  0  0
 14 35  1  0  0  0  0
 14 36  1  0  0  0  0
 15 16  1  0  0  0  0
 15 37  1  0  0  0  0
 15 38  1  0  0  0  0
 16 17  1  0  0  0  0
 16 39  1  0  0  0  0
 16 40  1  0  0  0  0
 17 18  1  0  0  0  0
 17 41  1  0  0  0  0
 18 42  1  0  0  0  0
 18 43  1  0  0  0  0
 18 44  1  0  0  0  0
 19 20  1  0  0  0  0
 19 21  1  0  0  0  0
 20 45  1  0  0  0  0
 20 46  1  0  0  0  0
 20 47  1  0  0  0  0
M  END
> <s_m_source_file>
AV-unprocessed.smi

> <i_m_source_file_index>
1945

> <i_lp_mmshare_version>
43012

> <i_f3d_flags>
0

> <s_epik_input>
W0NIM11jMVtjSF1jKG4objEpW0NIM10pW05IXUMoPU8pW05IXVtDSDJdW0NIMl1PW0NAQEhdMltDSDJdW0NIMl1bQ0gyXVtDSDJdW0NASF0yW0NIM10=

> <s_epik_cmdline>
J2VwaWtfcHl0aG9uJywgJy1waCcsICc3LjAnLCAnLXRuJywgJzgnLCAnLW1hJywgJzIwMCcsICctbWV0YWxfYmluZGluZycsICctaW1hZScsICc8aW5maWxlLm1hZT4nLCAnLW9tYWUnLCAnPG91dGZpbGUubWFlPic=

> <r_lp_tautomer_probability>
1

> <r_epik_Ionization_Penalty>
9.47735e-05

> <r_epik_Ionization_Penalty_Charging>
0

> <r_epik_Ionization_Penalty_Neutral>
9.47735e-05

> <r_epik_State_Penalty>
-0

> <r_epik_Charging_Adjusted_Penalty>
0

> <i_epik_Tot_Q>
0

> <i_epik_Tot_abs_Q>
0

> <r_epik_Metal_State_Penalty>
-0

> <b_epik_Metal_Only>
0

> <s_lp_Force_Field>
OPLS_2005

> <r_lp_Energy>
12.3815

> <b_lp_Chiralities_Consistent>
1

> <s_lp_Variant>
AV-unprocessed.smi:1945-3

> <Gold.Version>
5.8.1

> <Gold.Id.Protein>
6NUR|6NUR_protein|mol2

> <Gold.PLP.Fitness>
42.2496

> <Gold.PLP.PLP>
-37.8178

> <Gold.PLP.part.hbond>
-1.9205

> <Gold.PLP.part.metal>
0.0000

> <Gold.PLP.part.buried>
1.6097

> <Gold.PLP.part.nonpolar>
-37.5426

> <Gold.PLP.part.repulsive>
0.7461

> <Gold.PLP.ligand.clash>
0.0020

> <Gold.PLP.ligand.torsion>
0.7048

> <Gold.PLP.Chemscore.Hbond>
1.9440

> <Gold.PLP.Chemscore.CHOScore>
0.0000

> <Gold.PLP.Chemscore.Metal>
0.0000

> <Gold.Chemscore.Hbonds>
donor molecule, donor type, donor heavy atom, donor atom, acceptor molecule, acceptor atom, score
      L1  H     5    26       P1  7948  1.00
      L1  H     8    27       P1  7948  0.96

> <Gold.PLP.Chemscore.Internal.Correction>
0.0115

> <Gold.Rescore>
     Score         DG    S(hbond)    S(metal)    S(lipo)     H(rot)  DE(clash)    DE(int)     intcor
     16.10     -18.39       1.91        0.00      91.47       1.63       1.39       0.89       ----

> <Gold.Chemscore.Fitness>
16.1019

> <Gold.Chemscore.DG>
-18.3887

> <Gold.Chemscore.ZeroCoef>
-5.4800

> <Gold.Chemscore.Hbond>
1.9113

> <Gold.Chemscore.Metal>
0.0000

> <Gold.Chemscore.Lipo>
91.4675

> <Gold.Chemscore.Internal_Hbond>
0.0000

> <Gold.Chemscore.DEClash>
1.3933

> <Gold.Chemscore.DEInternal>
0.8935

> <Gold.Chemscore.Rot>
1.6316

> <Gold.Chemscore.Internal.Correction>
   9.000000E+99

> <Gold.Chemscore.Hbonds>
donor molecule, donor type, donor heavy atom, donor atom, acceptor molecule, acceptor atom, score
      L1  H     5    26       P1  7948  0.97
      L1  H     8    27       P1  7948  0.92

> <Gold.Chemscore.Hbond.Weighted>
-6.3837

> <Gold.Chemscore.Metal.Weighted>
-0.0000

> <Gold.Chemscore.Lipo.Weighted>
-10.7017

> <Gold.Chemscore.Internal_Hbond.Weighted>
0.0000

> <Gold.Chemscore.DEClash.Weighted>
1.3933

> <Gold.Chemscore.DEInternal.Weighted>
0.8935

> <Gold.Chemscore.Rot.Weighted>
4.1768

> <Gold.Chemscore.Internal.Correction.Weighted>
   9.000000E+99

> <Gold.Protein.RotatedTorsions>
[ 6907 6896 6895 6894 ] final -116.20 input  -60.11 | X-H torsion
[ 7974 7965 7964 7962 ] final -158.89 input  175.53 | X-H torsion
[ 8008 7997 7996 7995 ] final  128.53 input   59.86 | X-H torsion
[ 10167 10162 10161 10158 ] final   99.22 input  -65.29 | X-H torsion
[ 10718 10713 10712 10709 ] final  -78.92 input   66.30 | X-H torsion
[ 10763 10752 10751 10750 ] final  131.46 input  -60.55 | X-H torsion
[ 11005 11000 10999 10996 ] final  135.35 input  -57.11 | X-H torsion

> <Gold.Protein.ActiveResidues>
 VAL166  LYS551  ARG553  GLY616  TRP617  ASP618  TYR619  PRO620  LYS621  CYS622 
 ASP623  PHE694  ASN695  SER759  ASP760  ASP761  ALA762  ILE779  LEU786  VAL792 
 PHE793  MET794  SER795  GLU796  ALA797  LYS798  CYS799  TRP800  GLU811  SER814 

> <Gold.Protein.RotatedAtoms>
  150.8037  133.8551  159.3215 H   0  0  0  0  0  0  0  0  0  0  0  0  # atno 6907 bound_to 6896
  151.6356  135.1016  160.0140 H   0  0  0  0  0  0  0  0  0  0  0  0  # atno 6908 bound_to 6896
  152.4126  133.6948  159.6446 H   0  0  0  0  0  0  0  0  0  0  0  0  # atno 6909 bound_to 6896
  144.7487  140.3763  143.6065 H   0  0  0  0  0  0  0  0  0  0  0  0  # atno 7974 bound_to 7965
  156.2917  140.2642  156.2451 H   0  0  0  0  0  0  0  0  0  0  0  0  # atno 8008 bound_to 7997
  154.9938  140.0388  157.2349 H   0  0  0  0  0  0  0  0  0  0  0  0  # atno 8009 bound_to 7997
  154.7662  140.2770  155.6179 H   0  0  0  0  0  0  0  0  0  0  0  0  # atno 8010 bound_to 7997
  139.7637  144.6946  151.0255 H   0  0  0  0  0  0  0  0  0  0  0  0  # atno 10167 bound_to 10162
  156.0105  130.4531  150.3570 H   0  0  0  0  0  0  0  0  0  0  0  0  # atno 10718 bound_to 10713
  153.7747  135.3177  155.3357 H   0  0  0  0  0  0  0  0  0  0  0  0  # atno 10763 bound_to 10752
  154.8183  135.4621  154.0710 H   0  0  0  0  0  0  0  0  0  0  0  0  # atno 10764 bound_to 10752
  153.1980  135.6918  153.8352 H   0  0  0  0  0  0  0  0  0  0  0  0  # atno 10765 bound_to 10752
  139.9974  134.9492  156.9995 H   0  0  0  0  0  0  0  0  0  0  0  0  # atno 11005 bound_to 11000
  145.7025  139.1664  143.2585 LP  0  0  0  0  0  0  0  0  0  0  0  0  # atno 17320 bound_to 7965
  146.1405  140.7063  142.9369 LP  0  0  0  0  0  0  0  0  0  0  0  0  # atno 17321 bound_to 7965
  140.7809  143.4667  151.0202 LP  0  0  0  0  0  0  0  0  0  0  0  0  # atno 17342 bound_to 10162
  139.8353  143.7636  152.3180 LP  0  0  0  0  0  0  0  0  0  0  0  0  # atno 17343 bound_to 10162
  157.1660  131.0357  151.2818 LP  0  0  0  0  0  0  0  0  0  0  0  0  # atno 17370 bound_to 10713
  157.4270  130.7469  149.6959 LP  0  0  0  0  0  0  0  0  0  0  0  0  # atno 17371 bound_to 10713
  140.4793  134.1306  155.7214 LP  0  0  0  0  0  0  0  0  0  0  0  0  # atno 17394 bound_to 11000
  141.1615  133.8784  157.1835 LP  0  0  0  0  0  0  0  0  0  0  0  0  # atno 17395 bound_to 11000

$$$$
