#       Name:                AV-unprocessed.smi:213
#       Creating user name   scv26
#       Creation time:       Thu Mar 26 20:02:28 2020


#       File generated by GOLD software.
#

@<TRIPOS>MOLECULE
AV-unprocessed.smi:213
    68    71     1
SMALL
NO_CHARGES


@<TRIPOS>ATOM
      1 ****        -3.5943   1.0551  -0.6351 C.3            1 S1                 0.0000
      2 ****        -2.7427   1.0873   0.6462 C.3            1 S1                 0.0000
      3 ****        -3.6024   1.2854   1.9148 C.3            1 S1                 0.0000
      4 ****        -4.5560   0.2132   2.2025 N.3            1 S1                 0.0000
      5 ****        -5.4900   0.6116   3.2504 C.3            1 S1                 0.0000
      6 ****        -6.5066  -0.4986   3.5674 C.3            1 S1                 0.0000
      7 ****        -5.8141  -1.6858   3.9381 O.3            1 S1                 0.0000
      8 ****        -4.9206  -2.1380   2.9261 C.3            1 S1                 0.0000
      9 ****        -3.9013  -1.0318   2.6016 C.3            1 S1                 0.0000
     10 ****        -1.6998   2.1131   0.5566 N.pl3          1 S1                 0.0000
     11 ****        -2.0313   3.5357   0.5987 C.3            1 S1                 0.0000
     12 ****        -0.3876   1.7586   0.5298 C.ar           1 S1                 0.0000
     13 ****         0.5044   2.5436   1.1908 N.ar           1 S1                 0.0000
     14 ****         1.8040   2.2350   1.2010 C.ar           1 S1                 0.0000
     15 ****         2.4211   1.2056   0.6198 N.ar           1 S1                 0.0000
     16 ****         1.5379   0.4209  -0.0608 C.ar           1 S1                 0.0000
     17 ****         0.1304   0.6207  -0.1585 C.ar           1 S1                 0.0000
     18 ****        -0.4265  -0.3766  -0.9534 N.2            1 S1                 0.0000
     19 ****         0.5863  -1.1251  -1.2932 C.2            1 S1                 0.0000
     20 ****         1.8041  -0.7169  -0.8023 N.pl3          1 S1                 0.0000
     21 ****         3.0881  -1.3552  -1.0333 C.3            1 S1                 0.0000
     22 ****         3.7218  -0.9316  -2.3731 C.3            1 S1                 0.0000
     23 ****         3.9203   0.4693  -2.4110 O.3            1 S1                 0.0000
     24 ****         5.0374  -1.6788  -2.6757 C.3            1 S1                 0.0000
     25 ****         5.7861  -1.2615  -3.9452 C.3            1 S1                 0.0000
     26 ****         7.1921  -1.7144  -3.6203 C.3            1 S1                 0.0000
     27 ****         7.2872  -1.3873  -2.1321 C.3            1 S1                 0.0000
     28 ****         5.9750  -1.5693  -1.6073 O.3            1 S1                 0.0000
     29 ****        -4.3046   0.2285  -0.6121 H              1 S1                 0.0000
     30 ****        -2.9699   0.9217  -1.5186 H              1 S1                 0.0000
     31 ****        -4.1644   1.9747  -0.7665 H              1 S1                 0.0000
     32 ****        -2.2538   0.1216   0.7446 H              1 S1                 0.0000
     33 ****        -2.9466   1.4207   2.7765 H              1 S1                 0.0000
     34 ****        -4.1493   2.2234   1.8099 H              1 S1                 0.0000
     35 ****        -4.9412   0.8680   4.1581 H              1 S1                 0.0000
     36 ****        -6.0259   1.5114   2.9462 H              1 S1                 0.0000
     37 ****        -7.1575  -0.1942   4.3870 H              1 S1                 0.0000
     38 ****        -7.1461  -0.6954   2.7053 H              1 S1                 0.0000
     39 ****        -4.4086  -3.0343   3.2768 H              1 S1                 0.0000
     40 ****        -5.4824  -2.4186   2.0337 H              1 S1                 0.0000
     41 ****        -3.2453  -1.3906   1.8097 H              1 S1                 0.0000
     42 ****        -3.2709  -0.8555   3.4746 H              1 S1                 0.0000
     43 ****        -1.3859   4.1055  -0.0711 H              1 S1                 0.0000
     44 ****        -1.9084   3.9245   1.6100 H              1 S1                 0.0000
     45 ****        -3.0621   3.7120   0.2930 H              1 S1                 0.0000
     46 ****         2.4405   2.9093   1.7545 H              1 S1                 0.0000
     47 ****         0.4731  -1.9976  -1.9201 H              1 S1                 0.0000
     48 ****         3.7514  -1.1170  -0.2008 H              1 S1                 0.0000
     49 ****         2.9392  -2.4354  -1.0128 H              1 S1                 0.0000
     50 ****         3.0188  -1.1632  -3.1743 H              1 S1                 0.0000
     51 ****         4.2763   0.7000  -3.2552 H              1 S1                 0.0000
     52 ****         4.8116  -2.7432  -2.7606 H              1 S1                 0.0000
     53 ****         5.3849  -1.7238  -4.8474 H              1 S1                 0.0000
     54 ****         5.7776  -0.1799  -4.0838 H              1 S1                 0.0000
     55 ****         7.2860  -2.7901  -3.7766 H              1 S1                 0.0000
     56 ****         7.9551  -1.2133  -4.2166 H              1 S1                 0.0000
     57 ****         8.0151  -2.0109  -1.6127 H              1 S1                 0.0000
     58 ****         7.5731  -0.3443  -1.9908 H              1 S1                 0.0000
     59 ****        -5.0496   0.0475   1.3487 LP             1 S1                 0.0000
     60 ****        -6.4853  -2.4051   4.1173 LP             1 S1                 0.0000
     61 ****        -5.2900  -1.5041   4.7701 LP             1 S1                 0.0000
     62 ****         0.1847   3.3590   1.6734 LP             1 S1                 0.0000
     63 ****         3.4042   1.0317   0.6758 LP             1 S1                 0.0000
     64 ****        -1.3868  -0.4931  -1.2070 LP             1 S1                 0.0000
     65 ****         4.5594   0.7388  -1.6907 LP             1 S1                 0.0000
     66 ****         3.0472   0.9373  -2.2741 LP             1 S1                 0.0000
     67 ****         5.9504  -2.4041  -1.0574 LP             1 S1                 0.0000
     68 ****         5.7351  -0.7856  -1.0344 LP             1 S1                 0.0000
@<TRIPOS>BOND
    1    1    2 1     
    2    1   29 1     
    3    1   30 1     
    4    1   31 1     
    5    2    3 1     
    6    2   10 1     
    7    2   32 1     
    8    3    4 1     
    9    3   33 1     
   10    3   34 1     
   11    4    9 1     
   12    4    5 1     
   13    5    6 1     
   14    5   35 1     
   15    5   36 1     
   16    6    7 1     
   17    6   37 1     
   18    6   38 1     
   19    7    8 1     
   20    8    9 1     
   21    8   39 1     
   22    8   40 1     
   23    9   41 1     
   24    9   42 1     
   25   10   11 1     
   26   10   12 1     
   27   11   43 1     
   28   11   44 1     
   29   11   45 1     
   30   12   17 ar    
   31   12   13 ar    
   32   13   14 ar    
   33   14   15 ar    
   34   14   46 1     
   35   15   16 ar    
   36   16   20 1     
   37   16   17 ar    
   38   17   18 1     
   39   18   19 2     
   40   19   20 1     
   41   19   47 1     
   42   20   21 1     
   43   21   22 1     
   44   21   48 1     
   45   21   49 1     
   46   22   23 1     
   47   22   24 1     
   48   22   50 1     
   49   23   51 1     
   50   24   28 1     
   51   24   25 1     
   52   24   52 1     
   53   25   26 1     
   54   25   53 1     
   55   25   54 1     
   56   26   27 1     
   57   26   55 1     
   58   26   56 1     
   59   27   28 1     
   60   27   57 1     
   61   27   58 1     
   62    4   59 1     
   63    7   60 1     
   64    7   61 1     
   65   13   62 1     
   66   15   63 1     
   67   18   64 1     
   68   23   65 1     
   69   23   66 1     
   70   28   67 1     
   71   28   68 1     
@<TRIPOS>SUBSTRUCTURE
      1 S1             1
@<TRIPOS>SET
LONE_PAIRS      STATIC     ATOMS    <user>   **** ""
10 59 60 61 62 63 64 65 66 67 68
DONOR_HYDROGENS      STATIC     ATOMS    <user>   **** ""
1 51
ATOM$BLUE        STATIC     ATOMS    COLORGROUP SYSTEM
10 59 60 61 62 63 64 65 66 67 68
ATOM$RED        STATIC     ATOMS    COLORGROUP SYSTEM
1 51
