AV-unprocessed.smi:707|AV-procd|sdf|3453|dock9
  -GOLD-   22720 0443D 1   1.00000     0.00000
 Structure written by MMmdl.
 44 45  0  0  0  0  0  0  0  0  1 V2000
  145.3252  148.6091  157.5695 C   0  0  0  0  0  0  0  0  0  0  0  0
  144.7686  147.4238  156.8496 C   0  0  0  0  0  0  0  0  0  0  0  0
  144.4936  147.4096  155.5399 N   0  0  0  0  0  0  0  0  0  0  0  0
  144.0057  146.1446  155.2768 N   0  0  0  0  0  0  0  0  0  0  0  0
  144.0347  145.5222  156.4547 C   0  0  0  0  0  0  0  0  0  0  0  0
  144.4979  146.2602  157.4751 N   0  0  0  0  0  0  0  0  0  0  0  0
  144.6592  145.8806  158.8663 C   0  0  0  0  0  0  0  0  0  0  0  0
  145.5228  144.6201  159.0093 C   0  0  0  0  0  0  0  0  0  0  0  0
  146.9136  144.9761  159.2512 N   0  0  0  0  0  0  0  0  0  0  0  0
  147.6384  144.5318  160.2880 C   0  0  0  0  0  0  0  0  0  0  0  0
  147.1960  143.7703  161.1477 O   0  0  0  0  0  0  0  0  0  0  0  0
  149.0848  145.0114  160.3656 C   0  0  0  0  0  0  0  0  0  0  0  0
  149.9179  143.9906  159.8370 O   0  0  0  0  0  0  0  0  0  0  0  0
  151.2450  144.4024  159.5287 C   0  0  2  0  0  0  0  0  0  0  0  0
  151.9020  143.2820  158.7028 C   0  0  0  0  0  0  0  0  0  0  0  0
  152.1232  142.0099  159.5385 C   0  0  0  0  0  0  0  0  0  0  0  0
  152.9311  142.3076  160.8112 C   0  0  0  0  0  0  0  0  0  0  0  0
  152.2696  143.4134  161.6554 C   0  0  1  0  0  0  0  0  0  0  0  0
  153.0778  143.7095  162.9266 C   0  0  0  0  0  0  0  0  0  0  0  0
  152.0654  144.6842  160.8069 C   0  0  0  0  0  0  0  0  0  0  0  0
  145.5208  149.4226  156.8702 H   0  0  0  0  0  0  0  0  0  0  0  0
  146.2607  148.3464  158.0636 H   0  0  0  0  0  0  0  0  0  0  0  0
  144.6163  148.9604  158.3196 H   0  0  0  0  0  0  0  0  0  0  0  0
  143.7101  144.4988  156.5757 H   0  0  0  0  0  0  0  0  0  0  0  0
  145.1012  146.7153  159.4112 H   0  0  0  0  0  0  0  0  0  0  0  0
  143.6699  145.7134  159.2946 H   0  0  0  0  0  0  0  0  0  0  0  0
  145.1528  144.0064  159.8323 H   0  0  0  0  0  0  0  0  0  0  0  0
  145.4638  144.0144  158.1039 H   0  0  0  0  0  0  0  0  0  0  0  0
  147.3575  145.5923  158.5855 H   0  0  0  0  0  0  0  0  0  0  0  0
  149.2072  145.9369  159.8002 H   0  0  0  0  0  0  0  0  0  0  0  0
  149.3264  145.2247  161.4066 H   0  0  0  0  0  0  0  0  0  0  0  0
  151.2063  145.3016  158.9115 H   0  0  0  0  0  0  0  0  0  0  0  0
  151.2898  143.0530  157.8299 H   0  0  0  0  0  0  0  0  0  0  0  0
  152.8620  143.6312  158.3205 H   0  0  0  0  0  0  0  0  0  0  0  0
  151.1597  141.5777  159.8111 H   0  0  0  0  0  0  0  0  0  0  0  0
  152.6390  141.2585  158.9400 H   0  0  0  0  0  0  0  0  0  0  0  0
  153.0308  141.3959  161.4013 H   0  0  0  0  0  0  0  0  0  0  0  0
  153.9428  142.6091  160.5362 H   0  0  0  0  0  0  0  0  0  0  0  0
  151.2878  143.0559  161.9698 H   0  0  0  0  0  0  0  0  0  0  0  0
  154.0769  144.0739  162.6857 H   0  0  0  0  0  0  0  0  0  0  0  0
  153.1879  142.8140  163.5387 H   0  0  0  0  0  0  0  0  0  0  0  0
  152.5848  144.4663  163.5374 H   0  0  0  0  0  0  0  0  0  0  0  0
  153.0393  145.0826  160.5190 H   0  0  0  0  0  0  0  0  0  0  0  0
  151.5955  145.4639  161.4051 H   0  0  0  0  0  0  0  0  0  0  0  0
  1  2  1  0  0  0  0
  1 21  1  0  0  0  0
  1 22  1  0  0  0  0
  1 23  1  0  0  0  0
  2  6  1  0  0  0  0
  2  3  2  0  0  0  0
  3  4  1  0  0  0  0
  4  5  2  0  0  0  0
  5  6  1  0  0  0  0
  5 24  1  0  0  0  0
  6  7  1  0  0  0  0
  7  8  1  0  0  0  0
  7 25  1  0  0  0  0
  7 26  1  0  0  0  0
  8  9  1  0  0  0  0
  8 27  1  0  0  0  0
  8 28  1  0  0  0  0
  9 10  1  0  0  0  0
  9 29  1  0  0  0  0
 10 11  2  0  0  0  0
 10 12  1  0  0  0  0
 12 13  1  0  0  0  0
 12 30  1  0  0  0  0
 12 31  1  0  0  0  0
 13 14  1  0  0  0  0
 14 20  1  0  0  0  0
 14 15  1  0  0  0  0
 14 32  1  0  0  0  0
 15 16  1  0  0  0  0
 15 33  1  0  0  0  0
 15 34  1  0  0  0  0
 16 17  1  0  0  0  0
 16 35  1  0  0  0  0
 16 36  1  0  0  0  0
 17 18  1  0  0  0  0
 17 37  1  0  0  0  0
 17 38  1  0  0  0  0
 18 19  1  0  0  0  0
 18 20  1  0  0  0  0
 18 39  1  0  0  0  0
 19 40  1  0  0  0  0
 19 41  1  0  0  0  0
 19 42  1  0  0  0  0
 20 43  1  0  0  0  0
 20 44  1  0  0  0  0
M  END
> <s_m_source_file>
AV-unprocessed.smi

> <i_m_source_file_index>
707

> <i_lp_mmshare_version>
43012

> <i_f3d_flags>
0

> <s_epik_input>
W0NIM11jMW5uW2NIXW4xW0NIMl1bQ0gyXVtOSF1DKD1PKVtDSDJdT1tDQEBIXTJbQ0gyXVtDSDJdW0NIMl1bQ0BASF0oW0NIM10pW0NIMl0y

> <s_epik_cmdline>
J2VwaWtfcHl0aG9uJywgJy1waCcsICc3LjAnLCAnLXRuJywgJzgnLCAnLW1hJywgJzIwMCcsICctbWV0YWxfYmluZGluZycsICctaW1hZScsICc8aW5maWxlLm1hZT4nLCAnLW9tYWUnLCAnPG91dGZpbGUubWFlPic=

> <r_lp_tautomer_probability>
1

> <r_epik_Ionization_Penalty>
0.000271783

> <r_epik_Ionization_Penalty_Charging>
0

> <r_epik_Ionization_Penalty_Neutral>
0.000271783

> <r_epik_State_Penalty>
-0

> <r_epik_Charging_Adjusted_Penalty>
0

> <i_epik_Tot_Q>
0

> <i_epik_Tot_abs_Q>
0

> <r_epik_Metal_State_Penalty>
-0

> <b_epik_Metal_Only>
0

> <s_lp_Force_Field>
OPLS_2005

> <r_lp_Energy>
13.9065

> <b_lp_Chiralities_Consistent>
1

> <s_lp_Variant>
AV-unprocessed.smi:707-1

> <Gold.Version>
5.8.1

> <Gold.Id.Protein>
6NUR|6NUR_protein|mol2

> <Gold.PLP.Fitness>
51.9613

> <Gold.PLP.PLP>
-48.2512

> <Gold.PLP.part.hbond>
-4.1047

> <Gold.PLP.part.metal>
0.0000

> <Gold.PLP.part.buried>
-8.6961

> <Gold.PLP.part.nonpolar>
-35.6795

> <Gold.PLP.part.repulsive>
0.5036

> <Gold.PLP.ligand.clash>
0.0000

> <Gold.PLP.ligand.torsion>
0.6894

> <Gold.PLP.Chemscore.Hbond>
1.6720

> <Gold.PLP.Chemscore.CHOScore>
0.0000

> <Gold.PLP.Chemscore.Metal>
0.0000

> <Gold.Chemscore.Hbonds>
donor molecule, donor type, donor heavy atom, donor atom, acceptor molecule, acceptor atom, score
      L1  H     9    29       P1  8029  0.78
      P1  H  6933  6944       L1    11  1.00

> <Gold.PLP.Chemscore.Internal.Correction>
0.0729

> <Gold.Rescore>
     Score         DG    S(hbond)    S(metal)    S(lipo)     H(rot)  DE(clash)    DE(int)     intcor
     16.32     -16.81       1.64        0.00     102.92       2.42       0.00       0.50       ----

> <Gold.Chemscore.Fitness>
16.3164

> <Gold.Chemscore.DG>
-16.8133

> <Gold.Chemscore.ZeroCoef>
-5.4800

> <Gold.Chemscore.Hbond>
1.6419

> <Gold.Chemscore.Metal>
0.0000

> <Gold.Chemscore.Lipo>
102.9249

> <Gold.Chemscore.Internal_Hbond>
0.0000

> <Gold.Chemscore.DEClash>
0.0009

> <Gold.Chemscore.DEInternal>
0.4960

> <Gold.Chemscore.Rot>
2.4191

> <Gold.Chemscore.Internal.Correction>
   9.000000E+99

> <Gold.Chemscore.Hbonds>
donor molecule, donor type, donor heavy atom, donor atom, acceptor molecule, acceptor atom, score
      L1  H     9    29       P1  8029  0.75
      P1  H  6933  6944       L1    11  0.69

> <Gold.Chemscore.Hbond.Weighted>
-5.4840

> <Gold.Chemscore.Metal.Weighted>
-0.0000

> <Gold.Chemscore.Lipo.Weighted>
-12.0422

> <Gold.Chemscore.Internal_Hbond.Weighted>
0.0000

> <Gold.Chemscore.DEClash.Weighted>
0.0009

> <Gold.Chemscore.DEInternal.Weighted>
0.4960

> <Gold.Chemscore.Rot.Weighted>
6.1929

> <Gold.Chemscore.Internal.Correction.Weighted>
   9.000000E+99

> <Gold.Protein.RotatedTorsions>
[ 6907 6896 6895 6894 ] final   11.43 input  -60.11 | X-H torsion
[ 7974 7965 7964 7962 ] final   56.26 input  175.53 | X-H torsion
[ 8008 7997 7996 7995 ] final   87.98 input   59.86 | X-H torsion
[ 10167 10162 10161 10158 ] final   32.75 input  -65.29 | X-H torsion
[ 10718 10713 10712 10709 ] final  108.09 input   66.30 | X-H torsion
[ 10763 10752 10751 10750 ] final  162.16 input  -60.55 | X-H torsion
[ 11005 11000 10999 10996 ] final   76.00 input  -57.11 | X-H torsion

> <Gold.Protein.ActiveResidues>
 VAL166  LYS551  ARG553  GLY616  TRP617  ASP618  TYR619  PRO620  LYS621  CYS622 
 ASP623  PHE694  ASN695  SER759  ASP760  ASP761  ALA762  ILE779  LEU786  VAL792 
 PHE793  MET794  SER795  GLU796  ALA797  LYS798  CYS799  TRP800  GLU811  SER814 

> <Gold.Protein.RotatedAtoms>
  151.7542  135.0825  160.0335 H   0  0  0  0  0  0  0  0  0  0  0  0  # atno 6907 bound_to 6896
  152.3396  133.6047  159.5875 H   0  0  0  0  0  0  0  0  0  0  0  0  # atno 6908 bound_to 6896
  150.7471  133.9658  159.3572 H   0  0  0  0  0  0  0  0  0  0  0  0  # atno 6909 bound_to 6896
  145.9417  139.3894  143.0360 H   0  0  0  0  0  0  0  0  0  0  0  0  # atno 7974 bound_to 7965
  155.9821  140.3376  155.6673 H   0  0  0  0  0  0  0  0  0  0  0  0  # atno 8008 bound_to 7997
  155.6535  140.0708  157.2597 H   0  0  0  0  0  0  0  0  0  0  0  0  # atno 8009 bound_to 7997
  154.4195  140.1721  156.1687 H   0  0  0  0  0  0  0  0  0  0  0  0  # atno 8010 bound_to 7997
  140.4470  144.1103  150.6184 H   0  0  0  0  0  0  0  0  0  0  0  0  # atno 10167 bound_to 10162
  157.6601  131.0886  150.6254 H   0  0  0  0  0  0  0  0  0  0  0  0  # atno 10718 bound_to 10713
  154.2741  135.2765  155.2726 H   0  0  0  0  0  0  0  0  0  0  0  0  # atno 10763 bound_to 10752
  154.5276  135.5739  153.6735 H   0  0  0  0  0  0  0  0  0  0  0  0  # atno 10764 bound_to 10752
  152.9940  135.6220  154.2897 H   0  0  0  0  0  0  0  0  0  0  0  0  # atno 10765 bound_to 10752
  139.9318  134.7565  156.1341 H   0  0  0  0  0  0  0  0  0  0  0  0  # atno 11005 bound_to 11000
  145.8291  140.9640  143.0858 LP  0  0  0  0  0  0  0  0  0  0  0  0  # atno 17320 bound_to 7965
  144.6780  140.0140  143.7484 LP  0  0  0  0  0  0  0  0  0  0  0  0  # atno 17321 bound_to 7965
  140.4251  143.2593  151.9666 LP  0  0  0  0  0  0  0  0  0  0  0  0  # atno 17342 bound_to 10162
  139.4793  144.5795  151.7956 LP  0  0  0  0  0  0  0  0  0  0  0  0  # atno 17343 bound_to 10162
  156.6557  130.4498  149.5704 LP  0  0  0  0  0  0  0  0  0  0  0  0  # atno 17370 bound_to 10713
  156.2104  130.6675  151.1263 LP  0  0  0  0  0  0  0  0  0  0  0  0  # atno 17371 bound_to 10713
  141.0910  133.6714  156.2541 LP  0  0  0  0  0  0  0  0  0  0  0  0  # atno 17394 bound_to 11000
  140.6182  134.5388  157.5544 LP  0  0  0  0  0  0  0  0  0  0  0  0  # atno 17395 bound_to 11000

$$$$
