AV-unprocessed.smi:1824|AV-procd|sdf|7406|dock6
  -GOLD-   22720 9 83D 1   1.00000     0.00000
 Structure written by MMmdl.
 45 47  0  0  0  0  0  0  0  0  2 V2000
  147.7485  133.3798  153.1911 C   0  0  0  0  0  0  0  0  0  0  0  0
  146.2591  133.6435  153.4766 C   0  0  1  0  0  0  0  0  0  0  0  0
  145.9222  135.1365  153.6556 C   0  0  0  0  0  0  0  0  0  0  0  0
  145.9534  135.8477  152.3542 N   0  3  2  0  0  0  0  0  0  0  0  0
  145.7112  137.3089  152.4664 C   0  0  0  0  0  0  0  0  0  0  0  0
  147.0222  138.1134  152.5695 C   0  0  1  0  0  0  0  0  0  0  0  0
  147.2644  138.7500  151.3287 O   0  0  0  0  0  0  0  0  0  0  0  0
  146.9622  139.1717  153.6880 C   0  0  0  0  0  0  0  0  0  0  0  0
  148.2788  139.5194  154.1931 N   0  0  0  0  0  0  0  0  0  0  0  0
  149.4658  139.0998  153.7138 C   0  0  0  0  0  0  0  0  0  0  0  0
  150.5608  139.5443  154.3233 N   0  0  0  0  0  0  0  0  0  0  0  0
  150.0232  140.3471  155.3146 C   0  0  0  0  0  0  0  0  0  0  0  0
  150.6575  141.1198  156.3134 C   0  0  0  0  0  0  0  0  0  0  0  0
  149.8923  141.8737  157.2275 C   0  0  0  0  0  0  0  0  0  0  0  0
  150.5163  142.6112  158.1765 F   0  0  0  0  0  0  0  0  0  0  0  0
  148.4834  141.8646  157.1578 C   0  0  0  0  0  0  0  0  0  0  0  0
  147.7563  142.5921  158.0384 F   0  0  0  0  0  0  0  0  0  0  0  0
  147.8291  141.1005  156.1726 C   0  0  0  0  0  0  0  0  0  0  0  0
  148.5966  140.3517  155.2615 C   0  0  0  0  0  0  0  0  0  0  0  0
  145.0459  135.1878  151.3881 C   0  0  0  0  0  0  0  0  0  0  0  0
  145.4305  133.7065  151.2190 C   0  0  2  0  0  0  0  0  0  0  0  0
  144.4616  132.9623  150.2933 C   0  0  0  0  0  0  0  0  0  0  0  0
  145.4064  133.0618  152.4902 O   0  0  0  0  0  0  0  0  0  0  0  0
  148.3670  133.7182  154.0227 H   0  0  0  0  0  0  0  0  0  0  0  0
  148.0987  133.8964  152.2978 H   0  0  0  0  0  0  0  0  0  0  0  0
  147.9352  132.3141  153.0565 H   0  0  0  0  0  0  0  0  0  0  0  0
  146.0254  133.1373  154.4137 H   0  0  0  0  0  0  0  0  0  0  0  0
  144.9262  135.2356  154.0908 H   0  0  0  0  0  0  0  0  0  0  0  0
  146.6177  135.5854  154.3639 H   0  0  0  0  0  0  0  0  0  0  0  0
  145.1564  137.6599  151.5946 H   0  0  0  0  0  0  0  0  0  0  0  0
  145.0724  137.5017  153.3296 H   0  0  0  0  0  0  0  0  0  0  0  0
  147.8594  137.4466  152.7739 H   0  0  0  0  0  0  0  0  0  0  0  0
  147.8789  139.4556  151.4634 H   0  0  0  0  0  0  0  0  0  0  0  0
  146.4710  140.0796  153.3351 H   0  0  0  0  0  0  0  0  0  0  0  0
  146.3661  138.8009  154.5229 H   0  0  0  0  0  0  0  0  0  0  0  0
  149.5295  138.4317  152.8672 H   0  0  0  0  0  0  0  0  0  0  0  0
  151.7355  141.1346  156.3765 H   0  0  0  0  0  0  0  0  0  0  0  0
  146.7509  141.0933  156.1180 H   0  0  0  0  0  0  0  0  0  0  0  0
  144.0150  135.2783  151.7349 H   0  0  0  0  0  0  0  0  0  0  0  0
  145.1049  135.6909  150.4221 H   0  0  0  0  0  0  0  0  0  0  0  0
  146.4295  133.6347  150.7883 H   0  0  0  0  0  0  0  0  0  0  0  0
  144.4474  133.4082  149.2985 H   0  0  0  0  0  0  0  0  0  0  0  0
  143.4440  132.9838  150.6843 H   0  0  0  0  0  0  0  0  0  0  0  0
  144.7530  131.9172  150.1835 H   0  0  0  0  0  0  0  0  0  0  0  0
  146.8867  135.7450  151.9807 H   0  0  0  0  0  0  0  0  0  0  0  0
  1  2  1  0  0  0  0
  1 24  1  0  0  0  0
  1 25  1  0  0  0  0
  1 26  1  0  0  0  0
  2 23  1  0  0  0  0
  2  3  1  0  0  0  0
  2 27  1  0  0  0  0
  3  4  1  0  0  0  0
  3 28  1  0  0  0  0
  3 29  1  0  0  0  0
  4  5  1  0  0  0  0
  4 20  1  0  0  0  0
  4 45  1  0  0  0  0
  5  6  1  0  0  0  0
  5 30  1  0  0  0  0
  5 31  1  0  0  0  0
  6  7  1  0  0  0  0
  6  8  1  0  0  0  0
  6 32  1  0  0  0  0
  7 33  1  0  0  0  0
  8  9  1  0  0  0  0
  8 34  1  0  0  0  0
  8 35  1  0  0  0  0
  9 19  1  0  0  0  0
  9 10  1  0  0  0  0
 10 11  2  0  0  0  0
 10 36  1  0  0  0  0
 11 12  1  0  0  0  0
 12 19  2  0  0  0  0
 12 13  1  0  0  0  0
 13 14  2  0  0  0  0
 13 37  1  0  0  0  0
 14 15  1  0  0  0  0
 14 16  1  0  0  0  0
 16 17  1  0  0  0  0
 16 18  2  0  0  0  0
 18 19  1  0  0  0  0
 18 38  1  0  0  0  0
 20 21  1  0  0  0  0
 20 39  1  0  0  0  0
 20 40  1  0  0  0  0
 21 22  1  0  0  0  0
 21 23  1  0  0  0  0
 21 41  1  0  0  0  0
 22 42  1  0  0  0  0
 22 43  1  0  0  0  0
 22 44  1  0  0  0  0
M  CHG  1   4   1
M  END
> <s_m_source_file>
AV-unprocessed.smi

> <i_m_source_file_index>
1824

> <i_lp_mmshare_version>
43012

> <i_f3d_flags>
0

> <s_epik_input>
W0NIM11bQ0BASF0xW0NIMl1OKFtDSDJdW0NASF0oTzEpW0NIM10pW0NIMl1bQ0BIXShbT0hdKVtDSDJdbihbY0hdbjIpYyhjMjMpW2NIXWMoRiljKEYpW2NIXTM=

> <s_epik_cmdline>
J2VwaWtfcHl0aG9uJywgJy1waCcsICc3LjAnLCAnLXRuJywgJzgnLCAnLW1hJywgJzIwMCcsICctbWV0YWxfYmluZGluZycsICctaW1hZScsICc8aW5maWxlLm1hZT4nLCAnLW9tYWUnLCAnPG91dGZpbGUubWFlPic=

> <r_epik_Ionization_Penalty>
0.61967

> <r_epik_Ionization_Penalty_Charging>
0.608065

> <r_epik_Ionization_Penalty_Neutral>
0.0116057

> <r_epik_State_Penalty>
0.664205

> <r_epik_Charging_Adjusted_Penalty>
1.27227

> <i_epik_Tot_Q>
1

> <i_epik_Tot_abs_Q>
1

> <r_epik_Metal_State_Penalty>
0.654947

> <b_epik_Metal_Only>
0

> <s_lp_Force_Field>
OPLS_2005

> <r_lp_Energy>
22.8883

> <b_lp_Chiralities_Consistent>
1

> <s_lp_Variant>
AV-unprocessed.smi:1824-14

> <Gold.Version>
5.8.1

> <Gold.Id.Protein>
6NUR|6NUR_protein|mol2

> <Gold.PLP.Fitness>
48.5413

> <Gold.PLP.PLP>
-33.0645

> <Gold.PLP.part.hbond>
-4.6117

> <Gold.PLP.part.metal>
0.0000

> <Gold.PLP.part.buried>
3.5821

> <Gold.PLP.part.nonpolar>
-31.8430

> <Gold.PLP.part.repulsive>
0.2734

> <Gold.PLP.ligand.clash>
0.0000

> <Gold.PLP.ligand.torsion>
1.4597

> <Gold.PLP.Chemscore.Hbond>
4.6816

> <Gold.PLP.Chemscore.CHOScore>
1.4289

> <Gold.PLP.Chemscore.Metal>
0.0000

> <Gold.Chemscore.Hbonds>
donor molecule, donor type, donor heavy atom, donor atom, acceptor molecule, acceptor atom, score
      L1  H     4    45       P1  7948  1.66
      L1  H     7    33       P1  7957  0.88
      P1  H  7954  7966       L1     7  0.82
      P1  H  7989  7998       L1    11  0.90
      L1  C    10    36       P1  7948  1.00
      L1  C    10    36       P1  7957  0.39

> <Gold.PLP.Chemscore.Internal.Correction>
0.0646

> <Gold.Rescore>
     Score         DG    S(hbond)    S(metal)    S(lipo)     H(rot)  DE(clash)    DE(int)     intcor
     14.13     -18.81       3.08        0.00      76.92       2.33       3.35       1.33       ----

> <Gold.Chemscore.Fitness>
14.1300

> <Gold.Chemscore.DG>
-18.8059

> <Gold.Chemscore.ZeroCoef>
-5.4800

> <Gold.Chemscore.Hbond>
3.0775

> <Gold.Chemscore.Metal>
0.0000

> <Gold.Chemscore.Lipo>
76.9167

> <Gold.Chemscore.Internal_Hbond>
0.0000

> <Gold.Chemscore.DEClash>
3.3471

> <Gold.Chemscore.DEInternal>
1.3287

> <Gold.Chemscore.Rot>
2.3251

> <Gold.Chemscore.Internal.Correction>
   9.000000E+99

> <Gold.Chemscore.Hbonds>
donor molecule, donor type, donor heavy atom, donor atom, acceptor molecule, acceptor atom, score
      L1  H     4    45       P1  7948  0.81
      L1  H     7    33       P1  7957  0.85
      P1  H  7954  7966       L1     7  0.13
      P1  H  7989  7998       L1    11  0.17

> <Gold.Chemscore.Hbond.Weighted>
-10.2790

> <Gold.Chemscore.Metal.Weighted>
-0.0000

> <Gold.Chemscore.Lipo.Weighted>
-8.9993

> <Gold.Chemscore.Internal_Hbond.Weighted>
0.0000

> <Gold.Chemscore.DEClash.Weighted>
3.3471

> <Gold.Chemscore.DEInternal.Weighted>
1.3287

> <Gold.Chemscore.Rot.Weighted>
5.9523

> <Gold.Chemscore.Internal.Correction.Weighted>
   9.000000E+99

> <Gold.Protein.RotatedTorsions>
[ 6907 6896 6895 6894 ] final  104.28 input  -60.11 | X-H torsion
[ 7974 7965 7964 7962 ] final -169.95 input  175.53 | X-H torsion
[ 8008 7997 7996 7995 ] final  127.83 input   59.86 | X-H torsion
[ 10167 10162 10161 10158 ] final   40.04 input  -65.29 | X-H torsion
[ 10718 10713 10712 10709 ] final  -64.96 input   66.30 | X-H torsion
[ 10763 10752 10751 10750 ] final   25.75 input  -60.55 | X-H torsion
[ 11005 11000 10999 10996 ] final  130.58 input  -57.11 | X-H torsion

> <Gold.Protein.ActiveResidues>
 VAL166  LYS551  ARG553  GLY616  TRP617  ASP618  TYR619  PRO620  LYS621  CYS622 
 ASP623  PHE694  ASN695  SER759  ASP760  ASP761  ALA762  ILE779  LEU786  VAL792 
 PHE793  MET794  SER795  GLU796  ALA797  LYS798  CYS799  TRP800  GLU811  SER814 

> <Gold.Protein.RotatedAtoms>
  152.5269  133.9700  159.7757 H   0  0  0  0  0  0  0  0  0  0  0  0  # atno 6907 bound_to 6896
  150.9974  133.6082  159.2707 H   0  0  0  0  0  0  0  0  0  0  0  0  # atno 6908 bound_to 6896
  151.3203  135.0823  159.9356 H   0  0  0  0  0  0  0  0  0  0  0  0  # atno 6909 bound_to 6896
  144.7177  140.2144  143.6323 H   0  0  0  0  0  0  0  0  0  0  0  0  # atno 7974 bound_to 7965
  156.2900  140.2659  156.2338 H   0  0  0  0  0  0  0  0  0  0  0  0  # atno 8008 bound_to 7997
  155.0046  140.0387  157.2392 H   0  0  0  0  0  0  0  0  0  0  0  0  # atno 8009 bound_to 7997
  154.7571  140.2754  155.6249 H   0  0  0  0  0  0  0  0  0  0  0  0  # atno 8010 bound_to 7997
  140.3780  144.2017  150.6131 H   0  0  0  0  0  0  0  0  0  0  0  0  # atno 10167 bound_to 10162
  156.0698  130.4240  150.1495 H   0  0  0  0  0  0  0  0  0  0  0  0  # atno 10718 bound_to 10713
  153.0670  135.6576  154.0333 H   0  0  0  0  0  0  0  0  0  0  0  0  # atno 10763 bound_to 10752
  153.9987  135.2939  155.3406 H   0  0  0  0  0  0  0  0  0  0  0  0  # atno 10764 bound_to 10752
  154.7031  135.5236  153.8625 H   0  0  0  0  0  0  0  0  0  0  0  0  # atno 10765 bound_to 10752
  139.9680  134.9585  156.9315 H   0  0  0  0  0  0  0  0  0  0  0  0  # atno 11005 bound_to 11000
  145.8560  139.2199  143.1744 LP  0  0  0  0  0  0  0  0  0  0  0  0  # atno 17320 bound_to 7965
  146.0217  140.8342  142.9920 LP  0  0  0  0  0  0  0  0  0  0  0  0  # atno 17321 bound_to 7965
  140.4966  143.2330  151.8740 LP  0  0  0  0  0  0  0  0  0  0  0  0  # atno 17342 bound_to 10162
  139.4798  144.5106  151.8937 LP  0  0  0  0  0  0  0  0  0  0  0  0  # atno 17343 bound_to 10162
  156.9548  130.9786  151.3491 LP  0  0  0  0  0  0  0  0  0  0  0  0  # atno 17370 bound_to 10713
  157.5762  130.8344  149.8458 LP  0  0  0  0  0  0  0  0  0  0  0  0  # atno 17371 bound_to 10713
  140.5354  134.0772  155.7327 LP  0  0  0  0  0  0  0  0  0  0  0  0  # atno 17394 bound_to 11000
  141.1360  133.9220  157.2432 LP  0  0  0  0  0  0  0  0  0  0  0  0  # atno 17395 bound_to 11000

$$$$
