AV-unprocessed.smi:527|AV-procd|sdf|2824|dock3
  -GOLD-   2262023313D 1   1.00000     0.00000
 Structure written by MMmdl.
 43 44  0  0  0  0  0  0  0  0  2 V2000
  150.2433  141.2028  156.2081 C   0  0  0  0  0  0  0  0  0  0  0  0
  148.9673  140.7317  155.4906 C   0  0  1  0  0  0  0  0  0  0  0  0
  148.5576  141.6977  154.3602 C   0  0  0  0  0  0  0  0  0  0  0  0
  147.2282  141.2765  153.7140 C   0  0  0  0  0  0  0  0  0  0  0  0
  147.2737  139.8215  153.2235 C   0  0  0  0  0  0  0  0  0  0  0  0
  147.6800  138.8629  154.3594 C   0  0  1  0  0  0  0  0  0  0  0  0
  147.6810  137.4861  153.8695 N   0  0  0  0  0  0  0  0  0  0  0  0
  146.8636  136.5109  154.2924 C   0  0  0  0  0  0  0  0  0  0  0  0
  146.1546  136.6073  155.2963 O   0  0  0  0  0  0  0  0  0  0  0  0
  146.9317  135.4396  153.4790 N   0  0  0  0  0  0  0  0  0  0  0  0
  146.1259  134.3582  153.4766 C   0  0  0  0  0  0  0  0  0  0  0  0
  145.1762  134.1750  154.2401 O   0  0  0  0  0  0  0  0  0  0  0  0
  146.4385  133.3021  152.4159 C   0  0  0  0  0  0  0  0  0  0  0  0
  145.2577  133.0118  151.5976 N   0  0  0  0  0  0  0  0  0  0  0  0
  144.7550  131.7784  151.2688 C   0  0  0  0  0  0  0  0  0  0  0  0
  143.6522  132.0020  150.4852 C   0  0  0  0  0  0  0  0  0  0  0  0
  143.5284  133.3607  150.3681 N   0  3  0  0  0  0  0  0  0  0  0  0
  144.5054  133.9731  151.0448 C   0  0  0  0  0  0  0  0  0  0  0  0
  149.0415  139.2643  154.9907 C   0  0  1  0  0  0  0  0  0  0  0  0
  150.2486  138.9879  154.0639 C   0  0  0  0  0  0  0  0  0  0  0  0
  151.0820  141.3062  155.5196 H   0  0  0  0  0  0  0  0  0  0  0  0
  150.5349  140.5042  156.9928 H   0  0  0  0  0  0  0  0  0  0  0  0
  150.0876  142.1751  156.6763 H   0  0  0  0  0  0  0  0  0  0  0  0
  148.1735  140.7660  156.2387 H   0  0  0  0  0  0  0  0  0  0  0  0
  148.4599  142.7095  154.7550 H   0  0  0  0  0  0  0  0  0  0  0  0
  149.3385  141.7424  153.6006 H   0  0  0  0  0  0  0  0  0  0  0  0
  146.4216  141.3884  154.4395 H   0  0  0  0  0  0  0  0  0  0  0  0
  146.9903  141.9421  152.8841 H   0  0  0  0  0  0  0  0  0  0  0  0
  146.2941  139.5420  152.8339 H   0  0  0  0  0  0  0  0  0  0  0  0
  147.9694  139.7370  152.3880 H   0  0  0  0  0  0  0  0  0  0  0  0
  146.9122  138.9427  155.1319 H   0  0  0  0  0  0  0  0  0  0  0  0
  148.3629  137.2619  153.1598 H   0  0  0  0  0  0  0  0  0  0  0  0
  147.6697  135.4495  152.7908 H   0  0  0  0  0  0  0  0  0  0  0  0
  147.2417  133.6370  151.7577 H   0  0  0  0  0  0  0  0  0  0  0  0
  146.7693  132.3766  152.8900 H   0  0  0  0  0  0  0  0  0  0  0  0
  145.2074  130.8572  151.6067 H   0  0  0  0  0  0  0  0  0  0  0  0
  142.9650  131.3144  150.0140 H   0  0  0  0  0  0  0  0  0  0  0  0
  144.6596  135.0348  151.1250 H   0  0  0  0  0  0  0  0  0  0  0  0
  149.1841  138.6362  155.8714 H   0  0  0  0  0  0  0  0  0  0  0  0
  150.2150  139.5876  153.1548 H   0  0  0  0  0  0  0  0  0  0  0  0
  150.2930  137.9410  153.7643 H   0  0  0  0  0  0  0  0  0  0  0  0
  151.1927  139.2010  154.5639 H   0  0  0  0  0  0  0  0  0  0  0  0
  142.8042  133.8362  149.8443 H   0  0  0  0  0  0  0  0  0  0  0  0
  1  2  1  0  0  0  0
  1 21  1  0  0  0  0
  1 22  1  0  0  0  0
  1 23  1  0  0  0  0
  2 19  1  0  0  0  0
  2  3  1  0  0  0  0
  2 24  1  0  0  0  0
  3  4  1  0  0  0  0
  3 25  1  0  0  0  0
  3 26  1  0  0  0  0
  4  5  1  0  0  0  0
  4 27  1  0  0  0  0
  4 28  1  0  0  0  0
  5  6  1  0  0  0  0
  5 29  1  0  0  0  0
  5 30  1  0  0  0  0
  6  7  1  0  0  0  0
  6 19  1  0  0  0  0
  6 31  1  0  0  0  0
  7  8  1  0  0  0  0
  7 32  1  0  0  0  0
  8  9  2  0  0  0  0
  8 10  1  0  0  0  0
 10 11  1  0  0  0  0
 10 33  1  0  0  0  0
 11 12  2  0  0  0  0
 11 13  1  0  0  0  0
 13 14  1  0  0  0  0
 13 34  1  0  0  0  0
 13 35  1  0  0  0  0
 14 18  1  0  0  0  0
 14 15  1  0  0  0  0
 15 16  2  0  0  0  0
 15 36  1  0  0  0  0
 16 17  1  0  0  0  0
 16 37  1  0  0  0  0
 17 18  2  0  0  0  0
 17 43  1  0  0  0  0
 18 38  1  0  0  0  0
 19 20  1  0  0  0  0
 19 39  1  0  0  0  0
 20 40  1  0  0  0  0
 20 41  1  0  0  0  0
 20 42  1  0  0  0  0
M  CHG  1  17   1
M  END
> <s_m_source_file>
AV-unprocessed.smi

> <i_m_source_file_index>
527

> <i_lp_mmshare_version>
43012

> <i_f3d_flags>
0

> <s_epik_input>
W0NIM11bQ0BASF0xW0NIMl1bQ0gyXVtDSDJdW0NASF0oW0NASF0xW0NIM10pW05IXUMoPU8pW05IXUMoPU8pW0NIMl1uMltjSF1bY0hdbltjSF0y

> <s_epik_cmdline>
J2VwaWtfcHl0aG9uJywgJy1waCcsICc3LjAnLCAnLXRuJywgJzgnLCAnLW1hJywgJzIwMCcsICctbWV0YWxfYmluZGluZycsICctaW1hZScsICc8aW5maWxlLm1hZT4nLCAnLW9tYWUnLCAnPG91dGZpbGUubWFlPic=

> <r_lp_tautomer_probability>
1

> <r_epik_Ionization_Penalty>
0.816441

> <r_epik_Ionization_Penalty_Charging>
0

> <r_epik_Ionization_Penalty_Neutral>
0.816441

> <r_epik_State_Penalty>
0.849034

> <r_epik_Charging_Adjusted_Penalty>
0.849034

> <i_epik_Tot_Q>
1

> <i_epik_Tot_abs_Q>
1

> <r_epik_Metal_State_Penalty>
0.984327

> <b_epik_Metal_Only>
0

> <s_lp_Force_Field>
OPLS_2005

> <r_lp_Energy>
18.6006

> <b_lp_Chiralities_Consistent>
1

> <s_lp_Variant>
AV-unprocessed.smi:527-10

> <Gold.Version>
5.8.1

> <Gold.Id.Protein>
6NUR|6NUR_protein|mol2

> <Gold.PLP.Fitness>
43.8973

> <Gold.PLP.PLP>
-32.3545

> <Gold.PLP.part.hbond>
-3.0000

> <Gold.PLP.part.metal>
0.0000

> <Gold.PLP.part.buried>
-2.8762

> <Gold.PLP.part.nonpolar>
-26.4215

> <Gold.PLP.part.repulsive>
0.1345

> <Gold.PLP.ligand.clash>
0.0000

> <Gold.PLP.ligand.torsion>
0.2206

> <Gold.PLP.Chemscore.Hbond>
3.9840

> <Gold.PLP.Chemscore.CHOScore>
0.0000

> <Gold.PLP.Chemscore.Metal>
0.0000

> <Gold.Chemscore.Hbonds>
donor molecule, donor type, donor heavy atom, donor atom, acceptor molecule, acceptor atom, score
      L1  H     7    32       P1  7948  1.00
      L1  H    10    33       P1  7948  1.00
      L1  H    17    43       P1 10186  2.00

> <Gold.PLP.Chemscore.Internal.Correction>
0.0321

> <Gold.Rescore>
     Score         DG    S(hbond)    S(metal)    S(lipo)     H(rot)  DE(clash)    DE(int)     intcor
     17.84     -19.49       2.95        0.00      72.84       1.71       0.05       1.60       ----

> <Gold.Chemscore.Fitness>
17.8381

> <Gold.Chemscore.DG>
-19.4880

> <Gold.Chemscore.ZeroCoef>
-5.4800

> <Gold.Chemscore.Hbond>
2.9494

> <Gold.Chemscore.Metal>
0.0000

> <Gold.Chemscore.Lipo>
72.8397

> <Gold.Chemscore.Internal_Hbond>
0.0000

> <Gold.Chemscore.DEClash>
0.0529

> <Gold.Chemscore.DEInternal>
1.5970

> <Gold.Chemscore.Rot>
1.7052

> <Gold.Chemscore.Internal.Correction>
   9.000000E+99

> <Gold.Chemscore.Hbonds>
donor molecule, donor type, donor heavy atom, donor atom, acceptor molecule, acceptor atom, score
      L1  H     7    32       P1  7948  0.96
      L1  H    10    33       P1  7948  0.98
      L1  H    17    43       P1 10186  0.97

> <Gold.Chemscore.Hbond.Weighted>
-9.8510

> <Gold.Chemscore.Metal.Weighted>
-0.0000

> <Gold.Chemscore.Lipo.Weighted>
-8.5222

> <Gold.Chemscore.Internal_Hbond.Weighted>
0.0000

> <Gold.Chemscore.DEClash.Weighted>
0.0529

> <Gold.Chemscore.DEInternal.Weighted>
1.5970

> <Gold.Chemscore.Rot.Weighted>
4.3653

> <Gold.Chemscore.Internal.Correction.Weighted>
   9.000000E+99

> <Gold.Protein.RotatedTorsions>
[ 6907 6896 6895 6894 ] final   51.40 input  -60.11 | X-H torsion
[ 7974 7965 7964 7962 ] final    8.06 input  175.53 | X-H torsion
[ 8008 7997 7996 7995 ] final   61.44 input   59.86 | X-H torsion
[ 10167 10162 10161 10158 ] final  -41.18 input  -65.29 | X-H torsion
[ 10718 10713 10712 10709 ] final  -23.35 input   66.30 | X-H torsion
[ 10763 10752 10751 10750 ] final   11.10 input  -60.55 | X-H torsion
[ 11005 11000 10999 10996 ] final -118.78 input  -57.11 | X-H torsion

> <Gold.Protein.ActiveResidues>
 VAL166  LYS551  ARG553  GLY616  TRP617  ASP618  TYR619  PRO620  LYS621  CYS622 
 ASP623  PHE694  ASN695  SER759  ASP760  ASP761  ALA762  ILE779  LEU786  VAL792 
 PHE793  MET794  SER795  GLU796  ALA797  LYS798  CYS799  TRP800  GLU811  SER814 

> <Gold.Protein.RotatedAtoms>
  152.3122  134.7483  160.0333 H   0  0  0  0  0  0  0  0  0  0  0  0  # atno 6907 bound_to 6896
  151.7960  133.3359  159.3521 H   0  0  0  0  0  0  0  0  0  0  0  0  # atno 6908 bound_to 6896
  150.7326  134.5728  159.5943 H   0  0  0  0  0  0  0  0  0  0  0  0  # atno 6909 bound_to 6896
  146.2420  139.9990  142.8418 H   0  0  0  0  0  0  0  0  0  0  0  0  # atno 7974 bound_to 7965
  155.5983  140.3493  155.4586 H   0  0  0  0  0  0  0  0  0  0  0  0  # atno 8008 bound_to 7997
  156.0248  140.1261  157.0345 H   0  0  0  0  0  0  0  0  0  0  0  0  # atno 8009 bound_to 7997
  154.4329  140.1055  156.6001 H   0  0  0  0  0  0  0  0  0  0  0  0  # atno 8010 bound_to 7997
  140.7011  143.3110  151.3029 H   0  0  0  0  0  0  0  0  0  0  0  0  # atno 10167 bound_to 10162
  156.4922  130.4569  149.6749 H   0  0  0  0  0  0  0  0  0  0  0  0  # atno 10718 bound_to 10713
  153.1961  135.6849  153.8290 H   0  0  0  0  0  0  0  0  0  0  0  0  # atno 10763 bound_to 10752
  153.7572  135.3215  155.3332 H   0  0  0  0  0  0  0  0  0  0  0  0  # atno 10764 bound_to 10752
  154.8145  135.4695  154.0706 H   0  0  0  0  0  0  0  0  0  0  0  0  # atno 10765 bound_to 10752
  141.0262  134.0050  157.3211 H   0  0  0  0  0  0  0  0  0  0  0  0  # atno 11005 bound_to 11000
  145.1433  140.9583  143.4476 LP  0  0  0  0  0  0  0  0  0  0  0  0  # atno 17320 bound_to 7965
  145.0275  139.3370  143.6041 LP  0  0  0  0  0  0  0  0  0  0  0  0  # atno 17321 bound_to 7965
  139.6532  144.0324  152.2641 LP  0  0  0  0  0  0  0  0  0  0  0  0  # atno 17342 bound_to 10162
  139.9867  144.6390  150.7851 LP  0  0  0  0  0  0  0  0  0  0  0  0  # atno 17343 bound_to 10162
  156.3415  130.7384  151.2330 LP  0  0  0  0  0  0  0  0  0  0  0  0  # atno 17370 bound_to 10713
  157.7472  131.0402  150.4588 LP  0  0  0  0  0  0  0  0  0  0  0  0  # atno 17371 bound_to 10713
  139.9177  135.0198  156.7947 LP  0  0  0  0  0  0  0  0  0  0  0  0  # atno 17394 bound_to 11000
  140.6487  133.9751  155.7744 LP  0  0  0  0  0  0  0  0  0  0  0  0  # atno 17395 bound_to 11000

$$$$
