AV-unprocessed.smi:1596|AV-procd|sdf|6418|dock5
  -GOLD-   22720 7 53D 1   1.00000     0.00000
 Structure written by MMmdl.
 48 49  0  0  0  0  0  0  0  0  1 V2000
  152.0079  144.8603  159.2460 C   0  0  0  0  0  0  0  0  0  0  0  0
  152.9280  143.7539  158.7077 C   0  0  0  0  0  0  0  0  0  0  0  0
  152.8251  142.5030  159.4639 N   0  0  0  0  0  0  0  0  0  0  0  0
  153.3633  142.4489  160.8233 C   0  0  0  0  0  0  0  0  0  0  0  0
  152.4404  143.0986  161.8640 C   0  0  0  0  0  0  0  0  0  0  0  0
  152.3501  141.3288  158.8274 C   0  0  0  0  0  0  0  0  0  0  0  0
  152.3913  140.0625  159.4638 C   0  0  0  0  0  0  0  0  0  0  0  0
  151.8971  138.9292  158.7897 C   0  0  0  0  0  0  0  0  0  0  0  0
  151.3726  139.0793  157.4852 C   0  0  0  0  0  0  0  0  0  0  0  0
  150.8234  138.0271  156.7017 N   0  0  0  0  0  0  0  0  0  0  0  0
  150.6268  136.7372  157.0255 C   0  0  0  0  0  0  0  0  0  0  0  0
  150.9573  136.2059  158.0850 O   0  0  0  0  0  0  0  0  0  0  0  0
  150.0216  136.0780  156.0272 N   0  0  0  0  0  0  0  0  0  0  0  0
  149.6481  134.6666  156.0498 C   0  0  2  0  0  0  0  0  0  0  0  0
  150.8172  133.8328  156.6085 C   0  0  0  0  0  0  0  0  0  0  0  0
  150.4991  132.3291  156.5881 C   0  0  0  0  0  0  0  0  0  0  0  0
  150.1229  131.8626  155.1716 C   0  0  1  0  0  0  0  0  0  0  0  0
  149.7754  130.4943  155.2009 O   0  0  0  0  0  0  0  0  0  0  0  0
  148.9451  132.6812  154.6163 C   0  0  0  0  0  0  0  0  0  0  0  0
  149.2575  134.1862  154.6358 C   0  0  0  0  0  0  0  0  0  0  0  0
  151.3684  140.3756  156.9352 C   0  0  0  0  0  0  0  0  0  0  0  0
  151.8411  141.4627  157.5783 N   0  0  0  0  0  0  0  0  0  0  0  0
  152.1212  145.7707  158.6577 H   0  0  0  0  0  0  0  0  0  0  0  0
  152.2415  145.1082  160.2814 H   0  0  0  0  0  0  0  0  0  0  0  0
  150.9590  144.5706  159.2011 H   0  0  0  0  0  0  0  0  0  0  0  0
  152.6725  143.5590  157.6658 H   0  0  0  0  0  0  0  0  0  0  0  0
  153.9621  144.0991  158.6916 H   0  0  0  0  0  0  0  0  0  0  0  0
  153.5192  141.4044  161.0946 H   0  0  0  0  0  0  0  0  0  0  0  0
  154.3558  142.8975  160.8577 H   0  0  0  0  0  0  0  0  0  0  0  0
  152.9061  143.0833  162.8495 H   0  0  0  0  0  0  0  0  0  0  0  0
  151.4932  142.5666  161.9449 H   0  0  0  0  0  0  0  0  0  0  0  0
  152.2232  144.1379  161.6171 H   0  0  0  0  0  0  0  0  0  0  0  0
  152.7951  139.9296  160.4553 H   0  0  0  0  0  0  0  0  0  0  0  0
  151.9247  137.9785  159.2971 H   0  0  0  0  0  0  0  0  0  0  0  0
  150.5506  138.2903  155.7661 H   0  0  0  0  0  0  0  0  0  0  0  0
  149.7925  136.5934  155.1901 H   0  0  0  0  0  0  0  0  0  0  0  0
  148.7925  134.5364  156.7155 H   0  0  0  0  0  0  0  0  0  0  0  0
  151.7182  134.0174  156.0217 H   0  0  0  0  0  0  0  0  0  0  0  0
  151.0438  134.1439  157.6290 H   0  0  0  0  0  0  0  0  0  0  0  0
  151.3583  131.7656  156.9534 H   0  0  0  0  0  0  0  0  0  0  0  0
  149.6782  132.1241  157.2770 H   0  0  0  0  0  0  0  0  0  0  0  0
  150.9850  131.9752  154.5126 H   0  0  0  0  0  0  0  0  0  0  0  0
  150.0294  130.1019  154.3796 H   0  0  0  0  0  0  0  0  0  0  0  0
  148.7157  132.3658  153.5978 H   0  0  0  0  0  0  0  0  0  0  0  0
  148.0491  132.4919  155.2091 H   0  0  0  0  0  0  0  0  0  0  0  0
  148.3906  134.7409  154.2748 H   0  0  0  0  0  0  0  0  0  0  0  0
  150.0692  134.3947  153.9374 H   0  0  0  0  0  0  0  0  0  0  0  0
  150.9721  140.5501  155.9455 H   0  0  0  0  0  0  0  0  0  0  0  0
  1  2  1  0  0  0  0
  1 23  1  0  0  0  0
  1 24  1  0  0  0  0
  1 25  1  0  0  0  0
  2  3  1  0  0  0  0
  2 26  1  0  0  0  0
  2 27  1  0  0  0  0
  3  4  1  0  0  0  0
  3  6  1  0  0  0  0
  4  5  1  0  0  0  0
  4 28  1  0  0  0  0
  4 29  1  0  0  0  0
  5 30  1  0  0  0  0
  5 31  1  0  0  0  0
  5 32  1  0  0  0  0
  6 22  1  0  0  0  0
  6  7  2  0  0  0  0
  7  8  1  0  0  0  0
  7 33  1  0  0  0  0
  8  9  2  0  0  0  0
  8 34  1  0  0  0  0
  9 10  1  0  0  0  0
  9 21  1  0  0  0  0
 10 11  1  0  0  0  0
 10 35  1  0  0  0  0
 11 12  2  0  0  0  0
 11 13  1  0  0  0  0
 13 14  1  0  0  0  0
 13 36  1  0  0  0  0
 14 20  1  0  0  0  0
 14 15  1  0  0  0  0
 14 37  1  0  0  0  0
 15 16  1  0  0  0  0
 15 38  1  0  0  0  0
 15 39  1  0  0  0  0
 16 17  1  0  0  0  0
 16 40  1  0  0  0  0
 16 41  1  0  0  0  0
 17 18  1  0  0  0  0
 17 19  1  0  0  0  0
 17 42  1  0  0  0  0
 18 43  1  0  0  0  0
 19 20  1  0  0  0  0
 19 44  1  0  0  0  0
 19 45  1  0  0  0  0
 20 46  1  0  0  0  0
 20 47  1  0  0  0  0
 21 22  2  0  0  0  0
 21 48  1  0  0  0  0
M  END
> <s_m_source_file>
AV-unprocessed.smi

> <i_m_source_file_index>
1596

> <i_lp_mmshare_version>
43012

> <i_f3d_flags>
0

> <s_epik_input>
W0NIM11bQ0gyXU4oW0NIMl1bQ0gzXSljMVtjSF1bY0hdYyhbY0hdbjEpW05IXUMoPU8pW05IXVtDQEBIXTJbQ0gyXVtDSDJdW0NAQEhdKFtPSF0pW0NIMl1bQ0gyXTI=

> <s_epik_cmdline>
J2VwaWtfcHl0aG9uJywgJy1waCcsICc3LjAnLCAnLXRuJywgJzgnLCAnLW1hJywgJzIwMCcsICctbWV0YWxfYmluZGluZycsICctaW1hZScsICc8aW5maWxlLm1hZT4nLCAnLW9tYWUnLCAnPG91dGZpbGUubWFlPic=

> <r_lp_tautomer_probability>
1

> <r_epik_Ionization_Penalty>
0.709395

> <r_epik_Ionization_Penalty_Charging>
0

> <r_epik_Ionization_Penalty_Neutral>
0.709395

> <r_epik_State_Penalty>
2.20721

> <r_epik_Charging_Adjusted_Penalty>
2.20721

> <i_epik_Tot_Q>
0

> <i_epik_Tot_abs_Q>
0

> <r_epik_Metal_State_Penalty>
1.55411

> <b_epik_Metal_Only>
0

> <s_lp_Force_Field>
OPLS_2005

> <r_lp_Energy>
16.3842

> <b_lp_Chiralities_Consistent>
1

> <s_lp_Variant>
AV-unprocessed.smi:1596-3

> <Gold.Version>
5.8.1

> <Gold.Id.Protein>
6NUR|6NUR_protein|mol2

> <Gold.PLP.Fitness>
43.3844

> <Gold.PLP.PLP>
-42.8682

> <Gold.PLP.part.hbond>
-1.0000

> <Gold.PLP.part.metal>
0.0000

> <Gold.PLP.part.buried>
-5.2871

> <Gold.PLP.part.nonpolar>
-36.8592

> <Gold.PLP.part.repulsive>
0.0833

> <Gold.PLP.ligand.clash>
0.0000

> <Gold.PLP.ligand.torsion>
0.4185

> <Gold.PLP.Chemscore.Hbond>
0.4160

> <Gold.PLP.Chemscore.CHOScore>
0.0000

> <Gold.PLP.Chemscore.Metal>
0.0000

> <Gold.Chemscore.Hbonds>
donor molecule, donor type, donor heavy atom, donor atom, acceptor molecule, acceptor atom, score
      P1  H  6896  6907       L1    12  0.54

> <Gold.PLP.Chemscore.Internal.Correction>
0.1052

> <Gold.Rescore>
     Score         DG    S(hbond)    S(metal)    S(lipo)     H(rot)  DE(clash)    DE(int)     intcor
     12.10     -15.09       0.77        0.00      99.70       1.80       0.03       2.96       ----

> <Gold.Chemscore.Fitness>
12.1006

> <Gold.Chemscore.DG>
-15.0862

> <Gold.Chemscore.ZeroCoef>
-5.4800

> <Gold.Chemscore.Hbond>
0.7662

> <Gold.Chemscore.Metal>
0.0000

> <Gold.Chemscore.Lipo>
99.6982

> <Gold.Chemscore.Internal_Hbond>
0.0000

> <Gold.Chemscore.DEClash>
0.0297

> <Gold.Chemscore.DEInternal>
2.9559

> <Gold.Chemscore.Rot>
1.8038

> <Gold.Chemscore.Internal.Correction>
   9.000000E+99

> <Gold.Chemscore.Hbonds>
donor molecule, donor type, donor heavy atom, donor atom, acceptor molecule, acceptor atom, score
      P1  H  6896  6907       L1    12  0.53

> <Gold.Chemscore.Hbond.Weighted>
-2.5591

> <Gold.Chemscore.Metal.Weighted>
-0.0000

> <Gold.Chemscore.Lipo.Weighted>
-11.6647

> <Gold.Chemscore.Internal_Hbond.Weighted>
0.0000

> <Gold.Chemscore.DEClash.Weighted>
0.0297

> <Gold.Chemscore.DEInternal.Weighted>
2.9559

> <Gold.Chemscore.Rot.Weighted>
4.6176

> <Gold.Chemscore.Internal.Correction.Weighted>
   9.000000E+99

> <Gold.Protein.RotatedTorsions>
[ 6907 6896 6895 6894 ] final  -40.48 input  -60.11 | X-H torsion
[ 7974 7965 7964 7962 ] final   21.94 input  175.53 | X-H torsion
[ 8008 7997 7996 7995 ] final  -59.35 input   59.86 | X-H torsion
[ 10167 10162 10161 10158 ] final   83.95 input  -65.29 | X-H torsion
[ 10718 10713 10712 10709 ] final   35.53 input   66.30 | X-H torsion
[ 10763 10752 10751 10750 ] final  -11.88 input  -60.55 | X-H torsion
[ 11005 11000 10999 10996 ] final  -11.64 input  -57.11 | X-H torsion

> <Gold.Protein.ActiveResidues>
 VAL166  LYS551  ARG553  GLY616  TRP617  ASP618  TYR619  PRO620  LYS621  CYS622 
 ASP623  PHE694  ASN695  SER759  ASP760  ASP761  ALA762  ILE779  LEU786  VAL792 
 PHE793  MET794  SER795  GLU796  ALA797  LYS798  CYS799  TRP800  GLU811  SER814 

> <Gold.Protein.RotatedAtoms>
  150.9780  134.9141  159.7827 H   0  0  0  0  0  0  0  0  0  0  0  0  # atno 6907 bound_to 6896
  152.5212  134.3450  159.9240 H   0  0  0  0  0  0  0  0  0  0  0  0  # atno 6908 bound_to 6896
  151.3457  133.3904  159.2710 H   0  0  0  0  0  0  0  0  0  0  0  0  # atno 6909 bound_to 6896
  146.2050  139.7956  142.8732 H   0  0  0  0  0  0  0  0  0  0  0  0  # atno 7974 bound_to 7965
  154.4348  140.1063  156.6102 H   0  0  0  0  0  0  0  0  0  0  0  0  # atno 8008 bound_to 7997
  155.5818  140.3491  155.4523 H   0  0  0  0  0  0  0  0  0  0  0  0  # atno 8009 bound_to 7997
  156.0313  140.1261  157.0244 H   0  0  0  0  0  0  0  0  0  0  0  0  # atno 8010 bound_to 7997
  139.9131  144.6259  150.8517 H   0  0  0  0  0  0  0  0  0  0  0  0  # atno 10167 bound_to 10162
  157.3238  130.7462  149.6802 H   0  0  0  0  0  0  0  0  0  0  0  0  # atno 10718 bound_to 10713
  153.4903  135.7017  153.5888 H   0  0  0  0  0  0  0  0  0  0  0  0  # atno 10763 bound_to 10752
  153.4064  135.3859  155.2021 H   0  0  0  0  0  0  0  0  0  0  0  0  # atno 10764 bound_to 10752
  154.8717  135.3894  154.4362 H   0  0  0  0  0  0  0  0  0  0  0  0  # atno 10765 bound_to 10752
  140.7574  133.8543  155.9096 H   0  0  0  0  0  0  0  0  0  0  0  0  # atno 11005 bound_to 11000
  145.3351  141.0275  143.3424 LP  0  0  0  0  0  0  0  0  0  0  0  0  # atno 17320 bound_to 7965
  144.8771  139.4955  143.6740 LP  0  0  0  0  0  0  0  0  0  0  0  0  # atno 17321 bound_to 7965
  140.7680  143.3351  151.2326 LP  0  0  0  0  0  0  0  0  0  0  0  0  # atno 17342 bound_to 10162
  139.6925  143.9667  152.2866 LP  0  0  0  0  0  0  0  0  0  0  0  0  # atno 17343 bound_to 10162
  155.9688  130.4215  150.4473 LP  0  0  0  0  0  0  0  0  0  0  0  0  # atno 17370 bound_to 10713
  157.2493  131.0543  151.2389 LP  0  0  0  0  0  0  0  0  0  0  0  0  # atno 17371 bound_to 10713
  140.9695  134.1550  157.4588 LP  0  0  0  0  0  0  0  0  0  0  0  0  # atno 17394 bound_to 11000
  139.8776  134.9973  156.5841 LP  0  0  0  0  0  0  0  0  0  0  0  0  # atno 17395 bound_to 11000

$$$$
