AV-unprocessed.smi:2923|AV-procd|sdf|11208|dock1
  -GOLD-   2272016103D 1   1.00000     0.00000
 Structure written by MMmdl.
 47 49  0  0  0  0  0  0  0  0  2 V2000
  150.2422  128.0712  154.2793 C   0  0  0  0  0  0  0  0  0  0  0  0
  149.2258  128.8879  153.6251 N   0  0  0  0  0  0  0  0  0  0  0  0
  148.1619  128.2599  152.8528 C   0  0  0  0  0  0  0  0  0  0  0  0
  149.2857  130.2948  153.7238 C   0  0  0  0  0  0  0  0  0  0  0  0
  150.2117  130.9759  154.5516 C   0  0  0  0  0  0  0  0  0  0  0  0
  150.2052  132.3849  154.5997 C   0  0  0  0  0  0  0  0  0  0  0  0
  149.2831  133.1113  153.8176 C   0  0  0  0  0  0  0  0  0  0  0  0
  149.3063  134.5291  153.9169 N   0  0  0  0  0  0  0  0  0  0  0  0
  149.6509  135.2948  154.9667 C   0  0  0  0  0  0  0  0  0  0  0  0
  149.9603  134.8788  156.0827 O   0  0  0  0  0  0  0  0  0  0  0  0
  149.6051  136.5955  154.6511 N   0  0  0  0  0  0  0  0  0  0  0  0
  149.9475  137.6788  155.5649 C   0  0  2  0  0  0  0  0  0  0  0  0
  149.5712  139.0518  155.0073 C   0  0  1  0  0  0  0  0  0  0  0  0
  148.5914  140.1032  155.3893 C   0  0  0  0  0  0  0  0  0  0  0  0
  149.5415  141.3262  155.2810 C   0  0  0  0  0  0  0  0  0  0  0  0
  150.8768  140.7814  155.1429 O   0  0  0  0  0  0  0  0  0  0  0  0
  150.7927  139.5200  155.7734 C   0  0  2  0  0  0  0  0  0  0  0  0
  151.4421  138.1619  155.4394 C   0  0  0  0  0  0  0  0  0  0  0  0
  152.3975  137.6198  156.5027 C   0  0  0  0  0  0  0  0  0  0  0  0
  152.1774  138.0309  154.0900 C   0  0  0  0  0  0  0  0  0  0  0  0
  148.3743  132.3856  153.0111 C   0  0  0  0  0  0  0  0  0  0  0  0
  148.4139  131.0358  152.9969 N   0  3  0  0  0  0  0  0  0  0  0  0
  151.2357  128.3220  153.9062 H   0  0  0  0  0  0  0  0  0  0  0  0
  150.0766  127.0093  154.0969 H   0  0  0  0  0  0  0  0  0  0  0  0
  150.2258  128.2308  155.3579 H   0  0  0  0  0  0  0  0  0  0  0  0
  148.1873  128.5987  151.8167 H   0  0  0  0  0  0  0  0  0  0  0  0
  147.1873  128.5039  153.2764 H   0  0  0  0  0  0  0  0  0  0  0  0
  148.2614  127.1744  152.8496 H   0  0  0  0  0  0  0  0  0  0  0  0
  150.9290  130.4403  155.1553 H   0  0  0  0  0  0  0  0  0  0  0  0
  150.9096  132.9019  155.2352 H   0  0  0  0  0  0  0  0  0  0  0  0
  149.0074  135.0250  153.0900 H   0  0  0  0  0  0  0  0  0  0  0  0
  149.3335  136.8559  153.7143 H   0  0  0  0  0  0  0  0  0  0  0  0
  149.6077  137.5249  156.5934 H   0  0  0  0  0  0  0  0  0  0  0  0
  149.7122  139.0726  153.9239 H   0  0  0  0  0  0  0  0  0  0  0  0
  147.7464  140.1662  154.7033 H   0  0  0  0  0  0  0  0  0  0  0  0
  148.2175  139.9639  156.4047 H   0  0  0  0  0  0  0  0  0  0  0  0
  149.3103  141.9461  154.4143 H   0  0  0  0  0  0  0  0  0  0  0  0
  149.4746  141.9507  156.1725 H   0  0  0  0  0  0  0  0  0  0  0  0
  150.6214  139.6378  156.8497 H   0  0  0  0  0  0  0  0  0  0  0  0
  153.3219  138.1968  156.5417 H   0  0  0  0  0  0  0  0  0  0  0  0
  152.6644  136.5802  156.3105 H   0  0  0  0  0  0  0  0  0  0  0  0
  151.9525  137.6564  157.4973 H   0  0  0  0  0  0  0  0  0  0  0  0
  153.0769  138.6471  154.0733 H   0  0  0  0  0  0  0  0  0  0  0  0
  151.5785  138.3309  153.2319 H   0  0  0  0  0  0  0  0  0  0  0  0
  152.4882  137.0018  153.9067 H   0  0  0  0  0  0  0  0  0  0  0  0
  147.6085  132.8195  152.3864 H   0  0  0  0  0  0  0  0  0  0  0  0
  147.7433  130.5451  152.4050 H   0  0  0  0  0  0  0  0  0  0  0  0
  1  2  1  0  0  0  0
  1 23  1  0  0  0  0
  1 24  1  0  0  0  0
  1 25  1  0  0  0  0
  2  3  1  0  0  0  0
  2  4  1  0  0  0  0
  3 26  1  0  0  0  0
  3 27  1  0  0  0  0
  3 28  1  0  0  0  0
  4 22  1  0  0  0  0
  4  5  2  0  0  0  0
  5  6  1  0  0  0  0
  5 29  1  0  0  0  0
  6  7  2  0  0  0  0
  6 30  1  0  0  0  0
  7  8  1  0  0  0  0
  7 21  1  0  0  0  0
  8  9  1  0  0  0  0
  8 31  1  0  0  0  0
  9 10  2  0  0  0  0
  9 11  1  0  0  0  0
 11 12  1  0  0  0  0
 11 32  1  0  0  0  0
 12 18  1  0  0  0  0
 12 13  1  0  0  0  0
 12 33  1  0  0  0  0
 13 17  1  0  0  0  0
 13 14  1  0  0  0  0
 13 34  1  0  0  0  0
 14 15  1  0  0  0  0
 14 35  1  0  0  0  0
 14 36  1  0  0  0  0
 15 16  1  0  0  0  0
 15 37  1  0  0  0  0
 15 38  1  0  0  0  0
 16 17  1  0  0  0  0
 17 18  1  0  0  0  0
 17 39  1  0  0  0  0
 18 19  1  0  0  0  0
 18 20  1  0  0  0  0
 19 40  1  0  0  0  0
 19 41  1  0  0  0  0
 19 42  1  0  0  0  0
 20 43  1  0  0  0  0
 20 44  1  0  0  0  0
 20 45  1  0  0  0  0
 21 22  2  0  0  0  0
 21 46  1  0  0  0  0
 22 47  1  0  0  0  0
M  CHG  1  22   1
M  END
> <s_m_source_file>
AV-unprocessed.smi

> <i_m_source_file_index>
2923

> <i_lp_mmshare_version>
43012

> <i_f3d_flags>
0

> <s_epik_input>
W0NIM11OKFtDSDNdKWMxW2NIXVtjSF1jKFtjSF1uMSlbTkhdQyg9TylbTkhdW0NASF0yQyhbQ0gzXSkoW0NIM10pW0NAQEhdKFtDQEhdMjMpT1tDSDJdW0NIMl0z

> <s_epik_cmdline>
J2VwaWtfcHl0aG9uJywgJy1waCcsICc3LjAnLCAnLXRuJywgJzgnLCAnLW1hJywgJzIwMCcsICctbWV0YWxfYmluZGluZycsICctaW1hZScsICc8aW5maWxlLm1hZT4nLCAnLW9tYWUnLCAnPG91dGZpbGUubWFlPic=

> <r_lp_tautomer_probability>
0.999994

> <r_epik_Ionization_Penalty>
0.252205

> <r_epik_Ionization_Penalty_Charging>
0.252185

> <r_epik_Ionization_Penalty_Neutral>
1.99479e-05

> <r_epik_State_Penalty>
0.243573

> <r_epik_Charging_Adjusted_Penalty>
0.495758

> <i_epik_Tot_Q>
1

> <i_epik_Tot_abs_Q>
1

> <r_epik_Metal_State_Penalty>
0.534372

> <b_epik_Metal_Only>
0

> <s_lp_Force_Field>
OPLS_2005

> <r_lp_Energy>
68.0101

> <b_lp_Chiralities_Consistent>
1

> <s_lp_Variant>
AV-unprocessed.smi:2923-7

> <Gold.Version>
5.8.1

> <Gold.Id.Protein>
6NUR|6NUR_protein|mol2

> <Gold.PLP.Fitness>
42.1809

> <Gold.PLP.PLP>
-34.4034

> <Gold.PLP.part.hbond>
-4.0000

> <Gold.PLP.part.metal>
0.0000

> <Gold.PLP.part.buried>
-3.7673

> <Gold.PLP.part.nonpolar>
-26.4991

> <Gold.PLP.part.repulsive>
0.1295

> <Gold.PLP.ligand.clash>
0.0000

> <Gold.PLP.ligand.torsion>
0.4364

> <Gold.PLP.Chemscore.Hbond>
2.7920

> <Gold.PLP.Chemscore.CHOScore>
0.0000

> <Gold.PLP.Chemscore.Metal>
0.0000

> <Gold.Chemscore.Hbonds>
donor molecule, donor type, donor heavy atom, donor atom, acceptor molecule, acceptor atom, score
      L1  H     8    31       P1  7948  0.85
      L1  H    11    32       P1  7948  0.93
      P1  H  7989  7998       L1    16  0.83

> <Gold.PLP.Chemscore.Internal.Correction>
0.2743

> <Gold.Rescore>
     Score         DG    S(hbond)    S(metal)    S(lipo)     H(rot)  DE(clash)    DE(int)     intcor
     17.55     -19.35       2.33        0.00      74.00       1.00       0.13       1.67       ----

> <Gold.Chemscore.Fitness>
17.5461

> <Gold.Chemscore.DG>
-19.3451

> <Gold.Chemscore.ZeroCoef>
-5.4800

> <Gold.Chemscore.Hbond>
2.3253

> <Gold.Chemscore.Metal>
0.0000

> <Gold.Chemscore.Lipo>
74.0045

> <Gold.Chemscore.Internal_Hbond>
0.0000

> <Gold.Chemscore.DEClash>
0.1317

> <Gold.Chemscore.DEInternal>
1.6673

> <Gold.Chemscore.Rot>
1.0000

> <Gold.Chemscore.Internal.Correction>
   9.000000E+99

> <Gold.Chemscore.Hbonds>
donor molecule, donor type, donor heavy atom, donor atom, acceptor molecule, acceptor atom, score
      L1  H     8    31       P1  7948  0.15
      L1  H    11    32       P1  7948  0.84
      P1  H  7989  7998       L1    16  0.76

> <Gold.Chemscore.Hbond.Weighted>
-7.7666

> <Gold.Chemscore.Metal.Weighted>
-0.0000

> <Gold.Chemscore.Lipo.Weighted>
-8.6585

> <Gold.Chemscore.Internal_Hbond.Weighted>
0.0000

> <Gold.Chemscore.DEClash.Weighted>
0.1317

> <Gold.Chemscore.DEInternal.Weighted>
1.6673

> <Gold.Chemscore.Rot.Weighted>
2.5600

> <Gold.Chemscore.Internal.Correction.Weighted>
   9.000000E+99

> <Gold.Protein.RotatedTorsions>
[ 6907 6896 6895 6894 ] final   59.73 input  -60.11 | X-H torsion
[ 7974 7965 7964 7962 ] final   32.12 input  175.53 | X-H torsion
[ 8008 7997 7996 7995 ] final  151.70 input   59.86 | X-H torsion
[ 10167 10162 10161 10158 ] final   60.23 input  -65.29 | X-H torsion
[ 10718 10713 10712 10709 ] final    8.77 input   66.30 | X-H torsion
[ 10763 10752 10751 10750 ] final -114.30 input  -60.55 | X-H torsion
[ 11005 11000 10999 10996 ] final    2.93 input  -57.11 | X-H torsion

> <Gold.Protein.ActiveResidues>
 VAL166  LYS551  ARG553  GLY616  TRP617  ASP618  TYR619  PRO620  LYS621  CYS622 
 ASP623  PHE694  ASN695  SER759  ASP760  ASP761  ALA762  ILE779  LEU786  VAL792 
 PHE793  MET794  SER795  GLU796  ALA797  LYS798  CYS799  TRP800  GLU811  SER814 

> <Gold.Protein.RotatedAtoms>
  152.3940  134.6395  160.0096 H   0  0  0  0  0  0  0  0  0  0  0  0  # atno 6907 bound_to 6896
  151.6620  133.3311  159.3184 H   0  0  0  0  0  0  0  0  0  0  0  0  # atno 6908 bound_to 6896
  150.7851  134.6872  159.6521 H   0  0  0  0  0  0  0  0  0  0  0  0  # atno 6909 bound_to 6896
  146.1507  139.6568  142.9101 H   0  0  0  0  0  0  0  0  0  0  0  0  # atno 7974 bound_to 7965
  156.2662  140.2041  156.6217 H   0  0  0  0  0  0  0  0  0  0  0  0  # atno 8008 bound_to 7997
  154.6752  140.0546  157.0232 H   0  0  0  0  0  0  0  0  0  0  0  0  # atno 8009 bound_to 7997
  155.1079  140.3212  155.4532 H   0  0  0  0  0  0  0  0  0  0  0  0  # atno 8010 bound_to 7997
  140.1678  144.4307  150.6676 H   0  0  0  0  0  0  0  0  0  0  0  0  # atno 10167 bound_to 10162
  156.9566  130.5917  149.5659 H   0  0  0  0  0  0  0  0  0  0  0  0  # atno 10718 bound_to 10713
  154.8434  135.4423  154.1484 H   0  0  0  0  0  0  0  0  0  0  0  0  # atno 10763 bound_to 10752
  153.2651  135.6940  153.7544 H   0  0  0  0  0  0  0  0  0  0  0  0  # atno 10764 bound_to 10752
  153.6805  135.3403  155.3152 H   0  0  0  0  0  0  0  0  0  0  0  0  # atno 10765 bound_to 10752
  140.5987  133.9856  155.8122 H   0  0  0  0  0  0  0  0  0  0  0  0  # atno 11005 bound_to 11000
  145.4830  141.0438  143.2635 LP  0  0  0  0  0  0  0  0  0  0  0  0  # atno 17320 bound_to 7965
  144.7900  139.6347  143.7117 LP  0  0  0  0  0  0  0  0  0  0  0  0  # atno 17321 bound_to 7965
  140.6602  143.2249  151.5875 LP  0  0  0  0  0  0  0  0  0  0  0  0  # atno 17342 bound_to 10162
  139.5351  144.2803  152.1235 LP  0  0  0  0  0  0  0  0  0  0  0  0  # atno 17343 bound_to 10162
  156.0340  130.5429  150.8607 LP  0  0  0  0  0  0  0  0  0  0  0  0  # atno 17370 bound_to 10713
  157.5686  131.0946  150.9452 LP  0  0  0  0  0  0  0  0  0  0  0  0  # atno 17371 bound_to 10713
  141.0886  133.9951  157.3273 LP  0  0  0  0  0  0  0  0  0  0  0  0  # atno 17394 bound_to 11000
  139.9242  135.0201  156.8173 LP  0  0  0  0  0  0  0  0  0  0  0  0  # atno 17395 bound_to 11000

$$$$
