#       Name:                AV-unprocessed.smi:1154
#       Creating user name   scv26
#       Creation time:       Fri Mar 27 03:47:41 2020


#       File generated by GOLD software.
#

@<TRIPOS>MOLECULE
AV-unprocessed.smi:1154
    47    48     1
SMALL
NO_CHARGES


@<TRIPOS>ATOM
      1 ****        -0.1635   2.3878  -3.9110 C.3            1 S1                 0.0000
      2 ****        -0.6206   2.1927  -2.4582 C.3            1 S1                 0.0000
      3 ****        -2.1517   2.2673  -2.3360 C.3            1 S1                 0.0000
      4 ****        -2.5899   2.0521  -0.8779 C.3            1 S1                 0.0000
      5 ****        -4.1181   2.1011  -0.7390 C.3            1 S1                 0.0000
      6 ****        -2.0166   0.7270  -0.3394 C.3            1 S1                 0.0000
      7 ****        -0.5366   0.6841  -0.4655 N.4            1 S1                 1.0000
      8 ****         0.0455  -0.5213   0.1779 C.3            1 S1                 0.0000
      9 ****         1.5214  -0.3266   0.5622 C.3            1 S1                 0.0000
     10 ****         2.0326  -1.5101   1.2392 N.am           1 S1                 0.0000
     11 ****         3.2219  -1.5734   1.8576 C.2            1 S1                 0.0000
     12 ****         4.0147  -0.6330   1.8877 O.2            1 S1                 0.0000
     13 ****         3.5808  -2.8970   2.5386 C.3            1 S1                 0.0000
     14 ****         2.5953  -3.2748   3.5358 N.pl3          1 S1                 0.0000
     15 ****         1.6146  -4.1791   3.4997 C.2            1 S1                 0.0000
     16 ****         0.9255  -4.1990   4.6301 N.2            1 S1                 0.0000
     17 ****         1.5537  -3.2332   5.3985 N.2            1 S1                 0.0000
     18 ****         2.5465  -2.6827   4.7553 N.2            1 S1                 0.0000
     19 ****        -0.1042   0.8623  -1.8774 C.3            1 S1                 0.0000
     20 ****        -0.5580   1.6059  -4.5608 H              1 S1                 0.0000
     21 ****         0.9241   2.3661  -3.9872 H              1 S1                 0.0000
     22 ****        -0.5009   3.3478  -4.3030 H              1 S1                 0.0000
     23 ****        -0.1939   3.0062  -1.8692 H              1 S1                 0.0000
     24 ****        -2.5064   3.2356  -2.6920 H              1 S1                 0.0000
     25 ****        -2.6121   1.5129  -2.9761 H              1 S1                 0.0000
     26 ****        -2.1799   2.8662  -0.2781 H              1 S1                 0.0000
     27 ****        -4.5945   1.3063  -1.3137 H              1 S1                 0.0000
     28 ****        -4.5144   3.0524  -1.0954 H              1 S1                 0.0000
     29 ****        -4.4226   1.9878   0.3019 H              1 S1                 0.0000
     30 ****        -2.2948   0.6186   0.7098 H              1 S1                 0.0000
     31 ****        -2.4513  -0.1209  -0.8718 H              1 S1                 0.0000
     32 ****        -0.5105  -0.7450   1.0898 H              1 S1                 0.0000
     33 ****        -0.0763  -1.3857  -0.4768 H              1 S1                 0.0000
     34 ****         2.1389  -0.1427  -0.3170 H              1 S1                 0.0000
     35 ****         1.6217   0.5417   1.2160 H              1 S1                 0.0000
     36 ****         1.4412  -2.3285   1.2527 H              1 S1                 0.0000
     37 ****         3.6487  -3.6867   1.7893 H              1 S1                 0.0000
     38 ****         4.5577  -2.8222   3.0187 H              1 S1                 0.0000
     39 ****         1.4031  -4.8122   2.6508 H              1 S1                 0.0000
     40 ****        -0.4639   0.0235  -2.4759 H              1 S1                 0.0000
     41 ****         0.9832   0.8495  -1.9412 H              1 S1                 0.0000
     42 ****        -0.1890   1.4790   0.0518 H              1 S1                 0.0000
     43 ****         3.7845   0.2296   1.4373 LP             1 S1                 0.0000
     44 ****         4.8892  -0.7313   2.3626 LP             1 S1                 0.0000
     45 ****         0.1420  -4.7720   4.8705 LP             1 S1                 0.0000
     46 ****         1.2808  -2.9886   6.3289 LP             1 S1                 0.0000
     47 ****         3.1533  -1.9642   5.0951 LP             1 S1                 0.0000
@<TRIPOS>BOND
    1    1    2 1     
    2    1   20 1     
    3    1   21 1     
    4    1   22 1     
    5    2   19 1     
    6    2    3 1     
    7    2   23 1     
    8    3    4 1     
    9    3   24 1     
   10    3   25 1     
   11    4    5 1     
   12    4    6 1     
   13    4   26 1     
   14    5   27 1     
   15    5   28 1     
   16    5   29 1     
   17    6    7 1     
   18    6   30 1     
   19    6   31 1     
   20    7    8 1     
   21    7   19 1     
   22    7   42 1     
   23    8    9 1     
   24    8   32 1     
   25    8   33 1     
   26    9   10 1     
   27    9   34 1     
   28    9   35 1     
   29   10   11 am    
   30   10   36 1     
   31   11   12 2     
   32   11   13 1     
   33   13   14 1     
   34   13   37 1     
   35   13   38 1     
   36   14   18 1     
   37   14   15 1     
   38   15   16 2     
   39   15   39 1     
   40   16   17 1     
   41   17   18 2     
   42   19   40 1     
   43   19   41 1     
   44   12   43 1     
   45   12   44 1     
   46   16   45 1     
   47   17   46 1     
   48   18   47 1     
@<TRIPOS>SUBSTRUCTURE
      1 S1             1
@<TRIPOS>SET
LONE_PAIRS      STATIC     ATOMS    <user>   **** ""
5 43 44 45 46 47
DONOR_HYDROGENS      STATIC     ATOMS    <user>   **** ""
2 42 36
ATOM$BLUE        STATIC     ATOMS    COLORGROUP SYSTEM
5 43 44 45 46 47
ATOM$RED        STATIC     ATOMS    COLORGROUP SYSTEM
2 42 36
