AV-unprocessed.smi:658|AV-procd|sdf|3232|dock3
  -GOLD-   22720 0173D 1   1.00000     0.00000
 Structure written by MMmdl.
 38 38  0  0  0  0  0  0  0  0  2 V2000
  145.3378  134.5075  154.4208 C   0  0  0  0  0  0  0  0  0  0  0  0
  146.1231  135.0855  153.2244 C   0  0  2  0  0  0  0  0  0  0  0  0
  146.6471  136.4304  153.5582 N   0  3  0  0  0  0  0  0  0  0  0  0
  147.0970  136.6083  154.9548 C   0  0  0  0  0  0  0  0  0  0  0  0
  148.2658  137.5982  155.0298 C   0  0  0  0  0  0  0  0  0  0  0  0
  149.6078  136.9036  155.2987 C   0  0  0  0  0  0  0  0  0  0  0  0
  151.0245  138.0711  155.1186 S   0  0  0  0  0  0  0  0  0  0  0  0
  152.0592  137.2201  154.0408 N   0  0  0  0  0  0  0  0  0  0  0  0
  150.5675  139.2839  154.4234 O   0  0  0  0  0  0  0  0  0  0  0  0
  151.7228  138.1593  156.4094 O   0  0  0  0  0  0  0  0  0  0  0  0
  145.2737  135.1615  151.9269 C   0  0  1  0  0  0  0  0  0  0  0  0
  145.8259  136.1873  150.9178 C   0  0  0  0  0  0  0  0  0  0  0  0
  145.1277  133.8615  151.2833 N   0  0  0  0  0  0  0  0  0  0  0  0
  144.0002  133.3170  150.7030 C   0  0  0  0  0  0  0  0  0  0  0  0
  144.3403  132.0829  150.2280 C   0  0  0  0  0  0  0  0  0  0  0  0
  145.7170  131.9583  150.5643 C   0  0  0  0  0  0  0  0  0  0  0  0
  146.1858  133.0237  151.1937 N   0  0  0  0  0  0  0  0  0  0  0  0
  144.9915  133.4925  154.2269 H   0  0  0  0  0  0  0  0  0  0  0  0
  144.4629  135.1169  154.6497 H   0  0  0  0  0  0  0  0  0  0  0  0
  145.9493  134.4557  155.3208 H   0  0  0  0  0  0  0  0  0  0  0  0
  146.9739  134.4307  153.0280 H   0  0  0  0  0  0  0  0  0  0  0  0
  147.4486  136.5973  152.9664 H   0  0  0  0  0  0  0  0  0  0  0  0
  146.2724  136.9690  155.5696 H   0  0  0  0  0  0  0  0  0  0  0  0
  147.4039  135.6428  155.3593 H   0  0  0  0  0  0  0  0  0  0  0  0
  148.3301  138.1571  154.0952 H   0  0  0  0  0  0  0  0  0  0  0  0
  148.0708  138.3288  155.8159 H   0  0  0  0  0  0  0  0  0  0  0  0
  149.6273  136.5189  156.3189 H   0  0  0  0  0  0  0  0  0  0  0  0
  149.7708  136.0593  154.6283 H   0  0  0  0  0  0  0  0  0  0  0  0
  152.9301  137.7143  153.8469 H   0  0  0  0  0  0  0  0  0  0  0  0
  151.5747  136.8600  153.2187 H   0  0  0  0  0  0  0  0  0  0  0  0
  144.2685  135.4832  152.2049 H   0  0  0  0  0  0  0  0  0  0  0  0
  145.8228  137.1975  151.3272 H   0  0  0  0  0  0  0  0  0  0  0  0
  145.2212  136.2063  150.0105 H   0  0  0  0  0  0  0  0  0  0  0  0
  146.8502  135.9515  150.6268 H   0  0  0  0  0  0  0  0  0  0  0  0
  143.0585  133.8455  150.6772 H   0  0  0  0  0  0  0  0  0  0  0  0
  143.7034  131.3767  149.7164 H   0  0  0  0  0  0  0  0  0  0  0  0
  146.3849  131.1318  150.3705 H   0  0  0  0  0  0  0  0  0  0  0  0
  145.9417  137.1201  153.3420 H   0  0  0  0  0  0  0  0  0  0  0  0
  1  2  1  0  0  0  0
  1 18  1  0  0  0  0
  1 19  1  0  0  0  0
  1 20  1  0  0  0  0
  2  3  1  0  0  0  0
  2 11  1  0  0  0  0
  2 21  1  0  0  0  0
  3  4  1  0  0  0  0
  3 22  1  0  0  0  0
  3 38  1  0  0  0  0
  4  5  1  0  0  0  0
  4 23  1  0  0  0  0
  4 24  1  0  0  0  0
  5  6  1  0  0  0  0
  5 25  1  0  0  0  0
  5 26  1  0  0  0  0
  6  7  1  0  0  0  0
  6 27  1  0  0  0  0
  6 28  1  0  0  0  0
  7  8  1  0  0  0  0
  7  9  2  0  0  0  0
  7 10  2  0  0  0  0
  8 29  1  0  0  0  0
  8 30  1  0  0  0  0
 11 12  1  0  0  0  0
 11 13  1  0  0  0  0
 11 31  1  0  0  0  0
 12 32  1  0  0  0  0
 12 33  1  0  0  0  0
 12 34  1  0  0  0  0
 13 17  1  0  0  0  0
 13 14  1  0  0  0  0
 14 15  2  0  0  0  0
 14 35  1  0  0  0  0
 15 16  1  0  0  0  0
 15 36  1  0  0  0  0
 16 17  2  0  0  0  0
 16 37  1  0  0  0  0
M  CHG  1   3   1
M  END
> <s_m_source_file>
AV-unprocessed.smi

> <i_m_source_file_index>
658

> <i_lp_mmshare_version>
43012

> <i_f3d_flags>
0

> <s_epik_input>
bjFbY0hdW2NIXVtjSF1uMVtDQEBIXShbQ0gzXSlbQ0BIXShbQ0gzXSlbTkhdW0NIMl1bQ0gyXVtDSDJdUyg9TykoPU8pW05IMl0=

> <s_epik_cmdline>
J2VwaWtfcHl0aG9uJywgJy1waCcsICc3LjAnLCAnLXRuJywgJzgnLCAnLW1hJywgJzIwMCcsICctbWV0YWxfYmluZGluZycsICctaW1hZScsICc8aW5maWxlLm1hZT4nLCAnLW9tYWUnLCAnPG91dGZpbGUubWFlPic=

> <r_lp_tautomer_probability>
1

> <r_epik_Ionization_Penalty>
0.00535781

> <r_epik_Ionization_Penalty_Charging>
0.00511015

> <r_epik_Ionization_Penalty_Neutral>
0.000247661

> <r_epik_State_Penalty>
-0

> <r_epik_Charging_Adjusted_Penalty>
0.00511015

> <i_epik_Tot_Q>
1

> <i_epik_Tot_abs_Q>
1

> <r_epik_Metal_State_Penalty>
0.149106

> <b_epik_Metal_Only>
0

> <s_lp_Force_Field>
OPLS_2005

> <r_lp_Energy>
7.04511

> <b_lp_Chiralities_Consistent>
1

> <s_lp_Variant>
AV-unprocessed.smi:658-3

> <Gold.Version>
5.8.1

> <Gold.Id.Protein>
6NUR|6NUR_protein|mol2

> <Gold.PLP.Fitness>
43.4435

> <Gold.PLP.PLP>
-25.9891

> <Gold.PLP.part.hbond>
-3.9929

> <Gold.PLP.part.metal>
0.0000

> <Gold.PLP.part.buried>
-1.2367

> <Gold.PLP.part.nonpolar>
-19.7502

> <Gold.PLP.part.repulsive>
0.3590

> <Gold.PLP.ligand.clash>
0.0000

> <Gold.PLP.ligand.torsion>
1.9031

> <Gold.PLP.Chemscore.Hbond>
4.9508

> <Gold.PLP.Chemscore.CHOScore>
2.0000

> <Gold.PLP.Chemscore.Metal>
0.0000

> <Gold.Chemscore.Hbonds>
donor molecule, donor type, donor heavy atom, donor atom, acceptor molecule, acceptor atom, score
      L1  H     3    22       P1  7948  2.00
      L1  H     8    30       P1  7949  1.00
      P1  H  7989  7998       L1     9  0.78
      P1  H 10752 10764       L1     8  0.10
      L1  C    14    35       P1 10186  1.00
      L1  C    16    37       P1 10747  0.83

> <Gold.PLP.Chemscore.Internal.Correction>
0.4083

> <Gold.Rescore>
     Score         DG    S(hbond)    S(metal)    S(lipo)     H(rot)  DE(clash)    DE(int)     intcor
     12.18     -13.66       2.98        0.00      53.33       3.13       0.05       1.43       ----

> <Gold.Chemscore.Fitness>
12.1779

> <Gold.Chemscore.DG>
-13.6563

> <Gold.Chemscore.ZeroCoef>
-5.4800

> <Gold.Chemscore.Hbond>
2.9798

> <Gold.Chemscore.Metal>
0.0000

> <Gold.Chemscore.Lipo>
53.3305

> <Gold.Chemscore.Internal_Hbond>
0.0000

> <Gold.Chemscore.DEClash>
0.0532

> <Gold.Chemscore.DEInternal>
1.4252

> <Gold.Chemscore.Rot>
3.1312

> <Gold.Chemscore.Internal.Correction>
   9.000000E+99

> <Gold.Chemscore.Hbonds>
donor molecule, donor type, donor heavy atom, donor atom, acceptor molecule, acceptor atom, score
      L1  H     3    22       P1  7948  0.99
      L1  H     8    30       P1  7949  0.92
      P1  H  7989  7998       L1     9  0.77

> <Gold.Chemscore.Hbond.Weighted>
-9.9526

> <Gold.Chemscore.Metal.Weighted>
-0.0000

> <Gold.Chemscore.Lipo.Weighted>
-6.2397

> <Gold.Chemscore.Internal_Hbond.Weighted>
0.0000

> <Gold.Chemscore.DEClash.Weighted>
0.0532

> <Gold.Chemscore.DEInternal.Weighted>
1.4252

> <Gold.Chemscore.Rot.Weighted>
8.0160

> <Gold.Chemscore.Internal.Correction.Weighted>
   9.000000E+99

> <Gold.Protein.RotatedTorsions>
[ 6907 6896 6895 6894 ] final  -75.95 input  -60.11 | X-H torsion
[ 7974 7965 7964 7962 ] final  166.29 input  175.53 | X-H torsion
[ 8008 7997 7996 7995 ] final -151.79 input   59.86 | X-H torsion
[ 10167 10162 10161 10158 ] final -167.86 input  -65.29 | X-H torsion
[ 10718 10713 10712 10709 ] final  115.46 input   66.30 | X-H torsion
[ 10763 10752 10751 10750 ] final  -96.11 input  -60.55 | X-H torsion
[ 11005 11000 10999 10996 ] final    6.45 input  -57.11 | X-H torsion

> <Gold.Protein.ActiveResidues>
 VAL166  LYS551  ARG553  GLY616  TRP617  ASP618  TYR619  PRO620  LYS621  CYS622 
 ASP623  PHE694  ASN695  SER759  ASP760  ASP761  ALA762  ILE779  LEU786  VAL792 
 PHE793  MET794  SER795  GLU796  ALA797  LYS798  CYS799  TRP800  GLU811  SER814 

> <Gold.Protein.RotatedAtoms>
  150.7043  134.4645  159.5396 H   0  0  0  0  0  0  0  0  0  0  0  0  # atno 6907 bound_to 6896
  152.2313  134.8316  160.0482 H   0  0  0  0  0  0  0  0  0  0  0  0  # atno 6908 bound_to 6896
  151.9130  133.3531  159.3907 H   0  0  0  0  0  0  0  0  0  0  0  0  # atno 6909 bound_to 6896
  144.7468  139.8593  143.6379 H   0  0  0  0  0  0  0  0  0  0  0  0  # atno 7974 bound_to 7965
  155.6450  140.0706  157.2606 H   0  0  0  0  0  0  0  0  0  0  0  0  # atno 8008 bound_to 7997
  154.4175  140.1743  156.1663 H   0  0  0  0  0  0  0  0  0  0  0  0  # atno 8009 bound_to 7997
  155.9824  140.3352  155.6678 H   0  0  0  0  0  0  0  0  0  0  0  0  # atno 8010 bound_to 7997
  139.6022  144.0987  152.1755 H   0  0  0  0  0  0  0  0  0  0  0  0  # atno 10167 bound_to 10162
  157.6221  131.1012  150.7332 H   0  0  0  0  0  0  0  0  0  0  0  0  # atno 10718 bound_to 10713
  154.7210  135.5096  153.8811 H   0  0  0  0  0  0  0  0  0  0  0  0  # atno 10763 bound_to 10752
  153.0862  135.6646  153.9953 H   0  0  0  0  0  0  0  0  0  0  0  0  # atno 10764 bound_to 10752
  153.9776  135.3032  155.3402 H   0  0  0  0  0  0  0  0  0  0  0  0  # atno 10765 bound_to 10752
  140.5593  134.0208  155.7966 H   0  0  0  0  0  0  0  0  0  0  0  0  # atno 11005 bound_to 11000
  146.1360  139.4405  143.0139 LP  0  0  0  0  0  0  0  0  0  0  0  0  # atno 17320 bound_to 7965
  145.7091  141.0112  143.1463 LP  0  0  0  0  0  0  0  0  0  0  0  0  # atno 17321 bound_to 7965
  140.0586  144.5875  150.7281 LP  0  0  0  0  0  0  0  0  0  0  0  0  # atno 17342 bound_to 10162
  140.7258  143.2635  151.4124 LP  0  0  0  0  0  0  0  0  0  0  0  0  # atno 17343 bound_to 10162
  156.7688  130.4822  149.5422 LP  0  0  0  0  0  0  0  0  0  0  0  0  # atno 17370 bound_to 10713
  156.1372  130.6219  151.0416 LP  0  0  0  0  0  0  0  0  0  0  0  0  # atno 17371 bound_to 10713
  141.1124  133.9595  157.2885 LP  0  0  0  0  0  0  0  0  0  0  0  0  # atno 17394 bound_to 11000
  139.9416  135.0190  156.8724 LP  0  0  0  0  0  0  0  0  0  0  0  0  # atno 17395 bound_to 11000

$$$$
