AV-unprocessed.smi:356|AV-procd|sdf|2413|dock1
  -GOLD-   2262022343D 1   1.00000     0.00000
 Structure written by MMmdl.
 42 44  0  0  0  0  0  0  0  0  2 V2000
  149.1724  141.4866  154.4271 C   0  0  0  0  0  0  0  0  0  0  0  0
  150.0163  141.5022  155.6572 C   0  0  0  0  0  0  0  0  0  0  0  0
  150.0039  142.4614  156.6256 N   0  3  0  0  0  0  0  0  0  0  0  0
  150.9277  142.1391  157.6213 C   0  0  0  0  0  0  0  0  0  0  0  0
  151.2716  142.8017  158.7957 C   0  0  0  0  0  0  0  0  0  0  0  0
  152.2620  142.1959  159.5970 C   0  0  0  0  0  0  0  0  0  0  0  0
  152.8692  140.9800  159.2207 C   0  0  0  0  0  0  0  0  0  0  0  0
  152.5125  140.3178  158.0274 C   0  0  0  0  0  0  0  0  0  0  0  0
  151.5325  140.9234  157.2418 C   0  0  0  0  0  0  0  0  0  0  0  0
  150.9386  140.5678  156.0265 N   0  0  0  0  0  0  0  0  0  0  0  0
  151.3546  139.3242  155.3598 C   0  0  0  0  0  0  0  0  0  0  0  0
  150.1634  138.4451  154.9304 C   0  0  1  0  0  0  0  0  0  0  0  0
  150.1230  138.3749  153.5190 O   0  0  0  0  0  0  0  0  0  0  0  0
  150.2903  137.0141  155.4886 C   0  0  0  0  0  0  0  0  0  0  0  0
  149.5102  136.7345  156.6959 N   0  0  0  0  0  0  0  0  0  0  0  0
  150.0321  137.4137  157.8811 C   0  0  0  0  0  0  0  0  0  0  0  0
  149.2167  137.0777  159.1422 C   0  0  0  0  0  0  0  0  0  0  0  0
  149.1906  135.6676  159.3356 O   0  0  0  0  0  0  0  0  0  0  0  0
  148.6430  134.9720  158.2207 C   0  0  0  0  0  0  0  0  0  0  0  0
  149.4600  135.2998  156.9594 C   0  0  0  0  0  0  0  0  0  0  0  0
  148.5081  142.3508  154.4063 H   0  0  0  0  0  0  0  0  0  0  0  0
  148.5651  140.5820  154.3976 H   0  0  0  0  0  0  0  0  0  0  0  0
  149.8028  141.5121  153.5380 H   0  0  0  0  0  0  0  0  0  0  0  0
  150.8080  143.7330  159.0860 H   0  0  0  0  0  0  0  0  0  0  0  0
  152.5620  142.6734  160.5186 H   0  0  0  0  0  0  0  0  0  0  0  0
  153.6241  140.5462  159.8605 H   0  0  0  0  0  0  0  0  0  0  0  0
  152.9826  139.3866  157.7475 H   0  0  0  0  0  0  0  0  0  0  0  0
  151.9554  139.5982  154.4916 H   0  0  0  0  0  0  0  0  0  0  0  0
  152.0193  138.7794  156.0314 H   0  0  0  0  0  0  0  0  0  0  0  0
  149.2437  138.9140  155.2767 H   0  0  0  0  0  0  0  0  0  0  0  0
  149.6653  137.5844  153.2750 H   0  0  0  0  0  0  0  0  0  0  0  0
  149.9933  136.3198  154.7009 H   0  0  0  0  0  0  0  0  0  0  0  0
  151.3416  136.8005  155.6877 H   0  0  0  0  0  0  0  0  0  0  0  0
  151.0740  137.1320  158.0407 H   0  0  0  0  0  0  0  0  0  0  0  0
  150.0173  138.4934  157.7406 H   0  0  0  0  0  0  0  0  0  0  0  0
  149.6617  137.5494  160.0184 H   0  0  0  0  0  0  0  0  0  0  0  0
  148.1977  137.4585  159.0563 H   0  0  0  0  0  0  0  0  0  0  0  0
  148.6678  133.9008  158.4214 H   0  0  0  0  0  0  0  0  0  0  0  0
  147.5963  135.2497  158.0866 H   0  0  0  0  0  0  0  0  0  0  0  0
  149.0225  134.7815  156.1054 H   0  0  0  0  0  0  0  0  0  0  0  0
  150.4724  134.9092  157.0754 H   0  0  0  0  0  0  0  0  0  0  0  0
  149.4046  143.2765  156.6047 H   0  0  0  0  0  0  0  0  0  0  0  0
  1  2  1  0  0  0  0
  1 21  1  0  0  0  0
  1 22  1  0  0  0  0
  1 23  1  0  0  0  0
  2 10  1  0  0  0  0
  2  3  2  0  0  0  0
  3  4  1  0  0  0  0
  3 42  1  0  0  0  0
  4  9  2  0  0  0  0
  4  5  1  0  0  0  0
  5  6  2  0  0  0  0
  5 24  1  0  0  0  0
  6  7  1  0  0  0  0
  6 25  1  0  0  0  0
  7  8  2  0  0  0  0
  7 26  1  0  0  0  0
  8  9  1  0  0  0  0
  8 27  1  0  0  0  0
  9 10  1  0  0  0  0
 10 11  1  0  0  0  0
 11 12  1  0  0  0  0
 11 28  1  0  0  0  0
 11 29  1  0  0  0  0
 12 13  1  0  0  0  0
 12 14  1  0  0  0  0
 12 30  1  0  0  0  0
 13 31  1  0  0  0  0
 14 15  1  0  0  0  0
 14 32  1  0  0  0  0
 14 33  1  0  0  0  0
 15 20  1  0  0  0  0
 15 16  1  0  0  0  0
 16 17  1  0  0  0  0
 16 34  1  0  0  0  0
 16 35  1  0  0  0  0
 17 18  1  0  0  0  0
 17 36  1  0  0  0  0
 17 37  1  0  0  0  0
 18 19  1  0  0  0  0
 19 20  1  0  0  0  0
 19 38  1  0  0  0  0
 19 39  1  0  0  0  0
 20 40  1  0  0  0  0
 20 41  1  0  0  0  0
M  CHG  1   3   1
M  END
> <s_m_source_file>
AV-unprocessed.smi

> <i_m_source_file_index>
356

> <i_lp_mmshare_version>
43012

> <i_f3d_flags>
0

> <s_epik_input>
W2NIXTFbY0hdW2NIXVtjSF1jKGMxMiluKGMobjIpW0NIM10pW0NIMl1bQ0BIXShbT0hdKVtDSDJdTjNbQ0gyXVtDSDJdT1tDSDJdW0NIMl0z

> <s_epik_cmdline>
J2VwaWtfcHl0aG9uJywgJy1waCcsICc3LjAnLCAnLXRuJywgJzgnLCAnLW1hJywgJzIwMCcsICctbWV0YWxfYmluZGluZycsICctaW1hZScsICc8aW5maWxlLm1hZT4nLCAnLW9tYWUnLCAnPG91dGZpbGUubWFlPic=

> <r_epik_Ionization_Penalty>
1.35865

> <r_epik_Ionization_Penalty_Charging>
1.14429

> <r_epik_Ionization_Penalty_Neutral>
0.214359

> <r_epik_State_Penalty>
1.39809

> <r_epik_Charging_Adjusted_Penalty>
2.54238

> <i_epik_Tot_Q>
1

> <i_epik_Tot_abs_Q>
1

> <r_epik_Metal_State_Penalty>
5.40564

> <b_epik_Metal_Only>
0

> <s_lp_Force_Field>
OPLS_2005

> <r_lp_Energy>
32.3817

> <b_lp_Chiralities_Consistent>
1

> <s_lp_Variant>
AV-unprocessed.smi:356-6

> <Gold.Version>
5.8.1

> <Gold.Id.Protein>
6NUR|6NUR_protein|mol2

> <Gold.PLP.Fitness>
44.9662

> <Gold.PLP.PLP>
-35.7692

> <Gold.PLP.part.hbond>
-4.1388

> <Gold.PLP.part.metal>
0.0000

> <Gold.PLP.part.buried>
-2.5072

> <Gold.PLP.part.nonpolar>
-28.2392

> <Gold.PLP.part.repulsive>
0.0623

> <Gold.PLP.ligand.clash>
0.0000

> <Gold.PLP.ligand.torsion>
1.4601

> <Gold.PLP.Chemscore.Hbond>
3.9760

> <Gold.PLP.Chemscore.CHOScore>
0.0000

> <Gold.PLP.Chemscore.Metal>
0.0000

> <Gold.Chemscore.Hbonds>
donor molecule, donor type, donor heavy atom, donor atom, acceptor molecule, acceptor atom, score
      L1  H     3    42       P1  8028  1.86
      L1  H    13    31       P1  7948  0.96
      P1  H  6896  6907       L1    18  1.00

> <Gold.PLP.Chemscore.Internal.Correction>
0.1891

> <Gold.Rescore>
     Score         DG    S(hbond)    S(metal)    S(lipo)     H(rot)  DE(clash)    DE(int)     intcor
     17.24     -18.94       2.59        0.00      86.08       2.05       0.27       1.42       ----

> <Gold.Chemscore.Fitness>
17.2390

> <Gold.Chemscore.DG>
-18.9360

> <Gold.Chemscore.ZeroCoef>
-5.4800

> <Gold.Chemscore.Hbond>
2.5874

> <Gold.Chemscore.Metal>
0.0000

> <Gold.Chemscore.Lipo>
86.0841

> <Gold.Chemscore.Internal_Hbond>
0.0000

> <Gold.Chemscore.DEClash>
0.2740

> <Gold.Chemscore.DEInternal>
1.4230

> <Gold.Chemscore.Rot>
2.0539

> <Gold.Chemscore.Internal.Correction>
   9.000000E+99

> <Gold.Chemscore.Hbonds>
donor molecule, donor type, donor heavy atom, donor atom, acceptor molecule, acceptor atom, score
      L1  H     3    42       P1  8028  0.89
      L1  H    13    31       P1  7948  0.65
      P1  H  6896  6907       L1    18  0.39

> <Gold.Chemscore.Hbond.Weighted>
-8.6420

> <Gold.Chemscore.Metal.Weighted>
-0.0000

> <Gold.Chemscore.Lipo.Weighted>
-10.0718

> <Gold.Chemscore.Internal_Hbond.Weighted>
0.0000

> <Gold.Chemscore.DEClash.Weighted>
0.2740

> <Gold.Chemscore.DEInternal.Weighted>
1.4230

> <Gold.Chemscore.Rot.Weighted>
5.2579

> <Gold.Chemscore.Internal.Correction.Weighted>
   9.000000E+99

> <Gold.Protein.RotatedTorsions>
[ 6907 6896 6895 6894 ] final  -57.15 input  -60.11 | X-H torsion
[ 7974 7965 7964 7962 ] final -112.85 input  175.53 | X-H torsion
[ 8008 7997 7996 7995 ] final -175.60 input   59.86 | X-H torsion
[ 10167 10162 10161 10158 ] final  -92.97 input  -65.29 | X-H torsion
[ 10718 10713 10712 10709 ] final -168.14 input   66.30 | X-H torsion
[ 10763 10752 10751 10750 ] final   43.53 input  -60.55 | X-H torsion
[ 11005 11000 10999 10996 ] final  161.18 input  -57.11 | X-H torsion

> <Gold.Protein.ActiveResidues>
 VAL166  LYS551  ARG553  GLY616  TRP617  ASP618  TYR619  PRO620  LYS621  CYS622 
 ASP623  PHE694  ASN695  SER759  ASP760  ASP761  ALA762  ILE779  LEU786  VAL792 
 PHE793  MET794  SER795  GLU796  ALA797  LYS798  CYS799  TRP800  GLU811  SER814 

> <Gold.Protein.RotatedAtoms>
  150.8109  134.7264  159.6687 H   0  0  0  0  0  0  0  0  0  0  0  0  # atno 6907 bound_to 6896
  152.4229  134.5918  159.9986 H   0  0  0  0  0  0  0  0  0  0  0  0  # atno 6908 bound_to 6896
  151.6128  133.3308  159.3107 H   0  0  0  0  0  0  0  0  0  0  0  0  # atno 6909 bound_to 6896
  145.1391  140.8767  143.3713 H   0  0  0  0  0  0  0  0  0  0  0  0  # atno 7974 bound_to 7965
  155.9846  140.1188  157.0695 H   0  0  0  0  0  0  0  0  0  0  0  0  # atno 8008 bound_to 7997
  154.4193  140.1138  156.5550 H   0  0  0  0  0  0  0  0  0  0  0  0  # atno 8009 bound_to 7997
  155.6425  140.3473  155.4722 H   0  0  0  0  0  0  0  0  0  0  0  0  # atno 8010 bound_to 7997
  140.3294  143.3003  151.9958 H   0  0  0  0  0  0  0  0  0  0  0  0  # atno 10167 bound_to 10162
  156.6927  130.9165  151.3071 H   0  0  0  0  0  0  0  0  0  0  0  0  # atno 10718 bound_to 10713
  152.9859  135.6098  154.3127 H   0  0  0  0  0  0  0  0  0  0  0  0  # atno 10763 bound_to 10752
  154.2842  135.2776  155.2685 H   0  0  0  0  0  0  0  0  0  0  0  0  # atno 10764 bound_to 10752
  154.5011  135.5866  153.6588 H   0  0  0  0  0  0  0  0  0  0  0  0  # atno 10765 bound_to 10752
  140.2133  134.8251  157.3143 H   0  0  0  0  0  0  0  0  0  0  0  0  # atno 11005 bound_to 11000
  145.0552  139.3149  143.5908 LP  0  0  0  0  0  0  0  0  0  0  0  0  # atno 17320 bound_to 7965
  146.3507  139.9974  142.8679 LP  0  0  0  0  0  0  0  0  0  0  0  0  # atno 17321 bound_to 7965
  139.4859  144.6247  151.7188 LP  0  0  0  0  0  0  0  0  0  0  0  0  # atno 17342 bound_to 10162
  140.5411  144.0578  150.6088 LP  0  0  0  0  0  0  0  0  0  0  0  0  # atno 17343 bound_to 10162
  157.7003  130.9326  150.0765 LP  0  0  0  0  0  0  0  0  0  0  0  0  # atno 17370 bound_to 10713
  156.1786  130.3649  149.9066 LP  0  0  0  0  0  0  0  0  0  0  0  0  # atno 17371 bound_to 10713
  140.1928  134.4351  155.7706 LP  0  0  0  0  0  0  0  0  0  0  0  0  # atno 17394 bound_to 11000
  141.2225  133.7035  156.8055 LP  0  0  0  0  0  0  0  0  0  0  0  0  # atno 17395 bound_to 11000

$$$$
