#       Name:                AV-unprocessed.smi:1669
#       Creating user name   scv26
#       Creation time:       Fri Mar 27 07:41:54 2020


#       File generated by GOLD software.
#

@<TRIPOS>MOLECULE
AV-unprocessed.smi:1669
    53    55     1
SMALL
NO_CHARGES


@<TRIPOS>ATOM
      1 ****        -1.8004   1.1698   1.9421 C.3            1 S1                 0.0000
      2 ****        -1.9365   0.6887   0.5446 N.4            1 S1                 1.0000
      3 ****        -3.3308   0.7811   0.0410 C.3            1 S1                 0.0000
      4 ****        -3.7928   2.2195  -0.1135 C.ar           1 S1                 0.0000
      5 ****        -4.6835   2.7887   0.8217 C.ar           1 S1                 0.0000
      6 ****        -5.1068   4.1238   0.6731 C.ar           1 S1                 0.0000
      7 ****        -4.6430   4.8937  -0.4110 C.ar           1 S1                 0.0000
      8 ****        -3.7560   4.3286  -1.3474 C.ar           1 S1                 0.0000
      9 ****        -3.3322   2.9936  -1.1996 C.ar           1 S1                 0.0000
     10 ****        -1.3521  -0.6632   0.3399 C.3            1 S1                 0.0000
     11 ****         0.1865  -0.6350   0.2418 C.3            1 S1                 0.0000
     12 ****         0.5540   0.1160  -0.8992 O.3            1 S1                 0.0000
     13 ****         0.7831  -2.0539   0.1427 C.3            1 S1                 0.0000
     14 ****         2.2554  -2.0539   0.1186 N.pl3          1 S1                 0.0000
     15 ****         3.1480  -2.0312   1.1512 C.2            1 S1                 0.0000
     16 ****         2.8287  -2.0107   2.6123 C.3            1 S1                 0.0000
     17 ****         3.8355  -1.3962   3.3878 O.3            1 S1                 0.0000
     18 ****         4.3967  -2.0417   0.6043 N.pl3          1 S1                 1.0000
     19 ****         4.3056  -2.0694  -0.7870 C.ar           1 S1                 0.0000
     20 ****         5.2967  -2.0851  -1.7633 C.ar           1 S1                 0.0000
     21 ****         4.8630  -2.1126  -3.1048 C.ar           1 S1                 0.0000
     22 ****         3.4918  -2.1249  -3.4322 C.ar           1 S1                 0.0000
     23 ****         2.4962  -2.1103  -2.4332 C.ar           1 S1                 0.0000
     24 ****         2.9324  -2.0809  -1.1081 C.ar           1 S1                 0.0000
     25 ****        -2.3887   0.5555   2.6248 H              1 S1                 0.0000
     26 ****        -2.1381   2.2013   2.0392 H              1 S1                 0.0000
     27 ****        -0.7642   1.1478   2.2761 H              1 S1                 0.0000
     28 ****        -3.4079   0.3126  -0.9412 H              1 S1                 0.0000
     29 ****        -4.0039   0.2310   0.7007 H              1 S1                 0.0000
     30 ****        -5.0436   2.2050   1.6564 H              1 S1                 0.0000
     31 ****        -5.7881   4.5574   1.3904 H              1 S1                 0.0000
     32 ****        -4.9687   5.9172  -0.5251 H              1 S1                 0.0000
     33 ****        -3.4014   4.9193  -2.1793 H              1 S1                 0.0000
     34 ****        -2.6517   2.5661  -1.9217 H              1 S1                 0.0000
     35 ****        -1.6744  -1.3191   1.1503 H              1 S1                 0.0000
     36 ****        -1.7408  -1.1065  -0.5782 H              1 S1                 0.0000
     37 ****         0.6121  -0.1443   1.1163 H              1 S1                 0.0000
     38 ****         0.2338  -0.3264  -1.6706 H              1 S1                 0.0000
     39 ****         0.4777  -2.6453   1.0067 H              1 S1                 0.0000
     40 ****         0.4065  -2.5850  -0.7317 H              1 S1                 0.0000
     41 ****         1.8911  -1.4798   2.7765 H              1 S1                 0.0000
     42 ****         2.6872  -3.0344   2.9593 H              1 S1                 0.0000
     43 ****         3.5795  -1.4305   4.2972 H              1 S1                 0.0000
     44 ****         6.3478  -2.0757  -1.5143 H              1 S1                 0.0000
     45 ****         5.5966  -2.1247  -3.8980 H              1 S1                 0.0000
     46 ****         3.1975  -2.1456  -4.4715 H              1 S1                 0.0000
     47 ****         1.4504  -2.1177  -2.7002 H              1 S1                 0.0000
     48 ****        -1.3945   1.3132  -0.0361 H              1 S1                 0.0000
     49 ****         5.2485  -2.0270   1.1508 H              1 S1                 0.0000
     50 ****         1.5500   0.1927  -0.9447 LP             1 S1                 0.0000
     51 ****         0.1514   1.0298  -0.8442 LP             1 S1                 0.0000
     52 ****         3.9445  -0.4434   3.1044 LP             1 S1                 0.0000
     53 ****         4.7005  -1.8821   3.2629 LP             1 S1                 0.0000
@<TRIPOS>BOND
    1    1    2 1     
    2    1   25 1     
    3    1   26 1     
    4    1   27 1     
    5    2    3 1     
    6    2   10 1     
    7    2   48 1     
    8    3    4 1     
    9    3   28 1     
   10    3   29 1     
   11    4    9 ar    
   12    4    5 ar    
   13    5    6 ar    
   14    5   30 1     
   15    6    7 ar    
   16    6   31 1     
   17    7    8 ar    
   18    7   32 1     
   19    8    9 ar    
   20    8   33 1     
   21    9   34 1     
   22   10   11 1     
   23   10   35 1     
   24   10   36 1     
   25   11   12 1     
   26   11   13 1     
   27   11   37 1     
   28   12   38 1     
   29   13   14 1     
   30   13   39 1     
   31   13   40 1     
   32   14   24 1     
   33   14   15 1     
   34   15   16 1     
   35   15   18 2     
   36   16   17 1     
   37   16   41 1     
   38   16   42 1     
   39   17   43 1     
   40   18   19 1     
   41   18   49 1     
   42   19   24 ar    
   43   19   20 ar    
   44   20   21 ar    
   45   20   44 1     
   46   21   22 ar    
   47   21   45 1     
   48   22   23 ar    
   49   22   46 1     
   50   23   24 ar    
   51   23   47 1     
   52   12   50 1     
   53   12   51 1     
   54   17   52 1     
   55   17   53 1     
@<TRIPOS>SUBSTRUCTURE
      1 S1             1
@<TRIPOS>SET
LONE_PAIRS      STATIC     ATOMS    <user>   **** ""
4 50 51 52 53
DONOR_HYDROGENS      STATIC     ATOMS    <user>   **** ""
4 48 38 43 49
ATOM$BLUE        STATIC     ATOMS    COLORGROUP SYSTEM
4 50 51 52 53
ATOM$RED        STATIC     ATOMS    COLORGROUP SYSTEM
4 48 38 43 49
