AV-unprocessed.smi:3011|AV-procd|sdf|11458|dock9
  -GOLD-   2272016393D 1   1.00000     0.00000
 Structure written by MMmdl.
 46 48  0  0  0  0  0  0  0  0  1 V2000
  151.3059  143.3582  157.9004 C   0  0  0  0  0  0  0  0  0  0  0  0
  152.0550  142.3744  158.5984 O   0  0  0  0  0  0  0  0  0  0  0  0
  152.4091  142.6262  159.9077 C   0  0  0  0  0  0  0  0  0  0  0  0
  152.0697  143.8188  160.5956 C   0  0  0  0  0  0  0  0  0  0  0  0
  152.4534  144.0048  161.9359 C   0  0  0  0  0  0  0  0  0  0  0  0
  153.1776  143.0033  162.6039 C   0  0  0  0  0  0  0  0  0  0  0  0
  153.5199  141.8163  161.9316 C   0  0  0  0  0  0  0  0  0  0  0  0
  153.1409  141.6191  160.5794 C   0  0  0  0  0  0  0  0  0  0  0  0
  153.4511  140.4844  159.8587 O   0  0  0  0  0  0  0  0  0  0  0  0
  154.0792  139.4046  160.5355 C   0  0  0  0  0  0  0  0  0  0  0  0
  153.8558  138.1020  159.7549 C   0  0  0  0  0  0  0  0  0  0  0  0
  154.6455  136.9957  160.2802 N   0  0  0  0  0  0  0  0  0  0  0  0
  155.4330  136.1055  159.6184 C   0  0  0  0  0  0  0  0  0  0  0  0
  155.6373  136.1337  158.1246 C   0  0  1  0  0  0  0  0  0  0  0  0
  156.2473  137.4603  157.6493 C   0  0  0  0  0  0  0  0  0  0  0  0
  156.5041  135.0191  157.7582 N   0  0  0  0  0  0  0  0  0  0  0  0
  156.9442  134.7852  156.5159 C   0  0  0  0  0  0  0  0  0  0  0  0
  156.6568  135.4952  155.5559 O   0  0  0  0  0  0  0  0  0  0  0  0
  156.0004  135.1657  160.3796 N   0  0  0  0  0  0  0  0  0  0  0  0
  155.5735  135.4949  161.6491 C   0  0  0  0  0  0  0  0  0  0  0  0
  155.8445  134.8863  162.8954 C   0  0  0  0  0  0  0  0  0  0  0  0
  155.2885  135.4097  164.0811 C   0  0  0  0  0  0  0  0  0  0  0  0
  154.4551  136.5457  164.0367 C   0  0  0  0  0  0  0  0  0  0  0  0
  154.1706  137.1651  162.8044 C   0  0  0  0  0  0  0  0  0  0  0  0
  154.7281  136.6385  161.6233 C   0  0  0  0  0  0  0  0  0  0  0  0
  151.1225  143.0139  156.8828 H   0  0  0  0  0  0  0  0  0  0  0  0
  151.8494  144.3016  157.8353 H   0  0  0  0  0  0  0  0  0  0  0  0
  150.3364  143.5289  158.3700 H   0  0  0  0  0  0  0  0  0  0  0  0
  151.5109  144.6087  160.1174 H   0  0  0  0  0  0  0  0  0  0  0  0
  152.1897  144.9162  162.4519 H   0  0  0  0  0  0  0  0  0  0  0  0
  153.4723  143.1452  163.6333 H   0  0  0  0  0  0  0  0  0  0  0  0
  154.0792  141.0723  162.4773 H   0  0  0  0  0  0  0  0  0  0  0  0
  155.1496  139.5861  160.6417 H   0  0  0  0  0  0  0  0  0  0  0  0
  153.6544  139.3015  161.5351 H   0  0  0  0  0  0  0  0  0  0  0  0
  152.8036  137.8234  159.8170 H   0  0  0  0  0  0  0  0  0  0  0  0
  154.0581  138.2363  158.6930 H   0  0  0  0  0  0  0  0  0  0  0  0
  154.6862  136.0191  157.6072 H   0  0  0  0  0  0  0  0  0  0  0  0
  155.6173  138.3030  157.9349 H   0  0  0  0  0  0  0  0  0  0  0  0
  156.3536  137.4770  156.5644 H   0  0  0  0  0  0  0  0  0  0  0  0
  157.2347  137.6264  158.0814 H   0  0  0  0  0  0  0  0  0  0  0  0
  156.7733  134.3810  158.4926 H   0  0  0  0  0  0  0  0  0  0  0  0
  157.5850  133.8910  156.4684 H   0  0  0  0  0  0  0  0  0  0  0  0
  156.4819  134.0155  162.9387 H   0  0  0  0  0  0  0  0  0  0  0  0
  155.5025  134.9374  165.0286 H   0  0  0  0  0  0  0  0  0  0  0  0
  154.0335  136.9411  164.9492 H   0  0  0  0  0  0  0  0  0  0  0  0
  153.5324  138.0353  162.7689 H   0  0  0  0  0  0  0  0  0  0  0  0
  1  2  1  0  0  0  0
  1 26  1  0  0  0  0
  1 27  1  0  0  0  0
  1 28  1  0  0  0  0
  2  3  1  0  0  0  0
  3  8  1  0  0  0  0
  3  4  2  0  0  0  0
  4  5  1  0  0  0  0
  4 29  1  0  0  0  0
  5  6  2  0  0  0  0
  5 30  1  0  0  0  0
  6  7  1  0  0  0  0
  6 31  1  0  0  0  0
  7  8  2  0  0  0  0
  7 32  1  0  0  0  0
  8  9  1  0  0  0  0
  9 10  1  0  0  0  0
 10 11  1  0  0  0  0
 10 33  1  0  0  0  0
 10 34  1  0  0  0  0
 11 12  1  0  0  0  0
 11 35  1  0  0  0  0
 11 36  1  0  0  0  0
 12 25  1  0  0  0  0
 12 13  1  0  0  0  0
 13 14  1  0  0  0  0
 13 19  2  0  0  0  0
 14 15  1  0  0  0  0
 14 16  1  0  0  0  0
 14 37  1  0  0  0  0
 15 38  1  0  0  0  0
 15 39  1  0  0  0  0
 15 40  1  0  0  0  0
 16 17  1  0  0  0  0
 16 41  1  0  0  0  0
 17 18  2  0  0  0  0
 17 42  1  0  0  0  0
 19 20  1  0  0  0  0
 20 25  2  0  0  0  0
 20 21  1  0  0  0  0
 21 22  2  0  0  0  0
 21 43  1  0  0  0  0
 22 23  1  0  0  0  0
 22 44  1  0  0  0  0
 23 24  2  0  0  0  0
 23 45  1  0  0  0  0
 24 25  1  0  0  0  0
 24 46  1  0  0  0  0
M  END
> <s_m_source_file>
AV-unprocessed.smi

> <i_m_source_file_index>
3011

> <i_lp_mmshare_version>
43012

> <i_f3d_flags>
0

> <s_epik_input>
W0NIM11PYzFbY0hdW2NIXVtjSF1bY0hdYzFPW0NIMl1bQ0gyXW4oYyhuMilbQ0BIXShbQ0gzXSlbTkhdW0NIXT1PKWMoYzIzKVtjSF1bY0hdW2NIXVtjSF0z

> <s_epik_cmdline>
J2VwaWtfcHl0aG9uJywgJy1waCcsICc3LjAnLCAnLXRuJywgJzgnLCAnLW1hJywgJzIwMCcsICctbWV0YWxfYmluZGluZycsICctaW1hZScsICc8aW5maWxlLm1hZT4nLCAnLW9tYWUnLCAnPG91dGZpbGUubWFlPic=

> <r_lp_tautomer_probability>
1

> <r_epik_Ionization_Penalty>
0.0924205

> <r_epik_Ionization_Penalty_Charging>
0

> <r_epik_Ionization_Penalty_Neutral>
0.0924205

> <r_epik_State_Penalty>
0.0827154

> <r_epik_Charging_Adjusted_Penalty>
0.0827154

> <i_epik_Tot_Q>
0

> <i_epik_Tot_abs_Q>
0

> <r_epik_Metal_State_Penalty>
0.071464

> <b_epik_Metal_Only>
0

> <s_lp_Force_Field>
OPLS_2005

> <r_lp_Energy>
16.1318

> <b_lp_Chiralities_Consistent>
1

> <s_lp_Variant>
AV-unprocessed.smi:3011-2

> <Gold.Version>
5.8.1

> <Gold.Id.Protein>
6NUR|6NUR_protein|mol2

> <Gold.PLP.Fitness>
52.5785

> <Gold.PLP.PLP>
-50.0917

> <Gold.PLP.part.hbond>
-1.0000

> <Gold.PLP.part.metal>
0.0000

> <Gold.PLP.part.buried>
-6.6796

> <Gold.PLP.part.nonpolar>
-41.1679

> <Gold.PLP.part.repulsive>
0.0370

> <Gold.PLP.ligand.clash>
0.0000

> <Gold.PLP.ligand.torsion>
0.3116

> <Gold.PLP.Chemscore.Hbond>
1.0000

> <Gold.PLP.Chemscore.CHOScore>
0.0000

> <Gold.PLP.Chemscore.Metal>
0.0000

> <Gold.Chemscore.Hbonds>
donor molecule, donor type, donor heavy atom, donor atom, acceptor molecule, acceptor atom, score
      P1  H 10752 10764       L1    18  1.00

> <Gold.PLP.Chemscore.Internal.Correction>
0.1100

> <Gold.Rescore>
     Score         DG    S(hbond)    S(metal)    S(lipo)     H(rot)  DE(clash)    DE(int)     intcor
     17.28     -18.68       0.99        0.00     141.24       2.59       0.00       1.40       ----

> <Gold.Chemscore.Fitness>
17.2818

> <Gold.Chemscore.DG>
-18.6820

> <Gold.Chemscore.ZeroCoef>
-5.4800

> <Gold.Chemscore.Hbond>
0.9915

> <Gold.Chemscore.Metal>
0.0000

> <Gold.Chemscore.Lipo>
141.2357

> <Gold.Chemscore.Internal_Hbond>
0.0000

> <Gold.Chemscore.DEClash>
0.0000

> <Gold.Chemscore.DEInternal>
1.4002

> <Gold.Chemscore.Rot>
2.5914

> <Gold.Chemscore.Internal.Correction>
   9.000000E+99

> <Gold.Chemscore.Hbonds>
donor molecule, donor type, donor heavy atom, donor atom, acceptor molecule, acceptor atom, score
      P1  H 10752 10764       L1    18  0.85

> <Gold.Chemscore.Hbond.Weighted>
-3.3115

> <Gold.Chemscore.Metal.Weighted>
-0.0000

> <Gold.Chemscore.Lipo.Weighted>
-16.5246

> <Gold.Chemscore.Internal_Hbond.Weighted>
0.0000

> <Gold.Chemscore.DEClash.Weighted>
0.0000

> <Gold.Chemscore.DEInternal.Weighted>
1.4002

> <Gold.Chemscore.Rot.Weighted>
6.6340

> <Gold.Chemscore.Internal.Correction.Weighted>
   9.000000E+99

> <Gold.Protein.RotatedTorsions>
[ 6907 6896 6895 6894 ] final -138.30 input  -60.11 | X-H torsion
[ 7974 7965 7964 7962 ] final   -1.36 input  175.53 | X-H torsion
[ 8008 7997 7996 7995 ] final -105.22 input   59.86 | X-H torsion
[ 10167 10162 10161 10158 ] final  -21.65 input  -65.29 | X-H torsion
[ 10718 10713 10712 10709 ] final  151.48 input   66.30 | X-H torsion
[ 10763 10752 10751 10750 ] final   76.37 input  -60.55 | X-H torsion
[ 11005 11000 10999 10996 ] final   31.98 input  -57.11 | X-H torsion

> <Gold.Protein.ActiveResidues>
 VAL166  LYS551  ARG553  GLY616  TRP617  ASP618  TYR619  PRO620  LYS621  CYS622 
 ASP623  PHE694  ASN695  SER759  ASP760  ASP761  ALA762  ILE779  LEU786  VAL792 
 PHE793  MET794  SER795  GLU796  ALA797  LYS798  CYS799  TRP800  GLU811  SER814 

> <Gold.Protein.RotatedAtoms>
  151.0332  133.5771  159.2658 H   0  0  0  0  0  0  0  0  0  0  0  0  # atno 6907 bound_to 6896
  151.2845  135.0723  159.9191 H   0  0  0  0  0  0  0  0  0  0  0  0  # atno 6908 bound_to 6896
  152.5349  134.0041  159.7962 H   0  0  0  0  0  0  0  0  0  0  0  0  # atno 6909 bound_to 6896
  146.2418  140.1409  142.8335 H   0  0  0  0  0  0  0  0  0  0  0  0  # atno 7974 bound_to 7965
  154.8968  140.0414  157.1870 H   0  0  0  0  0  0  0  0  0  0  0  0  # atno 8008 bound_to 7997
  154.8485  140.2925  155.5592 H   0  0  0  0  0  0  0  0  0  0  0  0  # atno 8009 bound_to 7997
  156.2995  140.2469  156.3439 H   0  0  0  0  0  0  0  0  0  0  0  0  # atno 8010 bound_to 7997
  140.7283  143.4608  151.0383 H   0  0  0  0  0  0  0  0  0  0  0  0  # atno 10167 bound_to 10162
  157.2701  131.0815  151.1606 H   0  0  0  0  0  0  0  0  0  0  0  0  # atno 10718 bound_to 10713
  153.0720  135.4954  154.8326 H   0  0  0  0  0  0  0  0  0  0  0  0  # atno 10763 bound_to 10752
  154.7036  135.3006  154.9306 H   0  0  0  0  0  0  0  0  0  0  0  0  # atno 10764 bound_to 10752
  154.0022  135.6765  153.4813 H   0  0  0  0  0  0  0  0  0  0  0  0  # atno 10765 bound_to 10752
  140.2782  134.3004  155.7808 H   0  0  0  0  0  0  0  0  0  0  0  0  # atno 11005 bound_to 11000
  145.0247  140.8822  143.5145 LP  0  0  0  0  0  0  0  0  0  0  0  0  # atno 17320 bound_to 7965
  145.1463  139.2541  143.5464 LP  0  0  0  0  0  0  0  0  0  0  0  0  # atno 17321 bound_to 7965
  139.8292  143.7714  152.3179 LP  0  0  0  0  0  0  0  0  0  0  0  0  # atno 17342 bound_to 10162
  139.7824  144.7440  151.0070 LP  0  0  0  0  0  0  0  0  0  0  0  0  # atno 17343 bound_to 10162
  157.3081  130.6876  149.6200 LP  0  0  0  0  0  0  0  0  0  0  0  0  # atno 17370 bound_to 10713
  155.9663  130.4372  150.5165 LP  0  0  0  0  0  0  0  0  0  0  0  0  # atno 17371 bound_to 10713
  141.2167  133.7509  156.9439 LP  0  0  0  0  0  0  0  0  0  0  0  0  # atno 17394 bound_to 11000
  140.1308  134.9357  157.2335 LP  0  0  0  0  0  0  0  0  0  0  0  0  # atno 17395 bound_to 11000

$$$$
