AV-unprocessed.smi:1|AV-procd|sdf|14|dock10
  -GOLD-   2262015113D 1   1.00000     0.00000
 Structure written by MMmdl.
 57 62  0  0  0  0  0  0  0  0  1 V2000
  150.7505  142.1231  156.2701 O   0  0  0  0  0  0  0  0  0  0  0  0
  150.8574  141.8190  157.4614 C   0  0  0  0  0  0  0  0  0  0  0  0
  150.5968  140.6011  158.0758 N   0  0  0  0  0  0  0  0  0  0  0  0
  149.8413  139.7232  157.4882 C   0  0  0  0  0  0  0  0  0  0  0  0
  149.1589  139.7296  156.2650 N   0  0  0  0  0  0  0  0  0  0  0  0
  148.3492  138.6968  155.7694 C   0  0  0  0  0  0  0  0  0  0  0  0
  148.1211  137.5675  156.3840 N   0  0  0  0  0  0  0  0  0  0  0  0
  148.7858  137.5010  157.6017 C   0  0  0  0  0  0  0  0  0  0  0  0
  149.6002  138.4447  158.1913 C   0  0  0  0  0  0  0  0  0  0  0  0
  150.0764  137.9935  159.4175 N   0  0  0  0  0  0  0  0  0  0  0  0
  149.5276  136.7863  159.5158 C   0  0  0  0  0  0  0  0  0  0  0  0
  148.7512  136.4173  158.4803 N   0  0  0  0  0  0  0  0  0  0  0  0
  148.0343  135.1090  158.3476 C   0  0  1  0  0  0  0  0  0  0  0  0
  148.5949  134.2033  159.2465 O   0  0  0  0  0  0  0  0  0  0  0  0
  147.5833  133.3355  159.7320 C   0  0  1  0  0  0  0  0  0  0  0  0
  148.0155  132.6811  161.0503 C   0  0  0  0  0  0  0  0  0  0  0  0
  147.2853  131.4795  161.2398 O   0  0  0  0  0  0  0  0  0  0  0  0
  147.4276  130.4574  160.3730 C   0  0  0  0  0  0  0  0  0  0  0  0
  147.8494  130.5912  159.2224 O   0  0  0  0  0  0  0  0  0  0  0  0
  147.0257  129.1442  160.9545 C   0  0  0  0  0  0  0  0  0  0  0  0
  146.4594  129.1045  162.2501 C   0  0  0  0  0  0  0  0  0  0  0  0
  146.0680  127.8797  162.8250 C   0  0  0  0  0  0  0  0  0  0  0  0
  146.2407  126.6790  162.1121 C   0  0  0  0  0  0  0  0  0  0  0  0
  146.8049  126.7049  160.8233 C   0  0  0  0  0  0  0  0  0  0  0  0
  147.1947  127.9291  160.2459 C   0  0  0  0  0  0  0  0  0  0  0  0
  146.3437  134.2271  159.8217 C   0  0  1  0  0  0  0  0  0  0  0  0
  146.3001  134.9518  161.0387 O   0  0  0  0  0  0  0  0  0  0  0  0
  145.7448  136.4880  160.7016 S   0  0  0  0  0  0  0  0  0  0  0  0
  144.2780  136.4770  160.8120 O   0  0  0  0  0  0  0  0  0  0  0  0
  146.5818  137.4625  161.4173 O   0  0  0  0  0  0  0  0  0  0  0  0
  146.1399  136.5289  159.0789 O   0  0  0  0  0  0  0  0  0  0  0  0
  146.5290  135.2244  158.6670 C   0  0  1  0  0  0  0  0  0  0  0  0
  151.3346  142.8692  158.4107 C   0  0  0  0  0  0  0  0  0  0  0  0
  151.8357  142.5018  159.6777 C   0  0  0  0  0  0  0  0  0  0  0  0
  152.2907  143.4911  160.5712 C   0  0  0  0  0  0  0  0  0  0  0  0
  152.2487  144.8491  160.2001 C   0  0  0  0  0  0  0  0  0  0  0  0
  151.7525  145.2184  158.9347 C   0  0  0  0  0  0  0  0  0  0  0  0
  151.2965  144.2303  158.0402 C   0  0  0  0  0  0  0  0  0  0  0  0
  147.9042  138.9094  154.7963 H   0  0  0  0  0  0  0  0  0  0  0  0
  149.7000  136.1450  160.3676 H   0  0  0  0  0  0  0  0  0  0  0  0
  148.2246  134.7876  157.3227 H   0  0  0  0  0  0  0  0  0  0  0  0
  147.4201  132.5683  158.9730 H   0  0  0  0  0  0  0  0  0  0  0  0
  149.0808  132.4496  161.0225 H   0  0  0  0  0  0  0  0  0  0  0  0
  147.8550  133.3698  161.8812 H   0  0  0  0  0  0  0  0  0  0  0  0
  146.3168  130.0135  162.8166 H   0  0  0  0  0  0  0  0  0  0  0  0
  145.6348  127.8622  163.8142 H   0  0  0  0  0  0  0  0  0  0  0  0
  145.9410  125.7399  162.5535 H   0  0  0  0  0  0  0  0  0  0  0  0
  146.9392  125.7837  160.2757 H   0  0  0  0  0  0  0  0  0  0  0  0
  147.6249  127.9130  159.2551 H   0  0  0  0  0  0  0  0  0  0  0  0
  145.4213  133.6532  159.7261 H   0  0  0  0  0  0  0  0  0  0  0  0
  145.9625  134.9195  157.7866 H   0  0  0  0  0  0  0  0  0  0  0  0
  151.8735  141.4617  159.9682 H   0  0  0  0  0  0  0  0  0  0  0  0
  152.6737  143.2080  161.5406 H   0  0  0  0  0  0  0  0  0  0  0  0
  152.5986  145.6067  160.8858 H   0  0  0  0  0  0  0  0  0  0  0  0
  151.7220  146.2598  158.6496 H   0  0  0  0  0  0  0  0  0  0  0  0
  150.9188  144.5214  157.0706 H   0  0  0  0  0  0  0  0  0  0  0  0
  149.2546  140.5551  155.6914 H   0  0  0  0  0  0  0  0  0  0  0  0
  1  2  2  0  0  0  0
  2  3  1  0  0  0  0
  2 33  1  0  0  0  0
  3  4  2  0  0  0  0
  4  9  1  0  0  0  0
  4  5  1  0  0  0  0
  5  6  1  0  0  0  0
  5 57  1  0  0  0  0
  6  7  2  0  0  0  0
  6 39  1  0  0  0  0
  7  8  1  0  0  0  0
  8 12  1  0  0  0  0
  8  9  2  0  0  0  0
  9 10  1  0  0  0  0
 10 11  2  0  0  0  0
 11 12  1  0  0  0  0
 11 40  1  0  0  0  0
 12 13  1  0  0  0  0
 13 32  1  0  0  0  0
 13 14  1  0  0  0  0
 13 41  1  0  0  0  0
 14 15  1  0  0  0  0
 15 16  1  0  0  0  0
 15 26  1  0  0  0  0
 15 42  1  0  0  0  0
 16 17  1  0  0  0  0
 16 43  1  0  0  0  0
 16 44  1  0  0  0  0
 17 18  1  0  0  0  0
 18 19  2  0  0  0  0
 18 20  1  0  0  0  0
 20 25  1  0  0  0  0
 20 21  2  0  0  0  0
 21 22  1  0  0  0  0
 21 45  1  0  0  0  0
 22 23  2  0  0  0  0
 22 46  1  0  0  0  0
 23 24  1  0  0  0  0
 23 47  1  0  0  0  0
 24 25  2  0  0  0  0
 24 48  1  0  0  0  0
 25 49  1  0  0  0  0
 26 32  1  0  0  0  0
 26 27  1  0  0  0  0
 26 50  1  0  0  0  0
 27 28  1  0  0  0  0
 28 29  2  0  0  0  0
 28 30  2  0  0  0  0
 28 31  1  0  0  0  0
 31 32  1  0  0  0  0
 32 51  1  0  0  0  0
 33 38  1  0  0  0  0
 33 34  2  0  0  0  0
 34 35  1  0  0  0  0
 34 52  1  0  0  0  0
 35 36  2  0  0  0  0
 35 53  1  0  0  0  0
 36 37  1  0  0  0  0
 36 54  1  0  0  0  0
 37 38  2  0  0  0  0
 37 55  1  0  0  0  0
 38 56  1  0  0  0  0
M  END
> <s_m_source_file>
AV-unprocessed.smi

> <i_m_source_file_index>
1

> <i_lp_mmshare_version>
43012

> <i_f3d_flags>
0

> <s_epik_input>
W2NIXTFbY0hdW2NIXVtjSF1bY0hdYzFDKD1PKVtOSF1jKG5bY0hdbjIpYyhjMjMpbltjSF1uM1tDQEBIXShbQ0BIXShbQ0BIXTQ1KU9TKE81KSg9Tyk9TylPW0NASF00W0NIMl1PQyg9TyljNltjSF1bY0hdW2NIXVtjSF1bY0hdNg==

> <s_epik_cmdline>
J2VwaWtfcHl0aG9uJywgJy1waCcsICc3LjAnLCAnLXRuJywgJzgnLCAnLW1hJywgJzIwMCcsICctbWV0YWxfYmluZGluZycsICctaW1hZScsICc8aW5maWxlLm1hZT4nLCAnLW9tYWUnLCAnPG91dGZpbGUubWFlPic=

> <r_epik_Ionization_Penalty>
0.122545

> <r_epik_Ionization_Penalty_Charging>
0.122545

> <r_epik_Ionization_Penalty_Neutral>
7.8935e-16

> <r_epik_State_Penalty>
2.69178

> <r_epik_Charging_Adjusted_Penalty>
2.81433

> <i_epik_Tot_Q>
0

> <i_epik_Tot_abs_Q>
0

> <r_epik_Metal_State_Penalty>
3.02665

> <b_epik_Metal_Only>
0

> <s_epik_Chemistry_Notes>
This compound has an ester and may undergo hydrolysis at high or low pH. This compound contains an acetal/aminal-like group ( X-CH(R)-Y where X, Y are N, S, or O) that may be acid/base labile, releasing an aldehyde.

> <s_lp_Force_Field>
OPLS_2005

> <r_lp_Energy>
60.6373

> <b_lp_Chiralities_Consistent>
1

> <s_lp_Variant>
AV-unprocessed.smi:1-14

> <Gold.Version>
5.8.1

> <Gold.Id.Protein>
6NUR|6NUR_protein|mol2

> <Gold.PLP.Fitness>
47.7062

> <Gold.PLP.PLP>
-44.1618

> <Gold.PLP.part.hbond>
-3.0091

> <Gold.PLP.part.metal>
0.0000

> <Gold.PLP.part.buried>
-7.6734

> <Gold.PLP.part.nonpolar>
-33.9810

> <Gold.PLP.part.repulsive>
0.1066

> <Gold.PLP.ligand.clash>
0.0000

> <Gold.PLP.ligand.torsion>
1.2687

> <Gold.PLP.Chemscore.Hbond>
1.9913

> <Gold.PLP.Chemscore.CHOScore>
0.0000

> <Gold.PLP.Chemscore.Metal>
0.0000

> <Gold.Chemscore.Hbonds>
donor molecule, donor type, donor heavy atom, donor atom, acceptor molecule, acceptor atom, score
      P1  H  6896  6909       L1    14  0.98
      P1  H  6934  6947       L1    30  1.00

> <Gold.PLP.Chemscore.Internal.Correction>
0.1081

> <Gold.Rescore>
     Score         DG    S(hbond)    S(metal)    S(lipo)     H(rot)  DE(clash)    DE(int)     intcor
     18.73     -21.23       2.33        0.00     114.65       2.13       0.17       2.33       ----

> <Gold.Chemscore.Fitness>
18.7271

> <Gold.Chemscore.DG>
-21.2289

> <Gold.Chemscore.ZeroCoef>
-5.4800

> <Gold.Chemscore.Hbond>
2.3343

> <Gold.Chemscore.Metal>
0.0000

> <Gold.Chemscore.Lipo>
114.6475

> <Gold.Chemscore.Internal_Hbond>
0.0000

> <Gold.Chemscore.DEClash>
0.1735

> <Gold.Chemscore.DEInternal>
2.3284

> <Gold.Chemscore.Rot>
2.1333

> <Gold.Chemscore.Internal.Correction>
   9.000000E+99

> <Gold.Chemscore.Hbonds>
donor molecule, donor type, donor heavy atom, donor atom, acceptor molecule, acceptor atom, score
      P1  H  6896  6909       L1    14  0.83
      P1  H  6934  6947       L1    30  0.99

> <Gold.Chemscore.Hbond.Weighted>
-7.7965

> <Gold.Chemscore.Metal.Weighted>
-0.0000

> <Gold.Chemscore.Lipo.Weighted>
-13.4138

> <Gold.Chemscore.Internal_Hbond.Weighted>
0.0000

> <Gold.Chemscore.DEClash.Weighted>
0.1735

> <Gold.Chemscore.DEInternal.Weighted>
2.3284

> <Gold.Chemscore.Rot.Weighted>
5.4614

> <Gold.Chemscore.Internal.Correction.Weighted>
   9.000000E+99

> <Gold.Protein.RotatedTorsions>
[ 6907 6896 6895 6894 ] final   21.97 input  -60.11 | X-H torsion
[ 7974 7965 7964 7962 ] final -137.40 input  175.53 | X-H torsion
[ 8008 7997 7996 7995 ] final  -83.56 input   59.86 | X-H torsion
[ 10167 10162 10161 10158 ] final -156.16 input  -65.29 | X-H torsion
[ 10718 10713 10712 10709 ] final  108.70 input   66.30 | X-H torsion
[ 10763 10752 10751 10750 ] final  -37.12 input  -60.55 | X-H torsion
[ 11005 11000 10999 10996 ] final  -10.86 input  -57.11 | X-H torsion

> <Gold.Protein.ActiveResidues>
 VAL166  LYS551  ARG553  GLY616  TRP617  ASP618  TYR619  PRO620  LYS621  CYS622 
 ASP623  PHE694  ASN695  SER759  ASP760  ASP761  ALA762  ILE779  LEU786  VAL792 
 PHE793  MET794  SER795  GLU796  ALA797  LYS798  CYS799  TRP800  GLU811  SER814 

> <Gold.Protein.RotatedAtoms>
  151.9199  135.0303  160.0520 H   0  0  0  0  0  0  0  0  0  0  0  0  # atno 6907 bound_to 6896
  152.2208  133.4978  159.5170 H   0  0  0  0  0  0  0  0  0  0  0  0  # atno 6908 bound_to 6896
  150.6999  134.1261  159.4095 H   0  0  0  0  0  0  0  0  0  0  0  0  # atno 6909 bound_to 6896
  144.8845  140.6555  143.5184 H   0  0  0  0  0  0  0  0  0  0  0  0  # atno 7974 bound_to 7965
  154.6204  140.0617  156.9608 H   0  0  0  0  0  0  0  0  0  0  0  0  # atno 8008 bound_to 7997
  155.1826  140.3300  155.4354 H   0  0  0  0  0  0  0  0  0  0  0  0  # atno 8009 bound_to 7997
  156.2428  140.1895  156.6922 H   0  0  0  0  0  0  0  0  0  0  0  0  # atno 8010 bound_to 7997
  139.6873  143.9480  152.2367 H   0  0  0  0  0  0  0  0  0  0  0  0  # atno 10167 bound_to 10162
  157.6575  131.0899  150.6344 H   0  0  0  0  0  0  0  0  0  0  0  0  # atno 10718 bound_to 10713
  153.8910  135.6812  153.4760 H   0  0  0  0  0  0  0  0  0  0  0  0  # atno 10763 bound_to 10752
  153.1181  135.4752  154.9147 H   0  0  0  0  0  0  0  0  0  0  0  0  # atno 10764 bound_to 10752
  154.7622  135.3214  154.8309 H   0  0  0  0  0  0  0  0  0  0  0  0  # atno 10765 bound_to 10752
  140.7492  133.8606  155.9031 H   0  0  0  0  0  0  0  0  0  0  0  0  # atno 11005 bound_to 11000
  145.3893  139.1620  143.4238 LP  0  0  0  0  0  0  0  0  0  0  0  0  # atno 17320 bound_to 7965
  146.3016  140.3981  142.8702 LP  0  0  0  0  0  0  0  0  0  0  0  0  # atno 17321 bound_to 7965
  139.9286  144.6755  150.8386 LP  0  0  0  0  0  0  0  0  0  0  0  0  # atno 17342 bound_to 10162
  140.7671  143.3324  151.2381 LP  0  0  0  0  0  0  0  0  0  0  0  0  # atno 17343 bound_to 10162
  156.6649  130.4523  149.5675 LP  0  0  0  0  0  0  0  0  0  0  0  0  # atno 17370 bound_to 10713
  156.2040  130.6637  151.1198 LP  0  0  0  0  0  0  0  0  0  0  0  0  # atno 17371 bound_to 10713
  140.9766  134.1460  157.4530 LP  0  0  0  0  0  0  0  0  0  0  0  0  # atno 17394 bound_to 11000
  139.8791  134.9997  156.5967 LP  0  0  0  0  0  0  0  0  0  0  0  0  # atno 17395 bound_to 11000

$$$$
