AV-unprocessed.smi:290|AV-procd|sdf|2240|dock3
  -GOLD-   2262022113D 1   1.00000     0.00000
 Structure written by MMmdl.
 59 62  0  0  0  0  0  0  0  0  2 V2000
  156.6326  137.8995  153.6591 C   0  0  0  0  0  0  0  0  0  0  0  0
  157.1123  136.5793  153.0345 C   0  0  1  0  0  0  0  0  0  0  0  0
  156.0199  135.8776  152.4417 O   0  0  0  0  0  0  0  0  0  0  0  0
  156.2847  135.6329  151.0677 C   0  0  0  0  0  0  0  0  0  0  0  0
  157.8045  135.5918  150.9809 C   0  0  0  0  0  0  0  0  0  0  0  0
  158.2184  136.6832  151.9580 C   0  0  1  0  0  0  0  0  0  0  0  0
  158.1535  137.9309  151.2847 O   0  0  0  0  0  0  0  0  0  0  0  0
  159.6440  136.5098  152.5339 C   0  0  0  0  0  0  0  0  0  0  0  0
  160.0411  135.1185  152.6898 N   0  0  0  0  0  0  0  0  0  0  0  0
  160.1528  134.4226  153.8706 C   0  0  0  0  0  0  0  0  0  0  0  0
  160.5366  133.1821  153.7477 N   0  0  0  0  0  0  0  0  0  0  0  0
  160.6867  132.9958  152.3767 C   0  0  0  0  0  0  0  0  0  0  0  0
  161.0771  131.9019  151.5451 C   0  0  0  0  0  0  0  0  0  0  0  0
  161.4108  130.6575  151.9811 N   0  0  0  0  0  0  0  0  0  0  0  0
  162.2941  129.8016  151.2079 C   0  0  0  0  0  0  0  0  0  0  0  0
  163.0613  129.0021  152.2519 C   0  0  0  0  0  0  0  0  0  0  0  0
  162.0727  128.8580  153.4206 C   0  0  1  0  0  0  0  0  0  0  0  0
  162.7703  128.5931  154.7190 N   0  3  2  0  0  0  0  0  0  0  0  0
  163.4615  127.2769  154.7084 C   0  0  0  0  0  0  0  0  0  0  0  0
  161.9166  128.7747  155.9290 C   0  0  0  0  0  0  0  0  0  0  0  0
  162.7063  128.9816  157.2357 C   0  0  0  0  0  0  0  0  0  0  0  0
  163.5408  130.1157  157.1281 O   0  0  0  0  0  0  0  0  0  0  0  0
  161.2550  130.1765  153.3508 C   0  0  2  0  0  0  0  0  0  0  0  0
  159.7580  129.9687  153.6716 C   0  0  0  0  0  0  0  0  0  0  0  0
  161.1176  132.1269  150.2054 N   0  0  0  0  0  0  0  0  0  0  0  0
  160.7960  133.3218  149.7040 C   0  0  0  0  0  0  0  0  0  0  0  0
  160.4132  134.4208  150.3533 N   0  0  0  0  0  0  0  0  0  0  0  0
  160.3762  134.2117  151.6996 C   0  0  0  0  0  0  0  0  0  0  0  0
  161.4068  128.0209  153.2017 H   0  0  0  0  0  0  0  0  0  0  0  0
  161.7034  130.9097  154.0201 H   0  0  0  0  0  0  0  0  0  0  0  0
  157.4636  138.4485  154.1020 H   0  0  0  0  0  0  0  0  0  0  0  0
  155.9029  137.7107  154.4464 H   0  0  0  0  0  0  0  0  0  0  0  0
  156.1554  138.5445  152.9208 H   0  0  0  0  0  0  0  0  0  0  0  0
  157.4667  135.9346  153.8398 H   0  0  0  0  0  0  0  0  0  0  0  0
  155.8163  134.7096  150.7266 H   0  0  0  0  0  0  0  0  0  0  0  0
  155.8860  136.4573  150.4749 H   0  0  0  0  0  0  0  0  0  0  0  0
  158.1525  134.6198  151.3324 H   0  0  0  0  0  0  0  0  0  0  0  0
  158.1829  135.7367  149.9682 H   0  0  0  0  0  0  0  0  0  0  0  0
  157.5056  137.8677  150.6000 H   0  0  0  0  0  0  0  0  0  0  0  0
  160.3728  137.0047  151.8904 H   0  0  0  0  0  0  0  0  0  0  0  0
  159.7207  136.9953  153.5078 H   0  0  0  0  0  0  0  0  0  0  0  0
  159.9469  134.8701  154.8324 H   0  0  0  0  0  0  0  0  0  0  0  0
  161.6916  129.1462  150.5778 H   0  0  0  0  0  0  0  0  0  0  0  0
  162.9756  130.3639  150.5682 H   0  0  0  0  0  0  0  0  0  0  0  0
  163.4068  128.0478  151.8539 H   0  0  0  0  0  0  0  0  0  0  0  0
  163.9360  129.5726  152.5691 H   0  0  0  0  0  0  0  0  0  0  0  0
  162.7403  126.4588  154.7135 H   0  0  0  0  0  0  0  0  0  0  0  0
  164.1210  127.1590  155.5664 H   0  0  0  0  0  0  0  0  0  0  0  0
  164.0984  127.1578  153.8332 H   0  0  0  0  0  0  0  0  0  0  0  0
  161.2863  129.6542  155.8135 H   0  0  0  0  0  0  0  0  0  0  0  0
  161.2502  127.9173  156.0310 H   0  0  0  0  0  0  0  0  0  0  0  0
  162.0092  129.1525  158.0565 H   0  0  0  0  0  0  0  0  0  0  0  0
  163.2923  128.1072  157.5157 H   0  0  0  0  0  0  0  0  0  0  0  0
  164.4396  129.8397  157.2302 H   0  0  0  0  0  0  0  0  0  0  0  0
  159.5940  129.5775  154.6736 H   0  0  0  0  0  0  0  0  0  0  0  0
  159.3043  129.2645  152.9733 H   0  0  0  0  0  0  0  0  0  0  0  0
  159.1959  130.8989  153.5979 H   0  0  0  0  0  0  0  0  0  0  0  0
  160.8550  133.4097  148.6292 H   0  0  0  0  0  0  0  0  0  0  0  0
  163.4928  129.2956  154.7920 H   0  0  0  0  0  0  0  0  0  0  0  0
  1  2  1  0  0  0  0
  1 31  1  0  0  0  0
  1 32  1  0  0  0  0
  1 33  1  0  0  0  0
  2  6  1  0  0  0  0
  2  3  1  0  0  0  0
  2 34  1  0  0  0  0
  3  4  1  0  0  0  0
  4  5  1  0  0  0  0
  4 35  1  0  0  0  0
  4 36  1  0  0  0  0
  5  6  1  0  0  0  0
  5 37  1  0  0  0  0
  5 38  1  0  0  0  0
  6  7  1  0  0  0  0
  6  8  1  0  0  0  0
  7 39  1  0  0  0  0
  8  9  1  0  0  0  0
  8 40  1  0  0  0  0
  8 41  1  0  0  0  0
  9 28  1  0  0  0  0
  9 10  1  0  0  0  0
 10 11  2  0  0  0  0
 10 42  1  0  0  0  0
 11 12  1  0  0  0  0
 12 28  2  0  0  0  0
 12 13  1  0  0  0  0
 13 14  1  0  0  0  0
 13 25  2  0  0  0  0
 14 23  1  0  0  0  0
 14 15  1  0  0  0  0
 15 16  1  0  0  0  0
 15 43  1  0  0  0  0
 15 44  1  0  0  0  0
 16 17  1  0  0  0  0
 16 45  1  0  0  0  0
 16 46  1  0  0  0  0
 17 29  1  0  0  0  0
 17 18  1  0  0  0  0
 17 23  1  0  0  0  0
 18 19  1  0  0  0  0
 18 20  1  0  0  0  0
 18 59  1  0  0  0  0
 19 47  1  0  0  0  0
 19 48  1  0  0  0  0
 19 49  1  0  0  0  0
 20 21  1  0  0  0  0
 20 50  1  0  0  0  0
 20 51  1  0  0  0  0
 21 22  1  0  0  0  0
 21 52  1  0  0  0  0
 21 53  1  0  0  0  0
 22 54  1  0  0  0  0
 23 30  1  0  0  0  0
 23 24  1  0  0  0  0
 24 55  1  0  0  0  0
 24 56  1  0  0  0  0
 24 57  1  0  0  0  0
 25 26  1  0  0  0  0
 26 27  2  0  0  0  0
 26 58  1  0  0  0  0
 27 28  1  0  0  0  0
M  CHG  1  18   1
M  END
> <s_m_source_file>
AV-unprocessed.smi

> <i_m_source_file_index>
290

> <i_lp_mmshare_version>
43012

> <i_f3d_flags>
0

> <s_epik_input>
W0NIMl0xW0NIMl1PW0NAQEhdKFtDSDNdKVtDQEBdMShbT0hdKVtDSDJdbihbY0hdbjIpYyhjMjMpbltjSF1uYzNONFtDSDJdW0NIMl1bQ0BIXShbQ0BIXTRbQ0gzXSlOKFtDSDNdKVtDSDJdW0NIMl1bT0hd

> <s_epik_cmdline>
J2VwaWtfcHl0aG9uJywgJy1waCcsICc3LjAnLCAnLXRuJywgJzgnLCAnLW1hJywgJzIwMCcsICctbWV0YWxfYmluZGluZycsICctaW1hZScsICc8aW5maWxlLm1hZT4nLCAnLW9tYWUnLCAnPG91dGZpbGUubWFlPic=

> <r_lp_tautomer_probability>
1

> <r_epik_Ionization_Penalty>
0.0036983

> <r_epik_Ionization_Penalty_Charging>
0.0032725

> <r_epik_Ionization_Penalty_Neutral>
0.000425798

> <r_epik_State_Penalty>
-0

> <r_epik_Charging_Adjusted_Penalty>
0.0032725

> <i_epik_Tot_Q>
1

> <i_epik_Tot_abs_Q>
1

> <r_epik_Metal_State_Penalty>
-0

> <b_epik_Metal_Only>
0

> <s_lp_Force_Field>
OPLS_2005

> <r_lp_Energy>
64.7492

> <b_lp_Chiralities_Consistent>
1

> <s_lp_Variant>
AV-unprocessed.smi:290-26

> <Gold.Version>
5.8.1

> <Gold.Id.Protein>
6NUR|6NUR_protein|mol2

> <Gold.PLP.Fitness>
38.7100

> <Gold.PLP.PLP>
-34.3356

> <Gold.PLP.part.hbond>
-5.0000

> <Gold.PLP.part.metal>
0.0000

> <Gold.PLP.part.buried>
0.7922

> <Gold.PLP.part.nonpolar>
-30.0574

> <Gold.PLP.part.repulsive>
0.4807

> <Gold.PLP.ligand.clash>
0.0000

> <Gold.PLP.ligand.torsion>
0.9704

> <Gold.PLP.Chemscore.Hbond>
2.0000

> <Gold.PLP.Chemscore.CHOScore>
0.0000

> <Gold.PLP.Chemscore.Metal>
0.0000

> <Gold.Chemscore.Hbonds>
donor molecule, donor type, donor heavy atom, donor atom, acceptor molecule, acceptor atom, score
      L1  H     7    39       P1 10674  1.00
      P1  H 10752 10764       L1     3  1.00

> <Gold.PLP.Chemscore.Internal.Correction>
0.3152

> <Gold.Rescore>
     Score         DG    S(hbond)    S(metal)    S(lipo)     H(rot)  DE(clash)    DE(int)     intcor
      8.47     -13.09       1.76        0.00      88.13       3.35       1.69       2.93       ----

> <Gold.Chemscore.Fitness>
8.4715

> <Gold.Chemscore.DG>
-13.0898

> <Gold.Chemscore.ZeroCoef>
-5.4800

> <Gold.Chemscore.Hbond>
1.7601

> <Gold.Chemscore.Metal>
0.0000

> <Gold.Chemscore.Lipo>
88.1344

> <Gold.Chemscore.Internal_Hbond>
0.0000

> <Gold.Chemscore.DEClash>
1.6869

> <Gold.Chemscore.DEInternal>
2.9314

> <Gold.Chemscore.Rot>
3.3518

> <Gold.Chemscore.Internal.Correction>
   9.000000E+99

> <Gold.Chemscore.Hbonds>
donor molecule, donor type, donor heavy atom, donor atom, acceptor molecule, acceptor atom, score
      L1  H     7    39       P1 10674  0.99
      P1  H 10752 10764       L1     3  0.82

> <Gold.Chemscore.Hbond.Weighted>
-5.8787

> <Gold.Chemscore.Metal.Weighted>
-0.0000

> <Gold.Chemscore.Lipo.Weighted>
-10.3117

> <Gold.Chemscore.Internal_Hbond.Weighted>
0.0000

> <Gold.Chemscore.DEClash.Weighted>
1.6869

> <Gold.Chemscore.DEInternal.Weighted>
2.9314

> <Gold.Chemscore.Rot.Weighted>
8.5806

> <Gold.Chemscore.Internal.Correction.Weighted>
   9.000000E+99

> <Gold.Protein.RotatedTorsions>
[ 6907 6896 6895 6894 ] final -176.52 input  -60.11 | X-H torsion
[ 7974 7965 7964 7962 ] final  153.82 input  175.53 | X-H torsion
[ 8008 7997 7996 7995 ] final   -3.05 input   59.86 | X-H torsion
[ 10167 10162 10161 10158 ] final   54.99 input  -65.29 | X-H torsion
[ 10718 10713 10712 10709 ] final -167.22 input   66.30 | X-H torsion
[ 10763 10752 10751 10750 ] final  158.88 input  -60.55 | X-H torsion
[ 11005 11000 10999 10996 ] final   90.10 input  -57.11 | X-H torsion

> <Gold.Protein.ActiveResidues>
 VAL166  LYS551  ARG553  GLY616  TRP617  ASP618  TYR619  PRO620  LYS621  CYS622 
 ASP623  PHE694  ASN695  SER759  ASP760  ASP761  ALA762  ILE779  LEU786  VAL792 
 PHE793  MET794  SER795  GLU796  ALA797  LYS798  CYS799  TRP800  GLU811  SER814 

> <Gold.Protein.RotatedAtoms>
  151.6061  133.3351  159.3057 H   0  0  0  0  0  0  0  0  0  0  0  0  # atno 6907 bound_to 6896
  150.8181  134.7378  159.6760 H   0  0  0  0  0  0  0  0  0  0  0  0  # atno 6908 bound_to 6896
  152.4276  134.5844  160.0008 H   0  0  0  0  0  0  0  0  0  0  0  0  # atno 6909 bound_to 6896
  144.8129  139.6852  143.6134 H   0  0  0  0  0  0  0  0  0  0  0  0  # atno 7974 bound_to 7965
  154.6291  140.2519  155.7455 H   0  0  0  0  0  0  0  0  0  0  0  0  # atno 8008 bound_to 7997
  156.2470  140.2910  156.0555 H   0  0  0  0  0  0  0  0  0  0  0  0  # atno 8009 bound_to 7997
  155.1773  140.0388  157.2865 H   0  0  0  0  0  0  0  0  0  0  0  0  # atno 8010 bound_to 7997
  140.2243  144.3755  150.6438 H   0  0  0  0  0  0  0  0  0  0  0  0  # atno 10167 bound_to 10162
  156.6793  130.9115  151.3055 H   0  0  0  0  0  0  0  0  0  0  0  0  # atno 10718 bound_to 10713
  154.2230  135.2781  155.2918 H   0  0  0  0  0  0  0  0  0  0  0  0  # atno 10763 bound_to 10752
  154.5686  135.5625  153.7077 H   0  0  0  0  0  0  0  0  0  0  0  0  # atno 10764 bound_to 10752
  153.0037  135.6316  154.2370 H   0  0  0  0  0  0  0  0  0  0  0  0  # atno 10765 bound_to 10752
  139.8862  134.8593  156.3237 H   0  0  0  0  0  0  0  0  0  0  0  0  # atno 11005 bound_to 11000
  146.2429  139.6039  142.9479 LP  0  0  0  0  0  0  0  0  0  0  0  0  # atno 17320 bound_to 7965
  145.5282  141.0428  143.2398 LP  0  0  0  0  0  0  0  0  0  0  0  0  # atno 17321 bound_to 7965
  140.6232  143.2178  151.6650 LP  0  0  0  0  0  0  0  0  0  0  0  0  # atno 17342 bound_to 10162
  139.5133  144.3448  152.0707 LP  0  0  0  0  0  0  0  0  0  0  0  0  # atno 17343 bound_to 10162
  157.7049  130.9374  150.0901 LP  0  0  0  0  0  0  0  0  0  0  0  0  # atno 17370 bound_to 10713
  156.1880  130.3653  149.8947 LP  0  0  0  0  0  0  0  0  0  0  0  0  # atno 17371 bound_to 10713
  140.9770  133.7291  156.0616 LP  0  0  0  0  0  0  0  0  0  0  0  0  # atno 17394 bound_to 11000
  140.7799  134.3738  157.5490 LP  0  0  0  0  0  0  0  0  0  0  0  0  # atno 17395 bound_to 11000

$$$$
