AV-unprocessed.smi:1495|AV-procd|sdf|6053|dock10
  -GOLD-   22720 6173D 1   1.00000     0.00000
 Structure written by MMmdl.
 40 41  0  0  0  0  0  0  0  0  1 V2000
  151.8899  145.5954  159.2739 C   0  0  0  0  0  0  0  0  0  0  0  0
  151.2400  144.2065  159.2543 C   0  0  0  0  0  0  0  0  0  0  0  0
  152.2413  143.0804  158.9552 C   0  0  2  0  0  0  0  0  0  0  0  0
  151.5640  141.6944  158.9281 C   0  0  0  0  0  0  0  0  0  0  0  0
  152.5979  140.6814  158.6709 N   0  0  0  0  0  0  0  0  0  0  0  0
  152.7793  139.9817  157.5232 C   0  0  0  0  0  0  0  0  0  0  0  0
  153.6976  139.1768  157.3606 O   0  0  0  0  0  0  0  0  0  0  0  0
  151.8545  140.2077  156.5768 N   0  0  0  0  0  0  0  0  0  0  0  0
  151.8331  139.5685  155.2688 C   0  0  0  0  0  0  0  0  0  0  0  0
  150.4595  138.9393  154.9990 C   0  0  0  0  0  0  0  0  0  0  0  0
  149.3388  139.9062  155.2317 C   0  0  0  0  0  0  0  0  0  0  0  0
  148.4763  140.4091  154.2896 C   0  0  0  0  0  0  0  0  0  0  0  0
  147.3131  141.5002  154.9906 S   0  0  0  0  0  0  0  0  0  0  0  0
  148.0520  141.2273  156.5642 C   0  0  0  0  0  0  0  0  0  0  0  0
  147.5764  141.8777  157.8177 C   0  0  0  0  0  0  0  0  0  0  0  0
  149.0845  140.3816  156.5219 N   0  0  0  0  0  0  0  0  0  0  0  0
  153.5874  140.6907  159.7509 C   0  0  0  0  0  0  0  0  0  0  0  0
  154.2448  142.0815  159.7877 C   0  0  0  0  0  0  0  0  0  0  0  0
  153.2428  143.0791  159.9733 O   0  0  0  0  0  0  0  0  0  0  0  0
  151.1469  146.3681  159.4713 H   0  0  0  0  0  0  0  0  0  0  0  0
  152.3613  145.8237  158.3176 H   0  0  0  0  0  0  0  0  0  0  0  0
  152.6535  145.6641  160.0490 H   0  0  0  0  0  0  0  0  0  0  0  0
  150.7486  144.0195  160.2098 H   0  0  0  0  0  0  0  0  0  0  0  0
  150.4536  144.2009  158.4989 H   0  0  0  0  0  0  0  0  0  0  0  0
  152.7113  143.2724  157.9887 H   0  0  0  0  0  0  0  0  0  0  0  0
  151.0917  141.4872  159.8896 H   0  0  0  0  0  0  0  0  0  0  0  0
  150.7540  141.6923  158.1990 H   0  0  0  0  0  0  0  0  0  0  0  0
  151.1181  140.8680  156.7786 H   0  0  0  0  0  0  0  0  0  0  0  0
  152.0623  140.3075  154.4988 H   0  0  0  0  0  0  0  0  0  0  0  0
  152.6131  138.8062  155.2287 H   0  0  0  0  0  0  0  0  0  0  0  0
  150.4224  138.5711  153.9727 H   0  0  0  0  0  0  0  0  0  0  0  0
  150.3301  138.0629  155.6355 H   0  0  0  0  0  0  0  0  0  0  0  0
  148.4538  140.2029  153.2298 H   0  0  0  0  0  0  0  0  0  0  0  0
  147.5318  141.1490  158.6275 H   0  0  0  0  0  0  0  0  0  0  0  0
  146.5814  142.2986  157.6725 H   0  0  0  0  0  0  0  0  0  0  0  0
  148.2578  142.6795  158.1030 H   0  0  0  0  0  0  0  0  0  0  0  0
  153.0921  140.4827  160.7004 H   0  0  0  0  0  0  0  0  0  0  0  0
  154.3501  139.9197  159.6346 H   0  0  0  0  0  0  0  0  0  0  0  0
  154.9589  142.1408  160.6090 H   0  0  0  0  0  0  0  0  0  0  0  0
  154.7977  142.2752  158.8672 H   0  0  0  0  0  0  0  0  0  0  0  0
  1  2  1  0  0  0  0
  1 20  1  0  0  0  0
  1 21  1  0  0  0  0
  1 22  1  0  0  0  0
  2  3  1  0  0  0  0
  2 23  1  0  0  0  0
  2 24  1  0  0  0  0
  3 19  1  0  0  0  0
  3  4  1  0  0  0  0
  3 25  1  0  0  0  0
  4  5  1  0  0  0  0
  4 26  1  0  0  0  0
  4 27  1  0  0  0  0
  5  6  1  0  0  0  0
  5 17  1  0  0  0  0
  6  7  2  0  0  0  0
  6  8  1  0  0  0  0
  8  9  1  0  0  0  0
  8 28  1  0  0  0  0
  9 10  1  0  0  0  0
  9 29  1  0  0  0  0
  9 30  1  0  0  0  0
 10 11  1  0  0  0  0
 10 31  1  0  0  0  0
 10 32  1  0  0  0  0
 11 16  1  0  0  0  0
 11 12  2  0  0  0  0
 12 13  1  0  0  0  0
 12 33  1  0  0  0  0
 13 14  1  0  0  0  0
 14 15  1  0  0  0  0
 14 16  2  0  0  0  0
 15 34  1  0  0  0  0
 15 35  1  0  0  0  0
 15 36  1  0  0  0  0
 17 18  1  0  0  0  0
 17 37  1  0  0  0  0
 17 38  1  0  0  0  0
 18 19  1  0  0  0  0
 18 39  1  0  0  0  0
 18 40  1  0  0  0  0
M  END
> <s_m_source_file>
AV-unprocessed.smi

> <i_m_source_file_index>
1495

> <i_lp_mmshare_version>
43012

> <i_f3d_flags>
0

> <s_epik_input>
W0NIM11bQ0gyXVtDQEBIXTFbQ0gyXU4oW0NIMl1bQ0gyXU8xKUMoPU8pW05IXVtDSDJdW0NIMl1jMltjSF1zYyhuMilbQ0gzXQ==

> <s_epik_cmdline>
J2VwaWtfcHl0aG9uJywgJy1waCcsICc3LjAnLCAnLXRuJywgJzgnLCAnLW1hJywgJzIwMCcsICctbWV0YWxfYmluZGluZycsICctaW1hZScsICc8aW5maWxlLm1hZT4nLCAnLW9tYWUnLCAnPG91dGZpbGUubWFlPic=

> <r_epik_Ionization_Penalty>
0.00206013

> <r_epik_Ionization_Penalty_Charging>
0

> <r_epik_Ionization_Penalty_Neutral>
0.00206013

> <r_epik_State_Penalty>
0.00138662

> <r_epik_Charging_Adjusted_Penalty>
0.00138662

> <i_epik_Tot_Q>
0

> <i_epik_Tot_abs_Q>
0

> <r_epik_Metal_State_Penalty>
-0

> <b_epik_Metal_Only>
0

> <s_lp_Force_Field>
OPLS_2005

> <r_lp_Energy>
21.6891

> <b_lp_Chiralities_Consistent>
1

> <s_lp_Variant>
AV-unprocessed.smi:1495-1

> <Gold.Version>
5.8.1

> <Gold.Id.Protein>
6NUR|6NUR_protein|mol2

> <Gold.PLP.Fitness>
44.0601

> <Gold.PLP.PLP>
-38.2260

> <Gold.PLP.part.hbond>
-1.0000

> <Gold.PLP.part.metal>
0.0000

> <Gold.PLP.part.buried>
-1.2014

> <Gold.PLP.part.nonpolar>
-34.9424

> <Gold.PLP.part.repulsive>
0.1744

> <Gold.PLP.ligand.clash>
0.0000

> <Gold.PLP.ligand.torsion>
0.1024

> <Gold.PLP.Chemscore.Hbond>
1.0000

> <Gold.PLP.Chemscore.CHOScore>
1.0000

> <Gold.PLP.Chemscore.Metal>
0.0000

> <Gold.Chemscore.Hbonds>
donor molecule, donor type, donor heavy atom, donor atom, acceptor molecule, acceptor atom, score
      P1  H  7997  8008       L1     7  0.48
      L1  C    12    33       P1  7957  1.00

> <Gold.PLP.Chemscore.Internal.Correction>
0.0390

> <Gold.Rescore>
     Score         DG    S(hbond)    S(metal)    S(lipo)     H(rot)  DE(clash)    DE(int)     intcor
     13.85     -15.61       0.76        0.00      95.91       1.42       0.30       1.47       ----

> <Gold.Chemscore.Fitness>
13.8467

> <Gold.Chemscore.DG>
-15.6141

> <Gold.Chemscore.ZeroCoef>
-5.4800

> <Gold.Chemscore.Hbond>
0.7637

> <Gold.Chemscore.Metal>
0.0000

> <Gold.Chemscore.Lipo>
95.9148

> <Gold.Chemscore.Internal_Hbond>
0.0000

> <Gold.Chemscore.DEClash>
0.2995

> <Gold.Chemscore.DEInternal>
1.4678

> <Gold.Chemscore.Rot>
1.4214

> <Gold.Chemscore.Internal.Correction>
   9.000000E+99

> <Gold.Chemscore.Hbonds>
donor molecule, donor type, donor heavy atom, donor atom, acceptor molecule, acceptor atom, score
      P1  H  7997  8008       L1     7  0.14

> <Gold.Chemscore.Hbond.Weighted>
-2.5509

> <Gold.Chemscore.Metal.Weighted>
-0.0000

> <Gold.Chemscore.Lipo.Weighted>
-11.2220

> <Gold.Chemscore.Internal_Hbond.Weighted>
0.0000

> <Gold.Chemscore.DEClash.Weighted>
0.2995

> <Gold.Chemscore.DEInternal.Weighted>
1.4678

> <Gold.Chemscore.Rot.Weighted>
3.6388

> <Gold.Chemscore.Internal.Correction.Weighted>
   9.000000E+99

> <Gold.Protein.RotatedTorsions>
[ 6907 6896 6895 6894 ] final   20.49 input  -60.11 | X-H torsion
[ 7974 7965 7964 7962 ] final   25.54 input  175.53 | X-H torsion
[ 8008 7997 7996 7995 ] final  -95.94 input   59.86 | X-H torsion
[ 10167 10162 10161 10158 ] final  128.95 input  -65.29 | X-H torsion
[ 10718 10713 10712 10709 ] final   56.95 input   66.30 | X-H torsion
[ 10763 10752 10751 10750 ] final -146.89 input  -60.55 | X-H torsion
[ 11005 11000 10999 10996 ] final -111.16 input  -57.11 | X-H torsion

> <Gold.Protein.ActiveResidues>
 VAL166  LYS551  ARG553  GLY616  TRP617  ASP618  TYR619  PRO620  LYS621  CYS622 
 ASP623  PHE694  ASN695  SER759  ASP760  ASP761  ALA762  ILE779  LEU786  VAL792 
 PHE793  MET794  SER795  GLU796  ALA797  LYS798  CYS799  TRP800  GLU811  SER814 

> <Gold.Protein.RotatedAtoms>
  151.8973  135.0393  160.0502 H   0  0  0  0  0  0  0  0  0  0  0  0  # atno 6907 bound_to 6896
  152.2387  133.5113  159.5266 H   0  0  0  0  0  0  0  0  0  0  0  0  # atno 6908 bound_to 6896
  150.7047  134.1034  159.4016 H   0  0  0  0  0  0  0  0  0  0  0  0  # atno 6909 bound_to 6896
  146.1883  139.7452  142.8850 H   0  0  0  0  0  0  0  0  0  0  0  0  # atno 7974 bound_to 7965
  154.7679  140.0475  157.1027 H   0  0  0  0  0  0  0  0  0  0  0  0  # atno 8008 bound_to 7997
  154.9856  140.3107  155.4908 H   0  0  0  0  0  0  0  0  0  0  0  0  # atno 8009 bound_to 7997
  156.2916  140.2228  156.4958 H   0  0  0  0  0  0  0  0  0  0  0  0  # atno 8010 bound_to 7997
  139.5501  144.6806  151.4349 H   0  0  0  0  0  0  0  0  0  0  0  0  # atno 10167 bound_to 10162
  157.5473  130.8740  149.8911 H   0  0  0  0  0  0  0  0  0  0  0  0  # atno 10718 bound_to 10713
  154.8314  135.3375  154.6732 H   0  0  0  0  0  0  0  0  0  0  0  0  # atno 10763 bound_to 10752
  153.7351  135.6949  153.4984 H   0  0  0  0  0  0  0  0  0  0  0  0  # atno 10764 bound_to 10752
  153.2284  135.4425  155.0519 H   0  0  0  0  0  0  0  0  0  0  0  0  # atno 10765 bound_to 10752
  141.0750  133.9316  157.2407 H   0  0  0  0  0  0  0  0  0  0  0  0  # atno 11005 bound_to 11000
  145.3870  141.0367  143.3145 LP  0  0  0  0  0  0  0  0  0  0  0  0  # atno 17320 bound_to 7965
  144.8439  139.5428  143.6888 LP  0  0  0  0  0  0  0  0  0  0  0  0  # atno 17321 bound_to 7965
  140.6762  143.8185  150.7061 LP  0  0  0  0  0  0  0  0  0  0  0  0  # atno 17342 bound_to 10162
  140.1624  143.4264  152.2057 LP  0  0  0  0  0  0  0  0  0  0  0  0  # atno 17343 bound_to 10162
  156.0547  130.3711  150.1119 LP  0  0  0  0  0  0  0  0  0  0  0  0  # atno 17370 bound_to 10713
  156.9295  130.9709  151.3535 LP  0  0  0  0  0  0  0  0  0  0  0  0  # atno 17371 bound_to 10713
  139.9563  135.0165  156.9136 LP  0  0  0  0  0  0  0  0  0  0  0  0  # atno 17394 bound_to 11000
  140.5592  134.0552  155.7393 LP  0  0  0  0  0  0  0  0  0  0  0  0  # atno 17395 bound_to 11000

$$$$
