#       Name:                AV-unprocessed.smi:1701
#       Creating user name   scv26
#       Creation time:       Fri Mar 27 08:01:22 2020


#       File generated by GOLD software.
#

@<TRIPOS>MOLECULE
AV-unprocessed.smi:1701
    57    59     1
SMALL
NO_CHARGES


@<TRIPOS>ATOM
      1 ****        -6.0505  -0.6759   2.9856 C.3            1 S1                 0.0000
      2 ****        -5.8030  -1.5768   1.7673 C.3            1 S1                 0.0000
      3 ****        -5.0054  -0.9293   0.7257 N.pl3          1 S1                 0.0000
      4 ****        -5.6778  -0.0746  -0.2561 C.3            1 S1                 0.0000
      5 ****        -5.5792   1.4216   0.0794 C.3            1 S1                 0.0000
      6 ****        -3.5896  -0.9934   0.7554 C.ar           1 S1                 0.0000
      7 ****        -2.8877  -1.5358   1.8618 C.ar           1 S1                 0.0000
      8 ****        -1.4806  -1.5782   1.8385 C.ar           1 S1                 0.0000
      9 ****        -0.7976  -1.0704   0.7103 C.ar           1 S1                 0.0000
     10 ****         0.6143  -1.0726   0.5560 N.am           1 S1                 0.0000
     11 ****         1.5667  -1.1454   1.5065 C.2            1 S1                 0.0000
     12 ****         1.3496  -1.2172   2.7135 O.2            1 S1                 0.0000
     13 ****         2.8238  -1.0990   1.0293 N.am           1 S1                 0.0000
     14 ****         4.0795  -1.1538   1.7820 C.3            1 S1                 0.0000
     15 ****         5.2887  -0.7372   0.9539 C.3            1 S1                 0.0000
     16 ****         6.4678  -1.3169   1.7413 C.3            1 S1                 0.0000
     17 ****         5.9500  -2.4892   2.4883 N.4            1 S1                 1.0000
     18 ****         6.6887  -3.7522   2.2201 C.3            1 S1                 0.0000
     19 ****         5.8847  -4.9702   2.6980 C.3            1 S1                 0.0000
     20 ****         4.5443  -5.0904   1.9485 C.3            1 S1                 0.0000
     21 ****         4.0625  -3.7413   1.3813 C.3            1 S1                 0.0000
     22 ****         4.4740  -2.5560   2.2889 C.3            1 S1                 0.0000
     23 ****        -1.5765  -0.5633  -0.3469 C.ar           1 S1                 0.0000
     24 ****        -2.9241  -0.5201  -0.3272 N.ar           1 S1                 0.0000
     25 ****        -6.6016  -1.2165   3.7549 H              1 S1                 0.0000
     26 ****        -6.6406   0.2004   2.7205 H              1 S1                 0.0000
     27 ****        -5.1161  -0.3313   3.4289 H              1 S1                 0.0000
     28 ****        -5.3409  -2.5156   2.0713 H              1 S1                 0.0000
     29 ****        -6.7644  -1.8637   1.3402 H              1 S1                 0.0000
     30 ****        -5.2804  -0.2640  -1.2537 H              1 S1                 0.0000
     31 ****        -6.7302  -0.3548  -0.3061 H              1 S1                 0.0000
     32 ****        -6.0939   2.0166  -0.6748 H              1 S1                 0.0000
     33 ****        -4.5430   1.7582   0.1114 H              1 S1                 0.0000
     34 ****        -6.0336   1.6501   1.0424 H              1 S1                 0.0000
     35 ****        -3.3947  -1.9179   2.7339 H              1 S1                 0.0000
     36 ****        -0.9601  -2.0097   2.6792 H              1 S1                 0.0000
     37 ****         0.9426  -0.9424  -0.3891 H              1 S1                 0.0000
     38 ****         2.9164  -0.9892   0.0294 H              1 S1                 0.0000
     39 ****         4.0175  -0.4723   2.6331 H              1 S1                 0.0000
     40 ****         5.2460  -1.1953  -0.0356 H              1 S1                 0.0000
     41 ****         5.3611   0.3426   0.8208 H              1 S1                 0.0000
     42 ****         7.3061  -1.5597   1.0867 H              1 S1                 0.0000
     43 ****         6.8262  -0.5883   2.4693 H              1 S1                 0.0000
     44 ****         6.8889  -3.8524   1.1518 H              1 S1                 0.0000
     45 ****         7.6570  -3.7101   2.7198 H              1 S1                 0.0000
     46 ****         6.4645  -5.8854   2.5732 H              1 S1                 0.0000
     47 ****         5.6972  -4.8726   3.7682 H              1 S1                 0.0000
     48 ****         4.6357  -5.8050   1.1298 H              1 S1                 0.0000
     49 ****         3.7946  -5.5006   2.6260 H              1 S1                 0.0000
     50 ****         4.4849  -3.5960   0.3861 H              1 S1                 0.0000
     51 ****         2.9813  -3.7807   1.2480 H              1 S1                 0.0000
     52 ****         4.0150  -2.7188   3.2651 H              1 S1                 0.0000
     53 ****        -1.1052  -0.1741  -1.2379 H              1 S1                 0.0000
     54 ****         6.0847  -2.2805   3.4674 H              1 S1                 0.0000
     55 ****         0.4090  -1.2246   3.0528 LP             1 S1                 0.0000
     56 ****         2.1136  -1.2682   3.3568 LP             1 S1                 0.0000
     57 ****        -3.4281  -0.1424  -1.1039 LP             1 S1                 0.0000
@<TRIPOS>BOND
    1    1    2 1     
    2    1   25 1     
    3    1   26 1     
    4    1   27 1     
    5    2    3 1     
    6    2   28 1     
    7    2   29 1     
    8    3    4 1     
    9    3    6 1     
   10    4    5 1     
   11    4   30 1     
   12    4   31 1     
   13    5   32 1     
   14    5   33 1     
   15    5   34 1     
   16    6   24 ar    
   17    6    7 ar    
   18    7    8 ar    
   19    7   35 1     
   20    8    9 ar    
   21    8   36 1     
   22    9   10 1     
   23    9   23 ar    
   24   10   11 am    
   25   10   37 1     
   26   11   12 2     
   27   11   13 am    
   28   13   14 1     
   29   13   38 1     
   30   14   22 1     
   31   14   15 1     
   32   14   39 1     
   33   15   16 1     
   34   15   40 1     
   35   15   41 1     
   36   16   17 1     
   37   16   42 1     
   38   16   43 1     
   39   17   22 1     
   40   17   18 1     
   41   17   54 1     
   42   18   19 1     
   43   18   44 1     
   44   18   45 1     
   45   19   20 1     
   46   19   46 1     
   47   19   47 1     
   48   20   21 1     
   49   20   48 1     
   50   20   49 1     
   51   21   22 1     
   52   21   50 1     
   53   21   51 1     
   54   22   52 1     
   55   23   24 ar    
   56   23   53 1     
   57   12   55 1     
   58   12   56 1     
   59   24   57 1     
@<TRIPOS>SUBSTRUCTURE
      1 S1             1
@<TRIPOS>SET
LONE_PAIRS      STATIC     ATOMS    <user>   **** ""
3 55 56 57
DONOR_HYDROGENS      STATIC     ATOMS    <user>   **** ""
3 37 38 54
ATOM$BLUE        STATIC     ATOMS    COLORGROUP SYSTEM
3 55 56 57
ATOM$RED        STATIC     ATOMS    COLORGROUP SYSTEM
3 37 38 54
