AV-unprocessed.smi:1626|AV-procd|sdf|6509|dock8
  -GOLD-   22720 7183D 1   1.00000     0.00000
 Structure written by MMmdl.
 48 50  0  0  0  0  0  0  0  0  2 V2000
  153.8924  142.6183  164.3265 C   0  0  0  0  0  0  0  0  0  0  0  0
  153.4452  142.7957  162.8863 C   0  0  0  0  0  0  0  0  0  0  0  0
  152.5847  143.8685  162.5614 C   0  0  0  0  0  0  0  0  0  0  0  0
  152.1482  144.0699  161.2340 C   0  0  0  0  0  0  0  0  0  0  0  0
  151.3190  145.0400  160.6973 N   0  0  0  0  0  0  0  0  0  0  0  0
  151.2978  144.6950  159.4134 C   0  0  0  0  0  0  0  0  0  0  0  0
  152.0102  143.6089  159.0554 N   0  0  0  0  0  0  0  0  0  0  0  0
  152.1360  143.0407  157.7253 C   0  0  0  0  0  0  0  0  0  0  0  0
  150.9037  142.2087  157.3205 C   0  0  1  0  0  0  0  0  0  0  0  0
  149.7422  143.0092  157.4323 O   0  0  0  0  0  0  0  0  0  0  0  0
  151.0132  141.6989  155.8700 C   0  0  0  0  0  0  0  0  0  0  0  0
  150.2065  140.4739  155.6325 N   0  3  2  0  0  0  0  0  0  0  0  0
  150.9842  139.3656  155.0171 C   0  0  0  0  0  0  0  0  0  0  0  0
  150.1448  138.0777  154.9265 C   0  0  0  0  0  0  0  0  0  0  0  0
  148.8188  138.3057  154.1817 C   0  0  2  0  0  0  0  0  0  0  0  0
  149.0625  138.5224  152.8062 O   0  0  0  0  0  0  0  0  0  0  0  0
  148.0690  139.5075  154.7797 C   0  0  0  0  0  0  0  0  0  0  0  0
  148.9636  140.7566  154.8697 C   0  0  0  0  0  0  0  0  0  0  0  0
  152.5980  143.1601  160.2327 C   0  0  0  0  0  0  0  0  0  0  0  0
  153.4529  142.0881  160.5432 C   0  0  0  0  0  0  0  0  0  0  0  0
  153.8806  141.9023  161.8746 C   0  0  0  0  0  0  0  0  0  0  0  0
  154.8057  140.7431  162.2009 C   0  0  0  0  0  0  0  0  0  0  0  0
  153.4785  143.3943  164.9710 H   0  0  0  0  0  0  0  0  0  0  0  0
  154.9792  142.6691  164.3984 H   0  0  0  0  0  0  0  0  0  0  0  0
  153.5639  141.6529  164.7121 H   0  0  0  0  0  0  0  0  0  0  0  0
  152.2527  144.5490  163.3318 H   0  0  0  0  0  0  0  0  0  0  0  0
  150.7273  145.2614  158.6918 H   0  0  0  0  0  0  0  0  0  0  0  0
  152.3022  143.8514  157.0142 H   0  0  0  0  0  0  0  0  0  0  0  0
  153.0330  142.4202  157.7050 H   0  0  0  0  0  0  0  0  0  0  0  0
  150.8075  141.3723  158.0123 H   0  0  0  0  0  0  0  0  0  0  0  0
  149.4745  143.2724  156.5642 H   0  0  0  0  0  0  0  0  0  0  0  0
  150.6797  142.4952  155.2021 H   0  0  0  0  0  0  0  0  0  0  0  0
  152.0541  141.5018  155.6085 H   0  0  0  0  0  0  0  0  0  0  0  0
  151.3227  139.6654  154.0241 H   0  0  0  0  0  0  0  0  0  0  0  0
  151.8797  139.1593  155.6018 H   0  0  0  0  0  0  0  0  0  0  0  0
  150.7197  137.2865  154.4435 H   0  0  0  0  0  0  0  0  0  0  0  0
  149.9305  137.7233  155.9358 H   0  0  0  0  0  0  0  0  0  0  0  0
  148.1964  137.4138  154.2632 H   0  0  0  0  0  0  0  0  0  0  0  0
  149.0762  137.6858  152.3660 H   0  0  0  0  0  0  0  0  0  0  0  0
  147.1749  139.7260  154.1944 H   0  0  0  0  0  0  0  0  0  0  0  0
  147.7201  139.2488  155.7804 H   0  0  0  0  0  0  0  0  0  0  0  0
  148.4046  141.5560  155.3577 H   0  0  0  0  0  0  0  0  0  0  0  0
  149.2202  141.1148  153.8714 H   0  0  0  0  0  0  0  0  0  0  0  0
  153.7777  141.4156  159.7633 H   0  0  0  0  0  0  0  0  0  0  0  0
  155.0347  140.1534  161.3128 H   0  0  0  0  0  0  0  0  0  0  0  0
  154.3438  140.0801  162.9326 H   0  0  0  0  0  0  0  0  0  0  0  0
  155.7473  141.1095  162.6107 H   0  0  0  0  0  0  0  0  0  0  0  0
  149.9084  140.1579  156.5446 H   0  0  0  0  0  0  0  0  0  0  0  0
  1  2  1  0  0  0  0
  1 23  1  0  0  0  0
  1 24  1  0  0  0  0
  1 25  1  0  0  0  0
  2 21  1  0  0  0  0
  2  3  2  0  0  0  0
  3  4  1  0  0  0  0
  3 26  1  0  0  0  0
  4 19  2  0  0  0  0
  4  5  1  0  0  0  0
  5  6  2  0  0  0  0
  6  7  1  0  0  0  0
  6 27  1  0  0  0  0
  7  8  1  0  0  0  0
  7 19  1  0  0  0  0
  8  9  1  0  0  0  0
  8 28  1  0  0  0  0
  8 29  1  0  0  0  0
  9 10  1  0  0  0  0
  9 11  1  0  0  0  0
  9 30  1  0  0  0  0
 10 31  1  0  0  0  0
 11 12  1  0  0  0  0
 11 32  1  0  0  0  0
 11 33  1  0  0  0  0
 12 18  1  0  0  0  0
 12 13  1  0  0  0  0
 12 48  1  0  0  0  0
 13 14  1  0  0  0  0
 13 34  1  0  0  0  0
 13 35  1  0  0  0  0
 14 15  1  0  0  0  0
 14 36  1  0  0  0  0
 14 37  1  0  0  0  0
 15 16  1  0  0  0  0
 15 17  1  0  0  0  0
 15 38  1  0  0  0  0
 16 39  1  0  0  0  0
 17 18  1  0  0  0  0
 17 40  1  0  0  0  0
 17 41  1  0  0  0  0
 18 42  1  0  0  0  0
 18 43  1  0  0  0  0
 19 20  1  0  0  0  0
 20 21  2  0  0  0  0
 20 44  1  0  0  0  0
 21 22  1  0  0  0  0
 22 45  1  0  0  0  0
 22 46  1  0  0  0  0
 22 47  1  0  0  0  0
M  CHG  1  12   1
M  END
> <s_m_source_file>
AV-unprocessed.smi

> <i_m_source_file_index>
1626

> <i_lp_mmshare_version>
43012

> <i_f3d_flags>
0

> <s_epik_input>
W0NIM11jKFtjSF0xKWMoW0NIM10pW2NIXWMoYzEyKW4oW2NIXW4yKVtDSDJdW0NASF0oW09IXSlbQ0gyXU4zW0NIMl1bQ0gyXVtDSF0oW09IXSlbQ0gyXVtDSDJdMw==

> <s_epik_cmdline>
J2VwaWtfcHl0aG9uJywgJy1waCcsICc3LjAnLCAnLXRuJywgJzgnLCAnLW1hJywgJzIwMCcsICctbWV0YWxfYmluZGluZycsICctaW1hZScsICc8aW5maWxlLm1hZT4nLCAnLW9tYWUnLCAnPG91dGZpbGUubWFlPic=

> <r_epik_Ionization_Penalty>
0.106584

> <r_epik_Ionization_Penalty_Charging>
0.0185694

> <r_epik_Ionization_Penalty_Neutral>
0.0880147

> <r_epik_State_Penalty>
0.0908428

> <r_epik_Charging_Adjusted_Penalty>
0.109412

> <i_epik_Tot_Q>
1

> <i_epik_Tot_abs_Q>
1

> <r_epik_Metal_State_Penalty>
0.0153739

> <b_epik_Metal_Only>
0

> <s_lp_Force_Field>
OPLS_2005

> <r_lp_Energy>
22.63

> <b_lp_Chiralities_Consistent>
1

> <s_lp_Variant>
AV-unprocessed.smi:1626-4

> <Gold.Version>
5.8.1

> <Gold.Id.Protein>
6NUR|6NUR_protein|mol2

> <Gold.PLP.Fitness>
54.1993

> <Gold.PLP.PLP>
-50.5453

> <Gold.PLP.part.hbond>
-2.9399

> <Gold.PLP.part.metal>
0.0000

> <Gold.PLP.part.buried>
-4.7154

> <Gold.PLP.part.nonpolar>
-41.7752

> <Gold.PLP.part.repulsive>
0.8021

> <Gold.PLP.ligand.clash>
0.0000

> <Gold.PLP.ligand.torsion>
1.2011

> <Gold.PLP.Chemscore.Hbond>
2.0000

> <Gold.PLP.Chemscore.CHOScore>
0.0000

> <Gold.PLP.Chemscore.Metal>
0.0000

> <Gold.Chemscore.Hbonds>
donor molecule, donor type, donor heavy atom, donor atom, acceptor molecule, acceptor atom, score
      L1  H    10    31       P1  8028  0.80
      L1  H    16    39       P1  7948  0.94

> <Gold.PLP.Chemscore.Internal.Correction>
0.0563

> <Gold.Rescore>
     Score         DG    S(hbond)    S(metal)    S(lipo)     H(rot)  DE(clash)    DE(int)     intcor
     17.70     -21.09       1.85        0.00     139.19       2.67       1.09       2.30       ----

> <Gold.Chemscore.Fitness>
17.6978

> <Gold.Chemscore.DG>
-21.0916

> <Gold.Chemscore.ZeroCoef>
-5.4800

> <Gold.Chemscore.Hbond>
1.8457

> <Gold.Chemscore.Metal>
0.0000

> <Gold.Chemscore.Lipo>
139.1906

> <Gold.Chemscore.Internal_Hbond>
0.0000

> <Gold.Chemscore.DEClash>
1.0929

> <Gold.Chemscore.DEInternal>
2.3009

> <Gold.Chemscore.Rot>
2.6712

> <Gold.Chemscore.Internal.Correction>
   9.000000E+99

> <Gold.Chemscore.Hbonds>
donor molecule, donor type, donor heavy atom, donor atom, acceptor molecule, acceptor atom, score
      L1  H    10    31       P1  8028  0.80
      L1  H    16    39       P1  7948  0.87

> <Gold.Chemscore.Hbond.Weighted>
-6.1647

> <Gold.Chemscore.Metal.Weighted>
-0.0000

> <Gold.Chemscore.Lipo.Weighted>
-16.2853

> <Gold.Chemscore.Internal_Hbond.Weighted>
0.0000

> <Gold.Chemscore.DEClash.Weighted>
1.0929

> <Gold.Chemscore.DEInternal.Weighted>
2.3009

> <Gold.Chemscore.Rot.Weighted>
6.8383

> <Gold.Chemscore.Internal.Correction.Weighted>
   9.000000E+99

> <Gold.Protein.RotatedTorsions>
[ 6907 6896 6895 6894 ] final  156.71 input  -60.11 | X-H torsion
[ 7974 7965 7964 7962 ] final  -18.79 input  175.53 | X-H torsion
[ 8008 7997 7996 7995 ] final   70.52 input   59.86 | X-H torsion
[ 10167 10162 10161 10158 ] final   67.44 input  -65.29 | X-H torsion
[ 10718 10713 10712 10709 ] final  143.50 input   66.30 | X-H torsion
[ 10763 10752 10751 10750 ] final -145.76 input  -60.55 | X-H torsion
[ 11005 11000 10999 10996 ] final  -40.37 input  -57.11 | X-H torsion

> <Gold.Protein.ActiveResidues>
 VAL166  LYS551  ARG553  GLY616  TRP617  ASP618  TYR619  PRO620  LYS621  CYS622 
 ASP623  PHE694  ASN695  SER759  ASP760  ASP761  ALA762  ILE779  LEU786  VAL792 
 PHE793  MET794  SER795  GLU796  ALA797  LYS798  CYS799  TRP800  GLU811  SER814 

> <Gold.Protein.RotatedAtoms>
  152.0258  133.3917  159.4276 H   0  0  0  0  0  0  0  0  0  0  0  0  # atno 6907 bound_to 6896
  150.6886  134.3576  159.4945 H   0  0  0  0  0  0  0  0  0  0  0  0  # atno 6908 bound_to 6896
  152.1355  134.9102  160.0607 H   0  0  0  0  0  0  0  0  0  0  0  0  # atno 6909 bound_to 6896
  146.1874  140.3970  142.8471 H   0  0  0  0  0  0  0  0  0  0  0  0  # atno 7974 bound_to 7965
  155.7400  140.3490  155.5099 H   0  0  0  0  0  0  0  0  0  0  0  0  # atno 8008 bound_to 7997
  155.9103  140.1049  157.1305 H   0  0  0  0  0  0  0  0  0  0  0  0  # atno 8009 bound_to 7997
  154.4055  140.1269  156.4536 H   0  0  0  0  0  0  0  0  0  0  0  0  # atno 8010 bound_to 7997
  140.0895  144.5000  150.7108 H   0  0  0  0  0  0  0  0  0  0  0  0  # atno 10167 bound_to 10162
  157.3682  131.0975  151.0853 H   0  0  0  0  0  0  0  0  0  0  0  0  # atno 10718 bound_to 10713
  154.8368  135.3404  154.6554 H   0  0  0  0  0  0  0  0  0  0  0  0  # atno 10763 bound_to 10752
  153.7168  135.6960  153.5027 H   0  0  0  0  0  0  0  0  0  0  0  0  # atno 10764 bound_to 10752
  153.2411  135.4384  155.0651 H   0  0  0  0  0  0  0  0  0  0  0  0  # atno 10765 bound_to 10752
  141.0170  133.6881  156.2313 H   0  0  0  0  0  0  0  0  0  0  0  0  # atno 11005 bound_to 11000
  144.8423  140.6876  143.6221 LP  0  0  0  0  0  0  0  0  0  0  0  0  # atno 17320 bound_to 7965
  145.3896  139.1619  143.4236 LP  0  0  0  0  0  0  0  0  0  0  0  0  # atno 17321 bound_to 7965
  140.7036  143.2452  151.4792 LP  0  0  0  0  0  0  0  0  0  0  0  0  # atno 17342 bound_to 10162
  139.5733  144.1878  152.1867 LP  0  0  0  0  0  0  0  0  0  0  0  0  # atno 17343 bound_to 10162
  157.1967  130.6376  149.5724 LP  0  0  0  0  0  0  0  0  0  0  0  0  # atno 17370 bound_to 10713
  155.9750  130.4704  150.6429 LP  0  0  0  0  0  0  0  0  0  0  0  0  # atno 17371 bound_to 10713
  140.6638  134.4940  157.5584 LP  0  0  0  0  0  0  0  0  0  0  0  0  # atno 17394 bound_to 11000
  139.9123  134.8319  156.1486 LP  0  0  0  0  0  0  0  0  0  0  0  0  # atno 17395 bound_to 11000

$$$$
