AV-unprocessed.smi:2895|AV-procd|sdf|11128|dock2
  -GOLD-   2272016 03D 1   1.00000     0.00000
 Structure written by MMmdl.
 53 56  0  0  0  0  0  0  0  0  2 V2000
  149.1660  141.7162  153.8099 O   0  0  0  0  0  0  0  0  0  0  0  0
  148.8948  140.9267  154.7154 C   0  0  0  0  0  0  0  0  0  0  0  0
  149.5532  140.9337  155.8871 N   0  0  0  0  0  0  0  0  0  0  0  0
  150.6471  141.8340  156.2344 C   0  0  0  0  0  0  0  0  0  0  0  0
  151.3553  141.3985  157.5280 C   0  0  0  0  0  0  0  0  0  0  0  0
  151.6759  142.5754  158.4286 C   0  0  0  0  0  0  0  0  0  0  0  0
  151.4278  143.8961  158.0012 C   0  0  0  0  0  0  0  0  0  0  0  0
  151.7413  144.9553  158.8763 C   0  0  0  0  0  0  0  0  0  0  0  0
  152.2685  144.7702  160.1059 N   0  0  0  0  0  0  0  0  0  0  0  0
  152.5030  143.5026  160.5080 C   0  0  0  0  0  0  0  0  0  0  0  0
  152.2249  142.3736  159.7117 C   0  0  0  0  0  0  0  0  0  0  0  0
  147.8955  140.0118  154.6276 N   0  0  0  0  0  0  0  0  0  0  0  0
  147.7775  138.7714  155.4112 C   0  0  0  0  0  0  0  0  0  0  0  0
  147.9883  137.5562  154.4829 C   0  0  0  0  0  0  0  0  0  0  0  0
  147.0640  137.5702  153.3120 N   0  3  0  0  0  0  0  0  0  0  0  0
  145.6857  137.0923  153.6373 C   0  0  2  0  0  0  0  0  0  0  0  0
  145.6404  135.6818  154.2758 C   0  0  0  0  0  0  0  0  0  0  0  0
  144.5837  134.9452  153.4308 C   0  0  2  0  0  0  0  0  0  0  0  0
  145.2044  134.5783  152.0721 C   0  0  0  0  0  0  0  0  0  0  0  0
  145.3196  135.9469  151.3778 C   0  0  0  0  0  0  0  0  0  0  0  0
  144.7340  136.9185  152.4257 C   0  0  1  0  0  0  0  0  0  0  0  0
  143.6293  136.0679  153.0436 C   0  0  0  0  0  0  0  0  0  0  0  0
  147.1119  138.8797  152.6004 C   0  0  0  0  0  0  0  0  0  0  0  0
  146.8895  140.0638  153.5608 C   0  0  0  0  0  0  0  0  0  0  0  0
  149.2684  140.2719  156.5943 H   0  0  0  0  0  0  0  0  0  0  0  0
  151.3575  141.8930  155.4078 H   0  0  0  0  0  0  0  0  0  0  0  0
  150.2320  142.8344  156.3589 H   0  0  0  0  0  0  0  0  0  0  0  0
  150.7330  140.6879  158.0738 H   0  0  0  0  0  0  0  0  0  0  0  0
  152.2851  140.8772  157.2960 H   0  0  0  0  0  0  0  0  0  0  0  0
  151.0058  144.0954  157.0270 H   0  0  0  0  0  0  0  0  0  0  0  0
  151.5632  145.9786  158.5804 H   0  0  0  0  0  0  0  0  0  0  0  0
  152.9252  143.3836  161.4948 H   0  0  0  0  0  0  0  0  0  0  0  0
  152.4299  141.3792  160.0807 H   0  0  0  0  0  0  0  0  0  0  0  0
  148.4755  138.7052  156.2452 H   0  0  0  0  0  0  0  0  0  0  0  0
  146.7875  138.7361  155.8670 H   0  0  0  0  0  0  0  0  0  0  0  0
  149.0103  137.5752  154.1020 H   0  0  0  0  0  0  0  0  0  0  0  0
  147.9024  136.6304  155.0509 H   0  0  0  0  0  0  0  0  0  0  0  0
  145.2250  137.8021  154.3257 H   0  0  0  0  0  0  0  0  0  0  0  0
  146.5971  135.1588  154.2444 H   0  0  0  0  0  0  0  0  0  0  0  0
  145.3327  135.7472  155.3202 H   0  0  0  0  0  0  0  0  0  0  0  0
  144.1221  134.0999  153.9423 H   0  0  0  0  0  0  0  0  0  0  0  0
  146.1684  134.0787  152.1741 H   0  0  0  0  0  0  0  0  0  0  0  0
  144.5439  133.9172  151.5093 H   0  0  0  0  0  0  0  0  0  0  0  0
  146.3460  136.1867  151.1003 H   0  0  0  0  0  0  0  0  0  0  0  0
  144.7216  135.9596  150.4657 H   0  0  0  0  0  0  0  0  0  0  0  0
  144.3764  137.8581  152.0039 H   0  0  0  0  0  0  0  0  0  0  0  0
  142.8668  135.7598  152.3258 H   0  0  0  0  0  0  0  0  0  0  0  0
  143.1435  136.5391  153.9002 H   0  0  0  0  0  0  0  0  0  0  0  0
  148.0987  138.9755  152.1454 H   0  0  0  0  0  0  0  0  0  0  0  0
  146.4094  138.9186  151.7696 H   0  0  0  0  0  0  0  0  0  0  0  0
  145.8933  140.0179  154.0023 H   0  0  0  0  0  0  0  0  0  0  0  0
  146.9152  140.9989  152.9998 H   0  0  0  0  0  0  0  0  0  0  0  0
  147.4240  136.8886  152.6591 H   0  0  0  0  0  0  0  0  0  0  0  0
  1  2  2  0  0  0  0
  2  3  1  0  0  0  0
  2 12  1  0  0  0  0
  3  4  1  0  0  0  0
  3 25  1  0  0  0  0
  4  5  1  0  0  0  0
  4 26  1  0  0  0  0
  4 27  1  0  0  0  0
  5  6  1  0  0  0  0
  5 28  1  0  0  0  0
  5 29  1  0  0  0  0
  6 11  1  0  0  0  0
  6  7  2  0  0  0  0
  7  8  1  0  0  0  0
  7 30  1  0  0  0  0
  8  9  2  0  0  0  0
  8 31  1  0  0  0  0
  9 10  1  0  0  0  0
 10 11  2  0  0  0  0
 10 32  1  0  0  0  0
 11 33  1  0  0  0  0
 12 24  1  0  0  0  0
 12 13  1  0  0  0  0
 13 14  1  0  0  0  0
 13 34  1  0  0  0  0
 13 35  1  0  0  0  0
 14 15  1  0  0  0  0
 14 36  1  0  0  0  0
 14 37  1  0  0  0  0
 15 16  1  0  0  0  0
 15 23  1  0  0  0  0
 15 53  1  0  0  0  0
 16 21  1  0  0  0  0
 16 17  1  0  0  0  0
 16 38  1  0  0  0  0
 17 18  1  0  0  0  0
 17 39  1  0  0  0  0
 17 40  1  0  0  0  0
 18 22  1  0  0  0  0
 18 19  1  0  0  0  0
 18 41  1  0  0  0  0
 19 20  1  0  0  0  0
 19 42  1  0  0  0  0
 19 43  1  0  0  0  0
 20 21  1  0  0  0  0
 20 44  1  0  0  0  0
 20 45  1  0  0  0  0
 21 22  1  0  0  0  0
 21 46  1  0  0  0  0
 22 47  1  0  0  0  0
 22 48  1  0  0  0  0
 23 24  1  0  0  0  0
 23 49  1  0  0  0  0
 23 50  1  0  0  0  0
 24 51  1  0  0  0  0
 24 52  1  0  0  0  0
M  CHG  1  15   1
M  END
> <s_m_source_file>
AV-unprocessed.smi

> <i_m_source_file_index>
2895

> <i_lp_mmshare_version>
43012

> <i_f3d_flags>
0

> <s_epik_input>
W0NIMl0xW0NIMl1bQ0BASF0oW0NIMl0yKVtDQEBIXShbQ0gyXVtDQEhdMTIpTihbQ0gyXVtDSDJdMylbQ0gyXVtDSDJdTjNDKD1PKVtOSF1bQ0gyXVtDSDJdYzRbY0hdW2NIXW5bY0hdW2NIXTQ=

> <s_epik_cmdline>
J2VwaWtfcHl0aG9uJywgJy1waCcsICc3LjAnLCAnLXRuJywgJzgnLCAnLW1hJywgJzIwMCcsICctbWV0YWxfYmluZGluZycsICctaW1hZScsICc8aW5maWxlLm1hZT4nLCAnLW9tYWUnLCAnPG91dGZpbGUubWFlPic=

> <r_epik_Ionization_Penalty>
0.0566172

> <r_epik_Ionization_Penalty_Charging>
0.00262064

> <r_epik_Ionization_Penalty_Neutral>
0.0539965

> <r_epik_State_Penalty>
0.0463959

> <r_epik_Charging_Adjusted_Penalty>
0.0490165

> <i_epik_Tot_Q>
1

> <i_epik_Tot_abs_Q>
1

> <r_epik_Metal_State_Penalty>
0.0424856

> <b_epik_Metal_Only>
0

> <s_lp_Force_Field>
OPLS_2005

> <r_lp_Energy>
99.7754

> <b_lp_Chiralities_Consistent>
1

> <s_lp_Variant>
AV-unprocessed.smi:2895-1

> <Gold.Version>
5.8.1

> <Gold.Id.Protein>
6NUR|6NUR_protein|mol2

> <Gold.PLP.Fitness>
47.5871

> <Gold.PLP.PLP>
-41.2727

> <Gold.PLP.part.hbond>
-2.9691

> <Gold.PLP.part.metal>
0.0000

> <Gold.PLP.part.buried>
-2.2587

> <Gold.PLP.part.nonpolar>
-36.0037

> <Gold.PLP.part.repulsive>
0.3867

> <Gold.PLP.ligand.clash>
0.0000

> <Gold.PLP.ligand.torsion>
0.5598

> <Gold.PLP.Chemscore.Hbond>
2.4320

> <Gold.PLP.Chemscore.CHOScore>
0.0000

> <Gold.PLP.Chemscore.Metal>
0.0000

> <Gold.Chemscore.Hbonds>
donor molecule, donor type, donor heavy atom, donor atom, acceptor molecule, acceptor atom, score
      L1  H    15    53       P1  7948  1.79
      P1  H  8011  8017       L1     1  0.62

> <Gold.PLP.Chemscore.Internal.Correction>
0.1380

> <Gold.Rescore>
     Score         DG    S(hbond)    S(metal)    S(lipo)     H(rot)  DE(clash)    DE(int)     intcor
     19.71     -20.29       1.54        0.00     112.78       1.37       0.01       0.56       ----

> <Gold.Chemscore.Fitness>
19.7119

> <Gold.Chemscore.DG>
-20.2882

> <Gold.Chemscore.ZeroCoef>
-5.4800

> <Gold.Chemscore.Hbond>
1.5354

> <Gold.Chemscore.Metal>
0.0000

> <Gold.Chemscore.Lipo>
112.7793

> <Gold.Chemscore.Internal_Hbond>
0.0000

> <Gold.Chemscore.DEClash>
0.0149

> <Gold.Chemscore.DEInternal>
0.5615

> <Gold.Chemscore.Rot>
1.3731

> <Gold.Chemscore.Internal.Correction>
   9.000000E+99

> <Gold.Chemscore.Hbonds>
donor molecule, donor type, donor heavy atom, donor atom, acceptor molecule, acceptor atom, score
      L1  H    15    53       P1  7948  0.88
      P1  H  8011  8017       L1     1  0.62

> <Gold.Chemscore.Hbond.Weighted>
-5.1282

> <Gold.Chemscore.Metal.Weighted>
-0.0000

> <Gold.Chemscore.Lipo.Weighted>
-13.1952

> <Gold.Chemscore.Internal_Hbond.Weighted>
0.0000

> <Gold.Chemscore.DEClash.Weighted>
0.0149

> <Gold.Chemscore.DEInternal.Weighted>
0.5615

> <Gold.Chemscore.Rot.Weighted>
3.5152

> <Gold.Chemscore.Internal.Correction.Weighted>
   9.000000E+99

> <Gold.Protein.RotatedTorsions>
[ 6907 6896 6895 6894 ] final  176.36 input  -60.11 | X-H torsion
[ 7974 7965 7964 7962 ] final  108.56 input  175.53 | X-H torsion
[ 8008 7997 7996 7995 ] final   81.76 input   59.86 | X-H torsion
[ 10167 10162 10161 10158 ] final    5.81 input  -65.29 | X-H torsion
[ 10718 10713 10712 10709 ] final   94.72 input   66.30 | X-H torsion
[ 10763 10752 10751 10750 ] final   36.86 input  -60.55 | X-H torsion
[ 11005 11000 10999 10996 ] final -147.29 input  -57.11 | X-H torsion

> <Gold.Protein.ActiveResidues>
 VAL166  LYS551  ARG553  GLY616  TRP617  ASP618  TYR619  PRO620  LYS621  CYS622 
 ASP623  PHE694  ASN695  SER759  ASP760  ASP761  ALA762  ILE779  LEU786  VAL792 
 PHE793  MET794  SER795  GLU796  ALA797  LYS798  CYS799  TRP800  GLU811  SER814 

> <Gold.Protein.RotatedAtoms>
  151.7213  133.3314  159.3315 H   0  0  0  0  0  0  0  0  0  0  0  0  # atno 6907 bound_to 6896
  150.7651  134.6445  159.6264 H   0  0  0  0  0  0  0  0  0  0  0  0  # atno 6908 bound_to 6896
  152.3650  134.6820  160.0246 H   0  0  0  0  0  0  0  0  0  0  0  0  # atno 6909 bound_to 6896
  145.2791  139.2639  143.3925 H   0  0  0  0  0  0  0  0  0  0  0  0  # atno 7974 bound_to 7965
  155.9014  140.3433  155.6029 H   0  0  0  0  0  0  0  0  0  0  0  0  # atno 8008 bound_to 7997
  155.7495  140.0818  157.2227 H   0  0  0  0  0  0  0  0  0  0  0  0  # atno 8009 bound_to 7997
  154.4044  140.1556  156.2695 H   0  0  0  0  0  0  0  0  0  0  0  0  # atno 8010 bound_to 7997
  140.6462  143.7656  150.7502 H   0  0  0  0  0  0  0  0  0  0  0  0  # atno 10167 bound_to 10162
  157.6945  131.0522  150.4230 H   0  0  0  0  0  0  0  0  0  0  0  0  # atno 10718 bound_to 10713
  153.0060  135.6294  154.2052 H   0  0  0  0  0  0  0  0  0  0  0  0  # atno 10763 bound_to 10752
  154.1795  135.2814  155.3058 H   0  0  0  0  0  0  0  0  0  0  0  0  # atno 10764 bound_to 10752
  154.5845  135.5637  153.7278 H   0  0  0  0  0  0  0  0  0  0  0  0  # atno 10765 bound_to 10752
  140.7732  134.3165  157.5068 H   0  0  0  0  0  0  0  0  0  0  0  0  # atno 11005 bound_to 11000
  146.3222  140.3253  142.8636 LP  0  0  0  0  0  0  0  0  0  0  0  0  # atno 17320 bound_to 7965
  144.9269  140.7931  143.5713 LP  0  0  0  0  0  0  0  0  0  0  0  0  # atno 17321 bound_to 7965
  140.1298  143.4536  152.2261 LP  0  0  0  0  0  0  0  0  0  0  0  0  # atno 17342 bound_to 10162
  139.5673  144.7442  151.3988 LP  0  0  0  0  0  0  0  0  0  0  0  0  # atno 17343 bound_to 10162
  156.4603  130.4030  149.6580 LP  0  0  0  0  0  0  0  0  0  0  0  0  # atno 17370 bound_to 10713
  156.3697  130.7524  151.2506 LP  0  0  0  0  0  0  0  0  0  0  0  0  # atno 17371 bound_to 10713
  139.8753  134.9273  156.3423 LP  0  0  0  0  0  0  0  0  0  0  0  0  # atno 17394 bound_to 11000
  140.9553  133.7424  156.0328 LP  0  0  0  0  0  0  0  0  0  0  0  0  # atno 17395 bound_to 11000

$$$$
