AV-unprocessed.smi:1701|AV-procd|sdf|6835|dock5
  -GOLD-   22720 8 13D 1   1.00000     0.00000
 Structure written by MMmdl.
 54 56  0  0  0  0  0  0  0  0  2 V2000
  152.0223  139.2614  158.3239 C   0  0  0  0  0  0  0  0  0  0  0  0
  152.1220  140.4322  157.3357 C   0  0  0  0  0  0  0  0  0  0  0  0
  150.8172  140.9237  156.8926 N   0  0  0  0  0  0  0  0  0  0  0  0
  150.4490  142.3138  157.1725 C   0  0  0  0  0  0  0  0  0  0  0  0
  151.5385  143.0844  157.9342 C   0  0  0  0  0  0  0  0  0  0  0  0
  149.9863  140.1244  156.0679 C   0  0  0  0  0  0  0  0  0  0  0  0
  148.7227  139.6553  156.5086 C   0  0  0  0  0  0  0  0  0  0  0  0
  147.9357  138.8669  155.6476 C   0  0  0  0  0  0  0  0  0  0  0  0
  148.4292  138.5546  154.3607 C   0  0  0  0  0  0  0  0  0  0  0  0
  147.7268  137.7869  153.3939 N   0  0  0  0  0  0  0  0  0  0  0  0
  146.4206  137.4570  153.3655 C   0  0  0  0  0  0  0  0  0  0  0  0
  145.5967  137.7792  154.2178 O   0  0  0  0  0  0  0  0  0  0  0  0
  146.0700  136.6917  152.3159 N   0  0  0  0  0  0  0  0  0  0  0  0
  144.7449  136.1614  151.9859 C   0  0  2  0  0  0  0  0  0  0  0  0
  144.0080  135.6041  153.1974 C   0  0  0  0  0  0  0  0  0  0  0  0
  142.9331  134.7098  152.5716 C   0  0  0  0  0  0  0  0  0  0  0  0
  143.4557  134.2677  151.2556 N   0  3  2  0  0  0  0  0  0  0  0  0
  143.4899  132.7906  151.0834 C   0  0  0  0  0  0  0  0  0  0  0  0
  144.3829  132.3969  149.8976 C   0  0  0  0  0  0  0  0  0  0  0  0
  145.8424  132.8362  150.1206 C   0  0  0  0  0  0  0  0  0  0  0  0
  145.9596  134.0156  151.1050 C   0  0  0  0  0  0  0  0  0  0  0  0
  144.7458  134.9717  151.0044 C   0  0  2  0  0  0  0  0  0  0  0  0
  149.6877  139.0743  154.0037 C   0  0  0  0  0  0  0  0  0  0  0  0
  150.4444  139.8286  154.8263 N   0  0  0  0  0  0  0  0  0  0  0  0
  153.0136  138.9645  158.6657 H   0  0  0  0  0  0  0  0  0  0  0  0
  151.5641  138.3877  157.8623 H   0  0  0  0  0  0  0  0  0  0  0  0
  151.4346  139.5250  159.2034 H   0  0  0  0  0  0  0  0  0  0  0  0
  152.7098  141.2450  157.7612 H   0  0  0  0  0  0  0  0  0  0  0  0
  152.6860  140.1075  156.4607 H   0  0  0  0  0  0  0  0  0  0  0  0
  150.2006  142.8306  156.2450 H   0  0  0  0  0  0  0  0  0  0  0  0
  149.5329  142.3243  157.7635 H   0  0  0  0  0  0  0  0  0  0  0  0
  151.2205  144.1098  158.1216 H   0  0  0  0  0  0  0  0  0  0  0  0
  152.4691  143.1279  157.3684 H   0  0  0  0  0  0  0  0  0  0  0  0
  151.7561  142.6280  158.8988 H   0  0  0  0  0  0  0  0  0  0  0  0
  148.3372  139.8770  157.4914 H   0  0  0  0  0  0  0  0  0  0  0  0
  146.9688  138.5316  155.9893 H   0  0  0  0  0  0  0  0  0  0  0  0
  148.2990  137.3885  152.6647 H   0  0  0  0  0  0  0  0  0  0  0  0
  146.8163  136.4291  151.6878 H   0  0  0  0  0  0  0  0  0  0  0  0
  144.1304  136.9636  151.5719 H   0  0  0  0  0  0  0  0  0  0  0  0
  144.6822  134.9988  153.8053 H   0  0  0  0  0  0  0  0  0  0  0  0
  143.5890  136.3829  153.8353 H   0  0  0  0  0  0  0  0  0  0  0  0
  142.6682  133.8812  153.2300 H   0  0  0  0  0  0  0  0  0  0  0  0
  142.0241  135.2855  152.3941 H   0  0  0  0  0  0  0  0  0  0  0  0
  143.8679  132.3138  151.9896 H   0  0  0  0  0  0  0  0  0  0  0  0
  142.4726  132.4267  150.9365 H   0  0  0  0  0  0  0  0  0  0  0  0
  144.3400  131.3209  149.7258 H   0  0  0  0  0  0  0  0  0  0  0  0
  143.9950  132.8651  148.9919 H   0  0  0  0  0  0  0  0  0  0  0  0
  146.4314  132.0003  150.4995 H   0  0  0  0  0  0  0  0  0  0  0  0
  146.2824  133.1056  149.1598 H   0  0  0  0  0  0  0  0  0  0  0  0
  146.0311  133.6307  152.1233 H   0  0  0  0  0  0  0  0  0  0  0  0
  146.8950  134.5422  150.9147 H   0  0  0  0  0  0  0  0  0  0  0  0
  144.7191  135.3576  149.9843 H   0  0  0  0  0  0  0  0  0  0  0  0
  150.1062  138.8761  153.0275 H   0  0  0  0  0  0  0  0  0  0  0  0
  142.8111  134.6223  150.5636 H   0  0  0  0  0  0  0  0  0  0  0  0
  1  2  1  0  0  0  0
  1 25  1  0  0  0  0
  1 26  1  0  0  0  0
  1 27  1  0  0  0  0
  2  3  1  0  0  0  0
  2 28  1  0  0  0  0
  2 29  1  0  0  0  0
  3  4  1  0  0  0  0
  3  6  1  0  0  0  0
  4  5  1  0  0  0  0
  4 30  1  0  0  0  0
  4 31  1  0  0  0  0
  5 32  1  0  0  0  0
  5 33  1  0  0  0  0
  5 34  1  0  0  0  0
  6 24  1  0  0  0  0
  6  7  2  0  0  0  0
  7  8  1  0  0  0  0
  7 35  1  0  0  0  0
  8  9  2  0  0  0  0
  8 36  1  0  0  0  0
  9 10  1  0  0  0  0
  9 23  1  0  0  0  0
 10 11  1  0  0  0  0
 10 37  1  0  0  0  0
 11 12  2  0  0  0  0
 11 13  1  0  0  0  0
 13 14  1  0  0  0  0
 13 38  1  0  0  0  0
 14 22  1  0  0  0  0
 14 15  1  0  0  0  0
 14 39  1  0  0  0  0
 15 16  1  0  0  0  0
 15 40  1  0  0  0  0
 15 41  1  0  0  0  0
 16 17  1  0  0  0  0
 16 42  1  0  0  0  0
 16 43  1  0  0  0  0
 17 22  1  0  0  0  0
 17 18  1  0  0  0  0
 17 54  1  0  0  0  0
 18 19  1  0  0  0  0
 18 44  1  0  0  0  0
 18 45  1  0  0  0  0
 19 20  1  0  0  0  0
 19 46  1  0  0  0  0
 19 47  1  0  0  0  0
 20 21  1  0  0  0  0
 20 48  1  0  0  0  0
 20 49  1  0  0  0  0
 21 22  1  0  0  0  0
 21 50  1  0  0  0  0
 21 51  1  0  0  0  0
 22 52  1  0  0  0  0
 23 24  2  0  0  0  0
 23 53  1  0  0  0  0
M  CHG  1  17   1
M  END
> <s_m_source_file>
AV-unprocessed.smi

> <i_m_source_file_index>
1701

> <i_lp_mmshare_version>
43012

> <i_f3d_flags>
0

> <s_epik_input>
W0NIM11bQ0gyXU4oW0NIMl1bQ0gzXSljMVtjSF1bY0hdYyhbY0hdbjEpW05IXUMoPU8pW05IXVtDQEhdKFtDSDJdW0NIMl0yKVtDQEBIXShOMjMpW0NIMl1bQ0gyXVtDSDJdW0NIMl0z

> <s_epik_cmdline>
J2VwaWtfcHl0aG9uJywgJy1waCcsICc3LjAnLCAnLXRuJywgJzgnLCAnLW1hJywgJzIwMCcsICctbWV0YWxfYmluZGluZycsICctaW1hZScsICc8aW5maWxlLm1hZT4nLCAnLW9tYWUnLCAnPG91dGZpbGUubWFlPic=

> <r_lp_tautomer_probability>
1

> <r_epik_Ionization_Penalty>
0.56662

> <r_epik_Ionization_Penalty_Charging>
0.000974069

> <r_epik_Ionization_Penalty_Neutral>
0.565646

> <r_epik_State_Penalty>
2.0247

> <r_epik_Charging_Adjusted_Penalty>
2.02568

> <i_epik_Tot_Q>
1

> <i_epik_Tot_abs_Q>
1

> <r_epik_Metal_State_Penalty>
1.51504

> <b_epik_Metal_Only>
0

> <s_lp_Force_Field>
OPLS_2005

> <r_lp_Energy>
59.1107

> <b_lp_Chiralities_Consistent>
1

> <s_lp_Variant>
AV-unprocessed.smi:1701-15

> <Gold.Version>
5.8.1

> <Gold.Id.Protein>
6NUR|6NUR_protein|mol2

> <Gold.PLP.Fitness>
50.4000

> <Gold.PLP.PLP>
-37.8101

> <Gold.PLP.part.hbond>
-3.8863

> <Gold.PLP.part.metal>
0.0000

> <Gold.PLP.part.buried>
-3.8492

> <Gold.PLP.part.nonpolar>
-30.7364

> <Gold.PLP.part.repulsive>
0.2368

> <Gold.PLP.ligand.clash>
0.0000

> <Gold.PLP.ligand.torsion>
1.6403

> <Gold.PLP.Chemscore.Hbond>
4.3588

> <Gold.PLP.Chemscore.CHOScore>
0.9035

> <Gold.PLP.Chemscore.Metal>
0.0000

> <Gold.Chemscore.Hbonds>
donor molecule, donor type, donor heavy atom, donor atom, acceptor molecule, acceptor atom, score
      L1  H    10    37       P1  7948  1.00
      L1  H    13    38       P1  7948  0.56
      L1  H    17    54       P1 10186  1.78
      P1  H  7989  7998       L1    24  0.93
      L1  C    23    53       P1  7957  0.91

> <Gold.PLP.Chemscore.Internal.Correction>
0.0837

> <Gold.Rescore>
     Score         DG    S(hbond)    S(metal)    S(lipo)     H(rot)  DE(clash)    DE(int)     intcor
     16.39     -20.46       2.17        0.00      94.16       1.28       0.03       4.04       ----

> <Gold.Chemscore.Fitness>
16.3885

> <Gold.Chemscore.DG>
-20.4554

> <Gold.Chemscore.ZeroCoef>
-5.4800

> <Gold.Chemscore.Hbond>
2.1691

> <Gold.Chemscore.Metal>
0.0000

> <Gold.Chemscore.Lipo>
94.1623

> <Gold.Chemscore.Internal_Hbond>
0.0000

> <Gold.Chemscore.DEClash>
0.0316

> <Gold.Chemscore.DEInternal>
4.0353

> <Gold.Chemscore.Rot>
1.2838

> <Gold.Chemscore.Internal.Correction>
   9.000000E+99

> <Gold.Chemscore.Hbonds>
donor molecule, donor type, donor heavy atom, donor atom, acceptor molecule, acceptor atom, score
      L1  H    10    37       P1  7948  0.93
      L1  H    13    38       P1  7948  0.55
      L1  H    17    54       P1 10186  0.24
      P1  H  7989  7998       L1    24  0.31

> <Gold.Chemscore.Hbond.Weighted>
-7.2450

> <Gold.Chemscore.Metal.Weighted>
-0.0000

> <Gold.Chemscore.Lipo.Weighted>
-11.0170

> <Gold.Chemscore.Internal_Hbond.Weighted>
0.0000

> <Gold.Chemscore.DEClash.Weighted>
0.0316

> <Gold.Chemscore.DEInternal.Weighted>
4.0353

> <Gold.Chemscore.Rot.Weighted>
3.2865

> <Gold.Chemscore.Internal.Correction.Weighted>
   9.000000E+99

> <Gold.Protein.RotatedTorsions>
[ 6907 6896 6895 6894 ] final  158.23 input  -60.11 | X-H torsion
[ 7974 7965 7964 7962 ] final -160.19 input  175.53 | X-H torsion
[ 8008 7997 7996 7995 ] final -115.00 input   59.86 | X-H torsion
[ 10167 10162 10161 10158 ] final -128.58 input  -65.29 | X-H torsion
[ 10718 10713 10712 10709 ] final  179.97 input   66.30 | X-H torsion
[ 10763 10752 10751 10750 ] final  174.99 input  -60.55 | X-H torsion
[ 11005 11000 10999 10996 ] final   95.06 input  -57.11 | X-H torsion

> <Gold.Protein.ActiveResidues>
 VAL166  LYS551  ARG553  GLY616  TRP617  ASP618  TYR619  PRO620  LYS621  CYS622 
 ASP623  PHE694  ASN695  SER759  ASP760  ASP761  ALA762  ILE779  LEU786  VAL792 
 PHE793  MET794  SER795  GLU796  ALA797  LYS798  CYS799  TRP800  GLU811  SER814 

> <Gold.Protein.RotatedAtoms>
  152.0035  133.3834  159.4190 H   0  0  0  0  0  0  0  0  0  0  0  0  # atno 6907 bound_to 6896
  150.6907  134.3808  159.5042 H   0  0  0  0  0  0  0  0  0  0  0  0  # atno 6908 bound_to 6896
  152.1559  134.8951  160.0595 H   0  0  0  0  0  0  0  0  0  0  0  0  # atno 6909 bound_to 6896
  144.7436  140.3577  143.6102 H   0  0  0  0  0  0  0  0  0  0  0  0  # atno 7974 bound_to 7965
  155.0451  140.0392  157.2523 H   0  0  0  0  0  0  0  0  0  0  0  0  # atno 8008 bound_to 7997
  154.7184  140.2707  155.6540 H   0  0  0  0  0  0  0  0  0  0  0  0  # atno 8009 bound_to 7997
  156.2809  140.2708  156.1847 H   0  0  0  0  0  0  0  0  0  0  0  0  # atno 8010 bound_to 7997
  139.9488  143.6080  152.2482 H   0  0  0  0  0  0  0  0  0  0  0  0  # atno 10167 bound_to 10162
  156.8679  130.9774  151.3076 H   0  0  0  0  0  0  0  0  0  0  0  0  # atno 10718 bound_to 10713
  154.4615  135.2768  155.1709 H   0  0  0  0  0  0  0  0  0  0  0  0  # atno 10763 bound_to 10752
  154.3495  135.6153  153.5639 H   0  0  0  0  0  0  0  0  0  0  0  0  # atno 10764 bound_to 10752
  152.9855  135.5808  154.4979 H   0  0  0  0  0  0  0  0  0  0  0  0  # atno 10765 bound_to 10752
  139.8792  134.8879  156.3956 H   0  0  0  0  0  0  0  0  0  0  0  0  # atno 11005 bound_to 11000
  145.7210  139.1710  143.2484 LP  0  0  0  0  0  0  0  0  0  0  0  0  # atno 17320 bound_to 7965
  146.1277  140.7227  142.9427 LP  0  0  0  0  0  0  0  0  0  0  0  0  # atno 17321 bound_to 7965
  139.6645  144.7662  151.1899 LP  0  0  0  0  0  0  0  0  0  0  0  0  # atno 17342 bound_to 10162
  140.7589  143.5958  150.8749 LP  0  0  0  0  0  0  0  0  0  0  0  0  # atno 17343 bound_to 10162
  157.6212  130.8657  149.9112 LP  0  0  0  0  0  0  0  0  0  0  0  0  # atno 17370 bound_to 10713
  156.0742  130.3681  150.0713 LP  0  0  0  0  0  0  0  0  0  0  0  0  # atno 17371 bound_to 10713
  140.9303  133.7584  156.0016 LP  0  0  0  0  0  0  0  0  0  0  0  0  # atno 17394 bound_to 11000
  140.8339  134.3146  157.5339 LP  0  0  0  0  0  0  0  0  0  0  0  0  # atno 17395 bound_to 11000

$$$$
