AV-unprocessed.smi:3273|AV-procd|sdf|12521|dock7
  -GOLD-   2272018433D 1   1.00000     0.00000
 Structure written by MMmdl.
 41 42  0  0  0  0  0  0  0  0  1 V2000
  151.0079  144.6779  159.7725 C   0  0  0  0  0  0  0  0  0  0  0  0
  152.0437  143.9250  158.9133 C   0  0  0  0  0  0  0  0  0  0  0  0
  151.8799  144.3554  157.4432 C   0  0  0  0  0  0  0  0  0  0  0  0
  151.9567  142.3812  159.1120 C   0  0  1  0  0  0  0  0  0  0  0  0
  151.8862  141.5887  157.7803 C   0  0  0  0  0  0  0  0  0  0  0  0
  150.5169  141.4132  157.3012 N   0  0  0  0  0  0  0  0  0  0  0  0
  150.1693  140.8742  156.1224 C   0  0  0  0  0  0  0  0  0  0  0  0
  150.9806  140.4007  155.3267 O   0  0  0  0  0  0  0  0  0  0  0  0
  148.6796  140.8881  155.7803 C   0  0  0  0  0  0  0  0  0  0  0  0
  148.4190  141.5134  154.4211 C   0  0  0  0  0  0  0  0  0  0  0  0
  147.1072  142.2010  154.1199 C   0  0  0  0  0  0  0  0  0  0  0  0
  147.4426  140.8935  153.4457 C   0  0  0  0  0  0  0  0  0  0  0  0
  153.0480  141.8392  160.0026 C   0  0  0  0  0  0  0  0  0  0  0  0
  153.9517  140.8316  159.7932 C   0  0  0  0  0  0  0  0  0  0  0  0
  154.6837  140.7555  161.0085 C   0  0  0  0  0  0  0  0  0  0  0  0
  154.2724  141.6365  161.9019 N   0  0  0  0  0  0  0  0  0  0  0  0
  153.2656  142.2976  161.2918 N   0  0  0  0  0  0  0  0  0  0  0  0
  152.5753  143.3472  162.0180 C   0  0  0  0  0  0  0  0  0  0  0  0
  149.9918  144.3709  159.5232 H   0  0  0  0  0  0  0  0  0  0  0  0
  151.0749  145.7545  159.6139 H   0  0  0  0  0  0  0  0  0  0  0  0
  151.1514  144.5088  160.8391 H   0  0  0  0  0  0  0  0  0  0  0  0
  153.0313  144.2586  159.2348 H   0  0  0  0  0  0  0  0  0  0  0  0
  150.9494  143.9762  157.0194 H   0  0  0  0  0  0  0  0  0  0  0  0
  152.7031  144.0045  156.8218 H   0  0  0  0  0  0  0  0  0  0  0  0
  151.8653  145.4419  157.3521 H   0  0  0  0  0  0  0  0  0  0  0  0
  151.0062  142.2027  159.6158 H   0  0  0  0  0  0  0  0  0  0  0  0
  152.4933  142.0823  157.0206 H   0  0  0  0  0  0  0  0  0  0  0  0
  152.3344  140.6024  157.8917 H   0  0  0  0  0  0  0  0  0  0  0  0
  149.7801  141.7705  157.8920 H   0  0  0  0  0  0  0  0  0  0  0  0
  148.3135  139.8607  155.7860 H   0  0  0  0  0  0  0  0  0  0  0  0
  148.1124  141.4315  156.5372 H   0  0  0  0  0  0  0  0  0  0  0  0
  149.3042  141.9635  153.9748 H   0  0  0  0  0  0  0  0  0  0  0  0
  146.3353  142.1847  154.8867 H   0  0  0  0  0  0  0  0  0  0  0  0
  147.1423  143.1035  153.5132 H   0  0  0  0  0  0  0  0  0  0  0  0
  147.7051  140.9211  152.3901 H   0  0  0  0  0  0  0  0  0  0  0  0
  146.8947  140.0096  153.7666 H   0  0  0  0  0  0  0  0  0  0  0  0
  154.0662  140.2289  158.9045 H   0  0  0  0  0  0  0  0  0  0  0  0
  155.4922  140.0882  161.2674 H   0  0  0  0  0  0  0  0  0  0  0  0
  151.5248  143.0838  162.1383 H   0  0  0  0  0  0  0  0  0  0  0  0
  152.6499  144.2858  161.4689 H   0  0  0  0  0  0  0  0  0  0  0  0
  153.0156  143.4853  163.0064 H   0  0  0  0  0  0  0  0  0  0  0  0
  1  2  1  0  0  0  0
  1 19  1  0  0  0  0
  1 20  1  0  0  0  0
  1 21  1  0  0  0  0
  2  3  1  0  0  0  0
  2  4  1  0  0  0  0
  2 22  1  0  0  0  0
  3 23  1  0  0  0  0
  3 24  1  0  0  0  0
  3 25  1  0  0  0  0
  4  5  1  0  0  0  0
  4 13  1  0  0  0  0
  4 26  1  0  0  0  0
  5  6  1  0  0  0  0
  5 27  1  0  0  0  0
  5 28  1  0  0  0  0
  6  7  1  0  0  0  0
  6 29  1  0  0  0  0
  7  8  2  0  0  0  0
  7  9  1  0  0  0  0
  9 10  1  0  0  0  0
  9 30  1  0  0  0  0
  9 31  1  0  0  0  0
 10 12  1  0  0  0  0
 10 11  1  0  0  0  0
 10 32  1  0  0  0  0
 11 12  1  0  0  0  0
 11 33  1  0  0  0  0
 11 34  1  0  0  0  0
 12 35  1  0  0  0  0
 12 36  1  0  0  0  0
 13 17  1  0  0  0  0
 13 14  2  0  0  0  0
 14 15  1  0  0  0  0
 14 37  1  0  0  0  0
 15 16  2  0  0  0  0
 15 38  1  0  0  0  0
 16 17  1  0  0  0  0
 17 18  1  0  0  0  0
 18 39  1  0  0  0  0
 18 40  1  0  0  0  0
 18 41  1  0  0  0  0
M  END
> <s_m_source_file>
AV-unprocessed.smi

> <i_m_source_file_index>
3273

> <i_lp_mmshare_version>
43012

> <i_f3d_flags>
0

> <s_epik_input>
W0NIM11uMW5bY0hdW2NIXWMxW0NASF0oW0NIXShbQ0gzXSlbQ0gzXSlbQ0gyXVtOSF1DKD1PKVtDSDJdW0NIXTJbQ0gyXVtDSDJdMg==

> <s_epik_cmdline>
J2VwaWtfcHl0aG9uJywgJy1waCcsICc3LjAnLCAnLXRuJywgJzgnLCAnLW1hJywgJzIwMCcsICctbWV0YWxfYmluZGluZycsICctaW1hZScsICc8aW5maWxlLm1hZT4nLCAnLW9tYWUnLCAnPG91dGZpbGUubWFlPic=

> <r_lp_tautomer_probability>
1

> <r_epik_Ionization_Penalty>
0.00116261

> <r_epik_Ionization_Penalty_Charging>
0

> <r_epik_Ionization_Penalty_Neutral>
0.00116261

> <r_epik_State_Penalty>
-0

> <r_epik_Charging_Adjusted_Penalty>
0

> <i_epik_Tot_Q>
0

> <i_epik_Tot_abs_Q>
0

> <r_epik_Metal_State_Penalty>
-0

> <b_epik_Metal_Only>
0

> <s_lp_Force_Field>
OPLS_2005

> <r_lp_Energy>
15.0656

> <b_lp_Chiralities_Consistent>
1

> <s_lp_Variant>
AV-unprocessed.smi:3273-2

> <Gold.Version>
5.8.1

> <Gold.Id.Protein>
6NUR|6NUR_protein|mol2

> <Gold.PLP.Fitness>
48.5428

> <Gold.PLP.PLP>
-49.5635

> <Gold.PLP.part.hbond>
-2.0000

> <Gold.PLP.part.metal>
0.0000

> <Gold.PLP.part.buried>
-6.4289

> <Gold.PLP.part.nonpolar>
-40.7111

> <Gold.PLP.part.repulsive>
0.0724

> <Gold.PLP.ligand.clash>
0.0000

> <Gold.PLP.ligand.torsion>
2.3577

> <Gold.PLP.Chemscore.Hbond>
0.9920

> <Gold.PLP.Chemscore.CHOScore>
0.0000

> <Gold.PLP.Chemscore.Metal>
0.0000

> <Gold.Chemscore.Hbonds>
donor molecule, donor type, donor heavy atom, donor atom, acceptor molecule, acceptor atom, score
      P1  H  7989  7998       L1     8  1.00

> <Gold.PLP.Chemscore.Internal.Correction>
0.7187

> <Gold.Rescore>
     Score         DG    S(hbond)    S(metal)    S(lipo)     H(rot)  DE(clash)    DE(int)     intcor
     16.23     -18.77       0.97        0.00     121.91       1.64       0.12       2.42       ----

> <Gold.Chemscore.Fitness>
16.2275

> <Gold.Chemscore.DG>
-18.7672

> <Gold.Chemscore.ZeroCoef>
-5.4800

> <Gold.Chemscore.Hbond>
0.9669

> <Gold.Chemscore.Metal>
0.0000

> <Gold.Chemscore.Lipo>
121.9143

> <Gold.Chemscore.Internal_Hbond>
0.0000

> <Gold.Chemscore.DEClash>
0.1222

> <Gold.Chemscore.DEInternal>
2.4174

> <Gold.Chemscore.Rot>
1.6430

> <Gold.Chemscore.Internal.Correction>
   9.000000E+99

> <Gold.Chemscore.Hbonds>
donor molecule, donor type, donor heavy atom, donor atom, acceptor molecule, acceptor atom, score
      P1  H  7989  7998       L1     8  0.92

> <Gold.Chemscore.Hbond.Weighted>
-3.2294

> <Gold.Chemscore.Metal.Weighted>
-0.0000

> <Gold.Chemscore.Lipo.Weighted>
-14.2640

> <Gold.Chemscore.Internal_Hbond.Weighted>
0.0000

> <Gold.Chemscore.DEClash.Weighted>
0.1222

> <Gold.Chemscore.DEInternal.Weighted>
2.4174

> <Gold.Chemscore.Rot.Weighted>
4.2062

> <Gold.Chemscore.Internal.Correction.Weighted>
   9.000000E+99

> <Gold.Protein.RotatedTorsions>
[ 6907 6896 6895 6894 ] final   88.15 input  -60.11 | X-H torsion
[ 7974 7965 7964 7962 ] final -133.56 input  175.53 | X-H torsion
[ 8008 7997 7996 7995 ] final -177.69 input   59.86 | X-H torsion
[ 10167 10162 10161 10158 ] final  -56.69 input  -65.29 | X-H torsion
[ 10718 10713 10712 10709 ] final   57.07 input   66.30 | X-H torsion
[ 10763 10752 10751 10750 ] final  -36.17 input  -60.55 | X-H torsion
[ 11005 11000 10999 10996 ] final  -31.09 input  -57.11 | X-H torsion

> <Gold.Protein.ActiveResidues>
 VAL166  LYS551  ARG553  GLY616  TRP617  ASP618  TYR619  PRO620  LYS621  CYS622 
 ASP623  PHE694  ASN695  SER759  ASP760  ASP761  ALA762  ILE779  LEU786  VAL792 
 PHE793  MET794  SER795  GLU796  ALA797  LYS798  CYS799  TRP800  GLU811  SER814 

> <Gold.Protein.RotatedAtoms>
  152.5421  134.2166  159.8770 H   0  0  0  0  0  0  0  0  0  0  0  0  # atno 6907 bound_to 6896
  151.2146  133.4530  159.2606 H   0  0  0  0  0  0  0  0  0  0  0  0  # atno 6908 bound_to 6896
  151.0864  134.9902  159.8437 H   0  0  0  0  0  0  0  0  0  0  0  0  # atno 6909 bound_to 6896
  144.9182  140.6980  143.4982 H   0  0  0  0  0  0  0  0  0  0  0  0  # atno 7974 bound_to 7965
  156.0100  140.1238  157.0464 H   0  0  0  0  0  0  0  0  0  0  0  0  # atno 8008 bound_to 7997
  154.4272  140.1090  156.5885 H   0  0  0  0  0  0  0  0  0  0  0  0  # atno 8009 bound_to 7997
  155.6094  140.3471  155.4620 H   0  0  0  0  0  0  0  0  0  0  0  0  # atno 8010 bound_to 7997
  140.6302  143.2456  151.5260 H   0  0  0  0  0  0  0  0  0  0  0  0  # atno 10167 bound_to 10162
  157.5484  130.8748  149.8926 H   0  0  0  0  0  0  0  0  0  0  0  0  # atno 10718 bound_to 10713
  153.8754  135.6827  153.4771 H   0  0  0  0  0  0  0  0  0  0  0  0  # atno 10763 bound_to 10752
  153.1264  135.4717  154.9276 H   0  0  0  0  0  0  0  0  0  0  0  0  # atno 10764 bound_to 10752
  154.7694  135.3234  154.8171 H   0  0  0  0  0  0  0  0  0  0  0  0  # atno 10765 bound_to 10752
  140.9438  133.7262  156.1116 H   0  0  0  0  0  0  0  0  0  0  0  0  # atno 11005 bound_to 11000
  145.3341  139.1751  143.4521 LP  0  0  0  0  0  0  0  0  0  0  0  0  # atno 17320 bound_to 7965
  146.3192  140.3374  142.8645 LP  0  0  0  0  0  0  0  0  0  0  0  0  # atno 17321 bound_to 7965
  139.5517  144.2378  152.1542 LP  0  0  0  0  0  0  0  0  0  0  0  0  # atno 17342 bound_to 10162
  140.1619  144.5017  150.6627 LP  0  0  0  0  0  0  0  0  0  0  0  0  # atno 17343 bound_to 10162
  156.0555  130.3709  150.1100 LP  0  0  0  0  0  0  0  0  0  0  0  0  # atno 17370 bound_to 10713
  156.9275  130.9703  151.3538 LP  0  0  0  0  0  0  0  0  0  0  0  0  # atno 17371 bound_to 10713
  140.7697  134.3847  157.5510 LP  0  0  0  0  0  0  0  0  0  0  0  0  # atno 17394 bound_to 11000
  139.8828  134.9014  156.2810 LP  0  0  0  0  0  0  0  0  0  0  0  0  # atno 17395 bound_to 11000

$$$$
