AV-unprocessed.smi:713|AV-procd|sdf|3475|dock5
  -GOLD-   22720 0463D 1   1.00000     0.00000
 Structure written by MMmdl.
 41 42  0  0  0  0  0  0  0  0  1 V2000
  144.1231  135.5777  152.3697 C   0  0  0  0  0  0  0  0  0  0  0  0
  145.4101  134.7908  152.0484 C   0  0  1  0  0  0  0  0  0  0  0  0
  146.1472  134.2991  153.3069 C   0  0  0  0  0  0  0  0  0  0  0  0
  145.5873  133.5629  154.1204 O   0  0  0  0  0  0  0  0  0  0  0  0
  147.4130  134.7231  153.4574 N   0  0  0  0  0  0  0  0  0  0  0  0
  148.2961  134.3719  154.5645 C   0  0  2  0  0  0  0  0  0  0  0  0
  148.7224  135.6562  155.2999 C   0  0  0  0  0  0  0  0  0  0  0  0
  149.7374  135.3682  156.4172 C   0  0  0  0  0  0  0  0  0  0  0  0
  150.9681  134.6244  155.8731 C   0  0  0  0  0  0  0  0  0  0  0  0
  150.5970  133.3250  155.1312 C   0  0  1  0  0  0  0  0  0  0  0  0
  150.1173  131.9777  156.3233 S   0  0  0  0  0  0  0  0  0  0  0  0
  151.4126  130.7019  156.0359 C   0  0  0  0  0  0  0  0  0  0  0  0
  150.2868  132.5014  157.6871 O   0  0  0  0  0  0  0  0  0  0  0  0
  148.8243  131.3955  155.9352 O   0  0  0  0  0  0  0  0  0  0  0  0
  149.5307  133.5986  154.0468 C   0  0  0  0  0  0  0  0  0  0  0  0
  145.1533  133.6835  151.1333 N   0  0  0  0  0  0  0  0  0  0  0  0
  143.9553  133.3268  150.5474 C   0  0  0  0  0  0  0  0  0  0  0  0
  144.1961  132.2507  149.7422 C   0  0  0  0  0  0  0  0  0  0  0  0
  145.5914  132.0207  149.8936 C   0  0  0  0  0  0  0  0  0  0  0  0
  146.1626  132.8823  150.7191 N   0  0  0  0  0  0  0  0  0  0  0  0
  144.3374  136.4482  152.9906 H   0  0  0  0  0  0  0  0  0  0  0  0
  143.3916  134.9656  152.8988 H   0  0  0  0  0  0  0  0  0  0  0  0
  143.6511  135.9391  151.4558 H   0  0  0  0  0  0  0  0  0  0  0  0
  146.0880  135.4773  151.5388 H   0  0  0  0  0  0  0  0  0  0  0  0
  147.7967  135.3264  152.7446 H   0  0  0  0  0  0  0  0  0  0  0  0
  147.7298  133.7514  155.2578 H   0  0  0  0  0  0  0  0  0  0  0  0
  149.1648  136.3572  154.5903 H   0  0  0  0  0  0  0  0  0  0  0  0
  147.8473  136.1541  155.7193 H   0  0  0  0  0  0  0  0  0  0  0  0
  150.0505  136.3055  156.8777 H   0  0  0  0  0  0  0  0  0  0  0  0
  149.2636  134.7883  157.2085 H   0  0  0  0  0  0  0  0  0  0  0  0
  151.5015  135.2836  155.1872 H   0  0  0  0  0  0  0  0  0  0  0  0
  151.6639  134.4100  156.6847 H   0  0  0  0  0  0  0  0  0  0  0  0
  151.4952  132.9573  154.6345 H   0  0  0  0  0  0  0  0  0  0  0  0
  151.3129  129.9161  156.7843 H   0  0  0  0  0  0  0  0  0  0  0  0
  152.3998  131.1555  156.1192 H   0  0  0  0  0  0  0  0  0  0  0  0
  151.2914  130.2623  155.0465 H   0  0  0  0  0  0  0  0  0  0  0  0
  149.2264  132.6676  153.5714 H   0  0  0  0  0  0  0  0  0  0  0  0
  149.9981  134.1869  153.2556 H   0  0  0  0  0  0  0  0  0  0  0  0
  143.0402  133.8636  150.7497 H   0  0  0  0  0  0  0  0  0  0  0  0
  143.4842  131.7117  149.1349 H   0  0  0  0  0  0  0  0  0  0  0  0
  146.2027  131.2615  149.4285 H   0  0  0  0  0  0  0  0  0  0  0  0
  1  2  1  0  0  0  0
  1 21  1  0  0  0  0
  1 22  1  0  0  0  0
  1 23  1  0  0  0  0
  2  3  1  0  0  0  0
  2 16  1  0  0  0  0
  2 24  1  0  0  0  0
  3  4  2  0  0  0  0
  3  5  1  0  0  0  0
  5  6  1  0  0  0  0
  5 25  1  0  0  0  0
  6 15  1  0  0  0  0
  6  7  1  0  0  0  0
  6 26  1  0  0  0  0
  7  8  1  0  0  0  0
  7 27  1  0  0  0  0
  7 28  1  0  0  0  0
  8  9  1  0  0  0  0
  8 29  1  0  0  0  0
  8 30  1  0  0  0  0
  9 10  1  0  0  0  0
  9 31  1  0  0  0  0
  9 32  1  0  0  0  0
 10 11  1  0  0  0  0
 10 15  1  0  0  0  0
 10 33  1  0  0  0  0
 11 12  1  0  0  0  0
 11 13  2  0  0  0  0
 11 14  2  0  0  0  0
 12 34  1  0  0  0  0
 12 35  1  0  0  0  0
 12 36  1  0  0  0  0
 15 37  1  0  0  0  0
 15 38  1  0  0  0  0
 16 20  1  0  0  0  0
 16 17  1  0  0  0  0
 17 18  2  0  0  0  0
 17 39  1  0  0  0  0
 18 19  1  0  0  0  0
 18 40  1  0  0  0  0
 19 20  2  0  0  0  0
 19 41  1  0  0  0  0
M  END
> <s_m_source_file>
AV-unprocessed.smi

> <i_m_source_file_index>
713

> <i_lp_mmshare_version>
43012

> <i_f3d_flags>
0

> <s_epik_input>
bjFbY0hdW2NIXVtjSF1uMVtDQEhdKFtDSDNdKUMoPU8pW05IXVtDQEBIXTJbQ0gyXVtDSDJdW0NIMl1bQ0BIXShbQ0gyXTIpUyg9TykoPU8pW0NIM10=

> <s_epik_cmdline>
J2VwaWtfcHl0aG9uJywgJy1waCcsICc3LjAnLCAnLXRuJywgJzgnLCAnLW1hJywgJzIwMCcsICctbWV0YWxfYmluZGluZycsICctaW1hZScsICc8aW5maWxlLm1hZT4nLCAnLW9tYWUnLCAnPG91dGZpbGUubWFlPic=

> <r_lp_tautomer_probability>
1

> <r_epik_Ionization_Penalty>
4.07816e-05

> <r_epik_Ionization_Penalty_Charging>
0

> <r_epik_Ionization_Penalty_Neutral>
4.07816e-05

> <r_epik_State_Penalty>
-0

> <r_epik_Charging_Adjusted_Penalty>
0

> <i_epik_Tot_Q>
0

> <i_epik_Tot_abs_Q>
0

> <r_epik_Metal_State_Penalty>
-0

> <b_epik_Metal_Only>
0

> <s_lp_Force_Field>
OPLS_2005

> <r_lp_Energy>
4.9413

> <b_lp_Chiralities_Consistent>
1

> <s_lp_Variant>
AV-unprocessed.smi:713-2

> <Gold.Version>
5.8.1

> <Gold.Id.Protein>
6NUR|6NUR_protein|mol2

> <Gold.PLP.Fitness>
40.9719

> <Gold.PLP.PLP>
-29.4573

> <Gold.PLP.part.hbond>
-2.0000

> <Gold.PLP.part.metal>
0.0000

> <Gold.PLP.part.buried>
-5.3289

> <Gold.PLP.part.nonpolar>
-23.0204

> <Gold.PLP.part.repulsive>
0.3173

> <Gold.PLP.ligand.clash>
0.0000

> <Gold.PLP.ligand.torsion>
0.2116

> <Gold.PLP.Chemscore.Hbond>
2.0000

> <Gold.PLP.Chemscore.CHOScore>
1.8857

> <Gold.PLP.Chemscore.Metal>
0.0000

> <Gold.Chemscore.Hbonds>
donor molecule, donor type, donor heavy atom, donor atom, acceptor molecule, acceptor atom, score
      L1  H     5    25       P1  7948  1.00
      P1  H  6896  6909       L1    13  1.00
      L1  C    17    39       P1 10186  1.00
      L1  C    19    41       P1 10747  0.05

> <Gold.PLP.Chemscore.Internal.Correction>
0.2808

> <Gold.Rescore>
     Score         DG    S(hbond)    S(metal)    S(lipo)     H(rot)  DE(clash)    DE(int)     intcor
     15.77     -15.92       1.99        0.00      70.10       1.72       0.00       0.15       ----

> <Gold.Chemscore.Fitness>
15.7720

> <Gold.Chemscore.DG>
-15.9207

> <Gold.Chemscore.ZeroCoef>
-5.4800

> <Gold.Chemscore.Hbond>
1.9924

> <Gold.Chemscore.Metal>
0.0000

> <Gold.Chemscore.Lipo>
70.1009

> <Gold.Chemscore.Internal_Hbond>
0.0000

> <Gold.Chemscore.DEClash>
0.0000

> <Gold.Chemscore.DEInternal>
0.1487

> <Gold.Chemscore.Rot>
1.7249

> <Gold.Chemscore.Internal.Correction>
   9.000000E+99

> <Gold.Chemscore.Hbonds>
donor molecule, donor type, donor heavy atom, donor atom, acceptor molecule, acceptor atom, score
      L1  H     5    25       P1  7948  0.99
      P1  H  6896  6909       L1    13  0.98

> <Gold.Chemscore.Hbond.Weighted>
-6.6546

> <Gold.Chemscore.Metal.Weighted>
-0.0000

> <Gold.Chemscore.Lipo.Weighted>
-8.2018

> <Gold.Chemscore.Internal_Hbond.Weighted>
0.0000

> <Gold.Chemscore.DEClash.Weighted>
0.0000

> <Gold.Chemscore.DEInternal.Weighted>
0.1487

> <Gold.Chemscore.Rot.Weighted>
4.4157

> <Gold.Chemscore.Internal.Correction.Weighted>
   9.000000E+99

> <Gold.Protein.RotatedTorsions>
[ 6907 6896 6895 6894 ] final  -20.89 input  -60.11 | X-H torsion
[ 7974 7965 7964 7962 ] final  -31.61 input  175.53 | X-H torsion
[ 8008 7997 7996 7995 ] final  -14.11 input   59.86 | X-H torsion
[ 10167 10162 10161 10158 ] final  -42.54 input  -65.29 | X-H torsion
[ 10718 10713 10712 10709 ] final  -54.10 input   66.30 | X-H torsion
[ 10763 10752 10751 10750 ] final   76.06 input  -60.55 | X-H torsion
[ 11005 11000 10999 10996 ] final   86.51 input  -57.11 | X-H torsion

> <Gold.Protein.ActiveResidues>
 VAL166  LYS551  ARG553  GLY616  TRP617  ASP618  TYR619  PRO620  LYS621  CYS622 
 ASP623  PHE694  ASN695  SER759  ASP760  ASP761  ALA762  ILE779  LEU786  VAL792 
 PHE793  MET794  SER795  GLU796  ALA797  LYS798  CYS799  TRP800  GLU811  SER814 

> <Gold.Protein.RotatedAtoms>
  151.2415  135.0590  159.9026 H   0  0  0  0  0  0  0  0  0  0  0  0  # atno 6907 bound_to 6896
  152.5392  134.0429  159.8086 H   0  0  0  0  0  0  0  0  0  0  0  0  # atno 6908 bound_to 6896
  151.0624  133.5484  159.2664 H   0  0  0  0  0  0  0  0  0  0  0  0  # atno 6909 bound_to 6896
  146.1054  140.5689  142.8802 H   0  0  0  0  0  0  0  0  0  0  0  0  # atno 7974 bound_to 7965
  154.5237  140.2232  155.8929 H   0  0  0  0  0  0  0  0  0  0  0  0  # atno 8008 bound_to 7997
  156.1690  140.3126  155.8904 H   0  0  0  0  0  0  0  0  0  0  0  0  # atno 8009 bound_to 7997
  155.3598  140.0460  157.3037 H   0  0  0  0  0  0  0  0  0  0  0  0  # atno 8010 bound_to 7997
  140.6965  143.3032  151.3224 H   0  0  0  0  0  0  0  0  0  0  0  0  # atno 10167 bound_to 10162
  156.1479  130.4152  149.9993 H   0  0  0  0  0  0  0  0  0  0  0  0  # atno 10718 bound_to 10713
  153.0698  135.4965  154.8280 H   0  0  0  0  0  0  0  0  0  0  0  0  # atno 10763 bound_to 10752
  154.7006  135.3001  154.9348 H   0  0  0  0  0  0  0  0  0  0  0  0  # atno 10764 bound_to 10752
  154.0073  135.6758  153.4816 H   0  0  0  0  0  0  0  0  0  0  0  0  # atno 10765 bound_to 10752
  139.8943  134.8360  156.2730 H   0  0  0  0  0  0  0  0  0  0  0  0  # atno 11005 bound_to 11000
  144.7466  140.5085  143.6831 LP  0  0  0  0  0  0  0  0  0  0  0  0  # atno 17320 bound_to 7965
  145.5771  139.1486  143.3256 LP  0  0  0  0  0  0  0  0  0  0  0  0  # atno 17321 bound_to 7965
  139.6428  144.0507  152.2567 LP  0  0  0  0  0  0  0  0  0  0  0  0  # atno 17342 bound_to 10162
  140.0018  144.6287  150.7723 LP  0  0  0  0  0  0  0  0  0  0  0  0  # atno 17343 bound_to 10162
  156.7859  130.9238  151.3646 LP  0  0  0  0  0  0  0  0  0  0  0  0  # atno 17370 bound_to 10713
  157.6632  130.8985  149.9876 LP  0  0  0  0  0  0  0  0  0  0  0  0  # atno 17371 bound_to 10713
  141.0088  133.7108  156.1078 LP  0  0  0  0  0  0  0  0  0  0  0  0  # atno 17394 bound_to 11000
  140.7396  134.4165  157.5556 LP  0  0  0  0  0  0  0  0  0  0  0  0  # atno 17395 bound_to 11000

$$$$
