AV-unprocessed.smi:2609|AV-procd|sdf|10207|dock8
  -GOLD-   2272014213D 1   1.00000     0.00000
 Structure written by MMmdl.
 24 25  0  0  0  0  0  0  0  0  2 V2000
  153.4475  138.1376  154.8808 O   0  0  0  0  0  0  0  0  0  0  0  0
  152.4898  138.8303  155.2186 C   0  0  0  0  0  0  0  0  0  0  0  0
  151.2651  138.8048  154.4197 C   0  0  0  0  0  0  0  0  0  0  0  0
  150.2291  139.5781  154.8174 C   0  0  0  0  0  0  0  0  0  0  0  0
  150.3001  140.3899  155.9584 N   0  0  0  0  0  0  0  0  0  0  0  0
  151.3868  140.3940  156.6423 C   0  0  0  0  0  0  0  0  0  0  0  0
  151.4871  141.2703  157.8884 C   0  0  0  0  0  0  0  0  0  0  0  0
  151.3849  142.7709  157.5597 C   0  0  0  0  0  0  0  0  0  0  0  0
  151.5327  143.6104  158.8392 C   0  0  0  0  0  0  0  0  0  0  0  0
  152.7654  143.3051  159.4844 O   0  0  0  0  0  0  0  0  0  0  0  0
  152.8527  141.9465  159.9032 C   0  0  0  0  0  0  0  0  0  0  0  0
  152.7796  141.0129  158.6839 C   0  0  0  0  0  0  0  0  0  0  0  0
  152.5007  139.6399  156.3190 N   0  5  0  0  0  0  0  0  0  0  0  0
  151.1916  138.1859  153.5377 H   0  0  0  0  0  0  0  0  0  0  0  0
  149.2982  139.6040  154.2712 H   0  0  0  0  0  0  0  0  0  0  0  0
  150.6493  141.0254  158.5446 H   0  0  0  0  0  0  0  0  0  0  0  0
  152.1647  143.0600  156.8533 H   0  0  0  0  0  0  0  0  0  0  0  0
  150.4302  142.9901  157.0799 H   0  0  0  0  0  0  0  0  0  0  0  0
  151.5173  144.6723  158.5933 H   0  0  0  0  0  0  0  0  0  0  0  0
  150.7000  143.4307  159.5210 H   0  0  0  0  0  0  0  0  0  0  0  0
  153.7959  141.8002  160.4299 H   0  0  0  0  0  0  0  0  0  0  0  0
  152.0550  141.7226  160.6132 H   0  0  0  0  0  0  0  0  0  0  0  0
  152.8240  139.9727  159.0095 H   0  0  0  0  0  0  0  0  0  0  0  0
  153.6545  141.1821  158.0542 H   0  0  0  0  0  0  0  0  0  0  0  0
  1  2  2  0  0  0  0
  2  3  1  0  0  0  0
  2 13  1  0  0  0  0
  3 14  1  0  0  0  0
  3  4  2  0  0  0  0
  4 15  1  0  0  0  0
  4  5  1  0  0  0  0
  5  6  2  0  0  0  0
  6  7  1  0  0  0  0
  6 13  1  0  0  0  0
  7 12  1  0  0  0  0
  7  8  1  0  0  0  0
  7 16  1  0  0  0  0
  8  9  1  0  0  0  0
  8 17  1  0  0  0  0
  8 18  1  0  0  0  0
  9 10  1  0  0  0  0
  9 19  1  0  0  0  0
  9 20  1  0  0  0  0
 10 11  1  0  0  0  0
 11 12  1  0  0  0  0
 11 21  1  0  0  0  0
 11 22  1  0  0  0  0
 12 23  1  0  0  0  0
 12 24  1  0  0  0  0
M  CHG  1  13  -1
M  END
> <s_m_source_file>
AV-unprocessed.smi

> <i_m_source_file_index>
2609

> <i_lp_mmshare_version>
43012

> <i_f3d_flags>
0

> <s_epik_input>
Tz1jMVtjSF1bY0hdW25IXWMobjEpW0NIXTJbQ0gyXVtDSDJdT1tDSDJdW0NIMl0y

> <s_epik_cmdline>
J2VwaWtfcHl0aG9uJywgJy1waCcsICc3LjAnLCAnLXRuJywgJzgnLCAnLW1hJywgJzIwMCcsICctbWV0YWxfYmluZGluZycsICctaW1hZScsICc8aW5maWxlLm1hZT4nLCAnLW9tYWUnLCAnPG91dGZpbGUubWFlPic=

> <r_lp_tautomer_probability>
0.839158

> <r_epik_Ionization_Penalty>
6.39496

> <r_epik_Ionization_Penalty_Charging>
1.06807e-07

> <r_epik_Ionization_Penalty_Neutral>
6.39496

> <r_epik_State_Penalty>
4.27873

> <r_epik_Charging_Adjusted_Penalty>
4.27873

> <i_epik_Tot_Q>
-1

> <i_epik_Tot_abs_Q>
1

> <r_epik_Metal_State_Penalty>
0.734171

> <b_epik_Metal_Only>
1

> <s_lp_Force_Field>
OPLS_2005

> <r_lp_Energy>
16.3076

> <b_lp_Chiralities_Consistent>
1

> <s_lp_Variant>
AV-unprocessed.smi:2609-3

> <Gold.Version>
5.8.1

> <Gold.Id.Protein>
6NUR|6NUR_protein|mol2

> <Gold.PLP.Fitness>
33.4602

> <Gold.PLP.PLP>
-27.6347

> <Gold.PLP.part.hbond>
-2.0000

> <Gold.PLP.part.metal>
0.0000

> <Gold.PLP.part.buried>
-4.8608

> <Gold.PLP.part.nonpolar>
-20.5802

> <Gold.PLP.part.repulsive>
0.0436

> <Gold.PLP.ligand.clash>
0.0469

> <Gold.PLP.ligand.torsion>
0.0708

> <Gold.PLP.Chemscore.Hbond>
2.0000

> <Gold.PLP.Chemscore.CHOScore>
0.0000

> <Gold.PLP.Chemscore.Metal>
0.0000

> <Gold.Chemscore.Hbonds>
donor molecule, donor type, donor heavy atom, donor atom, acceptor molecule, acceptor atom, score
      P1  H  7997  8009       L1    13  1.90

> <Gold.PLP.Chemscore.Internal.Correction>
0.0139

> <Gold.Rescore>
     Score         DG    S(hbond)    S(metal)    S(lipo)     H(rot)  DE(clash)    DE(int)     intcor
     12.85     -13.12       0.89        0.00      61.63       1.00       0.22       0.05       ----

> <Gold.Chemscore.Fitness>
12.8527

> <Gold.Chemscore.DG>
-13.1192

> <Gold.Chemscore.ZeroCoef>
-5.4800

> <Gold.Chemscore.Hbond>
0.8946

> <Gold.Chemscore.Metal>
0.0000

> <Gold.Chemscore.Lipo>
61.6335

> <Gold.Chemscore.Internal_Hbond>
0.0000

> <Gold.Chemscore.DEClash>
0.2158

> <Gold.Chemscore.DEInternal>
0.0508

> <Gold.Chemscore.Rot>
1.0000

> <Gold.Chemscore.Internal.Correction>
   9.000000E+99

> <Gold.Chemscore.Hbonds>
donor molecule, donor type, donor heavy atom, donor atom, acceptor molecule, acceptor atom, score
      P1  H  7997  8009       L1    13  0.22

> <Gold.Chemscore.Hbond.Weighted>
-2.9881

> <Gold.Chemscore.Metal.Weighted>
-0.0000

> <Gold.Chemscore.Lipo.Weighted>
-7.2111

> <Gold.Chemscore.Internal_Hbond.Weighted>
0.0000

> <Gold.Chemscore.DEClash.Weighted>
0.2158

> <Gold.Chemscore.DEInternal.Weighted>
0.0508

> <Gold.Chemscore.Rot.Weighted>
2.5600

> <Gold.Chemscore.Internal.Correction.Weighted>
   9.000000E+99

> <Gold.Protein.RotatedTorsions>
[ 6907 6896 6895 6894 ] final  149.83 input  -60.11 | X-H torsion
[ 7974 7965 7964 7962 ] final   -0.03 input  175.53 | X-H torsion
[ 8008 7997 7996 7995 ] final -161.71 input   59.86 | X-H torsion
[ 10167 10162 10161 10158 ] final -167.40 input  -65.29 | X-H torsion
[ 10718 10713 10712 10709 ] final  140.74 input   66.30 | X-H torsion
[ 10763 10752 10751 10750 ] final   41.78 input  -60.55 | X-H torsion
[ 11005 11000 10999 10996 ] final   47.47 input  -57.11 | X-H torsion

> <Gold.Protein.ActiveResidues>
 VAL166  LYS551  ARG553  GLY616  TRP617  ASP618  TYR619  PRO620  LYS621  CYS622 
 ASP623  PHE694  ASN695  SER759  ASP760  ASP761  ALA762  ILE779  LEU786  VAL792 
 PHE793  MET794  SER795  GLU796  ALA797  LYS798  CYS799  TRP800  GLU811  SER814 

> <Gold.Protein.RotatedAtoms>
  152.1227  133.4362  159.4682 H   0  0  0  0  0  0  0  0  0  0  0  0  # atno 6907 bound_to 6896
  150.6873  134.2516  159.4522 H   0  0  0  0  0  0  0  0  0  0  0  0  # atno 6908 bound_to 6896
  152.0394  134.9720  160.0624 H   0  0  0  0  0  0  0  0  0  0  0  0  # atno 6909 bound_to 6896
  146.2431  140.1209  142.8340 H   0  0  0  0  0  0  0  0  0  0  0  0  # atno 7974 bound_to 7965
  155.7962  140.0885  157.1982 H   0  0  0  0  0  0  0  0  0  0  0  0  # atno 8008 bound_to 7997
  154.3983  140.1481  156.3279 H   0  0  0  0  0  0  0  0  0  0  0  0  # atno 8009 bound_to 7997
  155.8509  140.3434  155.5695 H   0  0  0  0  0  0  0  0  0  0  0  0  # atno 8010 bound_to 7997
  139.6052  144.0928  152.1785 H   0  0  0  0  0  0  0  0  0  0  0  0  # atno 10167 bound_to 10162
  157.3999  131.1015  151.0562 H   0  0  0  0  0  0  0  0  0  0  0  0  # atno 10718 bound_to 10713
  152.9899  135.6151  154.2843 H   0  0  0  0  0  0  0  0  0  0  0  0  # atno 10763 bound_to 10752
  154.2571  135.2783  155.2795 H   0  0  0  0  0  0  0  0  0  0  0  0  # atno 10764 bound_to 10752
  154.5238  135.5807  153.6759 H   0  0  0  0  0  0  0  0  0  0  0  0  # atno 10765 bound_to 10752
  140.1276  134.4748  155.8547 H   0  0  0  0  0  0  0  0  0  0  0  0  # atno 11005 bound_to 11000
  145.0407  140.8943  143.5054 LP  0  0  0  0  0  0  0  0  0  0  0  0  # atno 17320 bound_to 7965
  145.1289  139.2645  143.5549 LP  0  0  0  0  0  0  0  0  0  0  0  0  # atno 17321 bound_to 7965
  140.0533  144.5915  150.7319 LP  0  0  0  0  0  0  0  0  0  0  0  0  # atno 17342 bound_to 10162
  140.7279  143.2656  151.4055 LP  0  0  0  0  0  0  0  0  0  0  0  0  # atno 17343 bound_to 10162
  157.1565  130.6207  149.5598 LP  0  0  0  0  0  0  0  0  0  0  0  0  # atno 17370 bound_to 10713
  155.9820  130.4831  150.6860 LP  0  0  0  0  0  0  0  0  0  0  0  0  # atno 17371 bound_to 10713
  141.2164  133.6784  156.7008 LP  0  0  0  0  0  0  0  0  0  0  0  0  # atno 17394 bound_to 11000
  140.2884  134.8261  157.3995 LP  0  0  0  0  0  0  0  0  0  0  0  0  # atno 17395 bound_to 11000

$$$$
