AV-unprocessed.smi:447|AV-procd|sdf|2604|dock1
  -GOLD-   2262023 03D 1   1.00000     0.00000
 Structure written by MMmdl.
 46 48  0  0  0  0  0  0  0  0  2 V2000
  150.6685  134.2463  153.9596 C   0  0  0  0  0  0  0  0  0  0  0  0
  150.7126  135.5667  154.7200 C   0  0  0  0  0  0  0  0  0  0  0  0
  150.3610  135.6120  155.8970 O   0  0  0  0  0  0  0  0  0  0  0  0
  151.1368  136.6353  154.0277 N   0  0  0  0  0  0  0  0  0  0  0  0
  151.3245  137.9896  154.5501 C   0  0  1  0  0  0  0  0  0  0  0  0
  152.4652  138.6578  153.7680 C   0  0  0  0  0  0  0  0  0  0  0  0
  150.0839  138.8411  154.4966 C   0  0  0  0  0  0  0  0  0  0  0  0
  148.9242  138.5233  153.8510 N   0  3  0  0  0  0  0  0  0  0  0  0
  148.0050  139.5619  153.9781 C   0  0  0  0  0  0  0  0  0  0  0  0
  146.7051  139.6884  153.4984 C   0  0  0  0  0  0  0  0  0  0  0  0
  146.0369  140.8947  153.7923 C   0  0  0  0  0  0  0  0  0  0  0  0
  146.6637  141.9180  154.5318 C   0  0  0  0  0  0  0  0  0  0  0  0
  147.9821  141.7762  155.0119 C   0  0  0  0  0  0  0  0  0  0  0  0
  148.6346  140.5762  154.7264 C   0  0  0  0  0  0  0  0  0  0  0  0
  149.9115  140.0865  155.0373 N   0  0  0  0  0  0  0  0  0  0  0  0
  150.8400  140.9420  155.8053 C   0  0  0  0  0  0  0  0  0  0  0  0
  150.2193  141.6527  157.0314 C   0  0  1  0  0  0  0  0  0  0  0  0
  149.4570  140.7508  157.8095 O   0  0  0  0  0  0  0  0  0  0  0  0
  151.2409  142.4346  157.8473 C   0  0  0  0  0  0  0  0  0  0  0  0
  151.2354  143.8476  157.8793 C   0  0  0  0  0  0  0  0  0  0  0  0
  152.2023  144.5443  158.6301 C   0  0  0  0  0  0  0  0  0  0  0  0
  153.1711  143.8361  159.3652 C   0  0  0  0  0  0  0  0  0  0  0  0
  153.1783  142.4289  159.3433 C   0  0  0  0  0  0  0  0  0  0  0  0
  152.2187  141.7316  158.5843 C   0  0  0  0  0  0  0  0  0  0  0  0
  149.9747  134.3129  153.1211 H   0  0  0  0  0  0  0  0  0  0  0  0
  150.3415  133.4344  154.6100 H   0  0  0  0  0  0  0  0  0  0  0  0
  151.6569  133.9960  153.5729 H   0  0  0  0  0  0  0  0  0  0  0  0
  151.3955  136.4892  153.0625 H   0  0  0  0  0  0  0  0  0  0  0  0
  151.6313  137.8967  155.5911 H   0  0  0  0  0  0  0  0  0  0  0  0
  152.6933  139.6504  154.1547 H   0  0  0  0  0  0  0  0  0  0  0  0
  152.2103  138.7672  152.7131 H   0  0  0  0  0  0  0  0  0  0  0  0
  153.3806  138.0680  153.8288 H   0  0  0  0  0  0  0  0  0  0  0  0
  146.2260  138.9071  152.9271 H   0  0  0  0  0  0  0  0  0  0  0  0
  145.0251  141.0390  153.4418 H   0  0  0  0  0  0  0  0  0  0  0  0
  146.1227  142.8305  154.7368 H   0  0  0  0  0  0  0  0  0  0  0  0
  148.4492  142.5667  155.5803 H   0  0  0  0  0  0  0  0  0  0  0  0
  151.6806  140.3270  156.1242 H   0  0  0  0  0  0  0  0  0  0  0  0
  151.2640  141.6775  155.1212 H   0  0  0  0  0  0  0  0  0  0  0  0
  149.5038  142.3843  156.6538 H   0  0  0  0  0  0  0  0  0  0  0  0
  149.3535  141.1176  158.6744 H   0  0  0  0  0  0  0  0  0  0  0  0
  150.4912  144.4084  157.3334 H   0  0  0  0  0  0  0  0  0  0  0  0
  152.1929  145.6242  158.6508 H   0  0  0  0  0  0  0  0  0  0  0  0
  153.9073  144.3723  159.9457 H   0  0  0  0  0  0  0  0  0  0  0  0
  153.9216  141.8840  159.9061 H   0  0  0  0  0  0  0  0  0  0  0  0
  152.2338  140.6516  158.5715 H   0  0  0  0  0  0  0  0  0  0  0  0
  148.7769  137.6501  153.3617 H   0  0  0  0  0  0  0  0  0  0  0  0
  1  2  1  0  0  0  0
  1 25  1  0  0  0  0
  1 26  1  0  0  0  0
  1 27  1  0  0  0  0
  2  3  2  0  0  0  0
  2  4  1  0  0  0  0
  4  5  1  0  0  0  0
  4 28  1  0  0  0  0
  5  6  1  0  0  0  0
  5  7  1  0  0  0  0
  5 29  1  0  0  0  0
  6 30  1  0  0  0  0
  6 31  1  0  0  0  0
  6 32  1  0  0  0  0
  7 15  1  0  0  0  0
  7  8  2  0  0  0  0
  8  9  1  0  0  0  0
  8 46  1  0  0  0  0
  9 14  2  0  0  0  0
  9 10  1  0  0  0  0
 10 11  2  0  0  0  0
 10 33  1  0  0  0  0
 11 12  1  0  0  0  0
 11 34  1  0  0  0  0
 12 13  2  0  0  0  0
 12 35  1  0  0  0  0
 13 14  1  0  0  0  0
 13 36  1  0  0  0  0
 14 15  1  0  0  0  0
 15 16  1  0  0  0  0
 16 17  1  0  0  0  0
 16 37  1  0  0  0  0
 16 38  1  0  0  0  0
 17 18  1  0  0  0  0
 17 19  1  0  0  0  0
 17 39  1  0  0  0  0
 18 40  1  0  0  0  0
 19 24  1  0  0  0  0
 19 20  2  0  0  0  0
 20 21  1  0  0  0  0
 20 41  1  0  0  0  0
 21 22  2  0  0  0  0
 21 42  1  0  0  0  0
 22 23  1  0  0  0  0
 22 43  1  0  0  0  0
 23 24  2  0  0  0  0
 23 44  1  0  0  0  0
 24 45  1  0  0  0  0
M  CHG  1   8   1
M  END
> <s_m_source_file>
AV-unprocessed.smi

> <i_m_source_file_index>
447

> <i_lp_mmshare_version>
43012

> <i_f3d_flags>
0

> <s_epik_input>
W0NIM11DKD1PKVtOSF1bQ0BIXShbQ0gzXSljKG4xKW4oYyhjMTIpW2NIXVtjSF1bY0hdW2NIXTIpW0NIMl1bQ0BIXShbT0hdKWMzW2NIXVtjSF1bY0hdW2NIXVtjSF0z

> <s_epik_cmdline>
J2VwaWtfcHl0aG9uJywgJy1waCcsICc3LjAnLCAnLXRuJywgJzgnLCAnLW1hJywgJzIwMCcsICctbWV0YWxfYmluZGluZycsICctaW1hZScsICc8aW5maWxlLm1hZT4nLCAnLW9tYWUnLCAnPG91dGZpbGUubWFlPic=

> <r_epik_Ionization_Penalty>
0.950381

> <r_epik_Ionization_Penalty_Charging>
0.950379

> <r_epik_Ionization_Penalty_Neutral>
1.42115e-06

> <r_epik_State_Penalty>
0.994584

> <r_epik_Charging_Adjusted_Penalty>
1.94496

> <i_epik_Tot_Q>
1

> <i_epik_Tot_abs_Q>
1

> <r_epik_Metal_State_Penalty>
1.10485

> <b_epik_Metal_Only>
0

> <s_lp_Force_Field>
OPLS_2005

> <r_lp_Energy>
11.8

> <b_lp_Chiralities_Consistent>
1

> <s_lp_Variant>
AV-unprocessed.smi:447-8

> <Gold.Version>
5.8.1

> <Gold.Id.Protein>
6NUR|6NUR_protein|mol2

> <Gold.PLP.Fitness>
58.8225

> <Gold.PLP.PLP>
-51.3444

> <Gold.PLP.part.hbond>
-3.5454

> <Gold.PLP.part.metal>
0.0000

> <Gold.PLP.part.buried>
0.2767

> <Gold.PLP.part.nonpolar>
-48.3002

> <Gold.PLP.part.repulsive>
0.1765

> <Gold.PLP.ligand.clash>
0.0000

> <Gold.PLP.ligand.torsion>
0.8325

> <Gold.PLP.Chemscore.Hbond>
3.0000

> <Gold.PLP.Chemscore.CHOScore>
0.0000

> <Gold.PLP.Chemscore.Metal>
0.0000

> <Gold.Chemscore.Hbonds>
donor molecule, donor type, donor heavy atom, donor atom, acceptor molecule, acceptor atom, score
      L1  H     4    28       P1  7949  1.00
      L1  H     8    46       P1  7948  1.89

> <Gold.PLP.Chemscore.Internal.Correction>
0.1431

> <Gold.Rescore>
     Score         DG    S(hbond)    S(metal)    S(lipo)     H(rot)  DE(clash)    DE(int)     intcor
     16.27     -21.19       1.46        0.00     145.28       2.41       4.16       0.76       ----

> <Gold.Chemscore.Fitness>
16.2705

> <Gold.Chemscore.DG>
-21.1893

> <Gold.Chemscore.ZeroCoef>
-5.4800

> <Gold.Chemscore.Hbond>
1.4623

> <Gold.Chemscore.Metal>
0.0000

> <Gold.Chemscore.Lipo>
145.2799

> <Gold.Chemscore.Internal_Hbond>
0.0000

> <Gold.Chemscore.DEClash>
4.1597

> <Gold.Chemscore.DEInternal>
0.7591

> <Gold.Chemscore.Rot>
2.4112

> <Gold.Chemscore.Internal.Correction>
   9.000000E+99

> <Gold.Chemscore.Hbonds>
donor molecule, donor type, donor heavy atom, donor atom, acceptor molecule, acceptor atom, score
      L1  H     4    28       P1  7949  0.81
      L1  H     8    46       P1  7948  0.89

> <Gold.Chemscore.Hbond.Weighted>
-4.8842

> <Gold.Chemscore.Metal.Weighted>
-0.0000

> <Gold.Chemscore.Lipo.Weighted>
-16.9978

> <Gold.Chemscore.Internal_Hbond.Weighted>
0.0000

> <Gold.Chemscore.DEClash.Weighted>
4.1597

> <Gold.Chemscore.DEInternal.Weighted>
0.7591

> <Gold.Chemscore.Rot.Weighted>
6.1727

> <Gold.Chemscore.Internal.Correction.Weighted>
   9.000000E+99

> <Gold.Protein.RotatedTorsions>
[ 6907 6896 6895 6894 ] final   22.09 input  -60.11 | X-H torsion
[ 7974 7965 7964 7962 ] final -177.15 input  175.53 | X-H torsion
[ 8008 7997 7996 7995 ] final  -80.67 input   59.86 | X-H torsion
[ 10167 10162 10161 10158 ] final  -57.98 input  -65.29 | X-H torsion
[ 10718 10713 10712 10709 ] final -174.70 input   66.30 | X-H torsion
[ 10763 10752 10751 10750 ] final   96.48 input  -60.55 | X-H torsion
[ 11005 11000 10999 10996 ] final -133.94 input  -57.11 | X-H torsion

> <Gold.Protein.ActiveResidues>
 VAL166  LYS551  ARG553  GLY616  TRP617  ASP618  TYR619  PRO620  LYS621  CYS622 
 ASP623  PHE694  ASN695  SER759  ASP760  ASP761  ALA762  ILE779  LEU786  VAL792 
 PHE793  MET794  SER795  GLU796  ALA797  LYS798  CYS799  TRP800  GLU811  SER814 

> <Gold.Protein.RotatedAtoms>
  151.9218  135.0295  160.0522 H   0  0  0  0  0  0  0  0  0  0  0  0  # atno 6907 bound_to 6896
  152.2193  133.4966  159.5161 H   0  0  0  0  0  0  0  0  0  0  0  0  # atno 6908 bound_to 6896
  150.6995  134.1281  159.4102 H   0  0  0  0  0  0  0  0  0  0  0  0  # atno 6909 bound_to 6896
  144.7127  140.1063  143.6413 H   0  0  0  0  0  0  0  0  0  0  0  0  # atno 7974 bound_to 7965
  154.5906  140.0659  156.9233 H   0  0  0  0  0  0  0  0  0  0  0  0  # atno 8008 bound_to 7997
  155.2302  140.3337  155.4286 H   0  0  0  0  0  0  0  0  0  0  0  0  # atno 8009 bound_to 7997
  156.2253  140.1816  156.7362 H   0  0  0  0  0  0  0  0  0  0  0  0  # atno 8010 bound_to 7997
  140.6225  143.2425  151.5445 H   0  0  0  0  0  0  0  0  0  0  0  0  # atno 10167 bound_to 10162
  156.7889  130.9511  151.3120 H   0  0  0  0  0  0  0  0  0  0  0  0  # atno 10718 bound_to 10713
  153.2655  135.4217  155.0936 H   0  0  0  0  0  0  0  0  0  0  0  0  # atno 10763 bound_to 10752
  154.8436  135.3459  154.6318 H   0  0  0  0  0  0  0  0  0  0  0  0  # atno 10764 bound_to 10752
  153.6738  135.7042  153.5196 H   0  0  0  0  0  0  0  0  0  0  0  0  # atno 10765 bound_to 10752
  140.9035  134.1659  157.4443 H   0  0  0  0  0  0  0  0  0  0  0  0  # atno 11005 bound_to 11000
  145.9494  139.2723  143.1221 LP  0  0  0  0  0  0  0  0  0  0  0  0  # atno 17320 bound_to 7965
  145.9339  140.9028  143.0342 LP  0  0  0  0  0  0  0  0  0  0  0  0  # atno 17321 bound_to 7965
  139.5451  144.2542  152.1427 LP  0  0  0  0  0  0  0  0  0  0  0  0  # atno 17342 bound_to 10162
  140.1766  144.4885  150.6550 LP  0  0  0  0  0  0  0  0  0  0  0  0  # atno 17343 bound_to 10162
  157.6610  130.8966  149.9830 LP  0  0  0  0  0  0  0  0  0  0  0  0  # atno 17370 bound_to 10713
  156.1171  130.3647  149.9949 LP  0  0  0  0  0  0  0  0  0  0  0  0  # atno 17371 bound_to 10713
  139.8746  134.9908  156.5518 LP  0  0  0  0  0  0  0  0  0  0  0  0  # atno 17394 bound_to 11000
  140.8200  133.8361  155.8887 LP  0  0  0  0  0  0  0  0  0  0  0  0  # atno 17395 bound_to 11000

$$$$
