AV-unprocessed.smi:1793|AV-procd|sdf|7224|dock2
  -GOLD-   22720 8463D 1   1.00000     0.00000
 Structure written by MMmdl.
 46 48  0  0  0  0  0  0  0  0  1 V2000
  150.8089  138.0742  154.7885 C   0  0  0  0  0  0  0  0  0  0  0  0
  150.3061  139.5257  154.8952 C   0  0  2  0  0  0  0  0  0  0  0  0
  150.6046  140.0559  156.2230 N   0  0  0  0  0  0  0  0  0  0  0  0
  151.7901  139.9782  156.8433 C   0  0  0  0  0  0  0  0  0  0  0  0
  152.7785  139.4270  156.3587 O   0  0  0  0  0  0  0  0  0  0  0  0
  151.7408  140.5589  158.0533 N   0  0  0  0  0  0  0  0  0  0  0  0
  152.7539  140.5929  159.0525 C   0  0  0  0  0  0  0  0  0  0  0  0
  153.5768  139.4695  159.3106 C   0  0  0  0  0  0  0  0  0  0  0  0
  154.6073  139.5729  160.2609 C   0  0  0  0  0  0  0  0  0  0  0  0
  154.7911  140.8049  160.9098 C   0  0  0  0  0  0  0  0  0  0  0  0
  154.0265  141.8876  160.6651 N   0  0  0  0  0  0  0  0  0  0  0  0
  153.0186  141.7997  159.7622 C   0  0  0  0  0  0  0  0  0  0  0  0
  152.2408  142.9631  159.5597 N   0  0  0  0  0  0  0  0  0  0  0  0
  152.6571  143.9737  158.5933 C   0  0  0  0  0  0  0  0  0  0  0  0
  151.8171  145.2042  158.9230 C   0  0  0  0  0  0  0  0  0  0  0  0
  151.7151  145.1287  160.4434 C   0  0  0  0  0  0  0  0  0  0  0  0
  151.6692  143.6238  160.7297 C   0  0  0  0  0  0  0  0  0  0  0  0
  148.7906  139.6369  154.6386 C   0  0  2  0  0  0  0  0  0  0  0  0
  148.3511  139.2525  153.2254 C   0  0  0  0  0  0  0  0  0  0  0  0
  147.0272  139.9728  153.1113 C   0  0  0  0  0  0  0  0  0  0  0  0
  147.3064  141.2740  153.8587 C   0  0  0  0  0  0  0  0  0  0  0  0
  148.3564  140.9879  154.7800 O   0  0  0  0  0  0  0  0  0  0  0  0
  150.6372  137.6662  153.7927 H   0  0  0  0  0  0  0  0  0  0  0  0
  150.3036  137.4263  155.5055 H   0  0  0  0  0  0  0  0  0  0  0  0
  151.8803  138.0098  154.9804 H   0  0  0  0  0  0  0  0  0  0  0  0
  150.8246  140.1319  154.1497 H   0  0  0  0  0  0  0  0  0  0  0  0
  149.8511  140.5308  156.6981 H   0  0  0  0  0  0  0  0  0  0  0  0
  150.8362  140.8990  158.3450 H   0  0  0  0  0  0  0  0  0  0  0  0
  153.4497  138.5385  158.7797 H   0  0  0  0  0  0  0  0  0  0  0  0
  155.2492  138.7317  160.4768 H   0  0  0  0  0  0  0  0  0  0  0  0
  155.5766  140.9271  161.6409 H   0  0  0  0  0  0  0  0  0  0  0  0
  153.7141  144.2136  158.7160 H   0  0  0  0  0  0  0  0  0  0  0  0
  152.4974  143.6349  157.5693 H   0  0  0  0  0  0  0  0  0  0  0  0
  152.2650  146.1327  158.5682 H   0  0  0  0  0  0  0  0  0  0  0  0
  150.8257  145.1112  158.4772 H   0  0  0  0  0  0  0  0  0  0  0  0
  152.6117  145.5601  160.8912 H   0  0  0  0  0  0  0  0  0  0  0  0
  150.8511  145.6618  160.8410 H   0  0  0  0  0  0  0  0  0  0  0  0
  150.6343  143.3011  160.8453 H   0  0  0  0  0  0  0  0  0  0  0  0
  152.2060  143.3756  161.6466 H   0  0  0  0  0  0  0  0  0  0  0  0
  148.2391  139.0324  155.3611 H   0  0  0  0  0  0  0  0  0  0  0  0
  149.0526  139.6393  152.4844 H   0  0  0  0  0  0  0  0  0  0  0  0
  148.2605  138.1751  153.0838 H   0  0  0  0  0  0  0  0  0  0  0  0
  146.7113  140.1322  152.0799 H   0  0  0  0  0  0  0  0  0  0  0  0
  146.2494  139.4051  153.6238 H   0  0  0  0  0  0  0  0  0  0  0  0
  147.6517  142.0462  153.1703 H   0  0  0  0  0  0  0  0  0  0  0  0
  146.4210  141.6501  154.3717 H   0  0  0  0  0  0  0  0  0  0  0  0
  1  2  1  0  0  0  0
  1 23  1  0  0  0  0
  1 24  1  0  0  0  0
  1 25  1  0  0  0  0
  2  3  1  0  0  0  0
  2 18  1  0  0  0  0
  2 26  1  0  0  0  0
  3  4  1  0  0  0  0
  3 27  1  0  0  0  0
  4  5  2  0  0  0  0
  4  6  1  0  0  0  0
  6  7  1  0  0  0  0
  6 28  1  0  0  0  0
  7 12  1  0  0  0  0
  7  8  2  0  0  0  0
  8  9  1  0  0  0  0
  8 29  1  0  0  0  0
  9 10  2  0  0  0  0
  9 30  1  0  0  0  0
 10 11  1  0  0  0  0
 10 31  1  0  0  0  0
 11 12  2  0  0  0  0
 12 13  1  0  0  0  0
 13 17  1  0  0  0  0
 13 14  1  0  0  0  0
 14 15  1  0  0  0  0
 14 32  1  0  0  0  0
 14 33  1  0  0  0  0
 15 16  1  0  0  0  0
 15 34  1  0  0  0  0
 15 35  1  0  0  0  0
 16 17  1  0  0  0  0
 16 36  1  0  0  0  0
 16 37  1  0  0  0  0
 17 38  1  0  0  0  0
 17 39  1  0  0  0  0
 18 22  1  0  0  0  0
 18 19  1  0  0  0  0
 18 40  1  0  0  0  0
 19 20  1  0  0  0  0
 19 41  1  0  0  0  0
 19 42  1  0  0  0  0
 20 21  1  0  0  0  0
 20 43  1  0  0  0  0
 20 44  1  0  0  0  0
 21 22  1  0  0  0  0
 21 45  1  0  0  0  0
 21 46  1  0  0  0  0
M  END
> <s_m_source_file>
AV-unprocessed.smi

> <i_m_source_file_index>
1793

> <i_lp_mmshare_version>
43012

> <i_f3d_flags>
0

> <s_epik_input>
TzFbQ0gyXVtDSDJdW0NIMl1bQ0BIXTFbQ0BIXShbQ0gzXSlbTkhdQyg9TylbTkhdYzJbY0hdW2NIXVtjSF1uYzJOM1tDSDJdW0NIMl1bQ0gyXVtDSDJdMw==

> <s_epik_cmdline>
J2VwaWtfcHl0aG9uJywgJy1waCcsICc3LjAnLCAnLXRuJywgJzgnLCAnLW1hJywgJzIwMCcsICctbWV0YWxfYmluZGluZycsICctaW1hZScsICc8aW5maWxlLm1hZT4nLCAnLW9tYWUnLCAnPG91dGZpbGUubWFlPic=

> <r_lp_tautomer_probability>
1

> <r_epik_Ionization_Penalty>
0.0992086

> <r_epik_Ionization_Penalty_Charging>
0

> <r_epik_Ionization_Penalty_Neutral>
0.0992086

> <r_epik_State_Penalty>
0.0887141

> <r_epik_Charging_Adjusted_Penalty>
0.0887141

> <i_epik_Tot_Q>
0

> <i_epik_Tot_abs_Q>
0

> <r_epik_Metal_State_Penalty>
0.075945

> <b_epik_Metal_Only>
0

> <s_lp_Force_Field>
OPLS_2005

> <r_lp_Energy>
46.4352

> <b_lp_Chiralities_Consistent>
1

> <s_lp_Variant>
AV-unprocessed.smi:1793-1

> <Gold.Version>
5.8.1

> <Gold.Id.Protein>
6NUR|6NUR_protein|mol2

> <Gold.PLP.Fitness>
46.1942

> <Gold.PLP.PLP>
-44.5456

> <Gold.PLP.part.hbond>
-1.2008

> <Gold.PLP.part.metal>
0.0000

> <Gold.PLP.part.buried>
0.1443

> <Gold.PLP.part.nonpolar>
-42.3445

> <Gold.PLP.part.repulsive>
0.2959

> <Gold.PLP.ligand.clash>
0.0000

> <Gold.PLP.ligand.torsion>
0.8582

> <Gold.PLP.Chemscore.Hbond>
1.0000

> <Gold.PLP.Chemscore.CHOScore>
0.0000

> <Gold.PLP.Chemscore.Metal>
0.0000

> <Gold.Chemscore.Hbonds>
donor molecule, donor type, donor heavy atom, donor atom, acceptor molecule, acceptor atom, score
      P1  H  7997  8010       L1     5  1.00

> <Gold.PLP.Chemscore.Internal.Correction>
0.3649

> <Gold.Rescore>
     Score         DG    S(hbond)    S(metal)    S(lipo)     H(rot)  DE(clash)    DE(int)     intcor
     16.17     -19.36       1.00        0.00     119.91       1.36       0.05       3.14       ----

> <Gold.Chemscore.Fitness>
16.1735

> <Gold.Chemscore.DG>
-19.3593

> <Gold.Chemscore.ZeroCoef>
-5.4800

> <Gold.Chemscore.Hbond>
0.9960

> <Gold.Chemscore.Metal>
0.0000

> <Gold.Chemscore.Lipo>
119.9105

> <Gold.Chemscore.Internal_Hbond>
0.0000

> <Gold.Chemscore.DEClash>
0.0476

> <Gold.Chemscore.DEInternal>
3.1382

> <Gold.Chemscore.Rot>
1.3582

> <Gold.Chemscore.Internal.Correction>
   9.000000E+99

> <Gold.Chemscore.Hbonds>
donor molecule, donor type, donor heavy atom, donor atom, acceptor molecule, acceptor atom, score
      P1  H  7997  8010       L1     5  1.00

> <Gold.Chemscore.Hbond.Weighted>
-3.3268

> <Gold.Chemscore.Metal.Weighted>
-0.0000

> <Gold.Chemscore.Lipo.Weighted>
-14.0295

> <Gold.Chemscore.Internal_Hbond.Weighted>
0.0000

> <Gold.Chemscore.DEClash.Weighted>
0.0476

> <Gold.Chemscore.DEInternal.Weighted>
3.1382

> <Gold.Chemscore.Rot.Weighted>
3.4771

> <Gold.Chemscore.Internal.Correction.Weighted>
   9.000000E+99

> <Gold.Protein.RotatedTorsions>
[ 6907 6896 6895 6894 ] final  122.52 input  -60.11 | X-H torsion
[ 7974 7965 7964 7962 ] final -118.34 input  175.53 | X-H torsion
[ 8008 7997 7996 7995 ] final   83.54 input   59.86 | X-H torsion
[ 10167 10162 10161 10158 ] final -133.80 input  -65.29 | X-H torsion
[ 10718 10713 10712 10709 ] final   32.77 input   66.30 | X-H torsion
[ 10763 10752 10751 10750 ] final    2.99 input  -60.55 | X-H torsion
[ 11005 11000 10999 10996 ] final   10.64 input  -57.11 | X-H torsion

> <Gold.Protein.ActiveResidues>
 VAL166  LYS551  ARG553  GLY616  TRP617  ASP618  TYR619  PRO620  LYS621  CYS622 
 ASP623  PHE694  ASN695  SER759  ASP760  ASP761  ALA762  ILE779  LEU786  VAL792 
 PHE793  MET794  SER795  GLU796  ALA797  LYS798  CYS799  TRP800  GLU811  SER814 

> <Gold.Protein.RotatedAtoms>
  152.4236  133.7157  159.6504 H   0  0  0  0  0  0  0  0  0  0  0  0  # atno 6907 bound_to 6896
  150.8112  133.8408  159.3187 H   0  0  0  0  0  0  0  0  0  0  0  0  # atno 6908 bound_to 6896
  151.6117  135.1041  160.0134 H   0  0  0  0  0  0  0  0  0  0  0  0  # atno 6909 bound_to 6896
  145.0750  140.8386  143.4073 H   0  0  0  0  0  0  0  0  0  0  0  0  # atno 7974 bound_to 7965
  155.9253  140.3418  155.6205 H   0  0  0  0  0  0  0  0  0  0  0  0  # atno 8008 bound_to 7997
  155.7224  140.0785  157.2343 H   0  0  0  0  0  0  0  0  0  0  0  0  # atno 8009 bound_to 7997
  154.4076  140.1603  156.2404 H   0  0  0  0  0  0  0  0  0  0  0  0  # atno 8010 bound_to 7997
  139.8945  143.6682  152.2606 H   0  0  0  0  0  0  0  0  0  0  0  0  # atno 10167 bound_to 10162
  157.2895  130.7295  149.6602 H   0  0  0  0  0  0  0  0  0  0  0  0  # atno 10718 bound_to 10713
  153.2888  135.6947  153.7313 H   0  0  0  0  0  0  0  0  0  0  0  0  # atno 10763 bound_to 10752
  153.6272  135.3416  155.3031 H   0  0  0  0  0  0  0  0  0  0  0  0  # atno 10764 bound_to 10752
  154.8518  135.4400  154.1964 H   0  0  0  0  0  0  0  0  0  0  0  0  # atno 10765 bound_to 10752
  140.5122  134.0641  155.7821 H   0  0  0  0  0  0  0  0  0  0  0  0  # atno 11005 bound_to 11000
  145.1247  139.2671  143.5570 LP  0  0  0  0  0  0  0  0  0  0  0  0  # atno 17320 bound_to 7965
  146.3530  140.0881  142.8614 LP  0  0  0  0  0  0  0  0  0  0  0  0  # atno 17321 bound_to 7965
  139.7080  144.7625  151.1160 LP  0  0  0  0  0  0  0  0  0  0  0  0  # atno 17342 bound_to 10162
  140.7720  143.5369  150.9358 LP  0  0  0  0  0  0  0  0  0  0  0  0  # atno 17343 bound_to 10162
  155.9666  130.4313  150.4915 LP  0  0  0  0  0  0  0  0  0  0  0  0  # atno 17370 bound_to 10713
  157.2875  131.0619  151.2156 LP  0  0  0  0  0  0  0  0  0  0  0  0  # atno 17371 bound_to 10713
  141.1379  133.9189  157.2392 LP  0  0  0  0  0  0  0  0  0  0  0  0  # atno 17394 bound_to 11000
  139.9652  135.0144  156.9368 LP  0  0  0  0  0  0  0  0  0  0  0  0  # atno 17395 bound_to 11000

$$$$
