AV-unprocessed.smi:2655|AV-procd|sdf|10301|dock3
  -GOLD-   2272014313D 1   1.00000     0.00000
 Structure written by MMmdl.
 32 33  0  0  0  0  0  0  0  0  3 V2000
  152.4323  142.1172  159.0239 C   0  0  0  0  0  0  0  0  0  0  0  0
  151.6255  142.0476  157.7596 C   0  0  0  0  0  0  0  0  0  0  0  0
  150.9649  143.1285  157.3566 N   0  0  0  0  0  0  0  0  0  0  0  0
  150.3583  142.7409  156.2189 N   0  0  0  0  0  0  0  0  0  0  0  0
  150.6339  141.4330  155.9140 C   0  0  0  0  0  0  0  0  0  0  0  0
  150.1238  140.8514  154.8130 O   0  5  0  0  0  0  0  0  0  0  0  0
  151.4526  140.9304  156.8840 C   0  0  0  0  0  0  0  0  0  0  0  0
  152.0374  139.5490  157.0119 C   0  0  0  0  0  0  0  0  0  0  0  0
  151.7174  138.9253  158.3802 C   0  0  0  0  0  0  0  0  0  0  0  0
  150.2947  138.6325  158.5208 N   0  0  0  0  0  0  0  0  0  0  0  0
  149.7674  137.5160  159.0434 C   0  0  0  0  0  0  0  0  0  0  0  0
  150.5077  136.6248  159.4659 O   0  0  0  0  0  0  0  0  0  0  0  0
  148.4137  137.4996  159.0410 N   0  5  0  0  0  0  0  0  0  0  0  0
  147.7454  136.8677  160.0180 C   0  0  0  0  0  0  0  0  0  0  0  0
  148.1071  135.6260  160.6085 C   0  0  0  0  0  0  0  0  0  0  0  0
  147.1162  135.4153  161.5246 C   0  0  0  0  0  0  0  0  0  0  0  0
  146.8585  134.3195  162.5017 C   0  0  0  0  0  0  0  0  0  0  0  0
  146.2170  136.4355  161.4904 O   0  0  0  0  0  0  0  0  0  0  0  0
  146.6236  137.3579  160.5188 N   0  0  0  0  0  0  0  0  0  0  0  0
  153.2226  141.3667  159.0306 H   0  0  0  0  0  0  0  0  0  0  0  0
  151.8030  141.9448  159.8968 H   0  0  0  0  0  0  0  0  0  0  0  0
  152.9055  143.0923  159.1400 H   0  0  0  0  0  0  0  0  0  0  0  0
  149.7766  143.3642  155.6782 H   0  0  0  0  0  0  0  0  0  0  0  0
  153.1183  139.5787  156.8702 H   0  0  0  0  0  0  0  0  0  0  0  0
  151.6565  138.9011  156.2219 H   0  0  0  0  0  0  0  0  0  0  0  0
  152.3086  138.0218  158.5386 H   0  0  0  0  0  0  0  0  0  0  0  0
  151.9918  139.6180  159.1760 H   0  0  0  0  0  0  0  0  0  0  0  0
  149.6517  139.3356  158.1880 H   0  0  0  0  0  0  0  0  0  0  0  0
  148.9585  134.9968  160.3968 H   0  0  0  0  0  0  0  0  0  0  0  0
  146.6713  133.3787  161.9843 H   0  0  0  0  0  0  0  0  0  0  0  0
  145.9907  134.5417  163.1229 H   0  0  0  0  0  0  0  0  0  0  0  0
  147.7169  134.1797  163.1586 H   0  0  0  0  0  0  0  0  0  0  0  0
  1 20  1  0  0  0  0
  1 21  1  0  0  0  0
  1 22  1  0  0  0  0
  1  2  1  0  0  0  0
  2  7  1  0  0  0  0
  2  3  2  0  0  0  0
  3  4  1  0  0  0  0
  4 23  1  0  0  0  0
  4  5  1  0  0  0  0
  5  7  2  0  0  0  0
  5  6  1  0  0  0  0
  7  8  1  0  0  0  0
  8  9  1  0  0  0  0
  8 24  1  0  0  0  0
  8 25  1  0  0  0  0
  9 10  1  0  0  0  0
  9 26  1  0  0  0  0
  9 27  1  0  0  0  0
 10 11  1  0  0  0  0
 10 28  1  0  0  0  0
 11 12  2  0  0  0  0
 11 13  1  0  0  0  0
 13 14  1  0  0  0  0
 14 19  2  0  0  0  0
 14 15  1  0  0  0  0
 15 16  2  0  0  0  0
 15 29  1  0  0  0  0
 16 17  1  0  0  0  0
 16 18  1  0  0  0  0
 17 30  1  0  0  0  0
 17 31  1  0  0  0  0
 17 32  1  0  0  0  0
 18 19  1  0  0  0  0
M  CHG  1   6  -1
M  CHG  1  13  -1
M  END
> <s_m_source_file>
AV-unprocessed.smi

> <i_m_source_file_index>
2655

> <i_lp_mmshare_version>
43012

> <i_f3d_flags>
0

> <s_epik_input>
W0NIM11DMT1OW05IXUMoPU8pW0NASF0xW0NIMl1bQ0gyXVtOSF1DKD1PKVtOSF1jMltjSF1jKFtDSDNdKW9uMg==

> <s_epik_cmdline>
J2VwaWtfcHl0aG9uJywgJy1waCcsICc3LjAnLCAnLXRuJywgJzgnLCAnLW1hJywgJzIwMCcsICctbWV0YWxfYmluZGluZycsICctaW1hZScsICc8aW5maWxlLm1hZT4nLCAnLW9tYWUnLCAnPG91dGZpbGUubWFlPic=

> <r_lp_tautomer_probability>
0.99495

> <r_epik_Ionization_Penalty>
8.09923

> <r_epik_Ionization_Penalty_Charging>
6.55729

> <r_epik_Ionization_Penalty_Neutral>
1.54195

> <r_epik_State_Penalty>
6.87174

> <r_epik_Charging_Adjusted_Penalty>
13.429

> <i_epik_Tot_Q>
-2

> <i_epik_Tot_abs_Q>
2

> <r_epik_Metal_State_Penalty>
4.19188

> <b_epik_Metal_Only>
1

> <s_lp_Force_Field>
OPLS_2005

> <r_lp_Energy>
-4.19881

> <b_lp_Chiralities_Consistent>
1

> <s_lp_Variant>
AV-unprocessed.smi:2655-4

> <Gold.Version>
5.8.1

> <Gold.Id.Protein>
6NUR|6NUR_protein|mol2

> <Gold.PLP.Fitness>
39.8736

> <Gold.PLP.PLP>
-29.9667

> <Gold.PLP.part.hbond>
-4.1843

> <Gold.PLP.part.metal>
0.0000

> <Gold.PLP.part.buried>
-5.3188

> <Gold.PLP.part.nonpolar>
-20.8291

> <Gold.PLP.part.repulsive>
0.5170

> <Gold.PLP.ligand.clash>
0.0000

> <Gold.PLP.ligand.torsion>
0.6749

> <Gold.PLP.Chemscore.Hbond>
3.7360

> <Gold.PLP.Chemscore.CHOScore>
0.0000

> <Gold.PLP.Chemscore.Metal>
0.0000

> <Gold.Chemscore.Hbonds>
donor molecule, donor type, donor heavy atom, donor atom, acceptor molecule, acceptor atom, score
      L1  H     4    23       P1  8028  0.94
      P1  H  6896  6907       L1    12  1.00
      P1  H  6934  6947       L1    19  1.00
      P1  H  7989  7998       L1     6  0.75

> <Gold.PLP.Chemscore.Internal.Correction>
0.0486

> <Gold.Rescore>
     Score         DG    S(hbond)    S(metal)    S(lipo)     H(rot)  DE(clash)    DE(int)     intcor
     16.79     -19.06       3.41        0.00      58.69       1.82       0.28       1.99       ----

> <Gold.Chemscore.Fitness>
16.7913

> <Gold.Chemscore.DG>
-19.0608

> <Gold.Chemscore.ZeroCoef>
-5.4800

> <Gold.Chemscore.Hbond>
3.4064

> <Gold.Chemscore.Metal>
0.0000

> <Gold.Chemscore.Lipo>
58.6883

> <Gold.Chemscore.Internal_Hbond>
0.0000

> <Gold.Chemscore.DEClash>
0.2840

> <Gold.Chemscore.DEInternal>
1.9855

> <Gold.Chemscore.Rot>
1.8215

> <Gold.Chemscore.Internal.Correction>
   9.000000E+99

> <Gold.Chemscore.Hbonds>
donor molecule, donor type, donor heavy atom, donor atom, acceptor molecule, acceptor atom, score
      L1  H     4    23       P1  8028  0.90
      P1  H  6896  6907       L1    12  0.97
      P1  H  6934  6947       L1    19  0.25
      P1  H  7989  7998       L1     6  0.33

> <Gold.Chemscore.Hbond.Weighted>
-11.3773

> <Gold.Chemscore.Metal.Weighted>
-0.0000

> <Gold.Chemscore.Lipo.Weighted>
-6.8665

> <Gold.Chemscore.Internal_Hbond.Weighted>
0.0000

> <Gold.Chemscore.DEClash.Weighted>
0.2840

> <Gold.Chemscore.DEInternal.Weighted>
1.9855

> <Gold.Chemscore.Rot.Weighted>
4.6631

> <Gold.Chemscore.Internal.Correction.Weighted>
   9.000000E+99

> <Gold.Protein.RotatedTorsions>
[ 6907 6896 6895 6894 ] final  -46.20 input  -60.11 | X-H torsion
[ 7974 7965 7964 7962 ] final   30.40 input  175.53 | X-H torsion
[ 8008 7997 7996 7995 ] final   66.66 input   59.86 | X-H torsion
[ 10167 10162 10161 10158 ] final  -17.96 input  -65.29 | X-H torsion
[ 10718 10713 10712 10709 ] final  147.27 input   66.30 | X-H torsion
[ 10763 10752 10751 10750 ] final   40.20 input  -60.55 | X-H torsion
[ 11005 11000 10999 10996 ] final   13.30 input  -57.11 | X-H torsion

> <Gold.Protein.ActiveResidues>
 VAL166  LYS551  ARG553  GLY616  TRP617  ASP618  TYR619  PRO620  LYS621  CYS622 
 ASP623  PHE694  ASN695  SER759  ASP760  ASP761  ALA762  ILE779  LEU786  VAL792 
 PHE793  MET794  SER795  GLU796  ALA797  LYS798  CYS799  TRP800  GLU811  SER814 

> <Gold.Protein.RotatedAtoms>
  150.9138  134.8555  159.7442 H   0  0  0  0  0  0  0  0  0  0  0  0  # atno 6907 bound_to 6896
  152.4958  134.4320  159.9525 H   0  0  0  0  0  0  0  0  0  0  0  0  # atno 6908 bound_to 6896
  151.4359  133.3617  159.2810 H   0  0  0  0  0  0  0  0  0  0  0  0  # atno 6909 bound_to 6896
  146.1614  139.6794  142.9031 H   0  0  0  0  0  0  0  0  0  0  0  0  # atno 7974 bound_to 7965
  155.6808  140.3496  155.4854 H   0  0  0  0  0  0  0  0  0  0  0  0  # atno 8008 bound_to 7997
  155.9609  140.1137  157.0919 H   0  0  0  0  0  0  0  0  0  0  0  0  # atno 8009 bound_to 7997
  154.4143  140.1176  156.5163 H   0  0  0  0  0  0  0  0  0  0  0  0  # atno 8010 bound_to 7997
  140.7253  143.4963  150.9926 H   0  0  0  0  0  0  0  0  0  0  0  0  # atno 10167 bound_to 10162
  157.3230  131.0907  151.1225 H   0  0  0  0  0  0  0  0  0  0  0  0  # atno 10718 bound_to 10713
  152.9943  135.6198  154.2588 H   0  0  0  0  0  0  0  0  0  0  0  0  # atno 10763 bound_to 10752
  154.2324  135.2791  155.2886 H   0  0  0  0  0  0  0  0  0  0  0  0  # atno 10764 bound_to 10752
  154.5438  135.5753  153.6920 H   0  0  0  0  0  0  0  0  0  0  0  0  # atno 10765 bound_to 10752
  140.4823  134.0923  155.7753 H   0  0  0  0  0  0  0  0  0  0  0  0  # atno 11005 bound_to 11000
  145.4578  141.0431  143.2768 LP  0  0  0  0  0  0  0  0  0  0  0  0  # atno 17320 bound_to 7965
  144.8032  139.6101  143.7062 LP  0  0  0  0  0  0  0  0  0  0  0  0  # atno 17321 bound_to 7965
  139.8670  143.7241  152.3169 LP  0  0  0  0  0  0  0  0  0  0  0  0  # atno 17342 bound_to 10162
  139.7476  144.7543  151.0556 LP  0  0  0  0  0  0  0  0  0  0  0  0  # atno 17343 bound_to 10162
  157.2502  130.6610  149.5928 LP  0  0  0  0  0  0  0  0  0  0  0  0  # atno 17370 bound_to 10713
  155.9688  130.4541  150.5836 LP  0  0  0  0  0  0  0  0  0  0  0  0  # atno 17371 bound_to 10713
  141.1525  133.8942  157.2061 LP  0  0  0  0  0  0  0  0  0  0  0  0  # atno 17394 bound_to 11000
  139.9819  135.0095  156.9770 LP  0  0  0  0  0  0  0  0  0  0  0  0  # atno 17395 bound_to 11000

$$$$
