#       Name:                AV-unprocessed.smi:38
#       Creating user name   scv26
#       Creation time:       Thu Mar 26 16:17:47 2020


#       File generated by GOLD software.
#

@<TRIPOS>MOLECULE
AV-unprocessed.smi:38
    38    39     1
SMALL
NO_CHARGES


@<TRIPOS>ATOM
      1 ****         0.9021   4.6955   1.5701 O.2            1 S1                 0.0000
      2 ****         0.4571   3.6368   1.1312 C.2            1 S1                 0.0000
      3 ****        -0.5847   2.9836   1.7950 N.am           1 S1                 0.0000
      4 ****        -1.1689   1.7794   1.3994 C.2            1 S1                 0.0000
      5 ****        -2.0975   1.3039   2.0514 O.2            1 S1                 0.0000
      6 ****        -0.6522   1.1567   0.2410 N.am           1 S1                 0.0000
      7 ****        -1.2814  -0.1442  -0.2167 C.3            1 S1                 0.0000
      8 ****        -1.0415  -1.2704   0.8002 C.3            1 S1                 0.0000
      9 ****        -0.7788  -2.4502  -0.1095 C.3            1 S1                 0.0000
     10 ****        -0.0831  -3.4892   0.5498 O.3            1 S1                 0.0000
     11 ****        -0.0181  -1.8080  -1.2757 C.3            1 S1                 0.0000
     12 ****         1.4814  -1.5440  -1.0123 C.3            1 S1                 0.0000
     13 ****         2.1285  -1.2124  -2.2221 O.3            1 S1                 0.0000
     14 ****        -0.6982  -0.5596  -1.4223 O.3            1 S1                 0.0000
     15 ****         0.3662   1.7867  -0.4671 C.2            1 S1                 0.0000
     16 ****         0.9212   2.9580  -0.0749 C.2            1 S1                 0.0000
     17 ****         1.9052   3.5045  -0.8091 F              1 S1                 0.0000
     18 ****        -0.9484   3.4224   2.6283 H              1 S1                 0.0000
     19 ****        -2.3360   0.0822  -0.3845 H              1 S1                 0.0000
     20 ****        -1.7305  -2.8413  -0.4722 H              1 S1                 0.0000
     21 ****        -0.1345  -2.4135  -2.1756 H              1 S1                 0.0000
     22 ****        -0.1626  -1.0429   1.4062 H              1 S1                 0.0000
     23 ****        -1.9021  -1.4071   1.4556 H              1 S1                 0.0000
     24 ****         0.0490  -4.1983  -0.0610 H              1 S1                 0.0000
     25 ****         1.6389  -0.7601  -0.2721 H              1 S1                 0.0000
     26 ****         1.9706  -2.4411  -0.6335 H              1 S1                 0.0000
     27 ****         3.0462  -1.0745  -2.0443 H              1 S1                 0.0000
     28 ****         0.7516   1.3476  -1.3749 H              1 S1                 0.0000
     29 ****         1.6446   5.1630   1.0903 LP             1 S1                 0.0000
     30 ****         0.5216   5.0891   2.4069 LP             1 S1                 0.0000
     31 ****        -2.4331   1.7801   2.8641 LP             1 S1                 0.0000
     32 ****        -2.5166   0.4411   1.7686 LP             1 S1                 0.0000
     33 ****        -0.6194  -3.8118   1.3297 LP             1 S1                 0.0000
     34 ****         0.8018  -3.1516   0.8706 LP             1 S1                 0.0000
     35 ****         1.7292  -0.3772  -2.6001 LP             1 S1                 0.0000
     36 ****         2.0208  -1.9597  -2.8778 LP             1 S1                 0.0000
     37 ****        -0.0427   0.1338  -1.7215 LP             1 S1                 0.0000
     38 ****        -1.4153  -0.6599  -2.1120 LP             1 S1                 0.0000
@<TRIPOS>BOND
    1    1    2 2     
    2    2   16 1     
    3    2    3 1     
    4    3   18 1     
    5    3    4 1     
    6    4    5 2     
    7    4    6 1     
    8    6    7 1     
    9    6   15 1     
   10    7   19 1     
   11    7   14 1     
   12    7    8 1     
   13    8    9 1     
   14    8   22 1     
   15    8   23 1     
   16    9   20 1     
   17    9   10 1     
   18    9   11 1     
   19   10   24 1     
   20   11   21 1     
   21   11   12 1     
   22   11   14 1     
   23   12   13 1     
   24   12   25 1     
   25   12   26 1     
   26   13   27 1     
   27   15   16 2     
   28   15   28 1     
   29   16   17 1     
   30    1   29 1     
   31    1   30 1     
   32    5   31 1     
   33    5   32 1     
   34   10   33 1     
   35   10   34 1     
   36   13   35 1     
   37   13   36 1     
   38   14   37 1     
   39   14   38 1     
@<TRIPOS>SUBSTRUCTURE
      1 S1             1
@<TRIPOS>SET
LONE_PAIRS      STATIC     ATOMS    <user>   **** ""
10 29 30 31 32 33 34 35 36 37 38
DONOR_HYDROGENS      STATIC     ATOMS    <user>   **** ""
3 18 24 27
ATOM$BLUE        STATIC     ATOMS    COLORGROUP SYSTEM
10 29 30 31 32 33 34 35 36 37 38
ATOM$RED        STATIC     ATOMS    COLORGROUP SYSTEM
3 18 24 27
