AV-unprocessed.smi:1580|AV-procd|sdf|6358|dock5
  -GOLD-   22720 6583D 1   1.00000     0.00000
 Structure written by MMmdl.
 37 38  0  0  0  0  0  0  0  0  1 V2000
  153.8562  138.7393  160.6653 C   0  0  0  0  0  0  0  0  0  0  0  0
  154.5596  140.3546  160.1382 S   0  0  0  0  0  0  0  0  0  0  0  0
  154.6629  141.2120  161.3294 O   0  0  0  0  0  0  0  0  0  0  0  0
  155.7573  140.0936  159.3247 O   0  0  0  0  0  0  0  0  0  0  0  0
  153.3001  141.0338  159.0642 C   0  0  0  0  0  0  0  0  0  0  0  0
  152.9572  142.3982  159.1431 C   0  0  0  0  0  0  0  0  0  0  0  0
  151.9253  142.8730  158.3115 C   0  0  0  0  0  0  0  0  0  0  0  0
  151.2745  141.9652  157.4390 C   0  0  0  0  0  0  0  0  0  0  0  0
  150.2109  142.3078  156.5586 N   0  0  0  0  0  0  0  0  0  0  0  0
  149.5329  141.5274  155.6990 C   0  0  0  0  0  0  0  0  0  0  0  0
  149.7066  140.3201  155.5372 O   0  0  0  0  0  0  0  0  0  0  0  0
  148.6127  142.2342  155.0283 N   0  0  0  0  0  0  0  0  0  0  0  0
  147.7120  141.6884  154.0192 C   0  0  0  0  0  0  0  0  0  0  0  0
  146.2649  142.1669  154.2246 C   0  0  2  0  0  0  0  0  0  0  0  0
  145.9854  143.5431  153.6230 C   0  0  0  0  0  0  0  0  0  0  0  0
  144.8224  144.0139  154.4653 C   0  0  0  0  0  0  0  0  0  0  0  0
  145.2070  143.4865  155.8442 C   0  0  0  0  0  0  0  0  0  0  0  0
  145.9727  142.3062  155.6138 O   0  0  0  0  0  0  0  0  0  0  0  0
  151.6903  140.6162  157.4648 C   0  0  0  0  0  0  0  0  0  0  0  0
  152.6760  140.1486  158.2591 N   0  0  0  0  0  0  0  0  0  0  0  0
  154.5580  138.2375  161.3308 H   0  0  0  0  0  0  0  0  0  0  0  0
  153.6782  138.1166  159.7887 H   0  0  0  0  0  0  0  0  0  0  0  0
  152.9153  138.9067  161.1888 H   0  0  0  0  0  0  0  0  0  0  0  0
  153.4644  143.0668  159.8226 H   0  0  0  0  0  0  0  0  0  0  0  0
  151.6526  143.9140  158.3757 H   0  0  0  0  0  0  0  0  0  0  0  0
  149.9082  143.2697  156.6075 H   0  0  0  0  0  0  0  0  0  0  0  0
  148.5275  143.2200  155.2276 H   0  0  0  0  0  0  0  0  0  0  0  0
  148.0711  141.9941  153.0361 H   0  0  0  0  0  0  0  0  0  0  0  0
  147.7558  140.5982  154.0396 H   0  0  0  0  0  0  0  0  0  0  0  0
  145.5577  141.4506  153.8029 H   0  0  0  0  0  0  0  0  0  0  0  0
  146.8393  144.2074  153.7636 H   0  0  0  0  0  0  0  0  0  0  0  0
  145.7548  143.5026  152.5581 H   0  0  0  0  0  0  0  0  0  0  0  0
  144.6851  145.0955  154.4441 H   0  0  0  0  0  0  0  0  0  0  0  0
  143.8991  143.5431  154.1255 H   0  0  0  0  0  0  0  0  0  0  0  0
  145.8361  144.2089  156.3657 H   0  0  0  0  0  0  0  0  0  0  0  0
  144.3368  143.2830  156.4688 H   0  0  0  0  0  0  0  0  0  0  0  0
  151.2144  139.8847  156.8280 H   0  0  0  0  0  0  0  0  0  0  0  0
  1  2  1  0  0  0  0
  1 21  1  0  0  0  0
  1 22  1  0  0  0  0
  1 23  1  0  0  0  0
  2  3  2  0  0  0  0
  2  4  2  0  0  0  0
  2  5  1  0  0  0  0
  5 20  1  0  0  0  0
  5  6  2  0  0  0  0
  6  7  1  0  0  0  0
  6 24  1  0  0  0  0
  7  8  2  0  0  0  0
  7 25  1  0  0  0  0
  8  9  1  0  0  0  0
  8 19  1  0  0  0  0
  9 10  1  0  0  0  0
  9 26  1  0  0  0  0
 10 11  2  0  0  0  0
 10 12  1  0  0  0  0
 12 13  1  0  0  0  0
 12 27  1  0  0  0  0
 13 14  1  0  0  0  0
 13 28  1  0  0  0  0
 13 29  1  0  0  0  0
 14 18  1  0  0  0  0
 14 15  1  0  0  0  0
 14 30  1  0  0  0  0
 15 16  1  0  0  0  0
 15 31  1  0  0  0  0
 15 32  1  0  0  0  0
 16 17  1  0  0  0  0
 16 33  1  0  0  0  0
 16 34  1  0  0  0  0
 17 18  1  0  0  0  0
 17 35  1  0  0  0  0
 17 36  1  0  0  0  0
 19 20  2  0  0  0  0
 19 37  1  0  0  0  0
M  END
> <s_m_source_file>
AV-unprocessed.smi

> <i_m_source_file_index>
1580

> <i_lp_mmshare_version>
43012

> <i_f3d_flags>
0

> <s_epik_input>
W0NIM11TKD1PKSg9TyljMVtjSF1bY0hdYyhbY0hdbjEpW05IXUMoPU8pW05IXVtDSDJdW0NAQEhdMltDSDJdW0NIMl1bQ0gyXU8y

> <s_epik_cmdline>
J2VwaWtfcHl0aG9uJywgJy1waCcsICc3LjAnLCAnLXRuJywgJzgnLCAnLW1hJywgJzIwMCcsICctbWV0YWxfYmluZGluZycsICctaW1hZScsICc8aW5maWxlLm1hZT4nLCAnLW9tYWUnLCAnPG91dGZpbGUubWFlPic=

> <r_lp_tautomer_probability>
1

> <r_epik_Ionization_Penalty>
3.28405e-05

> <r_epik_Ionization_Penalty_Charging>
0

> <r_epik_Ionization_Penalty_Neutral>
3.28405e-05

> <r_epik_State_Penalty>
-0

> <r_epik_Charging_Adjusted_Penalty>
0

> <i_epik_Tot_Q>
0

> <i_epik_Tot_abs_Q>
0

> <r_epik_Metal_State_Penalty>
-0

> <b_epik_Metal_Only>
0

> <s_lp_Force_Field>
OPLS_2005

> <r_lp_Energy>
18.5173

> <b_lp_Chiralities_Consistent>
1

> <s_lp_Variant>
AV-unprocessed.smi:1580-1

> <Gold.Version>
5.8.1

> <Gold.Id.Protein>
6NUR|6NUR_protein|mol2

> <Gold.PLP.Fitness>
45.0665

> <Gold.PLP.PLP>
-37.4820

> <Gold.PLP.part.hbond>
-4.4233

> <Gold.PLP.part.metal>
0.0000

> <Gold.PLP.part.buried>
-5.5964

> <Gold.PLP.part.nonpolar>
-27.8676

> <Gold.PLP.part.repulsive>
0.4458

> <Gold.PLP.ligand.clash>
0.0000

> <Gold.PLP.ligand.torsion>
1.4965

> <Gold.PLP.Chemscore.Hbond>
2.8477

> <Gold.PLP.Chemscore.CHOScore>
0.0000

> <Gold.PLP.Chemscore.Metal>
0.0000

> <Gold.Chemscore.Hbonds>
donor molecule, donor type, donor heavy atom, donor atom, acceptor molecule, acceptor atom, score
      L1  H     9    26       P1  8028  0.91
      L1  H    12    27       P1  8028  1.00
      P1  H  7997  8009       L1     4  1.00

> <Gold.PLP.Chemscore.Internal.Correction>
2.0344

> <Gold.Rescore>
     Score         DG    S(hbond)    S(metal)    S(lipo)     H(rot)  DE(clash)    DE(int)     intcor
     17.05     -20.08       2.92        0.00      69.30       1.27       0.04       2.99       ----

> <Gold.Chemscore.Fitness>
17.0492

> <Gold.Chemscore.DG>
-20.0775

> <Gold.Chemscore.ZeroCoef>
-5.4800

> <Gold.Chemscore.Hbond>
2.9183

> <Gold.Chemscore.Metal>
0.0000

> <Gold.Chemscore.Lipo>
69.2993

> <Gold.Chemscore.Internal_Hbond>
0.0000

> <Gold.Chemscore.DEClash>
0.0417

> <Gold.Chemscore.DEInternal>
2.9866

> <Gold.Chemscore.Rot>
1.2725

> <Gold.Chemscore.Internal.Correction>
   9.000000E+99

> <Gold.Chemscore.Hbonds>
donor molecule, donor type, donor heavy atom, donor atom, acceptor molecule, acceptor atom, score
      L1  H     9    26       P1  8028  0.84
      L1  H    12    27       P1  8028  0.98
      P1  H  7997  8009       L1     4  0.86

> <Gold.Chemscore.Hbond.Weighted>
-9.7471

> <Gold.Chemscore.Metal.Weighted>
-0.0000

> <Gold.Chemscore.Lipo.Weighted>
-8.1080

> <Gold.Chemscore.Internal_Hbond.Weighted>
0.0000

> <Gold.Chemscore.DEClash.Weighted>
0.0417

> <Gold.Chemscore.DEInternal.Weighted>
2.9866

> <Gold.Chemscore.Rot.Weighted>
3.2576

> <Gold.Chemscore.Internal.Correction.Weighted>
   9.000000E+99

> <Gold.Protein.RotatedTorsions>
[ 6907 6896 6895 6894 ] final   24.20 input  -60.11 | X-H torsion
[ 7974 7965 7964 7962 ] final  -41.30 input  175.53 | X-H torsion
[ 8008 7997 7996 7995 ] final   98.74 input   59.86 | X-H torsion
[ 10167 10162 10161 10158 ] final -165.54 input  -65.29 | X-H torsion
[ 10718 10713 10712 10709 ] final   90.79 input   66.30 | X-H torsion
[ 10763 10752 10751 10750 ] final  -27.03 input  -60.55 | X-H torsion
[ 11005 11000 10999 10996 ] final -123.15 input  -57.11 | X-H torsion

> <Gold.Protein.ActiveResidues>
 VAL166  LYS551  ARG553  GLY616  TRP617  ASP618  TYR619  PRO620  LYS621  CYS622 
 ASP623  PHE694  ASN695  SER759  ASP760  ASP761  ALA762  ILE779  LEU786  VAL792 
 PHE793  MET794  SER795  GLU796  ALA797  LYS798  CYS799  TRP800  GLU811  SER814 

> <Gold.Protein.RotatedAtoms>
  151.9539  135.0156  160.0543 H   0  0  0  0  0  0  0  0  0  0  0  0  # atno 6907 bound_to 6896
  152.1928  133.4781  159.5025 H   0  0  0  0  0  0  0  0  0  0  0  0  # atno 6908 bound_to 6896
  150.6938  134.1607  159.4218 H   0  0  0  0  0  0  0  0  0  0  0  0  # atno 6909 bound_to 6896
  146.0224  140.6833  142.9172 H   0  0  0  0  0  0  0  0  0  0  0  0  # atno 7974 bound_to 7965
  156.1034  140.3239  155.7973 H   0  0  0  0  0  0  0  0  0  0  0  0  # atno 8008 bound_to 7997
  155.4797  140.0553  157.2986 H   0  0  0  0  0  0  0  0  0  0  0  0  # atno 8009 bound_to 7997
  154.4712  140.2012  156.0005 H   0  0  0  0  0  0  0  0  0  0  0  0  # atno 8010 bound_to 7997
  139.6175  144.0690  152.1902 H   0  0  0  0  0  0  0  0  0  0  0  0  # atno 10167 bound_to 10162
  157.6959  131.0383  150.3631 H   0  0  0  0  0  0  0  0  0  0  0  0  # atno 10718 bound_to 10713
  153.7255  135.6942  153.5002 H   0  0  0  0  0  0  0  0  0  0  0  0  # atno 10763 bound_to 10752
  153.2173  135.4382  155.0448 H   0  0  0  0  0  0  0  0  0  0  0  0  # atno 10764 bound_to 10752
  154.8270  135.3452  154.6787 H   0  0  0  0  0  0  0  0  0  0  0  0  # atno 10765 bound_to 10752
  140.9941  134.0497  157.3618 H   0  0  0  0  0  0  0  0  0  0  0  0  # atno 11005 bound_to 11000
  144.6995  140.3590  143.7167 LP  0  0  0  0  0  0  0  0  0  0  0  0  # atno 17320 bound_to 7965
  145.7172  139.1700  143.2505 LP  0  0  0  0  0  0  0  0  0  0  0  0  # atno 17321 bound_to 7965
  140.0324  144.6071  150.7477 LP  0  0  0  0  0  0  0  0  0  0  0  0  # atno 17342 bound_to 10162
  140.7360  143.2748  151.3775 LP  0  0  0  0  0  0  0  0  0  0  0  0  # atno 17343 bound_to 10162
  156.4065  130.3926  149.6922 LP  0  0  0  0  0  0  0  0  0  0  0  0  # atno 17370 bound_to 10713
  156.4221  130.7774  151.2791 LP  0  0  0  0  0  0  0  0  0  0  0  0  # atno 17371 bound_to 10713
  139.9006  135.0163  156.7250 LP  0  0  0  0  0  0  0  0  0  0  0  0  # atno 17394 bound_to 11000
  140.6993  133.9320  155.8014 LP  0  0  0  0  0  0  0  0  0  0  0  0  # atno 17395 bound_to 11000

$$$$
