AV-unprocessed.smi:1401|AV-procd|sdf|5689|dock8
  -GOLD-   22720 5313D 1   1.00000     0.00000
 Structure written by MMmdl.
 48 50  0  0  0  0  0  0  0  0  1 V2000
  150.8286  144.4890  160.0316 C   0  0  0  0  0  0  0  0  0  0  0  0
  151.6803  143.2710  159.7975 C   0  0  0  0  0  0  0  0  0  0  0  0
  151.5114  142.6524  158.6757 N   0  0  0  0  0  0  0  0  0  0  0  0
  152.2230  141.5079  158.3684 N   0  0  0  0  0  0  0  0  0  0  0  0
  151.8149  140.8837  157.0978 C   0  0  0  0  0  0  0  0  0  0  0  0
  150.7287  141.6686  156.3407 C   0  0  0  0  0  0  0  0  0  0  0  0
  150.8220  142.8916  156.2444 O   0  0  0  0  0  0  0  0  0  0  0  0
  149.6896  140.9732  155.8496 N   0  0  0  0  0  0  0  0  0  0  0  0
  148.4679  141.5241  155.2765 C   0  0  1  0  0  0  0  0  0  0  0  0
  148.3841  141.1933  153.7766 C   0  0  0  0  0  0  0  0  0  0  0  0
  147.2521  140.9730  156.0595 C   0  0  2  0  0  0  0  0  0  0  0  0
  145.8947  141.6017  155.6749 C   0  0  0  0  0  0  0  0  0  0  0  0
  145.2968  141.9936  157.0400 C   0  0  2  0  0  0  0  0  0  0  0  0
  146.0448  143.2246  157.5855 C   0  0  0  0  0  0  0  0  0  0  0  0
  147.4078  142.6382  157.9963 C   0  0  0  0  0  0  0  0  0  0  0  0
  147.2722  141.1543  157.5996 C   0  0  1  0  0  0  0  0  0  0  0  0
  145.8129  140.8848  157.9495 C   0  0  0  0  0  0  0  0  0  0  0  0
  153.1615  140.9379  159.1783 C   0  0  0  0  0  0  0  0  0  0  0  0
  153.7603  139.9055  158.8745 O   0  0  0  0  0  0  0  0  0  0  0  0
  153.3596  141.6537  160.4410 C   0  0  0  0  0  0  0  0  0  0  0  0
  154.3316  141.0886  161.3204 C   0  0  0  0  0  0  0  0  0  0  0  0
  155.1215  140.6487  162.0432 N   0  0  0  0  0  0  0  0  0  0  0  0
  152.6566  142.7697  160.7585 C   0  0  0  0  0  0  0  0  0  0  0  0
  152.8117  143.5397  162.0626 C   0  0  0  0  0  0  0  0  0  0  0  0
  151.4486  145.3757  160.1647 H   0  0  0  0  0  0  0  0  0  0  0  0
  150.2158  144.3654  160.9247 H   0  0  0  0  0  0  0  0  0  0  0  0
  150.1537  144.6802  159.1957 H   0  0  0  0  0  0  0  0  0  0  0  0
  152.6867  140.7931  156.4472 H   0  0  0  0  0  0  0  0  0  0  0  0
  151.4635  139.8621  157.2500 H   0  0  0  0  0  0  0  0  0  0  0  0
  149.7126  139.9704  155.9646 H   0  0  0  0  0  0  0  0  0  0  0  0
  148.4949  142.6095  155.3857 H   0  0  0  0  0  0  0  0  0  0  0  0
  147.4784  141.6062  153.3320 H   0  0  0  0  0  0  0  0  0  0  0  0
  148.3760  140.1161  153.6071 H   0  0  0  0  0  0  0  0  0  0  0  0
  149.2317  141.6086  153.2309 H   0  0  0  0  0  0  0  0  0  0  0  0
  147.1952  139.8995  155.8691 H   0  0  0  0  0  0  0  0  0  0  0  0
  145.9937  142.4642  155.0149 H   0  0  0  0  0  0  0  0  0  0  0  0
  145.2659  140.8692  155.1674 H   0  0  0  0  0  0  0  0  0  0  0  0
  144.2130  142.1124  157.0249 H   0  0  0  0  0  0  0  0  0  0  0  0
  146.1395  144.0155  156.8404 H   0  0  0  0  0  0  0  0  0  0  0  0
  145.5307  143.6413  158.4525 H   0  0  0  0  0  0  0  0  0  0  0  0
  148.2465  143.1395  157.5143 H   0  0  0  0  0  0  0  0  0  0  0  0
  147.5515  142.7314  159.0735 H   0  0  0  0  0  0  0  0  0  0  0  0
  147.9816  140.5004  158.1075 H   0  0  0  0  0  0  0  0  0  0  0  0
  145.5829  141.0464  159.0043 H   0  0  0  0  0  0  0  0  0  0  0  0
  145.4717  139.8900  157.6574 H   0  0  0  0  0  0  0  0  0  0  0  0
  153.5732  143.1067  162.7107 H   0  0  0  0  0  0  0  0  0  0  0  0
  151.8724  143.5427  162.6172 H   0  0  0  0  0  0  0  0  0  0  0  0
  153.0991  144.5732  161.8660 H   0  0  0  0  0  0  0  0  0  0  0  0
  1  2  1  0  0  0  0
  1 25  1  0  0  0  0
  1 26  1  0  0  0  0
  1 27  1  0  0  0  0
  2 23  1  0  0  0  0
  2  3  2  0  0  0  0
  3  4  1  0  0  0  0
  4  5  1  0  0  0  0
  4 18  1  0  0  0  0
  5  6  1  0  0  0  0
  5 28  1  0  0  0  0
  5 29  1  0  0  0  0
  6  7  2  0  0  0  0
  6  8  1  0  0  0  0
  8  9  1  0  0  0  0
  8 30  1  0  0  0  0
  9 10  1  0  0  0  0
  9 11  1  0  0  0  0
  9 31  1  0  0  0  0
 10 32  1  0  0  0  0
 10 33  1  0  0  0  0
 10 34  1  0  0  0  0
 11 16  1  0  0  0  0
 11 12  1  0  0  0  0
 11 35  1  0  0  0  0
 12 13  1  0  0  0  0
 12 36  1  0  0  0  0
 12 37  1  0  0  0  0
 13 17  1  0  0  0  0
 13 14  1  0  0  0  0
 13 38  1  0  0  0  0
 14 15  1  0  0  0  0
 14 39  1  0  0  0  0
 14 40  1  0  0  0  0
 15 16  1  0  0  0  0
 15 41  1  0  0  0  0
 15 42  1  0  0  0  0
 16 17  1  0  0  0  0
 16 43  1  0  0  0  0
 17 44  1  0  0  0  0
 17 45  1  0  0  0  0
 18 19  2  0  0  0  0
 18 20  1  0  0  0  0
 20 21  1  0  0  0  0
 20 23  2  0  0  0  0
 21 22  3  0  0  0  0
 23 24  1  0  0  0  0
 24 46  1  0  0  0  0
 24 47  1  0  0  0  0
 24 48  1  0  0  0  0
M  END
> <s_m_source_file>
AV-unprocessed.smi

> <i_m_source_file_index>
1401

> <i_lp_mmshare_version>
43012

> <i_f3d_flags>
0

> <s_epik_input>
TiNDYyhjMVtDSDNdKWMoPU8pbihuYzFbQ0gzXSlbQ0gyXUMoPU8pW05IXVtDQEhdKFtDSDNdKVtDQEhdKFtDSDJdW0NASF0yMylbQ0BIXShbQ0gyXTMpW0NIMl1bQ0gyXTI=

> <s_epik_cmdline>
J2VwaWtfcHl0aG9uJywgJy1waCcsICc3LjAnLCAnLXRuJywgJzgnLCAnLW1hJywgJzIwMCcsICctbWV0YWxfYmluZGluZycsICctaW1hZScsICc8aW5maWxlLm1hZT4nLCAnLW9tYWUnLCAnPG91dGZpbGUubWFlPic=

> <r_lp_tautomer_probability>
1

> <r_epik_Ionization_Penalty>
2.16501e-08

> <r_epik_Ionization_Penalty_Charging>
2.29436e-11

> <r_epik_Ionization_Penalty_Neutral>
2.16271e-08

> <r_epik_State_Penalty>
-0

> <r_epik_Charging_Adjusted_Penalty>
2.29436e-11

> <i_epik_Tot_Q>
0

> <i_epik_Tot_abs_Q>
0

> <r_epik_Metal_State_Penalty>
-0

> <b_epik_Metal_Only>
0

> <s_lp_Force_Field>
OPLS_2005

> <r_lp_Energy>
65.4856

> <b_lp_Chiralities_Consistent>
1

> <s_lp_Variant>
AV-unprocessed.smi:1401-2

> <Gold.Version>
5.8.1

> <Gold.Id.Protein>
6NUR|6NUR_protein|mol2

> <Gold.PLP.Fitness>
42.0078

> <Gold.PLP.PLP>
-39.4747

> <Gold.PLP.part.hbond>
-2.0000

> <Gold.PLP.part.metal>
0.0000

> <Gold.PLP.part.buried>
-5.5075

> <Gold.PLP.part.nonpolar>
-33.6341

> <Gold.PLP.part.repulsive>
2.7563

> <Gold.PLP.ligand.clash>
0.0000

> <Gold.PLP.ligand.torsion>
0.2493

> <Gold.PLP.Chemscore.Hbond>
1.0000

> <Gold.PLP.Chemscore.CHOScore>
0.0000

> <Gold.PLP.Chemscore.Metal>
0.0000

> <Gold.Chemscore.Hbonds>
donor molecule, donor type, donor heavy atom, donor atom, acceptor molecule, acceptor atom, score
      P1  H  7997  8010       L1    19  1.00

> <Gold.PLP.Chemscore.Internal.Correction>
0.0317

> <Gold.Rescore>
     Score         DG    S(hbond)    S(metal)    S(lipo)     H(rot)  DE(clash)    DE(int)     intcor
     10.65     -14.18       0.91        0.00      84.03       1.63       1.61       1.93       ----

> <Gold.Chemscore.Fitness>
10.6452

> <Gold.Chemscore.DG>
-14.1845

> <Gold.Chemscore.ZeroCoef>
-5.4800

> <Gold.Chemscore.Hbond>
0.9105

> <Gold.Chemscore.Metal>
0.0000

> <Gold.Chemscore.Lipo>
84.0284

> <Gold.Chemscore.Internal_Hbond>
0.0000

> <Gold.Chemscore.DEClash>
1.6136

> <Gold.Chemscore.DEInternal>
1.9257

> <Gold.Chemscore.Rot>
1.6281

> <Gold.Chemscore.Internal.Correction>
   9.000000E+99

> <Gold.Chemscore.Hbonds>
donor molecule, donor type, donor heavy atom, donor atom, acceptor molecule, acceptor atom, score
      P1  H  7997  8010       L1    19  0.80

> <Gold.Chemscore.Hbond.Weighted>
-3.0410

> <Gold.Chemscore.Metal.Weighted>
-0.0000

> <Gold.Chemscore.Lipo.Weighted>
-9.8313

> <Gold.Chemscore.Internal_Hbond.Weighted>
0.0000

> <Gold.Chemscore.DEClash.Weighted>
1.6136

> <Gold.Chemscore.DEInternal.Weighted>
1.9257

> <Gold.Chemscore.Rot.Weighted>
4.1678

> <Gold.Chemscore.Internal.Correction.Weighted>
   9.000000E+99

> <Gold.Protein.RotatedTorsions>
[ 6907 6896 6895 6894 ] final  178.77 input  -60.11 | X-H torsion
[ 7974 7965 7964 7962 ] final  -79.87 input  175.53 | X-H torsion
[ 8008 7997 7996 7995 ] final   27.34 input   59.86 | X-H torsion
[ 10167 10162 10161 10158 ] final -103.81 input  -65.29 | X-H torsion
[ 10718 10713 10712 10709 ] final -156.99 input   66.30 | X-H torsion
[ 10763 10752 10751 10750 ] final -113.93 input  -60.55 | X-H torsion
[ 11005 11000 10999 10996 ] final   43.72 input  -57.11 | X-H torsion

> <Gold.Protein.ActiveResidues>
 VAL166  LYS551  ARG553  GLY616  TRP617  ASP618  TYR619  PRO620  LYS621  CYS622 
 ASP623  PHE694  ASN695  SER759  ASP760  ASP761  ALA762  ILE779  LEU786  VAL792 
 PHE793  MET794  SER795  GLU796  ALA797  LYS798  CYS799  TRP800  GLU811  SER814 

> <Gold.Protein.RotatedAtoms>
  151.6824  133.3312  159.3222 H   0  0  0  0  0  0  0  0  0  0  0  0  # atno 6907 bound_to 6896
  150.7816  134.6769  159.6432 H   0  0  0  0  0  0  0  0  0  0  0  0  # atno 6908 bound_to 6896
  152.3875  134.6497  160.0172 H   0  0  0  0  0  0  0  0  0  0  0  0  # atno 6909 bound_to 6896
  145.5675  140.9472  143.1414 H   0  0  0  0  0  0  0  0  0  0  0  0  # atno 7974 bound_to 7965
  155.0414  140.3169  155.4723 H   0  0  0  0  0  0  0  0  0  0  0  0  # atno 8008 bound_to 7997
  156.2854  140.2162  156.5481 H   0  0  0  0  0  0  0  0  0  0  0  0  # atno 8009 bound_to 7997
  154.7287  140.0483  157.0694 H   0  0  0  0  0  0  0  0  0  0  0  0  # atno 8010 bound_to 7997
  140.2160  143.3711  152.1010 H   0  0  0  0  0  0  0  0  0  0  0  0  # atno 10167 bound_to 10162
  156.5341  130.8534  151.2726 H   0  0  0  0  0  0  0  0  0  0  0  0  # atno 10718 bound_to 10713
  154.8418  135.4436  154.1426 H   0  0  0  0  0  0  0  0  0  0  0  0  # atno 10763 bound_to 10752
  153.2607  135.6936  153.7587 H   0  0  0  0  0  0  0  0  0  0  0  0  # atno 10764 bound_to 10752
  153.6865  135.3394  155.3167 H   0  0  0  0  0  0  0  0  0  0  0  0  # atno 10765 bound_to 10752
  140.1618  134.4332  155.8313 H   0  0  0  0  0  0  0  0  0  0  0  0  # atno 11005 bound_to 11000
  144.7453  139.7336  143.7294 LP  0  0  0  0  0  0  0  0  0  0  0  0  # atno 17320 bound_to 7965
  146.1808  139.4999  142.9868 LP  0  0  0  0  0  0  0  0  0  0  0  0  # atno 17321 bound_to 7965
  139.5162  144.6974  151.5592 LP  0  0  0  0  0  0  0  0  0  0  0  0  # atno 17342 bound_to 10162
  140.6290  143.9114  150.6589 LP  0  0  0  0  0  0  0  0  0  0  0  0  # atno 17343 bound_to 10162
  157.7416  130.9874  150.2461 LP  0  0  0  0  0  0  0  0  0  0  0  0  # atno 17370 bound_to 10713
  156.3032  130.3761  149.7731 LP  0  0  0  0  0  0  0  0  0  0  0  0  # atno 17371 bound_to 10713
  141.2210  133.6917  156.7607 LP  0  0  0  0  0  0  0  0  0  0  0  0  # atno 17394 bound_to 11000
  140.2481  134.8562  157.3640 LP  0  0  0  0  0  0  0  0  0  0  0  0  # atno 17395 bound_to 11000

$$$$
