AV-unprocessed.smi:3057|AV-procd|sdf|11662|dock7
  -GOLD-   2272017 63D 1   1.00000     0.00000
 Structure written by MMmdl.
 40 42  0  0  0  0  0  0  0  0  1 V2000
  150.0168  135.2311  154.7824 C   0  0  0  0  0  0  0  0  0  0  0  0
  149.8856  136.4383  155.7341 C   0  0  2  0  0  0  0  0  0  0  0  0
  148.4994  137.0920  155.6180 C   0  0  0  0  0  0  0  0  0  0  0  0
  148.6880  138.1733  154.5425 C   0  0  0  0  0  0  0  0  0  0  0  0
  150.1836  138.4471  154.6093 C   0  0  0  0  0  0  0  0  0  0  0  0
  150.7114  139.4337  154.0985 O   0  0  0  0  0  0  0  0  0  0  0  0
  150.7911  137.5039  155.3468 N   0  0  0  0  0  0  0  0  0  0  0  0
  152.1157  137.5159  155.9867 C   0  0  1  0  0  0  0  0  0  0  0  0
  152.4540  138.8462  156.6860 C   0  0  0  0  0  0  0  0  0  0  0  0
  152.7787  139.8339  156.0256 O   0  0  0  0  0  0  0  0  0  0  0  0
  152.3464  138.8620  158.0222 N   0  0  0  0  0  0  0  0  0  0  0  0
  152.6101  140.0278  158.8537 C   0  0  0  0  0  0  0  0  0  0  0  0
  151.9881  141.2866  158.2334 C   0  0  0  0  0  0  0  0  0  0  0  0
  152.0275  142.4729  159.1782 C   0  0  0  0  0  0  0  0  0  0  0  0
  152.5320  142.3330  160.4890 C   0  0  0  0  0  0  0  0  0  0  0  0
  152.5392  143.4636  161.3290 C   0  0  0  0  0  0  0  0  0  0  0  0
  152.0432  144.6832  160.8294 C   0  0  0  0  0  0  0  0  0  0  0  0
  151.5596  144.7182  159.5062 C   0  0  0  0  0  0  0  0  0  0  0  0
  151.5481  143.6402  158.6925 N   0  0  0  0  0  0  0  0  0  0  0  0
  152.1389  136.3280  156.9735 C   0  0  0  0  0  0  0  0  0  0  0  0
  150.4065  136.0136  157.4089 S   0  0  0  0  0  0  0  0  0  0  0  0
  149.7579  135.4986  153.7576 H   0  0  0  0  0  0  0  0  0  0  0  0
  149.3523  134.4223  155.0871 H   0  0  0  0  0  0  0  0  0  0  0  0
  151.0309  134.8325  154.7660 H   0  0  0  0  0  0  0  0  0  0  0  0
  147.7162  136.3784  155.3596 H   0  0  0  0  0  0  0  0  0  0  0  0
  148.2168  137.5625  156.5611 H   0  0  0  0  0  0  0  0  0  0  0  0
  148.4325  137.8001  153.5503 H   0  0  0  0  0  0  0  0  0  0  0  0
  148.1000  139.0684  154.7473 H   0  0  0  0  0  0  0  0  0  0  0  0
  152.8595  137.3409  155.2075 H   0  0  0  0  0  0  0  0  0  0  0  0
  152.0695  138.0122  158.4921 H   0  0  0  0  0  0  0  0  0  0  0  0
  152.2032  139.8591  159.8523 H   0  0  0  0  0  0  0  0  0  0  0  0
  153.6882  140.1583  158.9608 H   0  0  0  0  0  0  0  0  0  0  0  0
  152.5111  141.5465  157.3117 H   0  0  0  0  0  0  0  0  0  0  0  0
  150.9516  141.0923  157.9530 H   0  0  0  0  0  0  0  0  0  0  0  0
  152.9025  141.3829  160.8449 H   0  0  0  0  0  0  0  0  0  0  0  0
  152.9172  143.3956  162.3385 H   0  0  0  0  0  0  0  0  0  0  0  0
  152.0328  145.5702  161.4454 H   0  0  0  0  0  0  0  0  0  0  0  0
  151.1711  145.6362  159.0906 H   0  0  0  0  0  0  0  0  0  0  0  0
  152.5435  135.4402  156.4871 H   0  0  0  0  0  0  0  0  0  0  0  0
  152.7386  136.5125  157.8658 H   0  0  0  0  0  0  0  0  0  0  0  0
  1  2  1  0  0  0  0
  1 22  1  0  0  0  0
  1 23  1  0  0  0  0
  1 24  1  0  0  0  0
  2  7  1  0  0  0  0
  2 21  1  0  0  0  0
  2  3  1  0  0  0  0
  3  4  1  0  0  0  0
  3 25  1  0  0  0  0
  3 26  1  0  0  0  0
  4  5  1  0  0  0  0
  4 27  1  0  0  0  0
  4 28  1  0  0  0  0
  5  6  2  0  0  0  0
  5  7  1  0  0  0  0
  7  8  1  0  0  0  0
  8  9  1  0  0  0  0
  8 20  1  0  0  0  0
  8 29  1  0  0  0  0
  9 10  2  0  0  0  0
  9 11  1  0  0  0  0
 11 12  1  0  0  0  0
 11 30  1  0  0  0  0
 12 13  1  0  0  0  0
 12 31  1  0  0  0  0
 12 32  1  0  0  0  0
 13 14  1  0  0  0  0
 13 33  1  0  0  0  0
 13 34  1  0  0  0  0
 14 19  1  0  0  0  0
 14 15  2  0  0  0  0
 15 16  1  0  0  0  0
 15 35  1  0  0  0  0
 16 17  2  0  0  0  0
 16 36  1  0  0  0  0
 17 18  1  0  0  0  0
 17 37  1  0  0  0  0
 18 19  2  0  0  0  0
 18 38  1  0  0  0  0
 20 21  1  0  0  0  0
 20 39  1  0  0  0  0
 20 40  1  0  0  0  0
M  END
> <s_m_source_file>
AV-unprocessed.smi

> <i_m_source_file_index>
3057

> <i_lp_mmshare_version>
43012

> <i_f3d_flags>
0

> <s_epik_input>
W0NIMl0xW0NIMl1DKD1PKU4oW0NAQF0xMltDSDNdKVtDQEhdKFtDSDJdUzIpQyg9TylbTkhdW0NIMl1bQ0gyXWMzW2NIXVtjSF1bY0hdW2NIXW4z

> <s_epik_cmdline>
J2VwaWtfcHl0aG9uJywgJy1waCcsICc3LjAnLCAnLXRuJywgJzgnLCAnLW1hJywgJzIwMCcsICctbWV0YWxfYmluZGluZycsICctaW1hZScsICc8aW5maWxlLm1hZT4nLCAnLW9tYWUnLCAnPG91dGZpbGUubWFlPic=

> <r_epik_Ionization_Penalty>
0.0249631

> <r_epik_Ionization_Penalty_Charging>
0

> <r_epik_Ionization_Penalty_Neutral>
0.0249631

> <r_epik_State_Penalty>
0.0202943

> <r_epik_Charging_Adjusted_Penalty>
0.0202943

> <i_epik_Tot_Q>
0

> <i_epik_Tot_abs_Q>
0

> <r_epik_Metal_State_Penalty>
0.0194661

> <b_epik_Metal_Only>
0

> <s_lp_Force_Field>
OPLS_2005

> <r_lp_Energy>
25.2027

> <b_lp_Chiralities_Consistent>
1

> <s_lp_Variant>
AV-unprocessed.smi:3057-2

> <Gold.Version>
5.8.1

> <Gold.Id.Protein>
6NUR|6NUR_protein|mol2

> <Gold.PLP.Fitness>
39.5818

> <Gold.PLP.PLP>
-34.7472

> <Gold.PLP.part.hbond>
-2.0000

> <Gold.PLP.part.metal>
0.0000

> <Gold.PLP.part.buried>
-4.2518

> <Gold.PLP.part.nonpolar>
-28.8790

> <Gold.PLP.part.repulsive>
0.3175

> <Gold.PLP.ligand.clash>
0.0000

> <Gold.PLP.ligand.torsion>
0.5864

> <Gold.PLP.Chemscore.Hbond>
2.0000

> <Gold.PLP.Chemscore.CHOScore>
0.0000

> <Gold.PLP.Chemscore.Metal>
0.0000

> <Gold.Chemscore.Hbonds>
donor molecule, donor type, donor heavy atom, donor atom, acceptor molecule, acceptor atom, score
      P1  H  7989  7998       L1     6  1.00
      P1  H  7997  8008       L1    10  1.00

> <Gold.PLP.Chemscore.Internal.Correction>
0.0074

> <Gold.Rescore>
     Score         DG    S(hbond)    S(metal)    S(lipo)     H(rot)  DE(clash)    DE(int)     intcor
     15.85     -19.31       1.99        0.00      94.94       1.53       0.07       3.39       ----

> <Gold.Chemscore.Fitness>
15.8496

> <Gold.Chemscore.DG>
-19.3131

> <Gold.Chemscore.ZeroCoef>
-5.4800

> <Gold.Chemscore.Hbond>
1.9918

> <Gold.Chemscore.Metal>
0.0000

> <Gold.Chemscore.Lipo>
94.9351

> <Gold.Chemscore.Internal_Hbond>
0.0000

> <Gold.Chemscore.DEClash>
0.0727

> <Gold.Chemscore.DEInternal>
3.3908

> <Gold.Chemscore.Rot>
1.5339

> <Gold.Chemscore.Internal.Correction>
   9.000000E+99

> <Gold.Chemscore.Hbonds>
donor molecule, donor type, donor heavy atom, donor atom, acceptor molecule, acceptor atom, score
      P1  H  7989  7998       L1     6  1.00
      P1  H  7997  8008       L1    10  0.78

> <Gold.Chemscore.Hbond.Weighted>
-6.6525

> <Gold.Chemscore.Metal.Weighted>
-0.0000

> <Gold.Chemscore.Lipo.Weighted>
-11.1074

> <Gold.Chemscore.Internal_Hbond.Weighted>
0.0000

> <Gold.Chemscore.DEClash.Weighted>
0.0727

> <Gold.Chemscore.DEInternal.Weighted>
3.3908

> <Gold.Chemscore.Rot.Weighted>
3.9267

> <Gold.Chemscore.Internal.Correction.Weighted>
   9.000000E+99

> <Gold.Protein.RotatedTorsions>
[ 6907 6896 6895 6894 ] final   45.48 input  -60.11 | X-H torsion
[ 7974 7965 7964 7962 ] final  -74.04 input  175.53 | X-H torsion
[ 8008 7997 7996 7995 ] final  -35.17 input   59.86 | X-H torsion
[ 10167 10162 10161 10158 ] final   20.87 input  -65.29 | X-H torsion
[ 10718 10713 10712 10709 ] final  -95.32 input   66.30 | X-H torsion
[ 10763 10752 10751 10750 ] final  -97.36 input  -60.55 | X-H torsion
[ 11005 11000 10999 10996 ] final   94.48 input  -57.11 | X-H torsion

> <Gold.Protein.ActiveResidues>
 VAL166  LYS551  ARG553  GLY616  TRP617  ASP618  TYR619  PRO620  LYS621  CYS622 
 ASP623  PHE694  ASN695  SER759  ASP760  ASP761  ALA762  ILE779  LEU786  VAL792 
 PHE793  MET794  SER795  GLU796  ALA797  LYS798  CYS799  TRP800  GLU811  SER814 

> <Gold.Protein.RotatedAtoms>
  152.2450  134.8190  160.0454 H   0  0  0  0  0  0  0  0  0  0  0  0  # atno 6907 bound_to 6896
  151.8891  133.3507  159.3800 H   0  0  0  0  0  0  0  0  0  0  0  0  # atno 6908 bound_to 6896
  150.7065  134.4868  159.5541 H   0  0  0  0  0  0  0  0  0  0  0  0  # atno 6909 bound_to 6896
  145.6443  140.9302  143.1019 H   0  0  0  0  0  0  0  0  0  0  0  0  # atno 7974 bound_to 7965
  154.4102  140.1664  156.2169 H   0  0  0  0  0  0  0  0  0  0  0  0  # atno 8008 bound_to 7997
  155.9397  140.3409  155.6294 H   0  0  0  0  0  0  0  0  0  0  0  0  # atno 8009 bound_to 7997
  155.7005  140.0744  157.2403 H   0  0  0  0  0  0  0  0  0  0  0  0  # atno 8010 bound_to 7997
  140.5470  143.9576  150.6554 H   0  0  0  0  0  0  0  0  0  0  0  0  # atno 10167 bound_to 10162
  156.0041  130.5104  150.6058 H   0  0  0  0  0  0  0  0  0  0  0  0  # atno 10718 bound_to 10713
  154.7321  135.5049  153.8981 H   0  0  0  0  0  0  0  0  0  0  0  0  # atno 10763 bound_to 10752
  153.0960  135.6672  153.9771 H   0  0  0  0  0  0  0  0  0  0  0  0  # atno 10764 bound_to 10752
  153.9569  135.3052  155.3415 H   0  0  0  0  0  0  0  0  0  0  0  0  # atno 10765 bound_to 10752
  139.8798  134.8847  156.3870 H   0  0  0  0  0  0  0  0  0  0  0  0  # atno 11005 bound_to 11000
  144.7146  139.8244  143.7403 LP  0  0  0  0  0  0  0  0  0  0  0  0  # atno 17320 bound_to 7965
  146.1256  139.4281  143.0201 LP  0  0  0  0  0  0  0  0  0  0  0  0  # atno 17321 bound_to 7965
  140.2992  143.3272  152.0988 LP  0  0  0  0  0  0  0  0  0  0  0  0  # atno 17342 bound_to 10162
  139.5011  144.6707  151.6249 LP  0  0  0  0  0  0  0  0  0  0  0  0  # atno 17343 bound_to 10162
  157.3899  131.0794  151.1402 LP  0  0  0  0  0  0  0  0  0  0  0  0  # atno 17370 bound_to 10713
  157.2098  130.6432  149.5769 LP  0  0  0  0  0  0  0  0  0  0  0  0  # atno 17371 bound_to 10713
  140.9359  133.7547  156.0084 LP  0  0  0  0  0  0  0  0  0  0  0  0  # atno 17394 bound_to 11000
  140.8276  134.3216  157.5360 LP  0  0  0  0  0  0  0  0  0  0  0  0  # atno 17395 bound_to 11000

$$$$
