AV-unprocessed.smi:72|AV-procd|sdf|708|dock6
  -GOLD-   2262017 33D 1   1.00000     0.00000
 Structure written by MMmdl.
 30 31  0  0  0  0  0  0  0  0  2 V2000
  141.2774  138.9690  153.1330 N   0  0  0  0  0  0  0  0  0  0  0  0
  142.0037  137.7965  153.1345 C   0  0  0  0  0  0  0  0  0  0  0  0
  143.2847  137.8332  152.6156 N   0  3  0  0  0  0  0  0  0  0  0  0
  144.1222  136.7891  152.5512 C   0  0  0  0  0  0  0  0  0  0  0  0
  143.7323  135.6229  153.0308 N   0  0  0  0  0  0  0  0  0  0  0  0
  144.6178  134.3981  152.9788 C   0  0  1  0  0  0  0  0  0  0  0  0
  144.0061  133.4561  152.1535 O   0  0  0  0  0  0  0  0  0  0  0  0
  144.5060  133.5995  150.8282 C   0  0  2  0  0  0  0  0  0  0  0  0
  144.1457  132.3834  149.9579 C   0  0  0  0  0  0  0  0  0  0  0  0
  142.8021  132.4830  149.5360 O   0  0  0  0  0  0  0  0  0  0  0  0
  145.9992  133.8226  151.0869 C   0  0  2  0  0  0  0  0  0  0  0  0
  146.6547  132.5843  151.3115 O   0  0  0  0  0  0  0  0  0  0  0  0
  145.9831  134.7189  152.3275 C   0  0  2  0  0  0  0  0  0  0  0  0
  147.0822  134.4798  153.1861 O   0  0  0  0  0  0  0  0  0  0  0  0
  142.4155  135.4784  153.5407 C   0  0  0  0  0  0  0  0  0  0  0  0
  142.0173  134.3832  153.9343 O   0  0  0  0  0  0  0  0  0  0  0  0
  141.6157  136.6300  153.5694 N   0  0  0  0  0  0  0  0  0  0  0  0
  144.6685  134.0329  154.0062 H   0  0  0  0  0  0  0  0  0  0  0  0
  144.1014  134.5092  150.3799 H   0  0  0  0  0  0  0  0  0  0  0  0
  146.4846  134.3131  150.2423 H   0  0  0  0  0  0  0  0  0  0  0  0
  146.0028  135.7637  152.0142 H   0  0  0  0  0  0  0  0  0  0  0  0
  140.3329  139.0344  153.4857 H   0  0  0  0  0  0  0  0  0  0  0  0
  141.6235  139.8479  152.7755 H   0  0  0  0  0  0  0  0  0  0  0  0
  145.0936  136.9334  152.0969 H   0  0  0  0  0  0  0  0  0  0  0  0
  144.7695  132.3627  149.0638 H   0  0  0  0  0  0  0  0  0  0  0  0
  144.3065  131.4462  150.4917 H   0  0  0  0  0  0  0  0  0  0  0  0
  142.4462  133.2972  149.8584 H   0  0  0  0  0  0  0  0  0  0  0  0
  147.3263  132.4785  150.6546 H   0  0  0  0  0  0  0  0  0  0  0  0
  147.8741  134.7370  152.7384 H   0  0  0  0  0  0  0  0  0  0  0  0
  143.6095  138.7173  152.2507 H   0  0  0  0  0  0  0  0  0  0  0  0
  1  2  1  0  0  0  0
  1 22  1  0  0  0  0
  1 23  1  0  0  0  0
  2 17  2  0  0  0  0
  2  3  1  0  0  0  0
  3  4  2  0  0  0  0
  3 30  1  0  0  0  0
  4  5  1  0  0  0  0
  4 24  1  0  0  0  0
  5  6  1  0  0  0  0
  5 15  1  0  0  0  0
  6 18  1  0  0  0  0
  6 13  1  0  0  0  0
  6  7  1  0  0  0  0
  7  8  1  0  0  0  0
  8 19  1  0  0  0  0
  8  9  1  0  0  0  0
  8 11  1  0  0  0  0
  9 10  1  0  0  0  0
  9 25  1  0  0  0  0
  9 26  1  0  0  0  0
 10 27  1  0  0  0  0
 11 20  1  0  0  0  0
 11 12  1  0  0  0  0
 11 13  1  0  0  0  0
 12 28  1  0  0  0  0
 13 21  1  0  0  0  0
 13 14  1  0  0  0  0
 14 29  1  0  0  0  0
 15 16  2  0  0  0  0
 15 17  1  0  0  0  0
M  CHG  1   3   1
M  END
> <s_m_source_file>
AV-unprocessed.smi

> <i_m_source_file_index>
72

> <i_lp_mmshare_version>
43012

> <i_f3d_flags>
0

> <s_epik_input>
W05IMl1jMW5bY0hdbihjKD1PKW4xKVtDQEBIXTJPW0NASF0oW0NIMl1bT0hdKVtDQEBIXShbT0hdKVtDQEhdMltPSF0=

> <s_epik_cmdline>
J2VwaWtfcHl0aG9uJywgJy1waCcsICc3LjAnLCAnLXRuJywgJzgnLCAnLW1hJywgJzIwMCcsICctbWV0YWxfYmluZGluZycsICctaW1hZScsICc8aW5maWxlLm1hZT4nLCAnLW9tYWUnLCAnPG91dGZpbGUubWFlPic=

> <r_lp_tautomer_probability>
4.77166e-05

> <r_epik_Ionization_Penalty>
0.104979

> <r_epik_Ionization_Penalty_Charging>
0.0999619

> <r_epik_Ionization_Penalty_Neutral>
0.00501745

> <r_epik_State_Penalty>
2.51541

> <r_epik_Charging_Adjusted_Penalty>
2.61537

> <i_epik_Tot_Q>
1

> <i_epik_Tot_abs_Q>
1

> <r_epik_Metal_State_Penalty>
3.53763

> <b_epik_Metal_Only>
0

> <s_epik_Chemistry_Notes>
This compound contains an acetal/aminal-like group ( X-CH(R)-Y where X, Y are N, S, or O) that may be acid/base labile, releasing an aldehyde.

> <s_lp_Force_Field>
OPLS_2005

> <r_lp_Energy>
33.6404

> <b_lp_Chiralities_Consistent>
1

> <s_lp_Variant>
AV-unprocessed.smi:72-46

> <Gold.Version>
5.8.1

> <Gold.Id.Protein>
6NUR|6NUR_protein|mol2

> <Gold.PLP.Fitness>
41.6176

> <Gold.PLP.PLP>
-28.0627

> <Gold.PLP.part.hbond>
-8.3004

> <Gold.PLP.part.metal>
0.0000

> <Gold.PLP.part.buried>
-7.4603

> <Gold.PLP.part.nonpolar>
-15.3349

> <Gold.PLP.part.repulsive>
2.5262

> <Gold.PLP.ligand.clash>
0.0000

> <Gold.PLP.ligand.torsion>
0.1473

> <Gold.PLP.Chemscore.Hbond>
4.6049

> <Gold.PLP.Chemscore.CHOScore>
0.0000

> <Gold.PLP.Chemscore.Metal>
0.0000

> <Gold.Chemscore.Hbonds>
donor molecule, donor type, donor heavy atom, donor atom, acceptor molecule, acceptor atom, score
      L1  H     1    23       P1 10175  0.45
      L1  H     3    30       P1 10175  1.86
      L1  H    10    27       P1 10186  0.78
      L1  H    12    28       P1 10747  0.16
      L1  H    14    29       P1  7948  0.98
      P1  H 11000 11005       L1    16  0.28

> <Gold.PLP.Chemscore.Internal.Correction>
0.0348

> <Gold.Rescore>
     Score         DG    S(hbond)    S(metal)    S(lipo)     H(rot)  DE(clash)    DE(int)     intcor
      6.61      -9.42       3.43        0.00      25.03       4.08       1.34       1.46       ----

> <Gold.Chemscore.Fitness>
6.6143

> <Gold.Chemscore.DG>
-9.4182

> <Gold.Chemscore.ZeroCoef>
-5.4800

> <Gold.Chemscore.Hbond>
3.4283

> <Gold.Chemscore.Metal>
0.0000

> <Gold.Chemscore.Lipo>
25.0281

> <Gold.Chemscore.Internal_Hbond>
0.0000

> <Gold.Chemscore.DEClash>
1.3431

> <Gold.Chemscore.DEInternal>
1.4609

> <Gold.Chemscore.Rot>
4.0783

> <Gold.Chemscore.Internal.Correction>
   9.000000E+99

> <Gold.Chemscore.Hbonds>
donor molecule, donor type, donor heavy atom, donor atom, acceptor molecule, acceptor atom, score
      L1  H     1    23       P1 10160  0.07
      L1  H     3    30       P1 10175  0.91
      L1  H    10    27       P1 10186  0.78
      L1  H    12    28       P1 10747  0.16
      L1  H    14    29       P1  7948  0.76
      P1  H 11000 11005       L1    16  0.28

> <Gold.Chemscore.Hbond.Weighted>
-11.4504

> <Gold.Chemscore.Metal.Weighted>
-0.0000

> <Gold.Chemscore.Lipo.Weighted>
-2.9283

> <Gold.Chemscore.Internal_Hbond.Weighted>
0.0000

> <Gold.Chemscore.DEClash.Weighted>
1.3431

> <Gold.Chemscore.DEInternal.Weighted>
1.4609

> <Gold.Chemscore.Rot.Weighted>
10.4404

> <Gold.Chemscore.Internal.Correction.Weighted>
   9.000000E+99

> <Gold.Protein.RotatedTorsions>
[ 6907 6896 6895 6894 ] final -143.48 input  -60.11 | X-H torsion
[ 7974 7965 7964 7962 ] final -167.69 input  175.53 | X-H torsion
[ 8008 7997 7996 7995 ] final   44.82 input   59.86 | X-H torsion
[ 10167 10162 10161 10158 ] final  -94.25 input  -65.29 | X-H torsion
[ 10718 10713 10712 10709 ] final  160.84 input   66.30 | X-H torsion
[ 10763 10752 10751 10750 ] final   74.98 input  -60.55 | X-H torsion
[ 11005 11000 10999 10996 ] final   -5.03 input  -57.11 | X-H torsion

> <Gold.Protein.ActiveResidues>
 VAL166  LYS551  ARG553  GLY616  TRP617  ASP618  TYR619  PRO620  LYS621  CYS622 
 ASP623  PHE694  ASN695  SER759  ASP760  ASP761  ALA762  ILE779  LEU786  VAL792 
 PHE793  MET794  SER795  GLU796  ALA797  LYS798  CYS799  TRP800  GLU811  SER814 

> <Gold.Protein.RotatedAtoms>
  151.1010  133.5243  159.2609 H   0  0  0  0  0  0  0  0  0  0  0  0  # atno 6907 bound_to 6896
  151.2074  135.0467  159.8907 H   0  0  0  0  0  0  0  0  0  0  0  0  # atno 6908 bound_to 6896
  152.5443  134.0831  159.8297 H   0  0  0  0  0  0  0  0  0  0  0  0  # atno 6909 bound_to 6896
  144.7218  140.2481  143.6282 H   0  0  0  0  0  0  0  0  0  0  0  0  # atno 7974 bound_to 7965
  155.3257  140.3399  155.4240 H   0  0  0  0  0  0  0  0  0  0  0  0  # atno 8008 bound_to 7997
  156.1887  140.1690  156.8172 H   0  0  0  0  0  0  0  0  0  0  0  0  # atno 8009 bound_to 7997
  154.5416  140.0723  156.8503 H   0  0  0  0  0  0  0  0  0  0  0  0  # atno 8010 bound_to 7997
  140.3164  143.3075  152.0093 H   0  0  0  0  0  0  0  0  0  0  0  0  # atno 10167 bound_to 10162
  157.1448  131.0549  151.2309 H   0  0  0  0  0  0  0  0  0  0  0  0  # atno 10718 bound_to 10713
  153.0623  135.5006  154.8122 H   0  0  0  0  0  0  0  0  0  0  0  0  # atno 10763 bound_to 10752
  154.6901  135.2983  154.9493 H   0  0  0  0  0  0  0  0  0  0  0  0  # atno 10764 bound_to 10752
  154.0251  135.6737  153.4828 H   0  0  0  0  0  0  0  0  0  0  0  0  # atno 10765 bound_to 10752
  140.6867  133.9106  155.8591 H   0  0  0  0  0  0  0  0  0  0  0  0  # atno 11005 bound_to 11000
  145.8255  139.2062  143.1913 LP  0  0  0  0  0  0  0  0  0  0  0  0  # atno 17320 bound_to 7965
  146.0477  140.8101  142.9797 LP  0  0  0  0  0  0  0  0  0  0  0  0  # atno 17321 bound_to 7965
  139.4883  144.6345  151.7003 LP  0  0  0  0  0  0  0  0  0  0  0  0  # atno 17342 bound_to 10162
  140.5523  144.0406  150.6132 LP  0  0  0  0  0  0  0  0  0  0  0  0  # atno 17343 bound_to 10162
  157.4274  130.7471  149.6962 LP  0  0  0  0  0  0  0  0  0  0  0  0  # atno 17370 bound_to 10713
  155.9781  130.4054  150.3667 LP  0  0  0  0  0  0  0  0  0  0  0  0  # atno 17371 bound_to 10713
  141.0274  134.0804  157.4053 LP  0  0  0  0  0  0  0  0  0  0  0  0  # atno 17394 bound_to 11000
  139.8935  135.0131  156.6904 LP  0  0  0  0  0  0  0  0  0  0  0  0  # atno 17395 bound_to 11000

$$$$
