AV-unprocessed.smi:1032|AV-procd|sdf|4483|dock2
  -GOLD-   22720 2463D 1   1.00000     0.00000
 Structure written by MMmdl.
 46 47  0  0  0  0  0  0  0  0  2 V2000
  141.4818  146.8831  154.9025 C   0  0  0  0  0  0  0  0  0  0  0  0
  142.7943  146.0890  154.9535 C   0  0  2  0  0  0  0  0  0  0  0  0
  143.3952  145.8876  153.5521 C   0  0  0  0  0  0  0  0  0  0  0  0
  144.6936  145.0647  153.6124 C   0  0  0  0  0  0  0  0  0  0  0  0
  144.4688  143.7536  154.2735 N   0  3  1  0  0  0  0  0  0  0  0  0
  145.6705  142.8808  154.2244 C   0  0  0  0  0  0  0  0  0  0  0  0
  145.6784  141.8282  155.3516 C   0  0  1  0  0  0  0  0  0  0  0  0
  144.6877  140.8686  155.0373 O   0  0  0  0  0  0  0  0  0  0  0  0
  147.0419  141.1161  155.4543 C   0  0  0  0  0  0  0  0  0  0  0  0
  148.1067  142.0410  155.8294 N   0  0  0  0  0  0  0  0  0  0  0  0
  149.0817  141.7737  156.7103 C   0  0  0  0  0  0  0  0  0  0  0  0
  149.1950  140.6898  157.2816 O   0  0  0  0  0  0  0  0  0  0  0  0
  149.8987  142.8307  156.8638 N   0  0  0  0  0  0  0  0  0  0  0  0
  151.0263  142.9832  157.7178 C   0  0  0  0  0  0  0  0  0  0  0  0
  151.3301  141.9152  158.5878 C   0  0  0  0  0  0  0  0  0  0  0  0
  152.4484  142.0260  159.4379 C   0  0  0  0  0  0  0  0  0  0  0  0
  153.2567  143.1060  159.4629 N   0  0  0  0  0  0  0  0  0  0  0  0
  152.9712  144.1238  158.6236 C   0  0  0  0  0  0  0  0  0  0  0  0
  151.8785  144.1145  157.7336 C   0  0  0  0  0  0  0  0  0  0  0  0
  143.9206  143.9219  155.6456 C   0  0  0  0  0  0  0  0  0  0  0  0
  142.6051  144.7177  155.6235 C   0  0  0  0  0  0  0  0  0  0  0  0
  140.7242  146.3631  154.3152 H   0  0  0  0  0  0  0  0  0  0  0  0
  141.6343  147.8653  154.4539 H   0  0  0  0  0  0  0  0  0  0  0  0
  141.0779  147.0384  155.9035 H   0  0  0  0  0  0  0  0  0  0  0  0
  143.5053  146.6632  155.5495 H   0  0  0  0  0  0  0  0  0  0  0  0
  142.6739  145.3814  152.9088 H   0  0  0  0  0  0  0  0  0  0  0  0
  143.5958  146.8542  153.0887 H   0  0  0  0  0  0  0  0  0  0  0  0
  145.0610  144.9072  152.5975 H   0  0  0  0  0  0  0  0  0  0  0  0
  145.4672  145.6169  154.1486 H   0  0  0  0  0  0  0  0  0  0  0  0
  145.7167  142.3616  153.2656 H   0  0  0  0  0  0  0  0  0  0  0  0
  146.5650  143.5039  154.2710 H   0  0  0  0  0  0  0  0  0  0  0  0
  145.4376  142.2925  156.3077 H   0  0  0  0  0  0  0  0  0  0  0  0
  144.4892  140.9268  154.1146 H   0  0  0  0  0  0  0  0  0  0  0  0
  146.9962  140.2559  156.1250 H   0  0  0  0  0  0  0  0  0  0  0  0
  147.3173  140.7195  154.4767 H   0  0  0  0  0  0  0  0  0  0  0  0
  148.0918  142.9536  155.3981 H   0  0  0  0  0  0  0  0  0  0  0  0
  149.7012  143.6263  156.2751 H   0  0  0  0  0  0  0  0  0  0  0  0
  150.7191  141.0246  158.6088 H   0  0  0  0  0  0  0  0  0  0  0  0
  152.7013  141.2234  160.1147 H   0  0  0  0  0  0  0  0  0  0  0  0
  153.6383  144.9723  158.6578 H   0  0  0  0  0  0  0  0  0  0  0  0
  151.7312  144.9636  157.0856 H   0  0  0  0  0  0  0  0  0  0  0  0
  143.7380  142.9508  156.1042 H   0  0  0  0  0  0  0  0  0  0  0  0
  144.6541  144.4321  156.2720 H   0  0  0  0  0  0  0  0  0  0  0  0
  142.2388  144.8472  156.6425 H   0  0  0  0  0  0  0  0  0  0  0  0
  141.8426  144.1465  155.0917 H   0  0  0  0  0  0  0  0  0  0  0  0
  143.7602  143.2832  153.7278 H   0  0  0  0  0  0  0  0  0  0  0  0
  1  2  1  0  0  0  0
  1 22  1  0  0  0  0
  1 23  1  0  0  0  0
  1 24  1  0  0  0  0
  2 21  1  0  0  0  0
  2  3  1  0  0  0  0
  2 25  1  0  0  0  0
  3  4  1  0  0  0  0
  3 26  1  0  0  0  0
  3 27  1  0  0  0  0
  4  5  1  0  0  0  0
  4 28  1  0  0  0  0
  4 29  1  0  0  0  0
  5  6  1  0  0  0  0
  5 20  1  0  0  0  0
  5 46  1  0  0  0  0
  6  7  1  0  0  0  0
  6 30  1  0  0  0  0
  6 31  1  0  0  0  0
  7  8  1  0  0  0  0
  7  9  1  0  0  0  0
  7 32  1  0  0  0  0
  8 33  1  0  0  0  0
  9 10  1  0  0  0  0
  9 34  1  0  0  0  0
  9 35  1  0  0  0  0
 10 11  1  0  0  0  0
 10 36  1  0  0  0  0
 11 12  2  0  0  0  0
 11 13  1  0  0  0  0
 13 14  1  0  0  0  0
 13 37  1  0  0  0  0
 14 19  1  0  0  0  0
 14 15  2  0  0  0  0
 15 16  1  0  0  0  0
 15 38  1  0  0  0  0
 16 17  2  0  0  0  0
 16 39  1  0  0  0  0
 17 18  1  0  0  0  0
 18 19  2  0  0  0  0
 18 40  1  0  0  0  0
 19 41  1  0  0  0  0
 20 21  1  0  0  0  0
 20 42  1  0  0  0  0
 20 43  1  0  0  0  0
 21 44  1  0  0  0  0
 21 45  1  0  0  0  0
M  CHG  1   5   1
M  END
> <s_m_source_file>
AV-unprocessed.smi

> <i_m_source_file_index>
1032

> <i_lp_mmshare_version>
43012

> <i_f3d_flags>
0

> <s_epik_input>
W0NIM11bQ0hdMVtDSDJdW0NIMl1OKFtDSDJdW0NIMl0xKVtDSDJdW0NASF0oW09IXSlbQ0gyXVtOSF1DKD1PKVtOSF1jMltjSF1bY0hdbltjSF1bY0hdMg==

> <s_epik_cmdline>
J2VwaWtfcHl0aG9uJywgJy1waCcsICc3LjAnLCAnLXRuJywgJzgnLCAnLW1hJywgJzIwMCcsICctbWV0YWxfYmluZGluZycsICctaW1hZScsICc8aW5maWxlLm1hZT4nLCAnLW9tYWUnLCAnPG91dGZpbGUubWFlPic=

> <r_epik_Ionization_Penalty>
0.11743

> <r_epik_Ionization_Penalty_Charging>
0.00147689

> <r_epik_Ionization_Penalty_Neutral>
0.115954

> <r_epik_State_Penalty>
0.105552

> <r_epik_Charging_Adjusted_Penalty>
0.107029

> <i_epik_Tot_Q>
1

> <i_epik_Tot_abs_Q>
1

> <r_epik_Metal_State_Penalty>
0.0881315

> <b_epik_Metal_Only>
0

> <s_lp_Force_Field>
OPLS_2005

> <r_lp_Energy>
24.2585

> <b_lp_Chiralities_Consistent>
1

> <s_lp_Variant>
AV-unprocessed.smi:1032-2

> <Gold.Version>
5.8.1

> <Gold.Id.Protein>
6NUR|6NUR_protein|mol2

> <Gold.PLP.Fitness>
51.1427

> <Gold.PLP.PLP>
-37.6122

> <Gold.PLP.part.hbond>
-3.9317

> <Gold.PLP.part.metal>
0.0000

> <Gold.PLP.part.buried>
-5.1641

> <Gold.PLP.part.nonpolar>
-30.6283

> <Gold.PLP.part.repulsive>
0.1730

> <Gold.PLP.ligand.clash>
0.0195

> <Gold.PLP.ligand.torsion>
0.5276

> <Gold.PLP.Chemscore.Hbond>
4.8400

> <Gold.PLP.Chemscore.CHOScore>
0.0000

> <Gold.PLP.Chemscore.Metal>
0.0000

> <Gold.Chemscore.Hbonds>
donor molecule, donor type, donor heavy atom, donor atom, acceptor molecule, acceptor atom, score
      L1  H     5    46       P1 10174  1.72
      L1  H     8    33       P1 10175  1.00
      L1  H    10    36       P1  8028  0.80
      L1  H    13    37       P1  8028  0.91

> <Gold.PLP.Chemscore.Internal.Correction>
0.0852

> <Gold.Rescore>
     Score         DG    S(hbond)    S(metal)    S(lipo)     H(rot)  DE(clash)    DE(int)     intcor
     19.24     -21.04       2.90        0.00     100.14       2.29       0.01       1.78       ----

> <Gold.Chemscore.Fitness>
19.2431

> <Gold.Chemscore.DG>
-21.0399

> <Gold.Chemscore.ZeroCoef>
-5.4800

> <Gold.Chemscore.Hbond>
2.9033

> <Gold.Chemscore.Metal>
0.0000

> <Gold.Chemscore.Lipo>
100.1419

> <Gold.Chemscore.Internal_Hbond>
0.0000

> <Gold.Chemscore.DEClash>
0.0130

> <Gold.Chemscore.DEInternal>
1.7838

> <Gold.Chemscore.Rot>
2.2865

> <Gold.Chemscore.Internal.Correction>
   9.000000E+99

> <Gold.Chemscore.Hbonds>
donor molecule, donor type, donor heavy atom, donor atom, acceptor molecule, acceptor atom, score
      L1  H     5    46       P1 10174  0.38
      L1  H     8    33       P1 10175  0.92
      L1  H    10    36       P1  8028  0.73
      L1  H    13    37       P1  8028  0.86

> <Gold.Chemscore.Hbond.Weighted>
-9.6969

> <Gold.Chemscore.Metal.Weighted>
-0.0000

> <Gold.Chemscore.Lipo.Weighted>
-11.7166

> <Gold.Chemscore.Internal_Hbond.Weighted>
0.0000

> <Gold.Chemscore.DEClash.Weighted>
0.0130

> <Gold.Chemscore.DEInternal.Weighted>
1.7838

> <Gold.Chemscore.Rot.Weighted>
5.8536

> <Gold.Chemscore.Internal.Correction.Weighted>
   9.000000E+99

> <Gold.Protein.RotatedTorsions>
[ 6907 6896 6895 6894 ] final -164.19 input  -60.11 | X-H torsion
[ 7974 7965 7964 7962 ] final  -65.21 input  175.53 | X-H torsion
[ 8008 7997 7996 7995 ] final -142.12 input   59.86 | X-H torsion
[ 10167 10162 10161 10158 ] final  -14.90 input  -65.29 | X-H torsion
[ 10718 10713 10712 10709 ] final -160.13 input   66.30 | X-H torsion
[ 10763 10752 10751 10750 ] final -167.82 input  -60.55 | X-H torsion
[ 11005 11000 10999 10996 ] final  110.13 input  -57.11 | X-H torsion

> <Gold.Protein.ActiveResidues>
 VAL166  LYS551  ARG553  GLY616  TRP617  ASP618  TYR619  PRO620  LYS621  CYS622 
 ASP623  PHE694  ASN695  SER759  ASP760  ASP761  ALA762  ILE779  LEU786  VAL792 
 PHE793  MET794  SER795  GLU796  ALA797  LYS798  CYS799  TRP800  GLU811  SER814 

> <Gold.Protein.RotatedAtoms>
  151.4080  133.3736  159.2740 H   0  0  0  0  0  0  0  0  0  0  0  0  # atno 6907 bound_to 6896
  150.9384  134.8796  159.7607 H   0  0  0  0  0  0  0  0  0  0  0  0  # atno 6908 bound_to 6896
  152.5060  134.4029  159.9474 H   0  0  0  0  0  0  0  0  0  0  0  0  # atno 6909 bound_to 6896
  145.7571  140.8880  143.0449 H   0  0  0  0  0  0  0  0  0  0  0  0  # atno 7974 bound_to 7965
  155.4891  140.0566  157.2956 H   0  0  0  0  0  0  0  0  0  0  0  0  # atno 8008 bound_to 7997
  154.4630  140.2005  156.0144 H   0  0  0  0  0  0  0  0  0  0  0  0  # atno 8009 bound_to 7997
  156.0925  140.3231  155.7838 H   0  0  0  0  0  0  0  0  0  0  0  0  # atno 8010 bound_to 7997
  140.7209  143.5273  150.9561 H   0  0  0  0  0  0  0  0  0  0  0  0  # atno 10167 bound_to 10162
  156.5778  130.8716  151.2856 H   0  0  0  0  0  0  0  0  0  0  0  0  # atno 10718 bound_to 10713
  154.6692  135.2936  154.9764 H   0  0  0  0  0  0  0  0  0  0  0  0  # atno 10763 bound_to 10752
  154.0797  135.6606  153.4840 H   0  0  0  0  0  0  0  0  0  0  0  0  # atno 10764 bound_to 10752
  153.0476  135.5194  154.7680 H   0  0  0  0  0  0  0  0  0  0  0  0  # atno 10765 bound_to 10752
  139.8875  134.9476  156.6232 H   0  0  0  0  0  0  0  0  0  0  0  0  # atno 11005 bound_to 11000
  144.6838  139.9671  143.7481 LP  0  0  0  0  0  0  0  0  0  0  0  0  # atno 17320 bound_to 7965
  146.0300  139.3327  143.0761 LP  0  0  0  0  0  0  0  0  0  0  0  0  # atno 17321 bound_to 7965
  139.8992  143.6856  152.3134 LP  0  0  0  0  0  0  0  0  0  0  0  0  # atno 17342 bound_to 10162
  139.7200  144.7604  151.0971 LP  0  0  0  0  0  0  0  0  0  0  0  0  # atno 17343 bound_to 10162
  157.7333  130.9729  150.1974 LP  0  0  0  0  0  0  0  0  0  0  0  0  # atno 17370 bound_to 10713
  156.2658  130.3716  149.8082 LP  0  0  0  0  0  0  0  0  0  0  0  0  # atno 17371 bound_to 10713
  140.7723  133.8728  155.8502 LP  0  0  0  0  0  0  0  0  0  0  0  0  # atno 17394 bound_to 11000
  140.9831  134.1379  157.4476 LP  0  0  0  0  0  0  0  0  0  0  0  0  # atno 17395 bound_to 11000

$$$$
