#       Name:                AV-unprocessed.smi:827
#       Creating user name   scv26
#       Creation time:       Fri Mar 27 01:30:52 2020


#       File generated by GOLD software.
#

@<TRIPOS>MOLECULE
AV-unprocessed.smi:827
    54    55     1
SMALL
NO_CHARGES


@<TRIPOS>ATOM
      1 ****        -6.9247  -1.5557   0.3570 C.3            1 S1                 0.0000
      2 ****        -5.6558  -1.1280  -0.1260 O.3            1 S1                 0.0000
      3 ****        -5.5353   0.1594  -0.6139 C.ar           1 S1                 0.0000
      4 ****        -6.6353   0.9536  -0.6169 N.ar           1 S1                 0.0000
      5 ****        -6.5200   2.2096  -1.0943 C.ar           1 S1                 0.0000
      6 ****        -5.3152   2.7350  -1.5961 C.ar           1 S1                 0.0000
      7 ****        -4.1730   1.9134  -1.5949 C.ar           1 S1                 0.0000
      8 ****        -4.2741   0.5966  -1.0829 C.ar           1 S1                 0.0000
      9 ****        -3.1903  -0.3246  -1.0467 N.am           1 S1                 0.0000
     10 ****        -1.8705  -0.0731  -1.0689 C.2            1 S1                 0.0000
     11 ****        -1.3555   1.0432  -1.1294 O.2            1 S1                 0.0000
     12 ****        -1.1593  -1.2072  -0.9962 N.am           1 S1                 0.0000
     13 ****         0.2975  -1.2787  -1.0024 C.3            1 S1                 0.0000
     14 ****         0.8919  -0.8838   0.3639 C.3            1 S1                 0.0000
     15 ****         2.3725  -0.9888   0.3927 N.4            1 S1                 1.0000
     16 ****         3.0554   0.0973  -0.3649 C.3            1 S1                 0.0000
     17 ****         4.5871  -0.0453  -0.2990 C.3            1 S1                 0.0000
     18 ****         5.0031  -0.0895   1.1058 N.am           1 S1                 0.0000
     19 ****         5.7144   0.8686   1.7471 C.2            1 S1                 0.0000
     20 ****         6.2189   2.0803   0.9603 C.3            1 S1                 0.0000
     21 ****         5.9750   0.8095   2.9486 O.2            1 S1                 0.0000
     22 ****         4.4317  -1.2501   1.7939 C.3            1 S1                 0.0000
     23 ****         2.8962  -1.1376   1.7776 C.3            1 S1                 0.0000
     24 ****        -6.8484  -2.5841   0.7093 H              1 S1                 0.0000
     25 ****        -7.6802  -1.5305  -0.4297 H              1 S1                 0.0000
     26 ****        -7.2595  -0.9436   1.1958 H              1 S1                 0.0000
     27 ****        -7.4161   2.8120  -1.0805 H              1 S1                 0.0000
     28 ****        -5.2698   3.7443  -1.9779 H              1 S1                 0.0000
     29 ****        -3.2522   2.3051  -1.9976 H              1 S1                 0.0000
     30 ****        -3.4559  -1.2906  -0.9203 H              1 S1                 0.0000
     31 ****        -1.6615  -2.0819  -0.9461 H              1 S1                 0.0000
     32 ****         0.5851  -2.3006  -1.2509 H              1 S1                 0.0000
     33 ****         0.6780  -0.6454  -1.8042 H              1 S1                 0.0000
     34 ****         0.5949   0.1272   0.6468 H              1 S1                 0.0000
     35 ****         0.4711  -1.5494   1.1194 H              1 S1                 0.0000
     36 ****         2.7439   0.0855  -1.4086 H              1 S1                 0.0000
     37 ****         2.7594   1.0653   0.0432 H              1 S1                 0.0000
     38 ****         4.8954  -0.9700  -0.7894 H              1 S1                 0.0000
     39 ****         5.0550   0.7552  -0.8702 H              1 S1                 0.0000
     40 ****         5.3869   2.6312   0.5206 H              1 S1                 0.0000
     41 ****         6.8993   1.7700   0.1668 H              1 S1                 0.0000
     42 ****         6.7612   2.7645   1.6142 H              1 S1                 0.0000
     43 ****         4.7475  -2.1610   1.2831 H              1 S1                 0.0000
     44 ****         4.7827  -1.3499   2.8219 H              1 S1                 0.0000
     45 ****         2.5830  -0.2801   2.3758 H              1 S1                 0.0000
     46 ****         2.4619  -2.0244   2.2410 H              1 S1                 0.0000
     47 ****         2.6051  -1.8522  -0.0769 H              1 S1                 0.0000
     48 ****        -5.3968  -1.7493  -0.8655 LP             1 S1                 0.0000
     49 ****        -5.0065  -1.2195   0.6290 LP             1 S1                 0.0000
     50 ****        -7.5114   0.6154  -0.2731 LP             1 S1                 0.0000
     51 ****        -1.9329   1.8588  -1.1668 LP             1 S1                 0.0000
     52 ****        -0.3598   1.1345  -1.1411 LP             1 S1                 0.0000
     53 ****         5.6583   0.0315   3.4912 LP             1 S1                 0.0000
     54 ****         6.5034   1.5394   3.3821 LP             1 S1                 0.0000
@<TRIPOS>BOND
    1    1    2 1     
    2    1   24 1     
    3    1   25 1     
    4    1   26 1     
    5    2    3 1     
    6    3    8 ar    
    7    3    4 ar    
    8    4    5 ar    
    9    5    6 ar    
   10    5   27 1     
   11    6    7 ar    
   12    6   28 1     
   13    7    8 ar    
   14    7   29 1     
   15    8    9 1     
   16    9   10 am    
   17    9   30 1     
   18   10   11 2     
   19   10   12 am    
   20   12   13 1     
   21   12   31 1     
   22   13   14 1     
   23   13   32 1     
   24   13   33 1     
   25   14   15 1     
   26   14   34 1     
   27   14   35 1     
   28   15   23 1     
   29   15   16 1     
   30   15   47 1     
   31   16   17 1     
   32   16   36 1     
   33   16   37 1     
   34   17   18 1     
   35   17   38 1     
   36   17   39 1     
   37   18   19 am    
   38   18   22 1     
   39   19   20 1     
   40   19   21 2     
   41   20   40 1     
   42   20   41 1     
   43   20   42 1     
   44   22   23 1     
   45   22   43 1     
   46   22   44 1     
   47   23   45 1     
   48   23   46 1     
   49    2   48 1     
   50    2   49 1     
   51    4   50 1     
   52   11   51 1     
   53   11   52 1     
   54   21   53 1     
   55   21   54 1     
@<TRIPOS>SUBSTRUCTURE
      1 S1             1
@<TRIPOS>SET
LONE_PAIRS      STATIC     ATOMS    <user>   **** ""
7 48 49 50 51 52 53 54
DONOR_HYDROGENS      STATIC     ATOMS    <user>   **** ""
3 30 31 47
ATOM$BLUE        STATIC     ATOMS    COLORGROUP SYSTEM
7 48 49 50 51 52 53 54
ATOM$RED        STATIC     ATOMS    COLORGROUP SYSTEM
3 30 31 47
