#       Name:                AV-unprocessed.smi:16
#       Creating user name   scv26
#       Creation time:       Thu Mar 26 15:23:09 2020


#       File generated by GOLD software.
#

@<TRIPOS>MOLECULE
AV-unprocessed.smi:16
    70    74     1
SMALL
NO_CHARGES


@<TRIPOS>ATOM
      1 ****        -3.5217   2.2943  -3.8215 C.3            1 S1                 0.0000
      2 ****        -3.2047   1.8811  -2.3774 C.3            1 S1                 0.0000
      3 ****        -3.2125   0.4049  -2.1938 N.4            1 S1                 1.0000
      4 ****        -4.5648  -0.2181  -2.2207 C.3            1 S1                 0.0000
      5 ****        -5.3447   0.0212  -0.9135 C.3            1 S1                 0.0000
      6 ****        -4.5289  -0.4493   0.2972 C.3            1 S1                 0.0000
      7 ****        -5.2336  -0.1469   1.4958 O.3            1 S1                 0.0000
      8 ****        -4.5480  -0.6310   2.6461 C.3            1 S1                 0.0000
      9 ****        -3.1654   0.0352   2.7360 C.3            1 S1                 0.0000
     10 ****        -2.4120  -0.1832   1.5034 N.3            1 S1                 0.0000
     11 ****        -1.1431   0.2784   1.5784 C.ar           1 S1                 0.0000
     12 ****        -0.9071   1.5926   1.8327 N.ar           1 S1                 0.0000
     13 ****         0.3497   2.0451   1.8859 C.ar           1 S1                 0.0000
     14 ****         1.4878   1.3715   1.7029 N.ar           1 S1                 0.0000
     15 ****         1.2497   0.0552   1.4344 C.ar           1 S1                 0.0000
     16 ****        -0.0261  -0.5689   1.3613 C.ar           1 S1                 0.0000
     17 ****         0.1161  -1.9204   1.0772 N.2            1 S1                 0.0000
     18 ****         1.4082  -2.0896   0.9966 C.2            1 S1                 0.0000
     19 ****         2.1627  -0.9494   1.1650 N.pl3          1 S1                 0.0000
     20 ****         3.5931  -0.8600   1.1572 C.3            1 S1                 0.0000
     21 ****         4.3108   0.3085   0.4775 C.3            1 S1                 0.0000
     22 ****         5.4783  -0.6336   0.1061 C.3            1 S1                 0.0000
     23 ****         6.0506  -0.4516  -1.3091 C.3            1 S1                 0.0000
     24 ****         6.7807  -1.5910  -1.7160 O.3            1 S1                 0.0000
     25 ****         6.6389  -0.6759   1.1206 C.3            1 S1                 0.0000
     26 ****         7.3060   0.5678   1.1959 O.3            1 S1                 0.0000
     27 ****         4.4361  -1.7641   0.2544 C.3            1 S1                 0.0000
     28 ****        -3.1521   0.2494   0.3154 C.3            1 S1                 0.0000
     29 ****        -2.4199  -0.0456  -1.0187 C.3            1 S1                 0.0000
     30 ****        -4.3960  -1.5311   0.2277 H              1 S1                 0.0000
     31 ****        -3.3078   1.3262   0.4009 H              1 S1                 0.0000
     32 ****        -3.4038   3.3710  -3.9450 H              1 S1                 0.0000
     33 ****        -4.5451   2.0487  -4.1035 H              1 S1                 0.0000
     34 ****        -2.8492   1.8065  -4.5278 H              1 S1                 0.0000
     35 ****        -2.2120   2.2640  -2.1373 H              1 S1                 0.0000
     36 ****        -3.8920   2.3649  -1.6836 H              1 S1                 0.0000
     37 ****        -5.1398   0.1326  -3.0766 H              1 S1                 0.0000
     38 ****        -4.4371  -1.2914  -2.3681 H              1 S1                 0.0000
     39 ****        -5.5936   1.0774  -0.8080 H              1 S1                 0.0000
     40 ****        -6.2948  -0.5127  -0.9486 H              1 S1                 0.0000
     41 ****        -5.1356  -0.3989   3.5343 H              1 S1                 0.0000
     42 ****        -4.4549  -1.7173   2.6001 H              1 S1                 0.0000
     43 ****        -3.2901   1.1048   2.9122 H              1 S1                 0.0000
     44 ****        -2.6128  -0.3690   3.5853 H              1 S1                 0.0000
     45 ****         0.4599   3.0976   2.1022 H              1 S1                 0.0000
     46 ****         1.8485  -3.0568   0.8011 H              1 S1                 0.0000
     47 ****         3.9064  -0.9513   2.1986 H              1 S1                 0.0000
     48 ****         3.7669   0.6797  -0.3931 H              1 S1                 0.0000
     49 ****         4.5710   1.1271   1.1492 H              1 S1                 0.0000
     50 ****         5.2499  -0.2951  -2.0327 H              1 S1                 0.0000
     51 ****         6.6946   0.4257  -1.3737 H              1 S1                 0.0000
     52 ****         7.1050  -1.4421  -2.5910 H              1 S1                 0.0000
     53 ****         6.2793  -0.9204   2.1203 H              1 S1                 0.0000
     54 ****         7.3645  -1.4482   0.8646 H              1 S1                 0.0000
     55 ****         7.9985   0.4983   1.8353 H              1 S1                 0.0000
     56 ****         4.8056  -2.6687   0.7384 H              1 S1                 0.0000
     57 ****         3.9336  -2.0021  -0.6852 H              1 S1                 0.0000
     58 ****        -2.2417  -1.1182  -1.1105 H              1 S1                 0.0000
     59 ****        -1.4375   0.4267  -1.0529 H              1 S1                 0.0000
     60 ****        -2.7223   0.0429  -2.9993 H              1 S1                 0.0000
     61 ****        -6.1385  -0.5707   1.4555 LP             1 S1                 0.0000
     62 ****        -5.3334   0.8453   1.5716 LP             1 S1                 0.0000
     63 ****        -2.3082  -1.1716   1.3925 LP             1 S1                 0.0000
     64 ****        -1.6721   2.2198   1.9797 LP             1 S1                 0.0000
     65 ****         2.3990   1.7799   1.7559 LP             1 S1                 0.0000
     66 ****        -0.6036  -2.6049   0.9612 LP             1 S1                 0.0000
     67 ****         6.1846  -2.3938  -1.7092 LP             1 S1                 0.0000
     68 ****         7.5481  -1.7403  -1.0926 LP             1 S1                 0.0000
     69 ****         6.6612   1.2803   1.4729 LP             1 S1                 0.0000
     70 ****         7.6931   0.7976   0.3029 LP             1 S1                 0.0000
@<TRIPOS>BOND
    1    1    2 1     
    2    1   32 1     
    3    1   33 1     
    4    1   34 1     
    5    2    3 1     
    6    2   35 1     
    7    2   36 1     
    8    3   29 1     
    9    3    4 1     
   10    3   60 1     
   11    4    5 1     
   12    4   37 1     
   13    4   38 1     
   14    5    6 1     
   15    5   39 1     
   16    5   40 1     
   17    6   30 1     
   18    6   28 1     
   19    6    7 1     
   20    7    8 1     
   21    8    9 1     
   22    8   41 1     
   23    8   42 1     
   24    9   10 1     
   25    9   43 1     
   26    9   44 1     
   27   10   11 1     
   28   10   28 1     
   29   11   16 ar    
   30   11   12 ar    
   31   12   13 ar    
   32   13   14 ar    
   33   13   45 1     
   34   14   15 ar    
   35   15   19 1     
   36   15   16 ar    
   37   16   17 1     
   38   17   18 2     
   39   18   19 1     
   40   18   46 1     
   41   19   20 1     
   42   20   27 1     
   43   20   21 1     
   44   20   47 1     
   45   21   22 1     
   46   21   48 1     
   47   21   49 1     
   48   22   23 1     
   49   22   25 1     
   50   22   27 1     
   51   23   24 1     
   52   23   50 1     
   53   23   51 1     
   54   24   52 1     
   55   25   26 1     
   56   25   53 1     
   57   25   54 1     
   58   26   55 1     
   59   27   56 1     
   60   27   57 1     
   61   28   31 1     
   62   28   29 1     
   63   29   58 1     
   64   29   59 1     
   65    7   61 1     
   66    7   62 1     
   67   10   63 1     
   68   12   64 1     
   69   14   65 1     
   70   17   66 1     
   71   24   67 1     
   72   24   68 1     
   73   26   69 1     
   74   26   70 1     
@<TRIPOS>SUBSTRUCTURE
      1 S1             1
@<TRIPOS>SET
LONE_PAIRS      STATIC     ATOMS    <user>   **** ""
10 61 62 63 64 65 66 67 68 69 70
DONOR_HYDROGENS      STATIC     ATOMS    <user>   **** ""
3 60 52 55
ATOM$BLUE        STATIC     ATOMS    COLORGROUP SYSTEM
10 61 62 63 64 65 66 67 68 69 70
ATOM$RED        STATIC     ATOMS    COLORGROUP SYSTEM
3 60 52 55
