AV-unprocessed.smi:2190|AV-procd|sdf|8888|dock9
  -GOLD-   2272012 93D 1   1.00000     0.00000
 Structure written by MMmdl.
 46 48  0  0  0  0  0  0  0  0  1 V2000
  151.9320  144.9982  160.1626 C   0  0  0  0  0  0  0  0  0  0  0  0
  151.7261  143.7455  159.3361 C   0  0  0  0  0  0  0  0  0  0  0  0
  150.6083  143.6287  158.4878 C   0  0  0  0  0  0  0  0  0  0  0  0
  150.4262  142.4626  157.7230 C   0  0  0  0  0  0  0  0  0  0  0  0
  151.3590  141.4076  157.8005 C   0  0  0  0  0  0  0  0  0  0  0  0
  151.1474  140.1576  156.9672 C   0  0  0  0  0  0  0  0  0  0  0  0
  152.4866  141.5118  158.6479 C   0  0  0  0  0  0  0  0  0  0  0  0
  153.3615  140.4448  158.6756 O   0  0  0  0  0  0  0  0  0  0  0  0
  154.3848  140.4302  159.6620 C   0  0  0  0  0  0  0  0  0  0  0  0
  155.0165  139.0296  159.7042 C   0  0  2  0  0  0  0  0  0  0  0  0
  155.6221  138.7707  158.4527 O   0  0  0  0  0  0  0  0  0  0  0  0
  153.9665  137.9370  159.9944 C   0  0  0  0  0  0  0  0  0  0  0  0
  154.5143  136.8000  160.7233 N   0  0  0  0  0  0  0  0  0  0  0  0
  154.8658  135.5846  160.2322 C   0  0  0  0  0  0  0  0  0  0  0  0
  154.7211  135.2596  158.7719 C   0  0  0  0  0  0  0  0  0  0  0  0
  153.8962  134.1421  158.5101 O   0  0  0  0  0  0  0  0  0  0  0  0
  155.3506  134.7199  161.1267 N   0  0  0  0  0  0  0  0  0  0  0  0
  155.3100  135.4405  162.3037 C   0  0  0  0  0  0  0  0  0  0  0  0
  155.6918  135.0784  163.6154 C   0  0  0  0  0  0  0  0  0  0  0  0
  155.5594  135.9976  164.6768 C   0  0  0  0  0  0  0  0  0  0  0  0
  155.0450  137.2891  164.4421 C   0  0  0  0  0  0  0  0  0  0  0  0
  154.6593  137.6702  163.1425 C   0  0  0  0  0  0  0  0  0  0  0  0
  154.7930  136.7486  162.0862 C   0  0  0  0  0  0  0  0  0  0  0  0
  152.6599  142.6928  159.4143 C   0  0  0  0  0  0  0  0  0  0  0  0
  151.0584  145.6494  160.1223 H   0  0  0  0  0  0  0  0  0  0  0  0
  152.7921  145.5564  159.7922 H   0  0  0  0  0  0  0  0  0  0  0  0
  152.1136  144.7394  161.2060 H   0  0  0  0  0  0  0  0  0  0  0  0
  149.8877  144.4305  158.4193 H   0  0  0  0  0  0  0  0  0  0  0  0
  149.5657  142.3822  157.0751 H   0  0  0  0  0  0  0  0  0  0  0  0
  151.0936  139.2779  157.6092 H   0  0  0  0  0  0  0  0  0  0  0  0
  151.9753  140.0245  156.2703 H   0  0  0  0  0  0  0  0  0  0  0  0
  150.2239  140.2126  156.3901 H   0  0  0  0  0  0  0  0  0  0  0  0
  155.1453  141.1585  159.3756 H   0  0  0  0  0  0  0  0  0  0  0  0
  154.0034  140.7137  160.6448 H   0  0  0  0  0  0  0  0  0  0  0  0
  155.7861  139.0023  160.4757 H   0  0  0  0  0  0  0  0  0  0  0  0
  155.9978  139.5745  158.1278 H   0  0  0  0  0  0  0  0  0  0  0  0
  153.1367  138.3517  160.5672 H   0  0  0  0  0  0  0  0  0  0  0  0
  153.5326  137.5744  159.0615 H   0  0  0  0  0  0  0  0  0  0  0  0
  154.3051  136.1198  158.2486 H   0  0  0  0  0  0  0  0  0  0  0  0
  155.7082  135.0661  158.3516 H   0  0  0  0  0  0  0  0  0  0  0  0
  154.1427  133.7754  157.6750 H   0  0  0  0  0  0  0  0  0  0  0  0
  156.0871  134.0914  163.8046 H   0  0  0  0  0  0  0  0  0  0  0  0
  155.8534  135.7099  165.6755 H   0  0  0  0  0  0  0  0  0  0  0  0
  154.9463  137.9871  165.2606 H   0  0  0  0  0  0  0  0  0  0  0  0
  154.2632  138.6580  162.9609 H   0  0  0  0  0  0  0  0  0  0  0  0
  153.5068  142.8160  160.0721 H   0  0  0  0  0  0  0  0  0  0  0  0
  1  2  1  0  0  0  0
  1 25  1  0  0  0  0
  1 26  1  0  0  0  0
  1 27  1  0  0  0  0
  2 24  1  0  0  0  0
  2  3  2  0  0  0  0
  3  4  1  0  0  0  0
  3 28  1  0  0  0  0
  4  5  2  0  0  0  0
  4 29  1  0  0  0  0
  5  6  1  0  0  0  0
  5  7  1  0  0  0  0
  6 30  1  0  0  0  0
  6 31  1  0  0  0  0
  6 32  1  0  0  0  0
  7  8  1  0  0  0  0
  7 24  2  0  0  0  0
  8  9  1  0  0  0  0
  9 10  1  0  0  0  0
  9 33  1  0  0  0  0
  9 34  1  0  0  0  0
 10 11  1  0  0  0  0
 10 12  1  0  0  0  0
 10 35  1  0  0  0  0
 11 36  1  0  0  0  0
 12 13  1  0  0  0  0
 12 37  1  0  0  0  0
 12 38  1  0  0  0  0
 13 23  1  0  0  0  0
 13 14  1  0  0  0  0
 14 15  1  0  0  0  0
 14 17  2  0  0  0  0
 15 16  1  0  0  0  0
 15 39  1  0  0  0  0
 15 40  1  0  0  0  0
 16 41  1  0  0  0  0
 17 18  1  0  0  0  0
 18 23  2  0  0  0  0
 18 19  1  0  0  0  0
 19 20  2  0  0  0  0
 19 42  1  0  0  0  0
 20 21  1  0  0  0  0
 20 43  1  0  0  0  0
 21 22  2  0  0  0  0
 21 44  1  0  0  0  0
 22 23  1  0  0  0  0
 22 45  1  0  0  0  0
 24 46  1  0  0  0  0
M  END
> <s_m_source_file>
AV-unprocessed.smi

> <i_m_source_file_index>
2190

> <i_lp_mmshare_version>
43012

> <i_f3d_flags>
0

> <s_epik_input>
W0NIM11jMVtjSF1bY0hdYyhbQ0gzXSljKFtjSF0xKU9bQ0gyXVtDQEhdKFtPSF0pW0NIMl1uKGMobjIpW0NIMl1bT0hdKWMoYzIzKVtjSF1bY0hdW2NIXVtjSF0z

> <s_epik_cmdline>
J2VwaWtfcHl0aG9uJywgJy1waCcsICc3LjAnLCAnLXRuJywgJzgnLCAnLW1hJywgJzIwMCcsICctbWV0YWxfYmluZGluZycsICctaW1hZScsICc8aW5maWxlLm1hZT4nLCAnLW9tYWUnLCAnPG91dGZpbGUubWFlPic=

> <r_lp_tautomer_probability>
1

> <r_epik_Ionization_Penalty>
0.0555874

> <r_epik_Ionization_Penalty_Charging>
0

> <r_epik_Ionization_Penalty_Neutral>
0.0555874

> <r_epik_State_Penalty>
0.0478234

> <r_epik_Charging_Adjusted_Penalty>
0.0478234

> <i_epik_Tot_Q>
0

> <i_epik_Tot_abs_Q>
0

> <r_epik_Metal_State_Penalty>
4.98044e-05

> <b_epik_Metal_Only>
0

> <s_lp_Force_Field>
OPLS_2005

> <r_lp_Energy>
17.5677

> <b_lp_Chiralities_Consistent>
1

> <s_lp_Variant>
AV-unprocessed.smi:2190-1

> <Gold.Version>
5.8.1

> <Gold.Id.Protein>
6NUR|6NUR_protein|mol2

> <Gold.PLP.Fitness>
48.0146

> <Gold.PLP.PLP>
-44.7976

> <Gold.PLP.part.hbond>
-3.0000

> <Gold.PLP.part.metal>
0.0000

> <Gold.PLP.part.buried>
-1.8768

> <Gold.PLP.part.nonpolar>
-40.6460

> <Gold.PLP.part.repulsive>
0.0000

> <Gold.PLP.ligand.clash>
0.0000

> <Gold.PLP.ligand.torsion>
0.7670

> <Gold.PLP.Chemscore.Hbond>
1.5657

> <Gold.PLP.Chemscore.CHOScore>
0.0000

> <Gold.PLP.Chemscore.Metal>
0.0000

> <Gold.Chemscore.Hbonds>
donor molecule, donor type, donor heavy atom, donor atom, acceptor molecule, acceptor atom, score
      P1  H  6896  6909       L1    16  0.91
      P1  H  7997  8010       L1     8  0.43

> <Gold.PLP.Chemscore.Internal.Correction>
0.0538

> <Gold.Rescore>
     Score         DG    S(hbond)    S(metal)    S(lipo)     H(rot)  DE(clash)    DE(int)     intcor
     16.49     -19.11       1.18        0.00     147.55       2.96       1.61       1.02       ----

> <Gold.Chemscore.Fitness>
16.4862

> <Gold.Chemscore.DG>
-19.1141

> <Gold.Chemscore.ZeroCoef>
-5.4800

> <Gold.Chemscore.Hbond>
1.1793

> <Gold.Chemscore.Metal>
0.0000

> <Gold.Chemscore.Lipo>
147.5451

> <Gold.Chemscore.Internal_Hbond>
0.0000

> <Gold.Chemscore.DEClash>
1.6123

> <Gold.Chemscore.DEInternal>
1.0155

> <Gold.Chemscore.Rot>
2.9561

> <Gold.Chemscore.Internal.Correction>
   9.000000E+99

> <Gold.Chemscore.Hbonds>
donor molecule, donor type, donor heavy atom, donor atom, acceptor molecule, acceptor atom, score
      P1  H  6896  6909       L1    16  0.76
      P1  H  7997  8010       L1     8  0.03

> <Gold.Chemscore.Hbond.Weighted>
-3.9390

> <Gold.Chemscore.Metal.Weighted>
-0.0000

> <Gold.Chemscore.Lipo.Weighted>
-17.2628

> <Gold.Chemscore.Internal_Hbond.Weighted>
0.0000

> <Gold.Chemscore.DEClash.Weighted>
1.6123

> <Gold.Chemscore.DEInternal.Weighted>
1.0155

> <Gold.Chemscore.Rot.Weighted>
7.5677

> <Gold.Chemscore.Internal.Correction.Weighted>
   9.000000E+99

> <Gold.Protein.RotatedTorsions>
[ 6907 6896 6895 6894 ] final -132.85 input  -60.11 | X-H torsion
[ 7974 7965 7964 7962 ] final  177.80 input  175.53 | X-H torsion
[ 8008 7997 7996 7995 ] final   23.20 input   59.86 | X-H torsion
[ 10167 10162 10161 10158 ] final  135.60 input  -65.29 | X-H torsion
[ 10718 10713 10712 10709 ] final   70.99 input   66.30 | X-H torsion
[ 10763 10752 10751 10750 ] final  111.72 input  -60.55 | X-H torsion
[ 11005 11000 10999 10996 ] final  169.08 input  -57.11 | X-H torsion

> <Gold.Protein.ActiveResidues>
 VAL166  LYS551  ARG553  GLY616  TRP617  ASP618  TYR619  PRO620  LYS621  CYS622 
 ASP623  PHE694  ASN695  SER759  ASP760  ASP761  ALA762  ILE779  LEU786  VAL792 
 PHE793  MET794  SER795  GLU796  ALA797  LYS798  CYS799  TRP800  GLU811  SER814 

> <Gold.Protein.RotatedAtoms>
  150.9672  133.6382  159.2743 H   0  0  0  0  0  0  0  0  0  0  0  0  # atno 6907 bound_to 6896
  151.3684  135.0916  159.9467 H   0  0  0  0  0  0  0  0  0  0  0  0  # atno 6908 bound_to 6896
  152.5170  133.9231  159.7599 H   0  0  0  0  0  0  0  0  0  0  0  0  # atno 6909 bound_to 6896
  144.7164  140.0301  143.6439 H   0  0  0  0  0  0  0  0  0  0  0  0  # atno 7974 bound_to 7965
  154.9773  140.3097  155.4961 H   0  0  0  0  0  0  0  0  0  0  0  0  # atno 8008 bound_to 7997
  156.2958  140.2273  156.4810 H   0  0  0  0  0  0  0  0  0  0  0  0  # atno 8009 bound_to 7997
  154.7821  140.0445  157.1123 H   0  0  0  0  0  0  0  0  0  0  0  0  # atno 8010 bound_to 7997
  139.5211  144.6508  151.5306 H   0  0  0  0  0  0  0  0  0  0  0  0  # atno 10167 bound_to 10162
  157.6429  130.9506  150.0728 H   0  0  0  0  0  0  0  0  0  0  0  0  # atno 10718 bound_to 10713
  153.4675  135.3708  155.2372 H   0  0  0  0  0  0  0  0  0  0  0  0  # atno 10763 bound_to 10752
  154.8757  135.3923  154.3852 H   0  0  0  0  0  0  0  0  0  0  0  0  # atno 10764 bound_to 10752
  153.4435  135.7084  153.6218 H   0  0  0  0  0  0  0  0  0  0  0  0  # atno 10765 bound_to 10752
  140.2939  134.7650  157.3861 H   0  0  0  0  0  0  0  0  0  0  0  0  # atno 11005 bound_to 11000
  146.0109  139.3169  143.0870 LP  0  0  0  0  0  0  0  0  0  0  0  0  # atno 17320 bound_to 7965
  145.8682  140.9435  143.0664 LP  0  0  0  0  0  0  0  0  0  0  0  0  # atno 17321 bound_to 7965
  140.6313  143.9071  150.6608 LP  0  0  0  0  0  0  0  0  0  0  0  0  # atno 17342 bound_to 10162
  140.2376  143.3688  152.1514 LP  0  0  0  0  0  0  0  0  0  0  0  0  # atno 17343 bound_to 10162
  156.1727  130.3647  149.9143 LP  0  0  0  0  0  0  0  0  0  0  0  0  # atno 17370 bound_to 10713
  156.7115  130.8972  151.3610 LP  0  0  0  0  0  0  0  0  0  0  0  0  # atno 17371 bound_to 10713
  140.1170  134.5270  155.8216 LP  0  0  0  0  0  0  0  0  0  0  0  0  # atno 17394 bound_to 11000
  141.2141  133.6743  156.6795 LP  0  0  0  0  0  0  0  0  0  0  0  0  # atno 17395 bound_to 11000

$$$$
