AV-unprocessed.smi:3289|AV-procd|sdf|12608|dock1
  -GOLD-   2272018533D 1   1.00000     0.00000
 Structure written by MMmdl.
 40 41  0  0  0  0  0  0  0  0  2 V2000
  145.3654  142.7067  155.5424 C   0  0  0  0  0  0  0  0  0  0  0  0
  146.4159  142.9329  154.4431 C   0  0  0  0  0  0  0  0  0  0  0  0
  145.8316  143.7199  153.2617 C   0  0  0  0  0  0  0  0  0  0  0  0
  147.0426  141.6456  153.9811 C   0  0  0  0  0  0  0  0  0  0  0  0
  146.4027  140.6625  153.3344 N   0  3  0  0  0  0  0  0  0  0  0  0
  147.2649  139.6471  153.0261 C   0  0  0  0  0  0  0  0  0  0  0  0
  148.4950  140.0327  153.4878 C   0  0  0  0  0  0  0  0  0  0  0  0
  148.3338  141.2695  154.0601 N   0  0  0  0  0  0  0  0  0  0  0  0
  149.3970  142.0725  154.6824 C   0  0  0  0  0  0  0  0  0  0  0  0
  150.1060  141.2932  155.7919 C   0  0  0  0  0  0  0  0  0  0  0  0
  149.7494  140.1471  156.0644 O   0  0  0  0  0  0  0  0  0  0  0  0
  151.0831  141.9412  156.4441 N   0  0  0  0  0  0  0  0  0  0  0  0
  151.7988  141.4397  157.6119 C   0  0  0  0  0  0  0  0  0  0  0  0
  151.6431  142.3884  158.8131 C   0  0  1  0  0  0  0  0  0  0  0  0
  152.6269  142.1559  159.9574 C   0  0  0  0  0  0  0  0  0  0  0  0
  152.5584  143.4746  160.6972 C   0  0  0  0  0  0  0  0  0  0  0  0
  152.2757  144.4861  159.5827 C   0  0  0  0  0  0  0  0  0  0  0  0
  151.9171  143.7276  158.4296 O   0  0  0  0  0  0  0  0  0  0  0  0
  145.7931  142.1770  156.3939 H   0  0  0  0  0  0  0  0  0  0  0  0
  144.5201  142.1232  155.1766 H   0  0  0  0  0  0  0  0  0  0  0  0
  144.9753  143.6559  155.9107 H   0  0  0  0  0  0  0  0  0  0  0  0
  147.2169  143.5234  154.8848 H   0  0  0  0  0  0  0  0  0  0  0  0
  146.5956  143.9389  152.5153 H   0  0  0  0  0  0  0  0  0  0  0  0
  145.4138  144.6715  153.5921 H   0  0  0  0  0  0  0  0  0  0  0  0
  145.0360  143.1608  152.7684 H   0  0  0  0  0  0  0  0  0  0  0  0
  146.9478  138.7516  152.5116 H   0  0  0  0  0  0  0  0  0  0  0  0
  149.4517  139.5317  153.4510 H   0  0  0  0  0  0  0  0  0  0  0  0
  150.1197  142.3399  153.9106 H   0  0  0  0  0  0  0  0  0  0  0  0
  148.9661  143.0031  155.0544 H   0  0  0  0  0  0  0  0  0  0  0  0
  151.3173  142.8751  156.1401 H   0  0  0  0  0  0  0  0  0  0  0  0
  151.4739  140.4308  157.8713 H   0  0  0  0  0  0  0  0  0  0  0  0
  152.8529  141.3617  157.3454 H   0  0  0  0  0  0  0  0  0  0  0  0
  150.6205  142.3477  159.1930 H   0  0  0  0  0  0  0  0  0  0  0  0
  152.3658  141.3024  160.5828 H   0  0  0  0  0  0  0  0  0  0  0  0
  153.6337  141.9991  159.5672 H   0  0  0  0  0  0  0  0  0  0  0  0
  151.7291  143.4599  161.4057 H   0  0  0  0  0  0  0  0  0  0  0  0
  153.4717  143.6960  161.2502 H   0  0  0  0  0  0  0  0  0  0  0  0
  151.4664  145.1618  159.8609 H   0  0  0  0  0  0  0  0  0  0  0  0
  153.1558  145.0881  159.3554 H   0  0  0  0  0  0  0  0  0  0  0  0
  145.4156  140.6718  153.1104 H   0  0  0  0  0  0  0  0  0  0  0  0
  1  2  1  0  0  0  0
  1 19  1  0  0  0  0
  1 20  1  0  0  0  0
  1 21  1  0  0  0  0
  2  3  1  0  0  0  0
  2  4  1  0  0  0  0
  2 22  1  0  0  0  0
  3 23  1  0  0  0  0
  3 24  1  0  0  0  0
  3 25  1  0  0  0  0
  4  8  1  0  0  0  0
  4  5  2  0  0  0  0
  5  6  1  0  0  0  0
  5 40  1  0  0  0  0
  6  7  2  0  0  0  0
  6 26  1  0  0  0  0
  7  8  1  0  0  0  0
  7 27  1  0  0  0  0
  8  9  1  0  0  0  0
  9 10  1  0  0  0  0
  9 28  1  0  0  0  0
  9 29  1  0  0  0  0
 10 11  2  0  0  0  0
 10 12  1  0  0  0  0
 12 13  1  0  0  0  0
 12 30  1  0  0  0  0
 13 14  1  0  0  0  0
 13 31  1  0  0  0  0
 13 32  1  0  0  0  0
 14 18  1  0  0  0  0
 14 15  1  0  0  0  0
 14 33  1  0  0  0  0
 15 16  1  0  0  0  0
 15 34  1  0  0  0  0
 15 35  1  0  0  0  0
 16 17  1  0  0  0  0
 16 36  1  0  0  0  0
 16 37  1  0  0  0  0
 17 18  1  0  0  0  0
 17 38  1  0  0  0  0
 17 39  1  0  0  0  0
M  CHG  1   5   1
M  END
> <s_m_source_file>
AV-unprocessed.smi

> <i_m_source_file_index>
3289

> <i_lp_mmshare_version>
43012

> <i_f3d_flags>
0

> <s_epik_input>
W0NIM11bQ0hdKFtDSDNdKWMxbltjSF1bY0hdbjFbQ0gyXUMoPU8pW05IXVtDSDJdW0NAQEhdMltDSDJdW0NIMl1bQ0gyXU8y

> <s_epik_cmdline>
J2VwaWtfcHl0aG9uJywgJy1waCcsICc3LjAnLCAnLXRuJywgJzgnLCAnLW1hJywgJzIwMCcsICctbWV0YWxfYmluZGluZycsICctaW1hZScsICc8aW5maWxlLm1hZT4nLCAnLW9tYWUnLCAnPG91dGZpbGUubWFlPic=

> <r_lp_tautomer_probability>
1

> <r_epik_Ionization_Penalty>
0.274547

> <r_epik_Ionization_Penalty_Charging>
0

> <r_epik_Ionization_Penalty_Neutral>
0.274547

> <r_epik_State_Penalty>
0.266843

> <r_epik_Charging_Adjusted_Penalty>
0.266843

> <i_epik_Tot_Q>
1

> <i_epik_Tot_abs_Q>
1

> <r_epik_Metal_State_Penalty>
0.55046

> <b_epik_Metal_Only>
0

> <s_lp_Force_Field>
OPLS_2005

> <r_lp_Energy>
22.2551

> <b_lp_Chiralities_Consistent>
1

> <s_lp_Variant>
AV-unprocessed.smi:3289-2

> <Gold.Version>
5.8.1

> <Gold.Id.Protein>
6NUR|6NUR_protein|mol2

> <Gold.PLP.Fitness>
44.7026

> <Gold.PLP.PLP>
-37.9217

> <Gold.PLP.part.hbond>
-1.0000

> <Gold.PLP.part.metal>
0.0000

> <Gold.PLP.part.buried>
-0.0216

> <Gold.PLP.part.nonpolar>
-37.0422

> <Gold.PLP.part.repulsive>
0.1637

> <Gold.PLP.ligand.clash>
0.0000

> <Gold.PLP.ligand.torsion>
0.1278

> <Gold.PLP.Chemscore.Hbond>
2.0000

> <Gold.PLP.Chemscore.CHOScore>
0.3078

> <Gold.PLP.Chemscore.Metal>
0.0000

> <Gold.Chemscore.Hbonds>
donor molecule, donor type, donor heavy atom, donor atom, acceptor molecule, acceptor atom, score
      L1  H     5    40       P1 10175  2.00
      L1  C     7    27       P1  7957  0.20

> <Gold.PLP.Chemscore.Internal.Correction>
0.1131

> <Gold.Rescore>
     Score         DG    S(hbond)    S(metal)    S(lipo)     H(rot)  DE(clash)    DE(int)     intcor
     11.99     -14.77       0.98        0.00      90.59       1.78       1.46       1.33       ----

> <Gold.Chemscore.Fitness>
11.9862

> <Gold.Chemscore.DG>
-14.7730

> <Gold.Chemscore.ZeroCoef>
-5.4800

> <Gold.Chemscore.Hbond>
0.9760

> <Gold.Chemscore.Metal>
0.0000

> <Gold.Chemscore.Lipo>
90.5890

> <Gold.Chemscore.Internal_Hbond>
0.0000

> <Gold.Chemscore.DEClash>
1.4615

> <Gold.Chemscore.DEInternal>
1.3252

> <Gold.Chemscore.Rot>
1.7835

> <Gold.Chemscore.Internal.Correction>
   9.000000E+99

> <Gold.Chemscore.Hbonds>
donor molecule, donor type, donor heavy atom, donor atom, acceptor molecule, acceptor atom, score
      L1  H     5    40       P1 10175  0.78

> <Gold.Chemscore.Hbond.Weighted>
-3.2599

> <Gold.Chemscore.Metal.Weighted>
-0.0000

> <Gold.Chemscore.Lipo.Weighted>
-10.5989

> <Gold.Chemscore.Internal_Hbond.Weighted>
0.0000

> <Gold.Chemscore.DEClash.Weighted>
1.4615

> <Gold.Chemscore.DEInternal.Weighted>
1.3252

> <Gold.Chemscore.Rot.Weighted>
4.5659

> <Gold.Chemscore.Internal.Correction.Weighted>
   9.000000E+99

> <Gold.Protein.RotatedTorsions>
[ 6907 6896 6895 6894 ] final  125.44 input  -60.11 | X-H torsion
[ 7974 7965 7964 7962 ] final  110.33 input  175.53 | X-H torsion
[ 8008 7997 7996 7995 ] final  115.39 input   59.86 | X-H torsion
[ 10167 10162 10161 10158 ] final  170.09 input  -65.29 | X-H torsion
[ 10718 10713 10712 10709 ] final  -16.94 input   66.30 | X-H torsion
[ 10763 10752 10751 10750 ] final   57.20 input  -60.55 | X-H torsion
[ 11005 11000 10999 10996 ] final   55.30 input  -57.11 | X-H torsion

> <Gold.Protein.ActiveResidues>
 VAL166  LYS551  ARG553  GLY616  TRP617  ASP618  TYR619  PRO620  LYS621  CYS622 
 ASP623  PHE694  ASN695  SER759  ASP760  ASP761  ALA762  ILE779  LEU786  VAL792 
 PHE793  MET794  SER795  GLU796  ALA797  LYS798  CYS799  TRP800  GLU811  SER814 

> <Gold.Protein.RotatedAtoms>
  152.3992  133.6792  159.6301 H   0  0  0  0  0  0  0  0  0  0  0  0  # atno 6907 bound_to 6896
  150.7886  133.8821  159.3297 H   0  0  0  0  0  0  0  0  0  0  0  0  # atno 6908 bound_to 6896
  151.6591  135.0993  160.0227 H   0  0  0  0  0  0  0  0  0  0  0  0  # atno 6909 bound_to 6896
  145.2564  139.2719  143.4040 H   0  0  0  0  0  0  0  0  0  0  0  0  # atno 7974 bound_to 7965
  156.2379  140.2939  156.0362 H   0  0  0  0  0  0  0  0  0  0  0  0  # atno 8008 bound_to 7997
  155.2039  140.0410  157.2939 H   0  0  0  0  0  0  0  0  0  0  0  0  # atno 8009 bound_to 7997
  154.6112  140.2452  155.7674 H   0  0  0  0  0  0  0  0  0  0  0  0  # atno 8010 bound_to 7997
  139.5009  144.3634  151.9801 H   0  0  0  0  0  0  0  0  0  0  0  0  # atno 10167 bound_to 10162
  156.5805  130.4773  149.6322 H   0  0  0  0  0  0  0  0  0  0  0  0  # atno 10718 bound_to 10713
  152.9845  135.5650  154.5352 H   0  0  0  0  0  0  0  0  0  0  0  0  # atno 10763 bound_to 10752
  154.4817  135.2789  155.1568 H   0  0  0  0  0  0  0  0  0  0  0  0  # atno 10764 bound_to 10752
  154.3074  135.6295  153.5504 H   0  0  0  0  0  0  0  0  0  0  0  0  # atno 10765 bound_to 10752
  140.0618  134.5592  155.9143 H   0  0  0  0  0  0  0  0  0  0  0  0  # atno 11005 bound_to 11000
  146.3288  140.2969  142.8618 LP  0  0  0  0  0  0  0  0  0  0  0  0  # atno 17320 bound_to 7965
  144.9457  140.8126  143.5603 LP  0  0  0  0  0  0  0  0  0  0  0  0  # atno 17321 bound_to 7965
  140.3070  144.3581  150.6044 LP  0  0  0  0  0  0  0  0  0  0  0  0  # atno 17342 bound_to 10162
  140.5828  143.2171  151.7396 LP  0  0  0  0  0  0  0  0  0  0  0  0  # atno 17343 bound_to 10162
  156.2636  130.6976  151.1752 LP  0  0  0  0  0  0  0  0  0  0  0  0  # atno 17370 bound_to 10713
  157.7327  131.0597  150.5612 LP  0  0  0  0  0  0  0  0  0  0  0  0  # atno 17371 bound_to 10713
  141.1976  133.6597  156.5751 LP  0  0  0  0  0  0  0  0  0  0  0  0  # atno 17394 bound_to 11000
  140.3759  134.7566  157.4629 LP  0  0  0  0  0  0  0  0  0  0  0  0  # atno 17395 bound_to 11000

$$$$
