AV-unprocessed.smi:1024|AV-procd|sdf|4464|dock5
  -GOLD-   22720 2443D 1   1.00000     0.00000
 Structure written by MMmdl.
 48 50  0  0  0  0  0  0  0  0  2 V2000
  145.6712  138.8751  154.5283 O   0  0  0  0  0  0  0  0  0  0  0  0
  146.6518  139.3744  153.9740 C   0  0  0  0  0  0  0  0  0  0  0  0
  146.9979  139.0498  152.7164 N   0  0  0  0  0  0  0  0  0  0  0  0
  146.2987  138.0826  151.8794 C   0  0  0  0  0  0  0  0  0  0  0  0
  146.2043  136.7095  152.5653 C   0  0  0  0  0  0  0  0  0  0  0  0
  145.4180  135.7638  151.7731 N   0  0  0  0  0  0  0  0  0  0  0  0
  145.8029  134.5254  151.3279 C   0  0  0  0  0  0  0  0  0  0  0  0
  144.7405  134.0157  150.6264 C   0  0  0  0  0  0  0  0  0  0  0  0
  143.7536  134.9640  150.6733 N   0  3  0  0  0  0  0  0  0  0  0  0
  144.1682  136.0269  151.3704 C   0  0  0  0  0  0  0  0  0  0  0  0
  147.4495  140.3006  154.5639 N   0  0  0  0  0  0  0  0  0  0  0  0
  148.5426  141.0461  153.9212 C   0  0  0  0  0  0  0  0  0  0  0  0
  149.8856  140.4621  154.4005 C   0  0  0  0  0  0  0  0  0  0  0  0
  150.0469  140.4896  155.9467 C   0  0  0  0  0  0  0  0  0  0  0  0
  151.2778  139.6227  156.3203 C   0  0  0  0  0  0  0  0  0  0  0  0
  151.6653  139.7139  157.8068 C   0  0  0  0  0  0  0  0  0  0  0  0
  151.9259  141.1674  158.2229 C   0  0  0  0  0  0  0  0  0  0  0  0
  150.7182  142.0578  157.9015 C   0  0  0  0  0  0  0  0  0  0  0  0
  150.3176  141.9476  156.4185 C   0  0  0  0  0  0  0  0  0  0  0  0
  148.7572  139.9000  156.5925 C   0  0  0  0  0  0  0  0  0  0  0  0
  147.4613  140.5029  156.0160 C   0  0  0  0  0  0  0  0  0  0  0  0
  147.8056  139.5051  152.3163 H   0  0  0  0  0  0  0  0  0  0  0  0
  145.3043  138.4583  151.6317 H   0  0  0  0  0  0  0  0  0  0  0  0
  146.8393  137.9918  150.9368 H   0  0  0  0  0  0  0  0  0  0  0  0
  147.1969  136.2824  152.7145 H   0  0  0  0  0  0  0  0  0  0  0  0
  145.7396  136.7911  153.5491 H   0  0  0  0  0  0  0  0  0  0  0  0
  146.7784  134.1103  151.5366 H   0  0  0  0  0  0  0  0  0  0  0  0
  144.6164  133.0746  150.1106 H   0  0  0  0  0  0  0  0  0  0  0  0
  143.6055  136.9222  151.5675 H   0  0  0  0  0  0  0  0  0  0  0  0
  148.5071  141.0294  152.8322 H   0  0  0  0  0  0  0  0  0  0  0  0
  148.4659  142.1003  154.1882 H   0  0  0  0  0  0  0  0  0  0  0  0
  149.9546  139.4324  154.0460 H   0  0  0  0  0  0  0  0  0  0  0  0
  150.7094  140.9942  153.9231 H   0  0  0  0  0  0  0  0  0  0  0  0
  151.0992  138.5796  156.0566 H   0  0  0  0  0  0  0  0  0  0  0  0
  152.1349  139.9364  155.7223 H   0  0  0  0  0  0  0  0  0  0  0  0
  150.8789  139.2853  158.4282 H   0  0  0  0  0  0  0  0  0  0  0  0
  152.5570  139.1146  157.9910 H   0  0  0  0  0  0  0  0  0  0  0  0
  152.1537  141.2158  159.2881 H   0  0  0  0  0  0  0  0  0  0  0  0
  152.8058  141.5440  157.7001 H   0  0  0  0  0  0  0  0  0  0  0  0
  149.8785  141.7887  158.5417 H   0  0  0  0  0  0  0  0  0  0  0  0
  150.9558  143.0948  158.1401 H   0  0  0  0  0  0  0  0  0  0  0  0
  151.1249  142.3722  155.8203 H   0  0  0  0  0  0  0  0  0  0  0  0
  149.4546  142.5866  156.2364 H   0  0  0  0  0  0  0  0  0  0  0  0
  148.7323  138.8223  156.4252 H   0  0  0  0  0  0  0  0  0  0  0  0
  148.7615  140.0247  157.6742 H   0  0  0  0  0  0  0  0  0  0  0  0
  147.3959  141.5682  156.2382 H   0  0  0  0  0  0  0  0  0  0  0  0
  146.5975  140.0544  156.5079 H   0  0  0  0  0  0  0  0  0  0  0  0
  142.8414  134.8769  150.2430 H   0  0  0  0  0  0  0  0  0  0  0  0
  1  2  2  0  0  0  0
  2  3  1  0  0  0  0
  2 11  1  0  0  0  0
  3  4  1  0  0  0  0
  3 22  1  0  0  0  0
  4  5  1  0  0  0  0
  4 23  1  0  0  0  0
  4 24  1  0  0  0  0
  5  6  1  0  0  0  0
  5 25  1  0  0  0  0
  5 26  1  0  0  0  0
  6 10  1  0  0  0  0
  6  7  1  0  0  0  0
  7  8  2  0  0  0  0
  7 27  1  0  0  0  0
  8  9  1  0  0  0  0
  8 28  1  0  0  0  0
  9 10  2  0  0  0  0
  9 48  1  0  0  0  0
 10 29  1  0  0  0  0
 11 21  1  0  0  0  0
 11 12  1  0  0  0  0
 12 13  1  0  0  0  0
 12 30  1  0  0  0  0
 12 31  1  0  0  0  0
 13 14  1  0  0  0  0
 13 32  1  0  0  0  0
 13 33  1  0  0  0  0
 14 19  1  0  0  0  0
 14 15  1  0  0  0  0
 14 20  1  0  0  0  0
 15 16  1  0  0  0  0
 15 34  1  0  0  0  0
 15 35  1  0  0  0  0
 16 17  1  0  0  0  0
 16 36  1  0  0  0  0
 16 37  1  0  0  0  0
 17 18  1  0  0  0  0
 17 38  1  0  0  0  0
 17 39  1  0  0  0  0
 18 19  1  0  0  0  0
 18 40  1  0  0  0  0
 18 41  1  0  0  0  0
 19 42  1  0  0  0  0
 19 43  1  0  0  0  0
 20 21  1  0  0  0  0
 20 44  1  0  0  0  0
 20 45  1  0  0  0  0
 21 46  1  0  0  0  0
 21 47  1  0  0  0  0
M  CHG  1   9   1
M  END
> <s_m_source_file>
AV-unprocessed.smi

> <i_m_source_file_index>
1024

> <i_lp_mmshare_version>
43012

> <i_f3d_flags>
0

> <s_epik_input>
W2NIXTFuW2NIXVtjSF1uMVtDSDJdW0NIMl1bTkhdQyg9TylOKFtDSDJdW0NIMl0yKVtDSDJdW0NIMl1DMjNbQ0gyXVtDSDJdW0NIMl1bQ0gyXVtDSDJdMw==

> <s_epik_cmdline>
J2VwaWtfcHl0aG9uJywgJy1waCcsICc3LjAnLCAnLXRuJywgJzgnLCAnLW1hJywgJzIwMCcsICctbWV0YWxfYmluZGluZycsICctaW1hZScsICc8aW5maWxlLm1hZT4nLCAnLW9tYWUnLCAnPG91dGZpbGUubWFlPic=

> <r_lp_tautomer_probability>
1

> <r_epik_Ionization_Penalty>
0.249817

> <r_epik_Ionization_Penalty_Charging>
0

> <r_epik_Ionization_Penalty_Neutral>
0.249817

> <r_epik_State_Penalty>
0.241048

> <r_epik_Charging_Adjusted_Penalty>
0.241048

> <i_epik_Tot_Q>
1

> <i_epik_Tot_abs_Q>
1

> <r_epik_Metal_State_Penalty>
0.532587

> <b_epik_Metal_Only>
0

> <s_lp_Force_Field>
OPLS_2005

> <r_lp_Energy>
44.4362

> <b_lp_Chiralities_Consistent>
1

> <s_lp_Variant>
AV-unprocessed.smi:1024-1

> <Gold.Version>
5.8.1

> <Gold.Id.Protein>
6NUR|6NUR_protein|mol2

> <Gold.PLP.Fitness>
39.2065

> <Gold.PLP.PLP>
-29.0658

> <Gold.PLP.part.hbond>
-1.6939

> <Gold.PLP.part.metal>
0.0000

> <Gold.PLP.part.buried>
4.6610

> <Gold.PLP.part.nonpolar>
-32.2504

> <Gold.PLP.part.repulsive>
0.1760

> <Gold.PLP.ligand.clash>
0.0000

> <Gold.PLP.ligand.torsion>
0.1168

> <Gold.PLP.Chemscore.Hbond>
2.7475

> <Gold.PLP.Chemscore.CHOScore>
0.6990

> <Gold.PLP.Chemscore.Metal>
0.0000

> <Gold.Chemscore.Hbonds>
donor molecule, donor type, donor heavy atom, donor atom, acceptor molecule, acceptor atom, score
      L1  H     3    22       P1  7957  0.62
      L1  H     9    48       P1 10186  2.00
      L1  C    10    29       P1 10171  0.65

> <Gold.PLP.Chemscore.Internal.Correction>
0.0348

> <Gold.Rescore>
     Score         DG    S(hbond)    S(metal)    S(lipo)     H(rot)  DE(clash)    DE(int)     intcor
     11.43     -15.38       1.30        0.00      81.90       1.57       3.18       0.78       ----

> <Gold.Chemscore.Fitness>
11.4303

> <Gold.Chemscore.DG>
-15.3848

> <Gold.Chemscore.ZeroCoef>
-5.4800

> <Gold.Chemscore.Hbond>
1.3034

> <Gold.Chemscore.Metal>
0.0000

> <Gold.Chemscore.Lipo>
81.9030

> <Gold.Chemscore.Internal_Hbond>
0.0000

> <Gold.Chemscore.DEClash>
3.1769

> <Gold.Chemscore.DEInternal>
0.7777

> <Gold.Chemscore.Rot>
1.5747

> <Gold.Chemscore.Internal.Correction>
   9.000000E+99

> <Gold.Chemscore.Hbonds>
donor molecule, donor type, donor heavy atom, donor atom, acceptor molecule, acceptor atom, score
      L1  H     3    22       P1  7957  0.60
      L1  H     9    48       P1 10186  0.29

> <Gold.Chemscore.Hbond.Weighted>
-4.3535

> <Gold.Chemscore.Metal.Weighted>
-0.0000

> <Gold.Chemscore.Lipo.Weighted>
-9.5826

> <Gold.Chemscore.Internal_Hbond.Weighted>
0.0000

> <Gold.Chemscore.DEClash.Weighted>
3.1769

> <Gold.Chemscore.DEInternal.Weighted>
0.7777

> <Gold.Chemscore.Rot.Weighted>
4.0313

> <Gold.Chemscore.Internal.Correction.Weighted>
   9.000000E+99

> <Gold.Protein.RotatedTorsions>
[ 6907 6896 6895 6894 ] final -170.42 input  -60.11 | X-H torsion
[ 7974 7965 7964 7962 ] final   64.86 input  175.53 | X-H torsion
[ 8008 7997 7996 7995 ] final  108.45 input   59.86 | X-H torsion
[ 10167 10162 10161 10158 ] final  138.68 input  -65.29 | X-H torsion
[ 10718 10713 10712 10709 ] final  121.86 input   66.30 | X-H torsion
[ 10763 10752 10751 10750 ] final  144.96 input  -60.55 | X-H torsion
[ 11005 11000 10999 10996 ] final -176.79 input  -57.11 | X-H torsion

> <Gold.Protein.ActiveResidues>
 VAL166  LYS551  ARG553  GLY616  TRP617  ASP618  TYR619  PRO620  LYS621  CYS622 
 ASP623  PHE694  ASN695  SER759  ASP760  ASP761  ALA762  ILE779  LEU786  VAL792 
 PHE793  MET794  SER795  GLU796  ALA797  LYS798  CYS799  TRP800  GLU811  SER814 

> <Gold.Protein.RotatedAtoms>
  151.5074  133.3492  159.2878 H   0  0  0  0  0  0  0  0  0  0  0  0  # atno 6907 bound_to 6896
  150.8734  134.8114  159.7183 H   0  0  0  0  0  0  0  0  0  0  0  0  # atno 6908 bound_to 6896
  152.4714  134.4961  159.9762 H   0  0  0  0  0  0  0  0  0  0  0  0  # atno 6909 bound_to 6896
  145.8452  139.3220  143.0908 H   0  0  0  0  0  0  0  0  0  0  0  0  # atno 7974 bound_to 7965
  156.1904  140.3076  155.9321 H   0  0  0  0  0  0  0  0  0  0  0  0  # atno 8008 bound_to 7997
  155.3186  140.0454  157.3055 H   0  0  0  0  0  0  0  0  0  0  0  0  # atno 8009 bound_to 7997
  154.5445  140.2272  155.8595 H   0  0  0  0  0  0  0  0  0  0  0  0  # atno 8010 bound_to 7997
  139.5103  144.6339  151.5747 H   0  0  0  0  0  0  0  0  0  0  0  0  # atno 10167 bound_to 10162
  157.5786  131.1077  150.8231 H   0  0  0  0  0  0  0  0  0  0  0  0  # atno 10718 bound_to 10713
  153.9974  135.2926  155.3406 H   0  0  0  0  0  0  0  0  0  0  0  0  # atno 10763 bound_to 10752
  154.7179  135.5122  153.8769 H   0  0  0  0  0  0  0  0  0  0  0  0  # atno 10764 bound_to 10752
  153.0781  135.6670  154.0220 H   0  0  0  0  0  0  0  0  0  0  0  0  # atno 10765 bound_to 10752
  140.4481  134.6369  157.4789 H   0  0  0  0  0  0  0  0  0  0  0  0  # atno 11005 bound_to 11000
  145.9420  140.8972  143.0303 LP  0  0  0  0  0  0  0  0  0  0  0  0  # atno 17320 bound_to 7965
  144.6731  140.1562  143.7426 LP  0  0  0  0  0  0  0  0  0  0  0  0  # atno 17321 bound_to 7965
  140.6081  143.9486  150.6433 LP  0  0  0  0  0  0  0  0  0  0  0  0  # atno 17342 bound_to 10162
  140.2720  143.3449  152.1229 LP  0  0  0  0  0  0  0  0  0  0  0  0  # atno 17343 bound_to 10162
  156.8683  130.5137  149.5298 LP  0  0  0  0  0  0  0  0  0  0  0  0  # atno 17370 bound_to 10713
  156.0831  130.5836  150.9599 LP  0  0  0  0  0  0  0  0  0  0  0  0  # atno 17371 bound_to 10713
  140.0025  134.6815  155.9508 LP  0  0  0  0  0  0  0  0  0  0  0  0  # atno 17394 bound_to 11000
  141.1676  133.6537  156.4535 LP  0  0  0  0  0  0  0  0  0  0  0  0  # atno 17395 bound_to 11000

$$$$
