AV-unprocessed.smi:1066|AV-procd|sdf|4669|dock8
  -GOLD-   22720 3183D 1   1.00000     0.00000
 Structure written by MMmdl.
 38 40  0  0  0  0  0  0  0  0  2 V2000
  149.7683  130.6071  154.5836 C   0  0  0  0  0  0  0  0  0  0  0  0
  150.1641  131.7385  155.4887 C   0  0  0  0  0  0  0  0  0  0  0  0
  150.6266  131.4624  156.7009 N   0  0  0  0  0  0  0  0  0  0  0  0
  150.8997  132.6927  157.3097 O   0  0  0  0  0  0  0  0  0  0  0  0
  150.5821  133.6556  156.4149 C   0  0  0  0  0  0  0  0  0  0  0  0
  150.7457  135.3302  156.7686 Cl  0  0  0  0  0  0  0  0  0  0  0  0
  150.1111  133.1422  155.2408 C   0  0  0  0  0  0  0  0  0  0  0  0
  149.6423  133.8623  154.0014 C   0  0  0  0  0  0  0  0  0  0  0  0
  148.1364  133.6635  153.8335 C   0  0  0  0  0  0  0  0  0  0  0  0
  147.5802  132.6957  154.3513 O   0  0  0  0  0  0  0  0  0  0  0  0
  147.4857  134.5932  153.1175 N   0  0  0  0  0  0  0  0  0  0  0  0
  146.0453  134.6110  152.8922 C   0  0  1  0  0  0  0  0  0  0  0  0
  145.5852  135.6235  151.8397 C   0  0  0  0  0  0  0  0  0  0  0  0
  144.3266  134.9935  151.2199 C   0  0  0  0  0  0  0  0  0  0  0  0
  144.2270  133.6156  151.7552 N   0  3  1  0  0  0  0  0  0  0  0  0
  143.7205  132.6230  150.7840 C   0  0  0  0  0  0  0  0  0  0  0  0
  144.8133  131.8361  150.1009 C   0  0  0  0  0  0  0  0  0  0  0  0
  144.0887  132.9342  149.3532 C   0  0  0  0  0  0  0  0  0  0  0  0
  145.5469  133.2867  152.3217 C   0  0  0  0  0  0  0  0  0  0  0  0
  149.3425  130.9715  153.6490 H   0  0  0  0  0  0  0  0  0  0  0  0
  149.0213  129.9693  155.0568 H   0  0  0  0  0  0  0  0  0  0  0  0
  150.6285  129.9854  154.3350 H   0  0  0  0  0  0  0  0  0  0  0  0
  149.8566  134.9305  154.0512 H   0  0  0  0  0  0  0  0  0  0  0  0
  150.1552  133.4949  153.1120 H   0  0  0  0  0  0  0  0  0  0  0  0
  148.0244  135.3523  152.7253 H   0  0  0  0  0  0  0  0  0  0  0  0
  145.5277  134.8056  153.8339 H   0  0  0  0  0  0  0  0  0  0  0  0
  145.3914  136.6065  152.2701 H   0  0  0  0  0  0  0  0  0  0  0  0
  146.3480  135.7455  151.0688 H   0  0  0  0  0  0  0  0  0  0  0  0
  143.4265  135.5490  151.4846 H   0  0  0  0  0  0  0  0  0  0  0  0
  144.4069  134.9908  150.1317 H   0  0  0  0  0  0  0  0  0  0  0  0
  142.7679  132.1525  151.0217 H   0  0  0  0  0  0  0  0  0  0  0  0
  145.8446  132.0239  150.3946 H   0  0  0  0  0  0  0  0  0  0  0  0
  144.5907  130.8094  149.8171 H   0  0  0  0  0  0  0  0  0  0  0  0
  143.3891  132.6298  148.5773 H   0  0  0  0  0  0  0  0  0  0  0  0
  144.6391  133.8513  149.1497 H   0  0  0  0  0  0  0  0  0  0  0  0
  146.2114  132.9361  151.5292 H   0  0  0  0  0  0  0  0  0  0  0  0
  145.4751  132.5042  153.0781 H   0  0  0  0  0  0  0  0  0  0  0  0
  143.5808  133.6521  152.5307 H   0  0  0  0  0  0  0  0  0  0  0  0
  1  2  1  0  0  0  0
  1 20  1  0  0  0  0
  1 21  1  0  0  0  0
  1 22  1  0  0  0  0
  2  7  1  0  0  0  0
  2  3  2  0  0  0  0
  3  4  1  0  0  0  0
  4  5  1  0  0  0  0
  5  6  1  0  0  0  0
  5  7  2  0  0  0  0
  7  8  1  0  0  0  0
  8  9  1  0  0  0  0
  8 23  1  0  0  0  0
  8 24  1  0  0  0  0
  9 10  2  0  0  0  0
  9 11  1  0  0  0  0
 11 12  1  0  0  0  0
 11 25  1  0  0  0  0
 12 19  1  0  0  0  0
 12 13  1  0  0  0  0
 12 26  1  0  0  0  0
 13 14  1  0  0  0  0
 13 27  1  0  0  0  0
 13 28  1  0  0  0  0
 14 15  1  0  0  0  0
 14 29  1  0  0  0  0
 14 30  1  0  0  0  0
 15 16  1  0  0  0  0
 15 19  1  0  0  0  0
 15 38  1  0  0  0  0
 16 18  1  0  0  0  0
 16 17  1  0  0  0  0
 16 31  1  0  0  0  0
 17 18  1  0  0  0  0
 17 32  1  0  0  0  0
 17 33  1  0  0  0  0
 18 34  1  0  0  0  0
 18 35  1  0  0  0  0
 19 36  1  0  0  0  0
 19 37  1  0  0  0  0
M  CHG  1  15   1
M  END
> <s_m_source_file>
AV-unprocessed.smi

> <i_m_source_file_index>
1066

> <i_lp_mmshare_version>
43012

> <i_f3d_flags>
0

> <s_epik_input>
W0NIM11jMW5vYyhDbCljMVtDSDJdQyg9TylbTkhdW0NAQEhdMltDSDJdW0NIMl1OKFtDSDJdMilbQ0hdM1tDSDJdW0NIMl0z

> <s_epik_cmdline>
J2VwaWtfcHl0aG9uJywgJy1waCcsICc3LjAnLCAnLXRuJywgJzgnLCAnLW1hJywgJzIwMCcsICctbWV0YWxfYmluZGluZycsICctaW1hZScsICc8aW5maWxlLm1hZT4nLCAnLW9tYWUnLCAnPG91dGZpbGUubWFlPic=

> <r_epik_Ionization_Penalty>
0.00108138

> <r_epik_Ionization_Penalty_Charging>
0.00108128

> <r_epik_Ionization_Penalty_Neutral>
9.66632e-08

> <r_epik_State_Penalty>
0.000708577

> <r_epik_Charging_Adjusted_Penalty>
0.00178986

> <i_epik_Tot_Q>
1

> <i_epik_Tot_abs_Q>
1

> <r_epik_Metal_State_Penalty>
-0

> <b_epik_Metal_Only>
0

> <s_lp_Force_Field>
OPLS_2005

> <r_lp_Energy>
30.6816

> <b_lp_Chiralities_Consistent>
1

> <s_lp_Variant>
AV-unprocessed.smi:1066-2

> <Gold.Version>
5.8.1

> <Gold.Id.Protein>
6NUR|6NUR_protein|mol2

> <Gold.PLP.Fitness>
37.4484

> <Gold.PLP.PLP>
-32.8572

> <Gold.PLP.part.hbond>
-1.9582

> <Gold.PLP.part.metal>
0.0000

> <Gold.PLP.part.buried>
-4.7945

> <Gold.PLP.part.nonpolar>
-26.6400

> <Gold.PLP.part.repulsive>
0.0337

> <Gold.PLP.ligand.clash>
0.0000

> <Gold.PLP.ligand.torsion>
1.3377

> <Gold.PLP.Chemscore.Hbond>
2.0000

> <Gold.PLP.Chemscore.CHOScore>
0.0000

> <Gold.PLP.Chemscore.Metal>
0.0000

> <Gold.Chemscore.Hbonds>
donor molecule, donor type, donor heavy atom, donor atom, acceptor molecule, acceptor atom, score
      L1  H    11    25       P1  7948  0.98
      P1  H  6896  6909       L1     4  0.91

> <Gold.PLP.Chemscore.Internal.Correction>
1.2667

> <Gold.Rescore>
     Score         DG    S(hbond)    S(metal)    S(lipo)     H(rot)  DE(clash)    DE(int)     intcor
     14.45     -17.20       1.94        0.00      79.13       1.57       0.02       2.73       ----

> <Gold.Chemscore.Fitness>
14.4514

> <Gold.Chemscore.DG>
-17.2040

> <Gold.Chemscore.ZeroCoef>
-5.4800

> <Gold.Chemscore.Hbond>
1.9424

> <Gold.Chemscore.Metal>
0.0000

> <Gold.Chemscore.Lipo>
79.1336

> <Gold.Chemscore.Internal_Hbond>
0.0000

> <Gold.Chemscore.DEClash>
0.0217

> <Gold.Chemscore.DEInternal>
2.7309

> <Gold.Chemscore.Rot>
1.5711

> <Gold.Chemscore.Internal.Correction>
   9.000000E+99

> <Gold.Chemscore.Hbonds>
donor molecule, donor type, donor heavy atom, donor atom, acceptor molecule, acceptor atom, score
      L1  H    11    25       P1  7948  0.91
      P1  H  6896  6909       L1     4  0.80

> <Gold.Chemscore.Hbond.Weighted>
-6.4875

> <Gold.Chemscore.Metal.Weighted>
-0.0000

> <Gold.Chemscore.Lipo.Weighted>
-9.2586

> <Gold.Chemscore.Internal_Hbond.Weighted>
0.0000

> <Gold.Chemscore.DEClash.Weighted>
0.0217

> <Gold.Chemscore.DEInternal.Weighted>
2.7309

> <Gold.Chemscore.Rot.Weighted>
4.0221

> <Gold.Chemscore.Internal.Correction.Weighted>
   9.000000E+99

> <Gold.Protein.RotatedTorsions>
[ 6907 6896 6895 6894 ] final  -41.98 input  -60.11 | X-H torsion
[ 7974 7965 7964 7962 ] final -142.77 input  175.53 | X-H torsion
[ 8008 7997 7996 7995 ] final   32.68 input   59.86 | X-H torsion
[ 10167 10162 10161 10158 ] final -177.59 input  -65.29 | X-H torsion
[ 10718 10713 10712 10709 ] final  -48.83 input   66.30 | X-H torsion
[ 10763 10752 10751 10750 ] final  127.58 input  -60.55 | X-H torsion
[ 11005 11000 10999 10996 ] final -132.69 input  -57.11 | X-H torsion

> <Gold.Protein.ActiveResidues>
 VAL166  LYS551  ARG553  GLY616  TRP617  ASP618  TYR619  PRO620  LYS621  CYS622 
 ASP623  PHE694  ASN695  SER759  ASP760  ASP761  ALA762  ILE779  LEU786  VAL792 
 PHE793  MET794  SER795  GLU796  ALA797  LYS798  CYS799  TRP800  GLU811  SER814 

> <Gold.Protein.RotatedAtoms>
  150.9605  134.8993  159.7727 H   0  0  0  0  0  0  0  0  0  0  0  0  # atno 6907 bound_to 6896
  152.5154  134.3680  159.9318 H   0  0  0  0  0  0  0  0  0  0  0  0  # atno 6908 bound_to 6896
  151.3692  133.3820  159.2732 H   0  0  0  0  0  0  0  0  0  0  0  0  # atno 6909 bound_to 6896
  144.8419  140.5917  143.5447 H   0  0  0  0  0  0  0  0  0  0  0  0  # atno 7974 bound_to 7965
  155.1263  140.3253  155.4485 H   0  0  0  0  0  0  0  0  0  0  0  0  # atno 8008 bound_to 7997
  156.2648  140.2018  156.6332 H   0  0  0  0  0  0  0  0  0  0  0  0  # atno 8009 bound_to 7997
  154.6646  140.0543  157.0086 H   0  0  0  0  0  0  0  0  0  0  0  0  # atno 8010 bound_to 7997
  139.5473  144.2203  152.1011 H   0  0  0  0  0  0  0  0  0  0  0  0  # atno 10167 bound_to 10162
  156.1950  130.4154  149.9319 H   0  0  0  0  0  0  0  0  0  0  0  0  # atno 10718 bound_to 10713
  153.7117  135.3267  155.3248 H   0  0  0  0  0  0  0  0  0  0  0  0  # atno 10763 bound_to 10752
  154.8383  135.4478  154.1307 H   0  0  0  0  0  0  0  0  0  0  0  0  # atno 10764 bound_to 10752
  153.2402  135.6970  153.7870 H   0  0  0  0  0  0  0  0  0  0  0  0  # atno 10765 bound_to 10752
  140.9148  134.1521  157.4361 H   0  0  0  0  0  0  0  0  0  0  0  0  # atno 11005 bound_to 11000
  145.4677  139.1506  143.3831 LP  0  0  0  0  0  0  0  0  0  0  0  0  # atno 17320 bound_to 7965
  146.2710  140.4809  142.8814 LP  0  0  0  0  0  0  0  0  0  0  0  0  # atno 17321 bound_to 7965
  140.1691  144.4952  150.6589 LP  0  0  0  0  0  0  0  0  0  0  0  0  # atno 17342 bound_to 10162
  140.6725  143.2291  151.5590 LP  0  0  0  0  0  0  0  0  0  0  0  0  # atno 17343 bound_to 10162
  156.7047  130.8946  151.3603 LP  0  0  0  0  0  0  0  0  0  0  0  0  # atno 17370 bound_to 10713
  157.6952  130.9274  150.0625 LP  0  0  0  0  0  0  0  0  0  0  0  0  # atno 17371 bound_to 10713
  139.8764  134.9949  156.5718 LP  0  0  0  0  0  0  0  0  0  0  0  0  # atno 17394 bound_to 11000
  140.8064  133.8464  155.8771 LP  0  0  0  0  0  0  0  0  0  0  0  0  # atno 17395 bound_to 11000

$$$$
