AV-unprocessed.smi:2999|AV-procd|sdf|11428|dock6
  -GOLD-   2272016353D 1   1.00000     0.00000
 Structure written by MMmdl.
 37 39  0  0  0  0  0  0  0  0  3 V2000
  148.8535  134.6129  158.7635 O   0  0  0  0  0  0  0  0  0  0  0  0
  148.3547  135.7171  158.5354 C   0  0  0  0  0  0  0  0  0  0  0  0
  148.6544  136.3625  157.4019 N   0  0  0  0  0  0  0  0  0  0  0  0
  149.5581  135.8733  156.3687 C   0  0  0  0  0  0  0  0  0  0  0  0
  149.5683  136.8122  155.1533 C   0  0  1  0  0  0  0  0  0  0  0  0
  148.1716  137.3777  154.8174 C   0  0  0  0  0  0  0  0  0  0  0  0
  148.2592  138.3306  153.6882 N   0  3  1  0  0  0  0  0  0  0  0  0
  146.9379  138.8680  153.2987 C   0  0  0  0  0  0  0  0  0  0  0  0
  146.1839  137.9824  152.3345 C   0  0  0  0  0  0  0  0  0  0  0  0
  146.8438  139.2507  151.8402 C   0  0  0  0  0  0  0  0  0  0  0  0
  149.2409  139.3984  153.9821 C   0  0  0  0  0  0  0  0  0  0  0  0
  150.6017  138.7829  154.3445 C   0  0  0  0  0  0  0  0  0  0  0  0
  150.4446  137.8966  155.4460 O   0  0  0  0  0  0  0  0  0  0  0  0
  147.4975  136.3931  159.3327 N   0  5  0  0  0  0  0  0  0  0  0  0
  147.3627  136.0429  160.6224 C   0  0  0  0  0  0  0  0  0  0  0  0
  147.4669  136.9170  161.6300 N   0  0  0  0  0  0  0  0  0  0  0  0
  147.2946  136.3369  162.8882 C   0  0  0  0  0  0  0  0  0  0  0  0
  147.0638  134.9878  162.8378 C   0  0  0  0  0  0  0  0  0  0  0  0
  147.0558  134.4019  161.1989 S   0  0  0  0  0  0  0  0  0  0  0  0
  148.2184  137.2602  157.2504 H   0  0  0  0  0  0  0  0  0  0  0  0
  150.5678  135.7754  156.7714 H   0  0  0  0  0  0  0  0  0  0  0  0
  149.2357  134.8759  156.0664 H   0  0  0  0  0  0  0  0  0  0  0  0
  149.9593  136.2655  154.2928 H   0  0  0  0  0  0  0  0  0  0  0  0
  147.4886  136.5698  154.5524 H   0  0  0  0  0  0  0  0  0  0  0  0
  147.7482  137.8807  155.6886 H   0  0  0  0  0  0  0  0  0  0  0  0
  146.4052  139.4411  154.0558 H   0  0  0  0  0  0  0  0  0  0  0  0
  146.6347  137.0352  152.0429 H   0  0  0  0  0  0  0  0  0  0  0  0
  145.0977  137.9793  152.4002 H   0  0  0  0  0  0  0  0  0  0  0  0
  146.1916  140.0820  151.5802 H   0  0  0  0  0  0  0  0  0  0  0  0
  147.7327  139.1456  151.2208 H   0  0  0  0  0  0  0  0  0  0  0  0
  149.3476  140.0518  153.1156 H   0  0  0  0  0  0  0  0  0  0  0  0
  148.8773  140.0142  154.8064 H   0  0  0  0  0  0  0  0  0  0  0  0
  151.0303  138.2526  153.4923 H   0  0  0  0  0  0  0  0  0  0  0  0
  151.3074  139.5669  154.6193 H   0  0  0  0  0  0  0  0  0  0  0  0
  147.3535  136.9604  163.7679 H   0  0  0  0  0  0  0  0  0  0  0  0
  146.8995  134.3066  163.6586 H   0  0  0  0  0  0  0  0  0  0  0  0
  148.6129  137.8138  152.8957 H   0  0  0  0  0  0  0  0  0  0  0  0
  1  2  2  0  0  0  0
  2  3  1  0  0  0  0
  2 14  1  0  0  0  0
  3  4  1  0  0  0  0
  3 20  1  0  0  0  0
  4  5  1  0  0  0  0
  4 21  1  0  0  0  0
  4 22  1  0  0  0  0
  5 13  1  0  0  0  0
  5  6  1  0  0  0  0
  5 23  1  0  0  0  0
  6  7  1  0  0  0  0
  6 24  1  0  0  0  0
  6 25  1  0  0  0  0
  7  8  1  0  0  0  0
  7 11  1  0  0  0  0
  7 37  1  0  0  0  0
  8 10  1  0  0  0  0
  8  9  1  0  0  0  0
  8 26  1  0  0  0  0
  9 10  1  0  0  0  0
  9 27  1  0  0  0  0
  9 28  1  0  0  0  0
 10 29  1  0  0  0  0
 10 30  1  0  0  0  0
 11 12  1  0  0  0  0
 11 31  1  0  0  0  0
 11 32  1  0  0  0  0
 12 13  1  0  0  0  0
 12 33  1  0  0  0  0
 12 34  1  0  0  0  0
 14 15  1  0  0  0  0
 15 19  1  0  0  0  0
 15 16  2  0  0  0  0
 16 17  1  0  0  0  0
 17 18  2  0  0  0  0
 17 35  1  0  0  0  0
 18 19  1  0  0  0  0
 18 36  1  0  0  0  0
M  CHG  1   7   1
M  CHG  1  14  -1
M  END
> <s_m_source_file>
AV-unprocessed.smi

> <i_m_source_file_index>
2999

> <i_lp_mmshare_version>
43012

> <i_f3d_flags>
0

> <s_epik_input>
czFbY0hdW2NIXW5jMVtOSF1DKD1PKVtOSF1bQ0gyXVtDQEBIXTJbQ0gyXU4oW0NIMl1bQ0gyXU8yKVtDSF0zW0NIMl1bQ0gyXTM=

> <s_epik_cmdline>
J2VwaWtfcHl0aG9uJywgJy1waCcsICc3LjAnLCAnLXRuJywgJzgnLCAnLW1hJywgJzIwMCcsICctbWV0YWxfYmluZGluZycsICctaW1hZScsICc8aW5maWxlLm1hZT4nLCAnLW9tYWUnLCAnPG91dGZpbGUubWFlPic=

> <r_lp_tautomer_probability>
0.999

> <r_epik_Ionization_Penalty>
7.79196

> <r_epik_Ionization_Penalty_Charging>
6.93299

> <r_epik_Ionization_Penalty_Neutral>
0.858963

> <r_epik_State_Penalty>
7.05108

> <r_epik_Charging_Adjusted_Penalty>
13.9841

> <i_epik_Tot_Q>
0

> <i_epik_Tot_abs_Q>
2

> <r_epik_Metal_State_Penalty>
3.05936

> <b_epik_Metal_Only>
1

> <s_lp_Force_Field>
OPLS_2005

> <r_lp_Energy>
14.293

> <b_lp_Chiralities_Consistent>
1

> <s_lp_Variant>
AV-unprocessed.smi:2999-12

> <Gold.Version>
5.8.1

> <Gold.Id.Protein>
6NUR|6NUR_protein|mol2

> <Gold.PLP.Fitness>
45.4611

> <Gold.PLP.PLP>
-32.7516

> <Gold.PLP.part.hbond>
-4.1159

> <Gold.PLP.part.metal>
0.0000

> <Gold.PLP.part.buried>
0.7933

> <Gold.PLP.part.nonpolar>
-29.2886

> <Gold.PLP.part.repulsive>
0.1130

> <Gold.PLP.ligand.clash>
0.0000

> <Gold.PLP.ligand.torsion>
1.3725

> <Gold.PLP.Chemscore.Hbond>
4.7200

> <Gold.PLP.Chemscore.CHOScore>
0.0000

> <Gold.PLP.Chemscore.Metal>
0.0000

> <Gold.Chemscore.Hbonds>
donor molecule, donor type, donor heavy atom, donor atom, acceptor molecule, acceptor atom, score
      L1  H     7    37       P1  7948  2.00
      P1  H  6896  6909       L1     1  1.00
      P1  H  6931  6943       L1    16  0.89
      P1  H  6934  6947       L1    16  0.44

> <Gold.PLP.Chemscore.Internal.Correction>
1.2945

> <Gold.Rescore>
     Score         DG    S(hbond)    S(metal)    S(lipo)     H(rot)  DE(clash)    DE(int)     intcor
     18.12     -19.88       2.93        0.00      73.33       1.55       0.29       1.46       ----

> <Gold.Chemscore.Fitness>
18.1223

> <Gold.Chemscore.DG>
-19.8776

> <Gold.Chemscore.ZeroCoef>
-5.4800

> <Gold.Chemscore.Hbond>
2.9301

> <Gold.Chemscore.Metal>
0.0000

> <Gold.Chemscore.Lipo>
73.3344

> <Gold.Chemscore.Internal_Hbond>
0.0000

> <Gold.Chemscore.DEClash>
0.2914

> <Gold.Chemscore.DEInternal>
1.4639

> <Gold.Chemscore.Rot>
1.5504

> <Gold.Chemscore.Internal.Correction>
   9.000000E+99

> <Gold.Chemscore.Hbonds>
donor molecule, donor type, donor heavy atom, donor atom, acceptor molecule, acceptor atom, score
      L1  H     7    37       P1  7948  0.98
      P1  H  6896  6909       L1     1  0.99
      P1  H  6931  6943       L1    16  0.38
      P1  H  6934  6947       L1    16  0.35

> <Gold.Chemscore.Hbond.Weighted>
-9.7865

> <Gold.Chemscore.Metal.Weighted>
-0.0000

> <Gold.Chemscore.Lipo.Weighted>
-8.5801

> <Gold.Chemscore.Internal_Hbond.Weighted>
0.0000

> <Gold.Chemscore.DEClash.Weighted>
0.2914

> <Gold.Chemscore.DEInternal.Weighted>
1.4639

> <Gold.Chemscore.Rot.Weighted>
3.9690

> <Gold.Chemscore.Internal.Correction.Weighted>
   9.000000E+99

> <Gold.Protein.RotatedTorsions>
[ 6907 6896 6895 6894 ] final   34.43 input  -60.11 | X-H torsion
[ 7974 7965 7964 7962 ] final -134.15 input  175.53 | X-H torsion
[ 8008 7997 7996 7995 ] final -144.15 input   59.86 | X-H torsion
[ 10167 10162 10161 10158 ] final  167.00 input  -65.29 | X-H torsion
[ 10718 10713 10712 10709 ] final  -84.18 input   66.30 | X-H torsion
[ 10763 10752 10751 10750 ] final   66.61 input  -60.55 | X-H torsion
[ 11005 11000 10999 10996 ] final   97.58 input  -57.11 | X-H torsion

> <Gold.Protein.ActiveResidues>
 VAL166  LYS551  ARG553  GLY616  TRP617  ASP618  TYR619  PRO620  LYS621  CYS622 
 ASP623  PHE694  ASN695  SER759  ASP760  ASP761  ALA762  ILE779  LEU786  VAL792 
 PHE793  MET794  SER795  GLU796  ALA797  LYS798  CYS799  TRP800  GLU811  SER814 

> <Gold.Protein.RotatedAtoms>
  152.1022  134.9333  160.0569 H   0  0  0  0  0  0  0  0  0  0  0  0  # atno 6907 bound_to 6896
  152.0543  133.4028  159.4399 H   0  0  0  0  0  0  0  0  0  0  0  0  # atno 6908 bound_to 6896
  150.6840  134.3193  159.4823 H   0  0  0  0  0  0  0  0  0  0  0  0  # atno 6909 bound_to 6896
  144.9129  140.6917  143.5014 H   0  0  0  0  0  0  0  0  0  0  0  0  # atno 7974 bound_to 7965
  155.5222  140.0592  157.2904 H   0  0  0  0  0  0  0  0  0  0  0  0  # atno 8008 bound_to 7997
  154.4513  140.1950  156.0455 H   0  0  0  0  0  0  0  0  0  0  0  0  # atno 8009 bound_to 7997
  156.0711  140.3260  155.7581 H   0  0  0  0  0  0  0  0  0  0  0  0  # atno 8010 bound_to 7997
  139.4936  144.3968  151.9455 H   0  0  0  0  0  0  0  0  0  0  0  0  # atno 10167 bound_to 10162
  156.0009  130.4689  150.4370 H   0  0  0  0  0  0  0  0  0  0  0  0  # atno 10718 bound_to 10713
  153.0148  135.5314  154.6851 H   0  0  0  0  0  0  0  0  0  0  0  0  # atno 10763 bound_to 10752
  154.6001  135.2867  155.0547 H   0  0  0  0  0  0  0  0  0  0  0  0  # atno 10764 bound_to 10752
  154.1607  135.6548  153.5038 H   0  0  0  0  0  0  0  0  0  0  0  0  # atno 10765 bound_to 10752
  139.8775  134.9008  156.4328 H   0  0  0  0  0  0  0  0  0  0  0  0  # atno 11005 bound_to 11000
  145.3425  139.1728  143.4478 LP  0  0  0  0  0  0  0  0  0  0  0  0  # atno 17320 bound_to 7965
  146.3167  140.3467  142.8652 LP  0  0  0  0  0  0  0  0  0  0  0  0  # atno 17321 bound_to 7965
  140.3406  144.3208  150.5968 LP  0  0  0  0  0  0  0  0  0  0  0  0  # atno 17342 bound_to 10162
  140.5569  143.2198  151.7832 LP  0  0  0  0  0  0  0  0  0  0  0  0  # atno 17343 bound_to 10162
  157.2414  131.0526  151.2434 LP  0  0  0  0  0  0  0  0  0  0  0  0  # atno 17370 bound_to 10713
  157.3616  130.7134  149.6506 LP  0  0  0  0  0  0  0  0  0  0  0  0  # atno 17371 bound_to 10713
  140.9054  133.7749  155.9729 LP  0  0  0  0  0  0  0  0  0  0  0  0  # atno 17394 bound_to 11000
  140.8605  134.2847  157.5236 LP  0  0  0  0  0  0  0  0  0  0  0  0  # atno 17395 bound_to 11000

$$$$
