#       Name:                AV-unprocessed.smi:2061
#       Creating user name   scv26
#       Creation time:       Fri Mar 27 11:05:25 2020


#       File generated by GOLD software.
#

@<TRIPOS>MOLECULE
AV-unprocessed.smi:2061
    53    54     1
SMALL
NO_CHARGES


@<TRIPOS>ATOM
      1 ****        -4.3385   6.0128   3.2339 C.3            1 S1                 0.0000
      2 ****        -4.1333   5.0097   2.1508 C.2            1 S1                 0.0000
      3 ****        -3.0129   4.4560   1.5994 C.2            1 S1                 0.0000
      4 ****        -3.5371   3.5731   0.6158 C.2            1 S1                 0.0000
      5 ****        -2.8201   2.8040  -0.2178 N.pl3          1 S1                -1.0000
      6 ****        -2.3367   1.6109   0.1986 C.2            1 S1                 0.0000
      7 ****        -2.4813   1.1147   1.3181 O.2            1 S1                 0.0000
      8 ****        -1.6334   0.9612  -0.7408 N.am           1 S1                 0.0000
      9 ****        -0.9749  -0.3362  -0.5984 C.3            1 S1                 0.0000
     10 ****         0.5761  -0.2373  -0.6590 C.3            1 S1                 0.0000
     11 ****         1.0642   0.7222   0.4568 C.3            1 S1                 0.0000
     12 ****         1.2510  -1.5573  -0.6150 N.3            1 S1                 0.0000
     13 ****         2.7103  -1.4456  -0.6978 C.3            1 S1                 0.0000
     14 ****         3.4223  -2.8091  -0.6368 C.3            1 S1                 0.0000
     15 ****         4.9385  -2.6736  -0.8131 C.3            1 S1                 0.0000
     16 ****         2.9329  -3.6501  -1.6755 O.3            1 S1                 0.0000
     17 ****         1.5183  -3.8251  -1.6823 C.3            1 S1                 0.0000
     18 ****         1.0484  -4.7535  -0.5491 C.3            1 S1                 0.0000
     19 ****         0.8066  -2.4574  -1.6857 C.3            1 S1                 0.0000
     20 ****        -4.8582   3.5997   0.5651 N.2            1 S1                 0.0000
     21 ****        -5.2487   4.5151   1.5499 O.3            1 S1                 0.0000
     22 ****        -4.0403   7.0063   2.8992 H              1 S1                 0.0000
     23 ****        -3.7453   5.7592   4.1124 H              1 S1                 0.0000
     24 ****        -5.3853   6.0570   3.5356 H              1 S1                 0.0000
     25 ****        -1.9828   4.6487   1.8585 H              1 S1                 0.0000
     26 ****        -1.5463   1.4136  -1.6389 H              1 S1                 0.0000
     27 ****        -1.2830  -0.8505   0.3134 H              1 S1                 0.0000
     28 ****        -1.3666  -0.9235  -1.4261 H              1 S1                 0.0000
     29 ****         0.8251   0.2336  -1.6113 H              1 S1                 0.0000
     30 ****         0.5445   1.6790   0.4385 H              1 S1                 0.0000
     31 ****         2.1174   0.9784   0.3567 H              1 S1                 0.0000
     32 ****         0.9123   0.2867   1.4448 H              1 S1                 0.0000
     33 ****         2.9880  -0.9265  -1.6166 H              1 S1                 0.0000
     34 ****         3.0973  -0.8537   0.1292 H              1 S1                 0.0000
     35 ****         3.2322  -3.2761   0.3300 H              1 S1                 0.0000
     36 ****         5.3709  -2.0514  -0.0290 H              1 S1                 0.0000
     37 ****         5.1854  -2.2213  -1.7739 H              1 S1                 0.0000
     38 ****         5.4247  -3.6486  -0.7691 H              1 S1                 0.0000
     39 ****         1.2791  -4.3266  -2.6205 H              1 S1                 0.0000
     40 ****        -0.0154  -4.9720  -0.6444 H              1 S1                 0.0000
     41 ****         1.2007  -4.3104   0.4348 H              1 S1                 0.0000
     42 ****         1.5841  -5.7026  -0.5762 H              1 S1                 0.0000
     43 ****        -0.2606  -2.6555  -1.6113 H              1 S1                 0.0000
     44 ****         0.9693  -1.9766  -2.6515 H              1 S1                 0.0000
     45 ****        -2.6421   3.1142  -1.1517 LP             1 S1                 0.0000
     46 ****        -2.9986   1.6051   2.0193 LP             1 S1                 0.0000
     47 ****        -2.0812   0.2218   1.5247 LP             1 S1                 0.0000
     48 ****         0.9927  -1.9409   0.2716 LP             1 S1                 0.0000
     49 ****         3.3578  -4.5497  -1.5743 LP             1 S1                 0.0000
     50 ****         3.2018  -3.2512  -2.5522 LP             1 S1                 0.0000
     51 ****        -5.4521   3.0771  -0.0466 LP             1 S1                 0.0000
     52 ****        -5.7642   5.2620   1.1299 LP             1 S1                 0.0000
     53 ****        -5.8212   4.0554   2.2288 LP             1 S1                 0.0000
@<TRIPOS>BOND
    1    1    2 1     
    2    1   22 1     
    3    1   23 1     
    4    1   24 1     
    5    2   21 1     
    6    2    3 2     
    7    3    4 1     
    8    3   25 1     
    9    4    5 1     
   10    4   20 2     
   11    5    6 1     
   12    6    7 2     
   13    6    8 am    
   14    8    9 1     
   15    8   26 1     
   16    9   10 1     
   17    9   27 1     
   18    9   28 1     
   19   10   11 1     
   20   10   12 1     
   21   10   29 1     
   22   11   30 1     
   23   11   31 1     
   24   11   32 1     
   25   12   19 1     
   26   12   13 1     
   27   13   14 1     
   28   13   33 1     
   29   13   34 1     
   30   14   15 1     
   31   14   16 1     
   32   14   35 1     
   33   15   36 1     
   34   15   37 1     
   35   15   38 1     
   36   16   17 1     
   37   17   18 1     
   38   17   19 1     
   39   17   39 1     
   40   18   40 1     
   41   18   41 1     
   42   18   42 1     
   43   19   43 1     
   44   19   44 1     
   45   20   21 1     
   46    5   45 1     
   47    7   46 1     
   48    7   47 1     
   49   12   48 1     
   50   16   49 1     
   51   16   50 1     
   52   20   51 1     
   53   21   52 1     
   54   21   53 1     
@<TRIPOS>SUBSTRUCTURE
      1 S1             1
@<TRIPOS>SET
LONE_PAIRS      STATIC     ATOMS    <user>   **** ""
9 45 46 47 48 49 50 51 52 53
DONOR_HYDROGENS      STATIC     ATOMS    <user>   **** ""
1 26
ATOM$BLUE        STATIC     ATOMS    COLORGROUP SYSTEM
9 45 46 47 48 49 50 51 52 53
ATOM$RED        STATIC     ATOMS    COLORGROUP SYSTEM
1 26
