AV-unprocessed.smi:2395|AV-procd|sdf|9491|dock10
  -GOLD-   2272013123D 1   1.00000     0.00000
 Structure written by MMmdl.
 39 40  0  0  0  0  0  0  0  0  1 V2000
  146.5754  142.0778  153.9806 C   0  0  0  0  0  0  0  0  0  0  0  0
  147.7830  141.2302  154.2613 C   0  0  0  0  0  0  0  0  0  0  0  0
  148.8147  141.7635  154.8934 N   0  0  0  0  0  0  0  0  0  0  0  0
  149.7127  140.7620  154.9976 N   0  0  0  0  0  0  0  0  0  0  0  0
  150.9839  141.0166  155.6612 C   0  0  0  0  0  0  0  0  0  0  0  0
  150.8113  141.5126  157.1020 C   0  0  0  0  0  0  0  0  0  0  0  0
  151.1431  140.8116  158.0593 O   0  0  0  0  0  0  0  0  0  0  0  0
  150.2880  142.7401  157.2387 N   0  0  0  0  0  0  0  0  0  0  0  0
  150.0620  143.4159  158.5094 C   0  0  0  0  0  0  0  0  0  0  0  0
  151.3141  143.9479  159.1802 C   0  0  0  0  0  0  0  0  0  0  0  0
  152.3728  144.6571  158.3692 C   0  0  0  0  0  0  0  0  0  0  0  0
  152.6568  143.2939  158.9540 C   0  0  0  0  0  0  0  0  0  0  0  0
  149.2462  139.5936  154.4213 C   0  0  0  0  0  0  0  0  0  0  0  0
  150.0478  138.3311  154.4072 C   0  0  0  0  0  0  0  0  0  0  0  0
  147.9971  139.8609  153.9284 C   0  0  0  0  0  0  0  0  0  0  0  0
  147.0509  138.9367  153.2090 C   0  0  0  0  0  0  0  0  0  0  0  0
  146.8020  139.4007  151.7680 C   0  0  0  0  0  0  0  0  0  0  0  0
  146.4980  138.2912  150.9506 O   0  0  0  0  0  0  0  0  0  0  0  0
  145.6569  141.5031  154.1015 H   0  0  0  0  0  0  0  0  0  0  0  0
  146.5968  142.4590  152.9597 H   0  0  0  0  0  0  0  0  0  0  0  0
  146.5184  142.9329  154.6551 H   0  0  0  0  0  0  0  0  0  0  0  0
  151.5699  140.0967  155.6504 H   0  0  0  0  0  0  0  0  0  0  0  0
  151.5474  141.7591  155.0941 H   0  0  0  0  0  0  0  0  0  0  0  0
  150.0386  143.2466  156.4015 H   0  0  0  0  0  0  0  0  0  0  0  0
  149.3711  144.2412  158.3348 H   0  0  0  0  0  0  0  0  0  0  0  0
  149.5573  142.7379  159.1995 H   0  0  0  0  0  0  0  0  0  0  0  0
  151.1409  144.3543  160.1752 H   0  0  0  0  0  0  0  0  0  0  0  0
  152.2303  144.7202  157.2922 H   0  0  0  0  0  0  0  0  0  0  0  0
  152.8649  145.5136  158.8255 H   0  0  0  0  0  0  0  0  0  0  0  0
  153.3382  143.2413  159.8008 H   0  0  0  0  0  0  0  0  0  0  0  0
  152.7016  142.4514  158.2666 H   0  0  0  0  0  0  0  0  0  0  0  0
  149.5041  137.5219  153.9201 H   0  0  0  0  0  0  0  0  0  0  0  0
  150.2809  138.0085  155.4220 H   0  0  0  0  0  0  0  0  0  0  0  0
  150.9867  138.4725  153.8721 H   0  0  0  0  0  0  0  0  0  0  0  0
  147.4457  137.9200  153.1959 H   0  0  0  0  0  0  0  0  0  0  0  0
  146.0995  138.8724  153.7382 H   0  0  0  0  0  0  0  0  0  0  0  0
  145.9734  140.1086  151.7285 H   0  0  0  0  0  0  0  0  0  0  0  0
  147.6827  139.9049  151.3689 H   0  0  0  0  0  0  0  0  0  0  0  0
  145.7865  138.5283  150.3757 H   0  0  0  0  0  0  0  0  0  0  0  0
  1  2  1  0  0  0  0
  1 19  1  0  0  0  0
  1 20  1  0  0  0  0
  1 21  1  0  0  0  0
  2 15  1  0  0  0  0
  2  3  2  0  0  0  0
  3  4  1  0  0  0  0
  4  5  1  0  0  0  0
  4 13  1  0  0  0  0
  5  6  1  0  0  0  0
  5 22  1  0  0  0  0
  5 23  1  0  0  0  0
  6  7  2  0  0  0  0
  6  8  1  0  0  0  0
  8  9  1  0  0  0  0
  8 24  1  0  0  0  0
  9 10  1  0  0  0  0
  9 25  1  0  0  0  0
  9 26  1  0  0  0  0
 10 12  1  0  0  0  0
 10 11  1  0  0  0  0
 10 27  1  0  0  0  0
 11 12  1  0  0  0  0
 11 28  1  0  0  0  0
 11 29  1  0  0  0  0
 12 30  1  0  0  0  0
 12 31  1  0  0  0  0
 13 14  1  0  0  0  0
 13 15  2  0  0  0  0
 14 32  1  0  0  0  0
 14 33  1  0  0  0  0
 14 34  1  0  0  0  0
 15 16  1  0  0  0  0
 16 17  1  0  0  0  0
 16 35  1  0  0  0  0
 16 36  1  0  0  0  0
 17 18  1  0  0  0  0
 17 37  1  0  0  0  0
 17 38  1  0  0  0  0
 18 39  1  0  0  0  0
M  END
> <s_m_source_file>
AV-unprocessed.smi

> <i_m_source_file_index>
2395

> <i_lp_mmshare_version>
43012

> <i_f3d_flags>
0

> <s_epik_input>
W09IXVtDSDJdW0NIMl1jMWMoW0NIM10pbihuYzFbQ0gzXSlbQ0gyXUMoPU8pW05IXVtDSDJdW0NIXTJbQ0gyXVtDSDJdMg==

> <s_epik_cmdline>
J2VwaWtfcHl0aG9uJywgJy1waCcsICc3LjAnLCAnLXRuJywgJzgnLCAnLW1hJywgJzIwMCcsICctbWV0YWxfYmluZGluZycsICctaW1hZScsICc8aW5maWxlLm1hZT4nLCAnLW9tYWUnLCAnPG91dGZpbGUubWFlPic=

> <r_lp_tautomer_probability>
1

> <r_epik_Ionization_Penalty>
0.000725848

> <r_epik_Ionization_Penalty_Charging>
0

> <r_epik_Ionization_Penalty_Neutral>
0.000725848

> <r_epik_State_Penalty>
-0

> <r_epik_Charging_Adjusted_Penalty>
0

> <i_epik_Tot_Q>
0

> <i_epik_Tot_abs_Q>
0

> <r_epik_Metal_State_Penalty>
-0

> <b_epik_Metal_Only>
0

> <s_lp_Force_Field>
OPLS_2005

> <r_lp_Energy>
10.6696

> <b_lp_Chiralities_Consistent>
1

> <s_lp_Variant>
AV-unprocessed.smi:2395-1

> <Gold.Version>
5.8.1

> <Gold.Id.Protein>
6NUR|6NUR_protein|mol2

> <Gold.PLP.Fitness>
51.0394

> <Gold.PLP.PLP>
-43.1315

> <Gold.PLP.part.hbond>
-3.3425

> <Gold.PLP.part.metal>
0.0000

> <Gold.PLP.part.buried>
-1.7860

> <Gold.PLP.part.nonpolar>
-38.7278

> <Gold.PLP.part.repulsive>
0.7120

> <Gold.PLP.ligand.clash>
0.0000

> <Gold.PLP.ligand.torsion>
0.6319

> <Gold.PLP.Chemscore.Hbond>
2.8640

> <Gold.PLP.Chemscore.CHOScore>
0.0000

> <Gold.PLP.Chemscore.Metal>
0.0000

> <Gold.Chemscore.Hbonds>
donor molecule, donor type, donor heavy atom, donor atom, acceptor molecule, acceptor atom, score
      L1  H     8    24       P1  8028  0.90
      L1  H    18    39       P1 10171  1.00
      P1  H  7954  7966       L1    18  1.00

> <Gold.PLP.Chemscore.Internal.Correction>
0.5795

> <Gold.Rescore>
     Score         DG    S(hbond)    S(metal)    S(lipo)     H(rot)  DE(clash)    DE(int)     intcor
     17.35     -19.08       2.54        0.00      99.07       2.53       1.16       0.56       ----

> <Gold.Chemscore.Fitness>
17.3536

> <Gold.Chemscore.DG>
-19.0816

> <Gold.Chemscore.ZeroCoef>
-5.4800

> <Gold.Chemscore.Hbond>
2.5418

> <Gold.Chemscore.Metal>
0.0000

> <Gold.Chemscore.Lipo>
99.0692

> <Gold.Chemscore.Internal_Hbond>
0.0000

> <Gold.Chemscore.DEClash>
1.1635

> <Gold.Chemscore.DEInternal>
0.5645

> <Gold.Chemscore.Rot>
2.5309

> <Gold.Chemscore.Internal.Correction>
   9.000000E+99

> <Gold.Chemscore.Hbonds>
donor molecule, donor type, donor heavy atom, donor atom, acceptor molecule, acceptor atom, score
      L1  H     8    24       P1  8028  0.82
      L1  H    18    39       P1 10171  0.96
      P1  H  7954  7966       L1    18  0.41

> <Gold.Chemscore.Hbond.Weighted>
-8.4895

> <Gold.Chemscore.Metal.Weighted>
-0.0000

> <Gold.Chemscore.Lipo.Weighted>
-11.5911

> <Gold.Chemscore.Internal_Hbond.Weighted>
0.0000

> <Gold.Chemscore.DEClash.Weighted>
1.1635

> <Gold.Chemscore.DEInternal.Weighted>
0.5645

> <Gold.Chemscore.Rot.Weighted>
6.4790

> <Gold.Chemscore.Internal.Correction.Weighted>
   9.000000E+99

> <Gold.Protein.RotatedTorsions>
[ 6907 6896 6895 6894 ] final  112.11 input  -60.11 | X-H torsion
[ 7974 7965 7964 7962 ] final    2.36 input  175.53 | X-H torsion
[ 8008 7997 7996 7995 ] final -166.54 input   59.86 | X-H torsion
[ 10167 10162 10161 10158 ] final  125.65 input  -65.29 | X-H torsion
[ 10718 10713 10712 10709 ] final  -20.29 input   66.30 | X-H torsion
[ 10763 10752 10751 10750 ] final  -51.28 input  -60.55 | X-H torsion
[ 11005 11000 10999 10996 ] final  -45.36 input  -57.11 | X-H torsion

> <Gold.Protein.ActiveResidues>
 VAL166  LYS551  ARG553  GLY616  TRP617  ASP618  TYR619  PRO620  LYS621  CYS622 
 ASP623  PHE694  ASN695  SER759  ASP760  ASP761  ALA762  ILE779  LEU786  VAL792 
 PHE793  MET794  SER795  GLU796  ALA797  LYS798  CYS799  TRP800  GLU811  SER814 

> <Gold.Protein.RotatedAtoms>
  152.4934  133.8563  159.7226 H   0  0  0  0  0  0  0  0  0  0  0  0  # atno 6907 bound_to 6896
  150.9086  133.7017  159.2867 H   0  0  0  0  0  0  0  0  0  0  0  0  # atno 6908 bound_to 6896
  151.4433  135.1027  159.9729 H   0  0  0  0  0  0  0  0  0  0  0  0  # atno 6909 bound_to 6896
  146.2443  140.0847  142.8355 H   0  0  0  0  0  0  0  0  0  0  0  0  # atno 7974 bound_to 7965
  155.8652  140.0984  157.1587 H   0  0  0  0  0  0  0  0  0  0  0  0  # atno 8008 bound_to 7997
  154.3993  140.1357  156.4073 H   0  0  0  0  0  0  0  0  0  0  0  0  # atno 8009 bound_to 7997
  155.7812  140.3458  155.5301 H   0  0  0  0  0  0  0  0  0  0  0  0  # atno 8010 bound_to 7997
  139.5674  144.6919  151.3873 H   0  0  0  0  0  0  0  0  0  0  0  0  # atno 10167 bound_to 10162
  156.5338  130.4661  149.6533 H   0  0  0  0  0  0  0  0  0  0  0  0  # atno 10718 bound_to 10713
  154.1240  135.6530  153.4908 H   0  0  0  0  0  0  0  0  0  0  0  0  # atno 10763 bound_to 10752
  153.0216  135.5277  154.7068 H   0  0  0  0  0  0  0  0  0  0  0  0  # atno 10764 bound_to 10752
  154.6284  135.2973  155.0215 H   0  0  0  0  0  0  0  0  0  0  0  0  # atno 10765 bound_to 10752
  141.0510  133.6743  156.3002 H   0  0  0  0  0  0  0  0  0  0  0  0  # atno 11005 bound_to 11000
  145.0702  140.9150  143.4886 LP  0  0  0  0  0  0  0  0  0  0  0  0  # atno 17320 bound_to 7965
  145.0980  139.2843  143.5701 LP  0  0  0  0  0  0  0  0  0  0  0  0  # atno 17321 bound_to 7965
  140.6957  143.7754  150.7324 LP  0  0  0  0  0  0  0  0  0  0  0  0  # atno 17342 bound_to 10162
  140.1249  143.4578  152.2290 LP  0  0  0  0  0  0  0  0  0  0  0  0  # atno 17343 bound_to 10162
  156.3035  130.7189  151.2066 LP  0  0  0  0  0  0  0  0  0  0  0  0  # atno 17370 bound_to 10713
  157.7417  131.0500  150.5077 LP  0  0  0  0  0  0  0  0  0  0  0  0  # atno 17371 bound_to 10713
  140.6054  134.5512  157.5525 LP  0  0  0  0  0  0  0  0  0  0  0  0  # atno 17394 bound_to 11000
  139.9351  134.7891  156.0825 LP  0  0  0  0  0  0  0  0  0  0  0  0  # atno 17395 bound_to 11000

$$$$
