AV-unprocessed.smi:114|AV-procd|sdf|1119|dock2
  -GOLD-   2262018243D 1   1.00000     0.00000
 Structure written by MMmdl.
 32 34  0  0  0  0  0  0  0  0  1 V2000
  153.6233  137.3909  160.2962 N   0  0  0  0  0  0  0  0  0  0  0  0
  153.0400  138.4908  159.7998 C   0  0  0  0  0  0  0  0  0  0  0  0
  153.5736  139.6968  160.1046 N   0  0  0  0  0  0  0  0  0  0  0  0
  153.0190  140.8204  159.6333 C   0  0  0  0  0  0  0  0  0  0  0  0
  153.6160  141.9817  159.9900 F   0  0  0  0  0  0  0  0  0  0  0  0
  151.9413  140.9253  158.8478 N   0  0  0  0  0  0  0  0  0  0  0  0
  151.4051  139.7102  158.5330 C   0  0  0  0  0  0  0  0  0  0  0  0
  151.8903  138.4508  158.9739 C   0  0  0  0  0  0  0  0  0  0  0  0
  151.0864  137.4342  158.4771 N   0  0  0  0  0  0  0  0  0  0  0  0
  150.1735  138.0649  157.7877 C   0  0  0  0  0  0  0  0  0  0  0  0
  150.3089  139.4378  157.7414 N   0  0  0  0  0  0  0  0  0  0  0  0
  149.4320  140.4519  157.0707 C   0  0  2  0  0  0  0  0  0  0  0  0
  148.3182  139.7920  156.5406 O   0  0  0  0  0  0  0  0  0  0  0  0
  148.4051  139.6854  155.1207 C   0  0  2  0  0  0  0  0  0  0  0  0
  149.1176  138.3725  154.7225 C   0  0  0  0  0  0  0  0  0  0  0  0
  149.4621  138.4101  153.3540 O   0  0  0  0  0  0  0  0  0  0  0  0
  149.1576  140.9731  154.7597 C   0  0  2  0  0  0  0  0  0  0  0  0
  149.7985  140.9095  153.5007 O   0  0  0  0  0  0  0  0  0  0  0  0
  150.1607  141.1295  155.8942 C   0  0  1  0  0  0  0  0  0  0  0  0
  150.3907  142.5024  156.1383 O   0  0  0  0  0  0  0  0  0  0  0  0
  149.1340  141.1282  157.8731 H   0  0  0  0  0  0  0  0  0  0  0  0
  147.4064  139.7033  154.6817 H   0  0  0  0  0  0  0  0  0  0  0  0
  148.4492  141.8035  154.7622 H   0  0  0  0  0  0  0  0  0  0  0  0
  151.0923  140.6062  155.6712 H   0  0  0  0  0  0  0  0  0  0  0  0
  153.2411  136.4804  160.0837 H   0  0  0  0  0  0  0  0  0  0  0  0
  154.4429  137.4739  160.8804 H   0  0  0  0  0  0  0  0  0  0  0  0
  149.3763  137.5361  157.2853 H   0  0  0  0  0  0  0  0  0  0  0  0
  150.0529  138.2629  155.2713 H   0  0  0  0  0  0  0  0  0  0  0  0
  148.5214  137.4884  154.9422 H   0  0  0  0  0  0  0  0  0  0  0  0
  149.3139  139.2859  153.0314 H   0  0  0  0  0  0  0  0  0  0  0  0
  149.3380  140.2819  152.9643 H   0  0  0  0  0  0  0  0  0  0  0  0
  149.6525  142.9909  155.8062 H   0  0  0  0  0  0  0  0  0  0  0  0
  1  2  1  0  0  0  0
  1 25  1  0  0  0  0
  1 26  1  0  0  0  0
  2  8  1  0  0  0  0
  2  3  2  0  0  0  0
  3  4  1  0  0  0  0
  4  5  1  0  0  0  0
  4  6  2  0  0  0  0
  6  7  1  0  0  0  0
  7 11  1  0  0  0  0
  7  8  2  0  0  0  0
  8  9  1  0  0  0  0
  9 10  2  0  0  0  0
 10 11  1  0  0  0  0
 10 27  1  0  0  0  0
 11 12  1  0  0  0  0
 12 21  1  0  0  0  0
 12 19  1  0  0  0  0
 12 13  1  0  0  0  0
 13 14  1  0  0  0  0
 14 22  1  0  0  0  0
 14 15  1  0  0  0  0
 14 17  1  0  0  0  0
 15 16  1  0  0  0  0
 15 28  1  0  0  0  0
 15 29  1  0  0  0  0
 16 30  1  0  0  0  0
 17 23  1  0  0  0  0
 17 18  1  0  0  0  0
 17 19  1  0  0  0  0
 18 31  1  0  0  0  0
 19 24  1  0  0  0  0
 19 20  1  0  0  0  0
 20 32  1  0  0  0  0
M  END
> <s_m_source_file>
AV-unprocessed.smi

> <i_m_source_file_index>
114

> <i_lp_mmshare_version>
43012

> <i_f3d_flags>
0

> <s_epik_input>
RmMobjEpbmMoW05IMl0pYyhjMTIpbltjSF1uMltDQEBIXTNPW0NASF0oW0NIMl1bT0hdKVtDQEBIXShbT0hdKVtDQEBIXTNbT0hd

> <s_epik_cmdline>
J2VwaWtfcHl0aG9uJywgJy1waCcsICc3LjAnLCAnLXRuJywgJzgnLCAnLW1hJywgJzIwMCcsICctbWV0YWxfYmluZGluZycsICctaW1hZScsICc8aW5maWxlLm1hZT4nLCAnLW9tYWUnLCAnPG91dGZpbGUubWFlPic=

> <r_lp_tautomer_probability>
1

> <r_epik_Ionization_Penalty>
1.13199e-05

> <r_epik_Ionization_Penalty_Charging>
0

> <r_epik_Ionization_Penalty_Neutral>
1.13199e-05

> <r_epik_State_Penalty>
-0

> <r_epik_Charging_Adjusted_Penalty>
0

> <i_epik_Tot_Q>
0

> <i_epik_Tot_abs_Q>
0

> <r_epik_Metal_State_Penalty>
-0

> <b_epik_Metal_Only>
0

> <s_epik_Chemistry_Notes>
This compound contains an acetal/aminal-like group ( X-CH(R)-Y where X, Y are N, S, or O) that may be acid/base labile, releasing an aldehyde.

> <s_lp_Force_Field>
OPLS_2005

> <r_lp_Energy>
35.5551

> <b_lp_Chiralities_Consistent>
1

> <s_lp_Variant>
AV-unprocessed.smi:114-13

> <Gold.Version>
5.8.1

> <Gold.Id.Protein>
6NUR|6NUR_protein|mol2

> <Gold.PLP.Fitness>
38.3848

> <Gold.PLP.PLP>
-28.9346

> <Gold.PLP.part.hbond>
-5.4555

> <Gold.PLP.part.metal>
0.0000

> <Gold.PLP.part.buried>
-5.5350

> <Gold.PLP.part.nonpolar>
-17.3106

> <Gold.PLP.part.repulsive>
0.0676

> <Gold.PLP.ligand.clash>
0.0000

> <Gold.PLP.ligand.torsion>
0.1928

> <Gold.PLP.Chemscore.Hbond>
3.2670

> <Gold.PLP.Chemscore.CHOScore>
0.0000

> <Gold.PLP.Chemscore.Metal>
0.0000

> <Gold.Chemscore.Hbonds>
donor molecule, donor type, donor heavy atom, donor atom, acceptor molecule, acceptor atom, score
      L1  H    16    30       P1  7957  0.57
      L1  H    18    31       P1  7957  0.50
      L1  H    20    32       P1  8028  0.90
      P1  H  7989  7998       L1    18  0.30
      P1  H  8011  8017       L1    18  1.00

> <Gold.PLP.Chemscore.Internal.Correction>
0.0349

> <Gold.Rescore>
     Score         DG    S(hbond)    S(metal)    S(lipo)     H(rot)  DE(clash)    DE(int)     intcor
      6.25      -6.68       2.52        0.00      26.51       4.03       0.10       0.32       ----

> <Gold.Chemscore.Fitness>
6.2491

> <Gold.Chemscore.DG>
-6.6757

> <Gold.Chemscore.ZeroCoef>
-5.4800

> <Gold.Chemscore.Hbond>
2.5166

> <Gold.Chemscore.Metal>
0.0000

> <Gold.Chemscore.Lipo>
26.5054

> <Gold.Chemscore.Internal_Hbond>
0.0000

> <Gold.Chemscore.DEClash>
0.1036

> <Gold.Chemscore.DEInternal>
0.3230

> <Gold.Chemscore.Rot>
4.0277

> <Gold.Chemscore.Internal.Correction>
   9.000000E+99

> <Gold.Chemscore.Hbonds>
donor molecule, donor type, donor heavy atom, donor atom, acceptor molecule, acceptor atom, score
      L1  H    16    30       P1  7957  0.54
      L1  H    18    31       P1  7957  0.50
      L1  H    20    32       P1  8028  0.86
      P1  H  7989  7998       L1    18  0.28
      P1  H  8011  8017       L1    18  0.24

> <Gold.Chemscore.Hbond.Weighted>
-8.4055

> <Gold.Chemscore.Metal.Weighted>
-0.0000

> <Gold.Chemscore.Lipo.Weighted>
-3.1011

> <Gold.Chemscore.Internal_Hbond.Weighted>
0.0000

> <Gold.Chemscore.DEClash.Weighted>
0.1036

> <Gold.Chemscore.DEInternal.Weighted>
0.3230

> <Gold.Chemscore.Rot.Weighted>
10.3110

> <Gold.Chemscore.Internal.Correction.Weighted>
   9.000000E+99

> <Gold.Protein.RotatedTorsions>
[ 6907 6896 6895 6894 ] final -120.45 input  -60.11 | X-H torsion
[ 7974 7965 7964 7962 ] final  146.37 input  175.53 | X-H torsion
[ 8008 7997 7996 7995 ] final  -75.12 input   59.86 | X-H torsion
[ 10167 10162 10161 10158 ] final  145.69 input  -65.29 | X-H torsion
[ 10718 10713 10712 10709 ] final -175.97 input   66.30 | X-H torsion
[ 10763 10752 10751 10750 ] final  167.98 input  -60.55 | X-H torsion
[ 11005 11000 10999 10996 ] final    2.17 input  -57.11 | X-H torsion

> <Gold.Protein.ActiveResidues>
 VAL166  LYS551  ARG553  GLY616  TRP617  ASP618  TYR619  PRO620  LYS621  CYS622 
 ASP623  PHE694  ASN695  SER759  ASP760  ASP761  ALA762  ILE779  LEU786  VAL792 
 PHE793  MET794  SER795  GLU796  ALA797  LYS798  CYS799  TRP800  GLU811  SER814 

> <Gold.Protein.RotatedAtoms>
  150.8394  133.7960  159.3066 H   0  0  0  0  0  0  0  0  0  0  0  0  # atno 6907 bound_to 6896
  151.5665  135.1062  159.9994 H   0  0  0  0  0  0  0  0  0  0  0  0  # atno 6908 bound_to 6896
  152.4461  133.7497  159.6743 H   0  0  0  0  0  0  0  0  0  0  0  0  # atno 6909 bound_to 6896
  144.8677  139.5897  143.5901 H   0  0  0  0  0  0  0  0  0  0  0  0  # atno 7974 bound_to 7965
  154.5389  140.0749  156.8475 H   0  0  0  0  0  0  0  0  0  0  0  0  # atno 8008 bound_to 7997
  155.3222  140.3397  155.4223 H   0  0  0  0  0  0  0  0  0  0  0  0  # atno 8009 bound_to 7997
  156.1855  140.1667  156.8180 H   0  0  0  0  0  0  0  0  0  0  0  0  # atno 8010 bound_to 7997
  139.4921  144.5883  151.6733 H   0  0  0  0  0  0  0  0  0  0  0  0  # atno 10167 bound_to 10162
  156.8078  130.9575  151.3117 H   0  0  0  0  0  0  0  0  0  0  0  0  # atno 10718 bound_to 10713
  154.3618  135.2753  155.2315 H   0  0  0  0  0  0  0  0  0  0  0  0  # atno 10763 bound_to 10752
  154.4500  135.5933  153.6189 H   0  0  0  0  0  0  0  0  0  0  0  0  # atno 10764 bound_to 10752
  152.9843  135.6039  154.3839 H   0  0  0  0  0  0  0  0  0  0  0  0  # atno 10765 bound_to 10752
  140.6073  133.9781  155.8160 H   0  0  0  0  0  0  0  0  0  0  0  0  # atno 11005 bound_to 11000
  146.2907  139.7132  142.9163 LP  0  0  0  0  0  0  0  0  0  0  0  0  # atno 17320 bound_to 7965
  145.4191  141.0404  143.2974 LP  0  0  0  0  0  0  0  0  0  0  0  0  # atno 17321 bound_to 7965
  140.5504  144.0434  150.6125 LP  0  0  0  0  0  0  0  0  0  0  0  0  # atno 17342 bound_to 10162
  140.3486  143.2976  152.0511 LP  0  0  0  0  0  0  0  0  0  0  0  0  # atno 17343 bound_to 10162
  157.6521  130.8893  149.9654 LP  0  0  0  0  0  0  0  0  0  0  0  0  # atno 17370 bound_to 10713
  156.1063  130.3652  150.0129 LP  0  0  0  0  0  0  0  0  0  0  0  0  # atno 17371 bound_to 10713
  141.0832  134.0030  157.3354 LP  0  0  0  0  0  0  0  0  0  0  0  0  # atno 17394 bound_to 11000
  139.9207  135.0200  156.8053 LP  0  0  0  0  0  0  0  0  0  0  0  0  # atno 17395 bound_to 11000

$$$$
