AV-unprocessed.smi:1795|AV-procd|sdf|7240|dock4
  -GOLD-   22720 8493D 1   1.00000     0.00000
 Structure written by MMmdl.
 47 48  0  0  0  0  0  0  0  0  1 V2000
  142.9674  145.6616  155.4392 C   0  0  0  0  0  0  0  0  0  0  0  0
  143.1310  144.1431  155.3146 C   0  0  1  0  0  0  0  0  0  0  0  0
  144.6124  143.7219  155.2833 C   0  0  0  0  0  0  0  0  0  0  0  0
  144.7976  142.2666  155.2484 N   0  0  0  0  0  0  0  0  0  0  0  0
  146.2270  141.8759  155.2594 C   0  0  1  0  0  0  0  0  0  0  0  0
  147.0228  142.4714  154.0704 C   0  0  0  0  0  0  0  0  0  0  0  0
  146.9613  142.2454  156.5813 C   0  0  0  0  0  0  0  0  0  0  0  0
  148.4134  142.3049  156.4376 N   0  0  0  0  0  0  0  0  0  0  0  0
  149.2741  141.4204  156.9637 C   0  0  0  0  0  0  0  0  0  0  0  0
  148.9157  140.4411  157.6197 O   0  0  0  0  0  0  0  0  0  0  0  0
  150.7617  141.6786  156.6844 C   0  0  0  0  0  0  0  0  0  0  0  0
  151.4223  142.4696  157.7364 N   0  0  0  0  0  0  0  0  0  0  0  0
  151.5987  143.8458  157.4898 C   0  0  0  0  0  0  0  0  0  0  0  0
  152.1903  144.6566  158.3813 C   0  0  0  0  0  0  0  0  0  0  0  0
  152.6525  144.0839  159.6235 C   0  0  0  0  0  0  0  0  0  0  0  0
  152.4929  142.7679  159.8677 C   0  0  0  0  0  0  0  0  0  0  0  0
  151.8492  141.8774  158.8946 C   0  0  0  0  0  0  0  0  0  0  0  0
  151.7024  140.6735  159.1078 O   0  0  0  0  0  0  0  0  0  0  0  0
  144.0531  141.6922  156.3747 C   0  0  0  0  0  0  0  0  0  0  0  0
  142.5720  142.1151  156.3976 C   0  0  1  0  0  0  0  0  0  0  0  0
  141.8319  141.5665  157.6220 C   0  0  0  0  0  0  0  0  0  0  0  0
  142.4943  143.5342  156.4303 O   0  0  0  0  0  0  0  0  0  0  0  0
  143.4282  146.1767  154.5960 H   0  0  0  0  0  0  0  0  0  0  0  0
  143.4313  146.0340  156.3532 H   0  0  0  0  0  0  0  0  0  0  0  0
  141.9136  145.9397  155.4632 H   0  0  0  0  0  0  0  0  0  0  0  0
  142.6369  143.8116  154.3995 H   0  0  0  0  0  0  0  0  0  0  0  0
  145.0488  144.1866  154.4022 H   0  0  0  0  0  0  0  0  0  0  0  0
  145.1283  144.1373  156.1506 H   0  0  0  0  0  0  0  0  0  0  0  0
  146.2727  140.7904  155.1583 H   0  0  0  0  0  0  0  0  0  0  0  0
  148.0843  142.2318  154.1191 H   0  0  0  0  0  0  0  0  0  0  0  0
  146.9340  143.5579  154.0412 H   0  0  0  0  0  0  0  0  0  0  0  0
  146.6867  142.0788  153.1118 H   0  0  0  0  0  0  0  0  0  0  0  0
  146.6135  143.2148  156.9399 H   0  0  0  0  0  0  0  0  0  0  0  0
  146.7598  141.5349  157.3812 H   0  0  0  0  0  0  0  0  0  0  0  0
  148.7890  143.0774  155.9066 H   0  0  0  0  0  0  0  0  0  0  0  0
  151.2554  140.7134  156.5633 H   0  0  0  0  0  0  0  0  0  0  0  0
  150.8697  142.1773  155.7191 H   0  0  0  0  0  0  0  0  0  0  0  0
  151.2325  144.1938  156.5350 H   0  0  0  0  0  0  0  0  0  0  0  0
  152.3211  145.7084  158.1731 H   0  0  0  0  0  0  0  0  0  0  0  0
  153.1296  144.7135  160.3598 H   0  0  0  0  0  0  0  0  0  0  0  0
  152.8462  142.3571  160.8019 H   0  0  0  0  0  0  0  0  0  0  0  0
  144.0730  140.6045  156.3292 H   0  0  0  0  0  0  0  0  0  0  0  0
  144.5283  141.9789  157.3144 H   0  0  0  0  0  0  0  0  0  0  0  0
  142.0739  141.7520  155.4967 H   0  0  0  0  0  0  0  0  0  0  0  0
  141.8523  140.4767  157.6374 H   0  0  0  0  0  0  0  0  0  0  0  0
  140.7874  141.8789  157.6173 H   0  0  0  0  0  0  0  0  0  0  0  0
  142.2825  141.9237  158.5485 H   0  0  0  0  0  0  0  0  0  0  0  0
  1  2  1  0  0  0  0
  1 23  1  0  0  0  0
  1 24  1  0  0  0  0
  1 25  1  0  0  0  0
  2 22  1  0  0  0  0
  2  3  1  0  0  0  0
  2 26  1  0  0  0  0
  3  4  1  0  0  0  0
  3 27  1  0  0  0  0
  3 28  1  0  0  0  0
  4  5  1  0  0  0  0
  4 19  1  0  0  0  0
  5  6  1  0  0  0  0
  5  7  1  0  0  0  0
  5 29  1  0  0  0  0
  6 30  1  0  0  0  0
  6 31  1  0  0  0  0
  6 32  1  0  0  0  0
  7  8  1  0  0  0  0
  7 33  1  0  0  0  0
  7 34  1  0  0  0  0
  8  9  1  0  0  0  0
  8 35  1  0  0  0  0
  9 10  2  0  0  0  0
  9 11  1  0  0  0  0
 11 12  1  0  0  0  0
 11 36  1  0  0  0  0
 11 37  1  0  0  0  0
 12 17  1  0  0  0  0
 12 13  1  0  0  0  0
 13 14  2  0  0  0  0
 13 38  1  0  0  0  0
 14 15  1  0  0  0  0
 14 39  1  0  0  0  0
 15 16  2  0  0  0  0
 15 40  1  0  0  0  0
 16 17  1  0  0  0  0
 16 41  1  0  0  0  0
 17 18  2  0  0  0  0
 19 20  1  0  0  0  0
 19 42  1  0  0  0  0
 19 43  1  0  0  0  0
 20 21  1  0  0  0  0
 20 22  1  0  0  0  0
 20 44  1  0  0  0  0
 21 45  1  0  0  0  0
 21 46  1  0  0  0  0
 21 47  1  0  0  0  0
M  END
> <s_m_source_file>
AV-unprocessed.smi

> <i_m_source_file_index>
1795

> <i_lp_mmshare_version>
43012

> <i_f3d_flags>
0

> <s_epik_input>
W0NIM11bQ0BASF0xW0NIMl1OKFtDSDJdW0NASF0oTzEpW0NIM10pW0NASF0oW0NIM10pW0NIMl1bTkhdQyg9TylbQ0gyXW4yW2NIXVtjSF1bY0hdW2NIXWMyPU8=

> <s_epik_cmdline>
J2VwaWtfcHl0aG9uJywgJy1waCcsICc3LjAnLCAnLXRuJywgJzgnLCAnLW1hJywgJzIwMCcsICctbWV0YWxfYmluZGluZycsICctaW1hZScsICc8aW5maWxlLm1hZT4nLCAnLW9tYWUnLCAnPG91dGZpbGUubWFlPic=

> <r_lp_tautomer_probability>
1

> <r_epik_Ionization_Penalty>
0.237383

> <r_epik_Ionization_Penalty_Charging>
3.58805e-07

> <r_epik_Ionization_Penalty_Neutral>
0.237382

> <r_epik_State_Penalty>
0.228245

> <r_epik_Charging_Adjusted_Penalty>
0.228245

> <i_epik_Tot_Q>
0

> <i_epik_Tot_abs_Q>
0

> <r_epik_Metal_State_Penalty>
0.228221

> <b_epik_Metal_Only>
0

> <s_lp_Force_Field>
OPLS_2005

> <r_lp_Energy>
36.5227

> <b_lp_Chiralities_Consistent>
1

> <s_lp_Variant>
AV-unprocessed.smi:1795-4

> <Gold.Version>
5.8.1

> <Gold.Id.Protein>
6NUR|6NUR_protein|mol2

> <Gold.PLP.Fitness>
41.6935

> <Gold.PLP.PLP>
-37.6996

> <Gold.PLP.part.hbond>
-1.0000

> <Gold.PLP.part.metal>
0.0000

> <Gold.PLP.part.buried>
-5.6113

> <Gold.PLP.part.nonpolar>
-31.9569

> <Gold.PLP.part.repulsive>
0.2198

> <Gold.PLP.ligand.clash>
0.0000

> <Gold.PLP.ligand.torsion>
0.9709

> <Gold.PLP.Chemscore.Hbond>
0.9600

> <Gold.PLP.Chemscore.CHOScore>
1.0000

> <Gold.PLP.Chemscore.Metal>
0.0000

> <Gold.Chemscore.Hbonds>
donor molecule, donor type, donor heavy atom, donor atom, acceptor molecule, acceptor atom, score
      L1  H     8    35       P1  8028  0.96
      L1  C    13    38       P1  8028  1.00

> <Gold.PLP.Chemscore.Internal.Correction>
0.0557

> <Gold.Rescore>
     Score         DG    S(hbond)    S(metal)    S(lipo)     H(rot)  DE(clash)    DE(int)     intcor
     13.15     -14.16       0.93        0.00      87.46       1.83       0.01       1.00       ----

> <Gold.Chemscore.Fitness>
13.1500

> <Gold.Chemscore.DG>
-14.1597

> <Gold.Chemscore.ZeroCoef>
-5.4800

> <Gold.Chemscore.Hbond>
0.9339

> <Gold.Chemscore.Metal>
0.0000

> <Gold.Chemscore.Lipo>
87.4586

> <Gold.Chemscore.Internal_Hbond>
0.0000

> <Gold.Chemscore.DEClash>
0.0126

> <Gold.Chemscore.DEInternal>
0.9970

> <Gold.Chemscore.Rot>
1.8251

> <Gold.Chemscore.Internal.Correction>
   9.000000E+99

> <Gold.Chemscore.Hbonds>
donor molecule, donor type, donor heavy atom, donor atom, acceptor molecule, acceptor atom, score
      L1  H     8    35       P1  8028  0.92

> <Gold.Chemscore.Hbond.Weighted>
-3.1194

> <Gold.Chemscore.Metal.Weighted>
-0.0000

> <Gold.Chemscore.Lipo.Weighted>
-10.2327

> <Gold.Chemscore.Internal_Hbond.Weighted>
0.0000

> <Gold.Chemscore.DEClash.Weighted>
0.0126

> <Gold.Chemscore.DEInternal.Weighted>
0.9970

> <Gold.Chemscore.Rot.Weighted>
4.6724

> <Gold.Chemscore.Internal.Correction.Weighted>
   9.000000E+99

> <Gold.Protein.RotatedTorsions>
[ 6907 6896 6895 6894 ] final   85.30 input  -60.11 | X-H torsion
[ 7974 7965 7964 7962 ] final  -30.38 input  175.53 | X-H torsion
[ 8008 7997 7996 7995 ] final   51.82 input   59.86 | X-H torsion
[ 10167 10162 10161 10158 ] final  123.67 input  -65.29 | X-H torsion
[ 10718 10713 10712 10709 ] final -140.86 input   66.30 | X-H torsion
[ 10763 10752 10751 10750 ] final    7.55 input  -60.55 | X-H torsion
[ 11005 11000 10999 10996 ] final   67.30 input  -57.11 | X-H torsion

> <Gold.Protein.ActiveResidues>
 VAL166  LYS551  ARG553  GLY616  TRP617  ASP618  TYR619  PRO620  LYS621  CYS622 
 ASP623  PHE694  ASN695  SER759  ASP760  ASP761  ALA762  ILE779  LEU786  VAL792 
 PHE793  MET794  SER795  GLU796  ALA797  LYS798  CYS799  TRP800  GLU811  SER814 

> <Gold.Protein.RotatedAtoms>
  152.5372  134.2607  159.8933 H   0  0  0  0  0  0  0  0  0  0  0  0  # atno 6907 bound_to 6896
  151.2567  133.4316  159.2621 H   0  0  0  0  0  0  0  0  0  0  0  0  # atno 6908 bound_to 6896
  151.0490  134.9674  159.8258 H   0  0  0  0  0  0  0  0  0  0  0  0  # atno 6909 bound_to 6896
  146.1147  140.5533  142.8762 H   0  0  0  0  0  0  0  0  0  0  0  0  # atno 7974 bound_to 7965
  155.4416  140.3454  155.4290 H   0  0  0  0  0  0  0  0  0  0  0  0  # atno 8008 bound_to 7997
  156.1275  140.1504  156.9145 H   0  0  0  0  0  0  0  0  0  0  0  0  # atno 8009 bound_to 7997
  154.4869  140.0852  156.7487 H   0  0  0  0  0  0  0  0  0  0  0  0  # atno 8010 bound_to 7997
  139.5786  144.6975  151.3588 H   0  0  0  0  0  0  0  0  0  0  0  0  # atno 10167 bound_to 10162
  156.3272  130.7566  151.1677 H   0  0  0  0  0  0  0  0  0  0  0  0  # atno 10718 bound_to 10713
  153.2350  135.6897  153.7847 H   0  0  0  0  0  0  0  0  0  0  0  0  # atno 10763 bound_to 10752
  153.6997  135.3299  155.3223 H   0  0  0  0  0  0  0  0  0  0  0  0  # atno 10764 bound_to 10752
  154.8331  135.4565  154.1250 H   0  0  0  0  0  0  0  0  0  0  0  0  # atno 10765 bound_to 10752
  139.9779  134.6792  156.0318 H   0  0  0  0  0  0  0  0  0  0  0  0  # atno 11005 bound_to 11000
  144.7542  140.5267  143.6780 LP  0  0  0  0  0  0  0  0  0  0  0  0  # atno 17320 bound_to 7965
  145.5591  139.1479  143.3351 LP  0  0  0  0  0  0  0  0  0  0  0  0  # atno 17321 bound_to 7965
  140.7066  143.7497  150.7493 LP  0  0  0  0  0  0  0  0  0  0  0  0  # atno 17342 bound_to 10162
  140.1024  143.4775  152.2418 LP  0  0  0  0  0  0  0  0  0  0  0  0  # atno 17343 bound_to 10162
  157.7423  131.0491  150.5031 LP  0  0  0  0  0  0  0  0  0  0  0  0  # atno 17370 bound_to 10713
  156.5191  130.4157  149.6260 LP  0  0  0  0  0  0  0  0  0  0  0  0  # atno 17371 bound_to 10713
  141.1454  133.6557  156.3853 LP  0  0  0  0  0  0  0  0  0  0  0  0  # atno 17394 bound_to 11000
  140.5156  134.6353  157.5300 LP  0  0  0  0  0  0  0  0  0  0  0  0  # atno 17395 bound_to 11000

$$$$
