AV-unprocessed.smi:473|AV-procd|sdf|2662|dock2
  -GOLD-   2262023 73D 1   1.00000     0.00000
 Structure written by MMmdl.
 42 44  0  0  0  0  0  0  0  0  1 V2000
  152.6369  143.0573  161.5513 C   0  0  0  0  0  0  0  0  0  0  0  0
  152.1319  142.5822  160.2001 C   0  0  0  0  0  0  0  0  0  0  0  0
  152.2695  141.2185  159.8553 C   0  0  0  0  0  0  0  0  0  0  0  0
  151.8077  140.7359  158.6111 C   0  0  0  0  0  0  0  0  0  0  0  0
  151.8329  139.4595  158.0754 N   0  0  0  0  0  0  0  0  0  0  0  0
  151.2537  139.6527  156.8938 C   0  0  0  0  0  0  0  0  0  0  0  0
  150.8552  140.9053  156.6004 N   0  0  0  0  0  0  0  0  0  0  0  0
  150.2032  141.3550  155.3838 C   0  0  0  0  0  0  0  0  0  0  0  0
  148.6663  141.3629  155.5083 C   0  0  1  0  0  0  0  0  0  0  0  0
  148.2378  142.1264  156.6186 O   0  0  0  0  0  0  0  0  0  0  0  0
  147.9488  141.8667  154.2451 C   0  0  0  0  0  0  0  0  0  0  0  0
  146.8367  142.6691  154.6077 O   0  0  0  0  0  0  0  0  0  0  0  0
  145.9401  142.8933  153.5321 C   0  0  0  0  0  0  0  0  0  0  0  0
  144.9818  143.9636  153.9497 C   0  0  0  0  0  0  0  0  0  0  0  0
  144.5826  145.1329  153.3635 C   0  0  0  0  0  0  0  0  0  0  0  0
  143.6373  145.7255  154.2457 C   0  0  0  0  0  0  0  0  0  0  0  0
  143.5239  144.8710  155.3048 C   0  0  0  0  0  0  0  0  0  0  0  0
  144.3352  143.7913  155.1400 O   0  0  0  0  0  0  0  0  0  0  0  0
  151.2027  141.6632  157.7132 C   0  0  0  0  0  0  0  0  0  0  0  0
  151.0618  143.0223  158.0439 C   0  0  0  0  0  0  0  0  0  0  0  0
  151.5262  143.4871  159.2919 C   0  0  0  0  0  0  0  0  0  0  0  0
  151.3642  144.9559  159.6409 C   0  0  0  0  0  0  0  0  0  0  0  0
  153.0776  142.2396  162.1222 H   0  0  0  0  0  0  0  0  0  0  0  0
  151.8182  143.4724  162.1396 H   0  0  0  0  0  0  0  0  0  0  0  0
  153.3988  143.8269  161.4267 H   0  0  0  0  0  0  0  0  0  0  0  0
  152.7303  140.5286  160.5468 H   0  0  0  0  0  0  0  0  0  0  0  0
  151.1077  138.8364  156.2017 H   0  0  0  0  0  0  0  0  0  0  0  0
  150.5779  142.3506  155.1425 H   0  0  0  0  0  0  0  0  0  0  0  0
  150.5108  140.7015  154.5665 H   0  0  0  0  0  0  0  0  0  0  0  0
  148.3298  140.3427  155.6971 H   0  0  0  0  0  0  0  0  0  0  0  0
  148.6088  142.9926  156.5474 H   0  0  0  0  0  0  0  0  0  0  0  0
  148.6405  142.4709  153.6563 H   0  0  0  0  0  0  0  0  0  0  0  0
  147.6379  141.0297  153.6174 H   0  0  0  0  0  0  0  0  0  0  0  0
  146.4849  143.2062  152.6403 H   0  0  0  0  0  0  0  0  0  0  0  0
  145.3969  141.9785  153.2915 H   0  0  0  0  0  0  0  0  0  0  0  0
  144.9305  145.5156  152.4155 H   0  0  0  0  0  0  0  0  0  0  0  0
  143.1066  146.6578  154.1207 H   0  0  0  0  0  0  0  0  0  0  0  0
  142.9420  144.8764  156.2148 H   0  0  0  0  0  0  0  0  0  0  0  0
  150.5957  143.6995  157.3431 H   0  0  0  0  0  0  0  0  0  0  0  0
  150.8909  145.5077  158.8280 H   0  0  0  0  0  0  0  0  0  0  0  0
  152.3349  145.4132  159.8338 H   0  0  0  0  0  0  0  0  0  0  0  0
  150.7427  145.0705  160.5292 H   0  0  0  0  0  0  0  0  0  0  0  0
  1  2  1  0  0  0  0
  1 23  1  0  0  0  0
  1 24  1  0  0  0  0
  1 25  1  0  0  0  0
  2 21  1  0  0  0  0
  2  3  2  0  0  0  0
  3  4  1  0  0  0  0
  3 26  1  0  0  0  0
  4 19  2  0  0  0  0
  4  5  1  0  0  0  0
  5  6  2  0  0  0  0
  6  7  1  0  0  0  0
  6 27  1  0  0  0  0
  7  8  1  0  0  0  0
  7 19  1  0  0  0  0
  8  9  1  0  0  0  0
  8 28  1  0  0  0  0
  8 29  1  0  0  0  0
  9 10  1  0  0  0  0
  9 11  1  0  0  0  0
  9 30  1  0  0  0  0
 10 31  1  0  0  0  0
 11 12  1  0  0  0  0
 11 32  1  0  0  0  0
 11 33  1  0  0  0  0
 12 13  1  0  0  0  0
 13 14  1  0  0  0  0
 13 34  1  0  0  0  0
 13 35  1  0  0  0  0
 14 18  1  0  0  0  0
 14 15  2  0  0  0  0
 15 16  1  0  0  0  0
 15 36  1  0  0  0  0
 16 17  2  0  0  0  0
 16 37  1  0  0  0  0
 17 18  1  0  0  0  0
 17 38  1  0  0  0  0
 19 20  1  0  0  0  0
 20 21  2  0  0  0  0
 20 39  1  0  0  0  0
 21 22  1  0  0  0  0
 22 40  1  0  0  0  0
 22 41  1  0  0  0  0
 22 42  1  0  0  0  0
M  END
> <s_m_source_file>
AV-unprocessed.smi

> <i_m_source_file_index>
473

> <i_lp_mmshare_version>
43012

> <i_f3d_flags>
0

> <s_epik_input>
W0NIM11jKFtjSF0xKWMoW0NIM10pW2NIXWMoYzEyKW4oW2NIXW4yKVtDSDJdW0NASF0oW09IXSlbQ0gyXU9bQ0gyXWMzW2NIXVtjSF1bY0hdbzM=

> <s_epik_cmdline>
J2VwaWtfcHl0aG9uJywgJy1waCcsICc3LjAnLCAnLXRuJywgJzgnLCAnLW1hJywgJzIwMCcsICctbWV0YWxfYmluZGluZycsICctaW1hZScsICc8aW5maWxlLm1hZT4nLCAnLW9tYWUnLCAnPG91dGZpbGUubWFlPic=

> <r_epik_Ionization_Penalty>
0.112477

> <r_epik_Ionization_Penalty_Charging>
0

> <r_epik_Ionization_Penalty_Neutral>
0.112477

> <r_epik_State_Penalty>
0.102177

> <r_epik_Charging_Adjusted_Penalty>
0.102177

> <i_epik_Tot_Q>
0

> <i_epik_Tot_abs_Q>
0

> <r_epik_Metal_State_Penalty>
0.000111506

> <b_epik_Metal_Only>
0

> <s_lp_Force_Field>
OPLS_2005

> <r_lp_Energy>
9.30743

> <b_lp_Chiralities_Consistent>
1

> <s_lp_Variant>
AV-unprocessed.smi:473-2

> <Gold.Version>
5.8.1

> <Gold.Id.Protein>
6NUR|6NUR_protein|mol2

> <Gold.PLP.Fitness>
51.1955

> <Gold.PLP.PLP>
-50.2457

> <Gold.PLP.part.hbond>
-1.0000

> <Gold.PLP.part.metal>
0.0000

> <Gold.PLP.part.buried>
-7.0835

> <Gold.PLP.part.nonpolar>
-43.0041

> <Gold.PLP.part.repulsive>
1.2496

> <Gold.PLP.ligand.clash>
0.0000

> <Gold.PLP.ligand.torsion>
1.1038

> <Gold.PLP.Chemscore.Hbond>
1.0000

> <Gold.PLP.Chemscore.CHOScore>
0.0000

> <Gold.PLP.Chemscore.Metal>
0.0000

> <Gold.Chemscore.Hbonds>
donor molecule, donor type, donor heavy atom, donor atom, acceptor molecule, acceptor atom, score
      L1  H    10    31       P1  8028  1.00

> <Gold.PLP.Chemscore.Internal.Correction>
0.1574

> <Gold.Rescore>
     Score         DG    S(hbond)    S(metal)    S(lipo)     H(rot)  DE(clash)    DE(int)     intcor
     17.51     -18.61       0.97        0.00     137.23       2.41       0.10       1.00       ----

> <Gold.Chemscore.Fitness>
17.5110

> <Gold.Chemscore.DG>
-18.6073

> <Gold.Chemscore.ZeroCoef>
-5.4800

> <Gold.Chemscore.Hbond>
0.9690

> <Gold.Chemscore.Metal>
0.0000

> <Gold.Chemscore.Lipo>
137.2309

> <Gold.Chemscore.Internal_Hbond>
0.0000

> <Gold.Chemscore.DEClash>
0.0991

> <Gold.Chemscore.DEInternal>
0.9971

> <Gold.Chemscore.Rot>
2.4083

> <Gold.Chemscore.Internal.Correction>
   9.000000E+99

> <Gold.Chemscore.Hbonds>
donor molecule, donor type, donor heavy atom, donor atom, acceptor molecule, acceptor atom, score
      L1  H    10    31       P1  8028  0.85

> <Gold.Chemscore.Hbond.Weighted>
-3.2365

> <Gold.Chemscore.Metal.Weighted>
-0.0000

> <Gold.Chemscore.Lipo.Weighted>
-16.0560

> <Gold.Chemscore.Internal_Hbond.Weighted>
0.0000

> <Gold.Chemscore.DEClash.Weighted>
0.0991

> <Gold.Chemscore.DEInternal.Weighted>
0.9971

> <Gold.Chemscore.Rot.Weighted>
6.1653

> <Gold.Chemscore.Internal.Correction.Weighted>
   9.000000E+99

> <Gold.Protein.RotatedTorsions>
[ 6907 6896 6895 6894 ] final   47.72 input  -60.11 | X-H torsion
[ 7974 7965 7964 7962 ] final   44.31 input  175.53 | X-H torsion
[ 8008 7997 7996 7995 ] final  136.62 input   59.86 | X-H torsion
[ 10167 10162 10161 10158 ] final   12.29 input  -65.29 | X-H torsion
[ 10718 10713 10712 10709 ] final    7.50 input   66.30 | X-H torsion
[ 10763 10752 10751 10750 ] final  -16.23 input  -60.55 | X-H torsion
[ 11005 11000 10999 10996 ] final  -45.55 input  -57.11 | X-H torsion

> <Gold.Protein.ActiveResidues>
 VAL166  LYS551  ARG553  GLY616  TRP617  ASP618  TYR619  PRO620  LYS621  CYS622 
 ASP623  PHE694  ASN695  SER759  ASP760  ASP761  ALA762  ILE779  LEU786  VAL792 
 PHE793  MET794  SER795  GLU796  ALA797  LYS798  CYS799  TRP800  GLU811  SER814 

> <Gold.Protein.RotatedAtoms>
  152.2713  134.7930  160.0413 H   0  0  0  0  0  0  0  0  0  0  0  0  # atno 6907 bound_to 6896
  151.8541  133.3440  159.3691 H   0  0  0  0  0  0  0  0  0  0  0  0  # atno 6908 bound_to 6896
  150.7153  134.5198  159.5692 H   0  0  0  0  0  0  0  0  0  0  0  0  # atno 6909 bound_to 6896
  146.0579  139.5088  142.9677 H   0  0  0  0  0  0  0  0  0  0  0  0  # atno 7974 bound_to 7965
  156.3004  140.2440  156.3776 H   0  0  0  0  0  0  0  0  0  0  0  0  # atno 8008 bound_to 7997
  154.8731  140.0415  157.1756 H   0  0  0  0  0  0  0  0  0  0  0  0  # atno 8009 bound_to 7997
  154.8775  140.2944  155.5449 H   0  0  0  0  0  0  0  0  0  0  0  0  # atno 8010 bound_to 7997
  140.6078  143.8472  150.7032 H   0  0  0  0  0  0  0  0  0  0  0  0  # atno 10167 bound_to 10162
  156.9379  130.5850  149.5651 H   0  0  0  0  0  0  0  0  0  0  0  0  # atno 10718 bound_to 10713
  153.5554  135.7011  153.5572 H   0  0  0  0  0  0  0  0  0  0  0  0  # atno 10763 bound_to 10752
  153.3477  135.4003  155.1621 H   0  0  0  0  0  0  0  0  0  0  0  0  # atno 10764 bound_to 10752
  154.8655  135.3758  154.5068 H   0  0  0  0  0  0  0  0  0  0  0  0  # atno 10765 bound_to 10752
  141.0523  133.6738  156.3029 H   0  0  0  0  0  0  0  0  0  0  0  0  # atno 11005 bound_to 11000
  145.6611  141.0240  143.1708 LP  0  0  0  0  0  0  0  0  0  0  0  0  # atno 17320 bound_to 7965
  144.7158  139.8202  143.7399 LP  0  0  0  0  0  0  0  0  0  0  0  0  # atno 17321 bound_to 7965
  140.2033  143.3941  152.1774 LP  0  0  0  0  0  0  0  0  0  0  0  0  # atno 17342 bound_to 10162
  139.5338  144.7187  151.4965 LP  0  0  0  0  0  0  0  0  0  0  0  0  # atno 17343 bound_to 10162
  156.0418  130.5499  150.8787 LP  0  0  0  0  0  0  0  0  0  0  0  0  # atno 17370 bound_to 10713
  157.5804  131.0946  150.9279 LP  0  0  0  0  0  0  0  0  0  0  0  0  # atno 17371 bound_to 10713
  140.6032  134.5533  157.5521 LP  0  0  0  0  0  0  0  0  0  0  0  0  # atno 17394 bound_to 11000
  139.9360  134.7874  156.0801 LP  0  0  0  0  0  0  0  0  0  0  0  0  # atno 17395 bound_to 11000

$$$$
