AV-unprocessed.smi:1567|AV-procd|sdf|6308|dock4
  -GOLD-   22720 6513D 1   1.00000     0.00000
 Structure written by MMmdl.
 43 45  0  0  0  0  0  0  0  0  2 V2000
  151.9827  137.1753  153.9231 O   0  0  0  0  0  0  0  0  0  0  0  0
  151.4520  138.1901  154.7466 C   0  0  0  0  0  0  0  0  0  0  0  0
  149.9467  138.3404  154.4755 C   0  0  0  0  0  0  0  0  0  0  0  0
  149.0565  137.6802  155.5414 C   0  0  0  0  0  0  0  0  0  0  0  0
  149.1153  136.1860  155.4882 C   0  0  0  0  0  0  0  0  0  0  0  0
  149.2363  135.4362  154.3564 N   0  3  0  0  0  0  0  0  0  0  0  0
  149.2493  134.0805  154.6858 C   0  0  0  0  0  0  0  0  0  0  0  0
  149.3565  132.9496  153.8821 C   0  0  0  0  0  0  0  0  0  0  0  0
  149.3417  131.7022  154.5399 C   0  0  0  0  0  0  0  0  0  0  0  0
  149.2241  131.6133  155.9420 C   0  0  0  0  0  0  0  0  0  0  0  0
  149.1148  132.7670  156.7460 C   0  0  0  0  0  0  0  0  0  0  0  0
  149.1281  133.9972  156.0880 C   0  0  0  0  0  0  0  0  0  0  0  0
  149.0433  135.3201  156.5406 N   0  0  0  0  0  0  0  0  0  0  0  0
  148.8982  135.5861  157.9813 C   0  0  0  0  0  0  0  0  0  0  0  0
  147.4272  135.6003  158.4452 C   0  0  2  0  0  0  0  0  0  0  0  0
  146.7914  136.7972  158.0403 O   0  0  0  0  0  0  0  0  0  0  0  0
  147.3118  135.3647  159.9448 C   0  0  0  0  0  0  0  0  0  0  0  0
  147.4192  136.4581  160.8317 C   0  0  0  0  0  0  0  0  0  0  0  0
  147.3107  136.2615  162.2219 C   0  0  0  0  0  0  0  0  0  0  0  0
  147.4163  137.3161  163.0645 F   0  0  0  0  0  0  0  0  0  0  0  0
  147.0919  134.9694  162.7356 C   0  0  0  0  0  0  0  0  0  0  0  0
  146.9799  133.8747  161.8578 C   0  0  0  0  0  0  0  0  0  0  0  0
  147.0882  134.0687  160.4666 C   0  0  0  0  0  0  0  0  0  0  0  0
  146.9720  133.0031  159.6379 F   0  0  0  0  0  0  0  0  0  0  0  0
  151.3731  137.0062  153.2206 H   0  0  0  0  0  0  0  0  0  0  0  0
  151.6312  137.9307  155.7903 H   0  0  0  0  0  0  0  0  0  0  0  0
  151.9843  139.1195  154.5428 H   0  0  0  0  0  0  0  0  0  0  0  0
  149.6916  139.3978  154.3925 H   0  0  0  0  0  0  0  0  0  0  0  0
  149.7162  137.8960  153.5065 H   0  0  0  0  0  0  0  0  0  0  0  0
  149.3745  138.0026  156.5333 H   0  0  0  0  0  0  0  0  0  0  0  0
  148.0248  138.0135  155.4292 H   0  0  0  0  0  0  0  0  0  0  0  0
  149.4487  133.0155  152.8079 H   0  0  0  0  0  0  0  0  0  0  0  0
  149.4242  130.7956  153.9580 H   0  0  0  0  0  0  0  0  0  0  0  0
  149.2191  130.6404  156.4118 H   0  0  0  0  0  0  0  0  0  0  0  0
  149.0333  132.6858  157.8198 H   0  0  0  0  0  0  0  0  0  0  0  0
  149.4444  134.8054  158.5110 H   0  0  0  0  0  0  0  0  0  0  0  0
  149.4054  136.5192  158.2257 H   0  0  0  0  0  0  0  0  0  0  0  0
  146.9008  134.7935  157.9338 H   0  0  0  0  0  0  0  0  0  0  0  0
  147.4025  137.5108  158.1431 H   0  0  0  0  0  0  0  0  0  0  0  0
  147.5853  137.4549  160.4501 H   0  0  0  0  0  0  0  0  0  0  0  0
  147.0089  134.8183  163.8019 H   0  0  0  0  0  0  0  0  0  0  0  0
  146.8095  132.8837  162.2522 H   0  0  0  0  0  0  0  0  0  0  0  0
  149.3047  135.8270  153.4254 H   0  0  0  0  0  0  0  0  0  0  0  0
  1  2  1  0  0  0  0
  1 25  1  0  0  0  0
  2  3  1  0  0  0  0
  2 26  1  0  0  0  0
  2 27  1  0  0  0  0
  3  4  1  0  0  0  0
  3 28  1  0  0  0  0
  3 29  1  0  0  0  0
  4  5  1  0  0  0  0
  4 30  1  0  0  0  0
  4 31  1  0  0  0  0
  5 13  1  0  0  0  0
  5  6  2  0  0  0  0
  6  7  1  0  0  0  0
  6 43  1  0  0  0  0
  7 12  2  0  0  0  0
  7  8  1  0  0  0  0
  8  9  2  0  0  0  0
  8 32  1  0  0  0  0
  9 10  1  0  0  0  0
  9 33  1  0  0  0  0
 10 11  2  0  0  0  0
 10 34  1  0  0  0  0
 11 12  1  0  0  0  0
 11 35  1  0  0  0  0
 12 13  1  0  0  0  0
 13 14  1  0  0  0  0
 14 15  1  0  0  0  0
 14 36  1  0  0  0  0
 14 37  1  0  0  0  0
 15 16  1  0  0  0  0
 15 17  1  0  0  0  0
 15 38  1  0  0  0  0
 16 39  1  0  0  0  0
 17 23  1  0  0  0  0
 17 18  2  0  0  0  0
 18 19  1  0  0  0  0
 18 40  1  0  0  0  0
 19 20  1  0  0  0  0
 19 21  2  0  0  0  0
 21 22  1  0  0  0  0
 21 41  1  0  0  0  0
 22 23  2  0  0  0  0
 22 42  1  0  0  0  0
 23 24  1  0  0  0  0
M  CHG  1   6   1
M  END
> <s_m_source_file>
AV-unprocessed.smi

> <i_m_source_file_index>
1567

> <i_lp_mmshare_version>
43012

> <i_f3d_flags>
0

> <s_epik_input>
W09IXVtDSDJdW0NIMl1bQ0gyXWMobjEpbihjKGMxMilbY0hdW2NIXVtjSF1bY0hdMilbQ0gyXVtDQEhdKFtPSF0pYzNbY0hdYyhGKVtjSF1bY0hdYzNG

> <s_epik_cmdline>
J2VwaWtfcHl0aG9uJywgJy1waCcsICc3LjAnLCAnLXRuJywgJzgnLCAnLW1hJywgJzIwMCcsICctbWV0YWxfYmluZGluZycsICctaW1hZScsICc8aW5maWxlLm1hZT4nLCAnLW9tYWUnLCAnPG91dGZpbGUubWFlPic=

> <r_epik_Ionization_Penalty>
0.786443

> <r_epik_Ionization_Penalty_Charging>
0.786439

> <r_epik_Ionization_Penalty_Neutral>
3.69699e-06

> <r_epik_State_Penalty>
0.816472

> <r_epik_Charging_Adjusted_Penalty>
1.60291

> <i_epik_Tot_Q>
1

> <i_epik_Tot_abs_Q>
1

> <r_epik_Metal_State_Penalty>
4.73733

> <b_epik_Metal_Only>
0

> <s_lp_Force_Field>
OPLS_2005

> <r_lp_Energy>
17.4114

> <b_lp_Chiralities_Consistent>
1

> <s_lp_Variant>
AV-unprocessed.smi:1567-3

> <Gold.Version>
5.8.1

> <Gold.Id.Protein>
6NUR|6NUR_protein|mol2

> <Gold.PLP.Fitness>
50.6786

> <Gold.PLP.PLP>
-42.8054

> <Gold.PLP.part.hbond>
-3.0000

> <Gold.PLP.part.metal>
0.0000

> <Gold.PLP.part.buried>
-4.2196

> <Gold.PLP.part.nonpolar>
-35.6947

> <Gold.PLP.part.repulsive>
0.0239

> <Gold.PLP.ligand.clash>
0.0000

> <Gold.PLP.ligand.torsion>
1.8584

> <Gold.PLP.Chemscore.Hbond>
3.8320

> <Gold.PLP.Chemscore.CHOScore>
0.0000

> <Gold.PLP.Chemscore.Metal>
0.0000

> <Gold.Chemscore.Hbonds>
donor molecule, donor type, donor heavy atom, donor atom, acceptor molecule, acceptor atom, score
      L1  H     1    25       P1  7949  0.85
      L1  H     6    43       P1  7948  2.00
      P1  H 10752 10764       L1     1  1.00

> <Gold.PLP.Chemscore.Internal.Correction>
0.0940

> <Gold.Rescore>
     Score         DG    S(hbond)    S(metal)    S(lipo)     H(rot)  DE(clash)    DE(int)     intcor
     12.78     -15.07       2.11        0.00      94.31       3.31       0.69       1.60       ----

> <Gold.Chemscore.Fitness>
12.7783

> <Gold.Chemscore.DG>
-15.0684

> <Gold.Chemscore.ZeroCoef>
-5.4800

> <Gold.Chemscore.Hbond>
2.1063

> <Gold.Chemscore.Metal>
0.0000

> <Gold.Chemscore.Lipo>
94.3055

> <Gold.Chemscore.Internal_Hbond>
0.0000

> <Gold.Chemscore.DEClash>
0.6879

> <Gold.Chemscore.DEInternal>
1.6021

> <Gold.Chemscore.Rot>
3.3127

> <Gold.Chemscore.Internal.Correction>
   9.000000E+99

> <Gold.Chemscore.Hbonds>
donor molecule, donor type, donor heavy atom, donor atom, acceptor molecule, acceptor atom, score
      L1  H     1    25       P1  7949  0.62
      L1  H     6    43       P1  7948  0.55
      P1  H 10752 10764       L1     1  0.58

> <Gold.Chemscore.Hbond.Weighted>
-7.0351

> <Gold.Chemscore.Metal.Weighted>
-0.0000

> <Gold.Chemscore.Lipo.Weighted>
-11.0337

> <Gold.Chemscore.Internal_Hbond.Weighted>
0.0000

> <Gold.Chemscore.DEClash.Weighted>
0.6879

> <Gold.Chemscore.DEInternal.Weighted>
1.6021

> <Gold.Chemscore.Rot.Weighted>
8.4805

> <Gold.Chemscore.Internal.Correction.Weighted>
   9.000000E+99

> <Gold.Protein.RotatedTorsions>
[ 6907 6896 6895 6894 ] final -122.09 input  -60.11 | X-H torsion
[ 7974 7965 7964 7962 ] final -165.79 input  175.53 | X-H torsion
[ 8008 7997 7996 7995 ] final -137.96 input   59.86 | X-H torsion
[ 10167 10162 10161 10158 ] final  -82.63 input  -65.29 | X-H torsion
[ 10718 10713 10712 10709 ] final  132.15 input   66.30 | X-H torsion
[ 10763 10752 10751 10750 ] final  -88.94 input  -60.55 | X-H torsion
[ 11005 11000 10999 10996 ] final  -99.41 input  -57.11 | X-H torsion

> <Gold.Protein.ActiveResidues>
 VAL166  LYS551  ARG553  GLY616  TRP617  ASP618  TYR619  PRO620  LYS621  CYS622 
 ASP623  PHE694  ASN695  SER759  ASP760  ASP761  ALA762  ILE779  LEU786  VAL792 
 PHE793  MET794  SER795  GLU796  ALA797  LYS798  CYS799  TRP800  GLU811  SER814 

> <Gold.Protein.RotatedAtoms>
  150.8544  133.7738  159.3013 H   0  0  0  0  0  0  0  0  0  0  0  0  # atno 6907 bound_to 6896
  151.5400  135.1067  159.9933 H   0  0  0  0  0  0  0  0  0  0  0  0  # atno 6908 bound_to 6896
  152.4578  133.7715  159.6857 H   0  0  0  0  0  0  0  0  0  0  0  0  # atno 6909 bound_to 6896
  144.7261  140.2762  143.6243 H   0  0  0  0  0  0  0  0  0  0  0  0  # atno 7974 bound_to 7965
  155.4204  140.0518  157.3026 H   0  0  0  0  0  0  0  0  0  0  0  0  # atno 8008 bound_to 7997
  154.4905  140.2118  155.9518 H   0  0  0  0  0  0  0  0  0  0  0  0  # atno 8009 bound_to 7997
  156.1336  140.3167  155.8391 H   0  0  0  0  0  0  0  0  0  0  0  0  # atno 8010 bound_to 7997
  140.4302  143.2551  151.8770 H   0  0  0  0  0  0  0  0  0  0  0  0  # atno 10167 bound_to 10162
  157.4899  131.1090  150.9570 H   0  0  0  0  0  0  0  0  0  0  0  0  # atno 10718 bound_to 10713
  154.6500  135.5359  153.7890 H   0  0  0  0  0  0  0  0  0  0  0  0  # atno 10763 bound_to 10752
  153.0381  135.6480  154.1031 H   0  0  0  0  0  0  0  0  0  0  0  0  # atno 10764 bound_to 10752
  154.0949  135.2937  155.3243 H   0  0  0  0  0  0  0  0  0  0  0  0  # atno 10765 bound_to 10752
  141.1309  133.8320  157.0969 H   0  0  0  0  0  0  0  0  0  0  0  0  # atno 11005 bound_to 11000
  145.7994  139.1958  143.2057 LP  0  0  0  0  0  0  0  0  0  0  0  0  # atno 17320 bound_to 7965
  146.0689  140.7890  142.9698 LP  0  0  0  0  0  0  0  0  0  0  0  0  # atno 17321 bound_to 7965
  139.4784  144.5343  151.8621 LP  0  0  0  0  0  0  0  0  0  0  0  0  # atno 17342 bound_to 10162
  140.4436  144.1953  150.5892 LP  0  0  0  0  0  0  0  0  0  0  0  0  # atno 17343 bound_to 10162
  157.0276  130.5698  149.5339 LP  0  0  0  0  0  0  0  0  0  0  0  0  # atno 17370 bound_to 10713
  156.0167  130.5262  150.8156 LP  0  0  0  0  0  0  0  0  0  0  0  0  # atno 17371 bound_to 10713
  140.0358  134.9879  157.0867 LP  0  0  0  0  0  0  0  0  0  0  0  0  # atno 17394 bound_to 11000
  140.4213  134.1877  155.7164 LP  0  0  0  0  0  0  0  0  0  0  0  0  # atno 17395 bound_to 11000

$$$$
