AV-unprocessed.smi:2003|AV-procd|sdf|8119|dock4
  -GOLD-   2272010353D 1   1.00000     0.00000
 Structure written by MMmdl.
 44 45  0  0  0  0  0  0  0  0  2 V2000
  150.9994  142.1724  156.2425 C   0  0  0  0  0  0  0  0  0  0  0  0
  150.6326  140.9295  155.4867 C   0  0  0  0  0  0  0  0  0  0  0  0
  149.4375  140.6666  154.7558 C   0  0  0  0  0  0  0  0  0  0  0  0
  149.6460  139.3996  154.2835 C   0  0  0  0  0  0  0  0  0  0  0  0
  148.8290  138.6257  153.5206 N   0  0  0  0  0  0  0  0  0  0  0  0
  147.4957  138.7063  153.3701 C   0  0  0  0  0  0  0  0  0  0  0  0
  146.7664  139.5463  153.8966 O   0  0  0  0  0  0  0  0  0  0  0  0
  147.0420  137.7383  152.5611 N   0  0  0  0  0  0  0  0  0  0  0  0
  145.6445  137.5341  152.1816 C   0  0  0  0  0  0  0  0  0  0  0  0
  145.4121  136.2472  151.3442 C   0  0  2  0  0  0  0  0  0  0  0  0
  143.9074  135.9000  151.3185 C   0  0  0  0  0  0  0  0  0  0  0  0
  146.2631  135.1013  151.8033 N   0  3  0  0  0  0  0  0  0  0  0  0
  146.1704  134.8107  153.2605 C   0  0  0  0  0  0  0  0  0  0  0  0
  147.0896  133.6413  153.6531 C   0  0  0  0  0  0  0  0  0  0  0  0
  146.7645  132.4927  152.8848 O   0  0  0  0  0  0  0  0  0  0  0  0
  146.9584  132.7236  151.4978 C   0  0  0  0  0  0  0  0  0  0  0  0
  146.0262  133.8525  151.0288 C   0  0  0  0  0  0  0  0  0  0  0  0
  150.8781  138.9611  154.7144 N   0  0  0  0  0  0  0  0  0  0  0  0
  151.5390  137.6924  154.4785 C   0  0  0  0  0  0  0  0  0  0  0  0
  151.4840  139.9102  155.4596 N   0  0  0  0  0  0  0  0  0  0  0  0
  150.2350  142.9418  156.1308 H   0  0  0  0  0  0  0  0  0  0  0  0
  151.9416  142.5876  155.8836 H   0  0  0  0  0  0  0  0  0  0  0  0
  151.1088  141.9658  157.3073 H   0  0  0  0  0  0  0  0  0  0  0  0
  148.5844  141.3132  154.6165 H   0  0  0  0  0  0  0  0  0  0  0  0
  149.2930  137.8919  153.0060 H   0  0  0  0  0  0  0  0  0  0  0  0
  147.7173  137.1031  152.1614 H   0  0  0  0  0  0  0  0  0  0  0  0
  145.0024  137.5418  153.0641 H   0  0  0  0  0  0  0  0  0  0  0  0
  145.3344  138.4084  151.6096 H   0  0  0  0  0  0  0  0  0  0  0  0
  145.6945  136.4752  150.3150 H   0  0  0  0  0  0  0  0  0  0  0  0
  143.3028  136.7844  151.1152 H   0  0  0  0  0  0  0  0  0  0  0  0
  143.5728  135.4840  152.2691 H   0  0  0  0  0  0  0  0  0  0  0  0
  143.6683  135.1829  150.5335 H   0  0  0  0  0  0  0  0  0  0  0  0
  146.4705  135.6748  153.8514 H   0  0  0  0  0  0  0  0  0  0  0  0
  145.1366  134.5800  153.5225 H   0  0  0  0  0  0  0  0  0  0  0  0
  148.1388  133.9055  153.5104 H   0  0  0  0  0  0  0  0  0  0  0  0
  146.9637  133.4049  154.7099 H   0  0  0  0  0  0  0  0  0  0  0  0
  148.0025  132.9695  151.2963 H   0  0  0  0  0  0  0  0  0  0  0  0
  146.7376  131.8049  150.9542 H   0  0  0  0  0  0  0  0  0  0  0  0
  144.9853  133.5450  151.1411 H   0  0  0  0  0  0  0  0  0  0  0  0
  146.1981  134.0134  149.9656 H   0  0  0  0  0  0  0  0  0  0  0  0
  151.5313  137.4659  153.4120 H   0  0  0  0  0  0  0  0  0  0  0  0
  151.0138  136.9021  155.0152 H   0  0  0  0  0  0  0  0  0  0  0  0
  152.5738  137.7284  154.8222 H   0  0  0  0  0  0  0  0  0  0  0  0
  147.2205  135.3733  151.6312 H   0  0  0  0  0  0  0  0  0  0  0  0
  1  2  1  0  0  0  0
  1 21  1  0  0  0  0
  1 22  1  0  0  0  0
  1 23  1  0  0  0  0
  2 20  2  0  0  0  0
  2  3  1  0  0  0  0
  3  4  2  0  0  0  0
  3 24  1  0  0  0  0
  4  5  1  0  0  0  0
  4 18  1  0  0  0  0
  5  6  1  0  0  0  0
  5 25  1  0  0  0  0
  6  7  2  0  0  0  0
  6  8  1  0  0  0  0
  8  9  1  0  0  0  0
  8 26  1  0  0  0  0
  9 10  1  0  0  0  0
  9 27  1  0  0  0  0
  9 28  1  0  0  0  0
 10 11  1  0  0  0  0
 10 12  1  0  0  0  0
 10 29  1  0  0  0  0
 11 30  1  0  0  0  0
 11 31  1  0  0  0  0
 11 32  1  0  0  0  0
 12 17  1  0  0  0  0
 12 13  1  0  0  0  0
 12 44  1  0  0  0  0
 13 14  1  0  0  0  0
 13 33  1  0  0  0  0
 13 34  1  0  0  0  0
 14 15  1  0  0  0  0
 14 35  1  0  0  0  0
 14 36  1  0  0  0  0
 15 16  1  0  0  0  0
 16 17  1  0  0  0  0
 16 37  1  0  0  0  0
 16 38  1  0  0  0  0
 17 39  1  0  0  0  0
 17 40  1  0  0  0  0
 18 19  1  0  0  0  0
 18 20  1  0  0  0  0
 19 41  1  0  0  0  0
 19 42  1  0  0  0  0
 19 43  1  0  0  0  0
M  CHG  1  12   1
M  END
> <s_m_source_file>
AV-unprocessed.smi

> <i_m_source_file_index>
2003

> <i_lp_mmshare_version>
43012

> <i_f3d_flags>
0

> <s_epik_input>
W0NIM11jMVtjSF1jKG4objEpW0NIM10pW05IXUMoPU8pW05IXVtDSDJdW0NASF0oW0NIM10pTjJbQ0gyXVtDSDJdT1tDSDJdW0NIMl0y

> <s_epik_cmdline>
J2VwaWtfcHl0aG9uJywgJy1waCcsICc3LjAnLCAnLXRuJywgJzgnLCAnLW1hJywgJzIwMCcsICctbWV0YWxfYmluZGluZycsICctaW1hZScsICc8aW5maWxlLm1hZT4nLCAnLW9tYWUnLCAnPG91dGZpbGUubWFlPic=

> <r_lp_tautomer_probability>
1

> <r_epik_Ionization_Penalty>
0.663903

> <r_epik_Ionization_Penalty_Charging>
0.663826

> <r_epik_Ionization_Penalty_Neutral>
7.78239e-05

> <r_epik_State_Penalty>
0.683414

> <r_epik_Charging_Adjusted_Penalty>
1.34724

> <i_epik_Tot_Q>
1

> <i_epik_Tot_abs_Q>
1

> <r_epik_Metal_State_Penalty>
0.683419

> <b_epik_Metal_Only>
0

> <s_lp_Force_Field>
OPLS_2005

> <r_lp_Energy>
28.7948

> <b_lp_Chiralities_Consistent>
1

> <s_lp_Variant>
AV-unprocessed.smi:2003-3

> <Gold.Version>
5.8.1

> <Gold.Id.Protein>
6NUR|6NUR_protein|mol2

> <Gold.PLP.Fitness>
45.7873

> <Gold.PLP.PLP>
-35.1029

> <Gold.PLP.part.hbond>
-4.8191

> <Gold.PLP.part.metal>
0.0000

> <Gold.PLP.part.buried>
-1.2150

> <Gold.PLP.part.nonpolar>
-29.8100

> <Gold.PLP.part.repulsive>
0.4344

> <Gold.PLP.ligand.clash>
0.0000

> <Gold.PLP.ligand.torsion>
0.3659

> <Gold.PLP.Chemscore.Hbond>
3.7865

> <Gold.PLP.Chemscore.CHOScore>
0.0000

> <Gold.PLP.Chemscore.Metal>
0.0000

> <Gold.Chemscore.Hbonds>
donor molecule, donor type, donor heavy atom, donor atom, acceptor molecule, acceptor atom, score
      L1  H     5    25       P1  7948  0.90
      L1  H     8    26       P1  7948  0.99
      L1  H    12    44       P1  7948  2.00

> <Gold.PLP.Chemscore.Internal.Correction>
0.0569

> <Gold.Rescore>
     Score         DG    S(hbond)    S(metal)    S(lipo)     H(rot)  DE(clash)    DE(int)     intcor
     16.45     -18.45       2.67        0.00      68.31       1.54       0.83       1.17       ----

> <Gold.Chemscore.Fitness>
16.4550

> <Gold.Chemscore.DG>
-18.4514

> <Gold.Chemscore.ZeroCoef>
-5.4800

> <Gold.Chemscore.Hbond>
2.6708

> <Gold.Chemscore.Metal>
0.0000

> <Gold.Chemscore.Lipo>
68.3142

> <Gold.Chemscore.Internal_Hbond>
0.0000

> <Gold.Chemscore.DEClash>
0.8294

> <Gold.Chemscore.DEInternal>
1.1671

> <Gold.Chemscore.Rot>
1.5398

> <Gold.Chemscore.Internal.Correction>
   9.000000E+99

> <Gold.Chemscore.Hbonds>
donor molecule, donor type, donor heavy atom, donor atom, acceptor molecule, acceptor atom, score
      L1  H     5    25       P1  7948  0.80
      L1  H     8    26       P1  7948  0.92
      L1  H    12    44       P1  7948  0.97

> <Gold.Chemscore.Hbond.Weighted>
-8.9206

> <Gold.Chemscore.Metal.Weighted>
-0.0000

> <Gold.Chemscore.Lipo.Weighted>
-7.9928

> <Gold.Chemscore.Internal_Hbond.Weighted>
0.0000

> <Gold.Chemscore.DEClash.Weighted>
0.8294

> <Gold.Chemscore.DEInternal.Weighted>
1.1671

> <Gold.Chemscore.Rot.Weighted>
3.9420

> <Gold.Chemscore.Internal.Correction.Weighted>
   9.000000E+99

> <Gold.Protein.RotatedTorsions>
[ 6907 6896 6895 6894 ] final   21.79 input  -60.11 | X-H torsion
[ 7974 7965 7964 7962 ] final   74.42 input  175.53 | X-H torsion
[ 8008 7997 7996 7995 ] final  -28.56 input   59.86 | X-H torsion
[ 10167 10162 10161 10158 ] final   63.24 input  -65.29 | X-H torsion
[ 10718 10713 10712 10709 ] final -126.74 input   66.30 | X-H torsion
[ 10763 10752 10751 10750 ] final  -33.44 input  -60.55 | X-H torsion
[ 11005 11000 10999 10996 ] final  -67.83 input  -57.11 | X-H torsion

> <Gold.Protein.ActiveResidues>
 VAL166  LYS551  ARG553  GLY616  TRP617  ASP618  TYR619  PRO620  LYS621  CYS622 
 ASP623  PHE694  ASN695  SER759  ASP760  ASP761  ALA762  ILE779  LEU786  VAL792 
 PHE793  MET794  SER795  GLU796  ALA797  LYS798  CYS799  TRP800  GLU811  SER814 

> <Gold.Protein.RotatedAtoms>
  151.9172  135.0314  160.0518 H   0  0  0  0  0  0  0  0  0  0  0  0  # atno 6907 bound_to 6896
  152.2230  133.4993  159.5181 H   0  0  0  0  0  0  0  0  0  0  0  0  # atno 6908 bound_to 6896
  150.7005  134.1234  159.4086 H   0  0  0  0  0  0  0  0  0  0  0  0  # atno 6909 bound_to 6896
  145.7285  139.2675  143.1555 H   0  0  0  0  0  0  0  0  0  0  0  0  # atno 7974 bound_to 7965
  154.4327  140.1842  156.1109 H   0  0  0  0  0  0  0  0  0  0  0  0  # atno 8008 bound_to 7997
  156.0219  140.3340  155.7022 H   0  0  0  0  0  0  0  0  0  0  0  0  # atno 8009 bound_to 7997
  155.5964  140.0636  157.2735 H   0  0  0  0  0  0  0  0  0  0  0  0  # atno 8010 bound_to 7997
  140.1352  144.4606  150.6842 H   0  0  0  0  0  0  0  0  0  0  0  0  # atno 10167 bound_to 10162
  156.1792  130.6721  151.0283 H   0  0  0  0  0  0  0  0  0  0  0  0  # atno 10718 bound_to 10713
  153.8302  135.6866  153.4815 H   0  0  0  0  0  0  0  0  0  0  0  0  # atno 10763 bound_to 10752
  153.1515  135.4616  154.9642 H   0  0  0  0  0  0  0  0  0  0  0  0  # atno 10764 bound_to 10752
  154.7890  135.3295  154.7766 H   0  0  0  0  0  0  0  0  0  0  0  0  # atno 10765 bound_to 10752
  141.1517  133.6727  156.6353 H   0  0  0  0  0  0  0  0  0  0  0  0  # atno 11005 bound_to 11000
  146.0560  140.8020  142.9758 LP  0  0  0  0  0  0  0  0  0  0  0  0  # atno 17320 bound_to 7965
  144.6899  140.3124  143.7246 LP  0  0  0  0  0  0  0  0  0  0  0  0  # atno 17321 bound_to 7965
  140.6793  143.2319  151.5425 LP  0  0  0  0  0  0  0  0  0  0  0  0  # atno 17342 bound_to 10162
  139.5499  144.2421  152.1512 LP  0  0  0  0  0  0  0  0  0  0  0  0  # atno 17343 bound_to 10162
  157.6857  131.0825  150.7249 LP  0  0  0  0  0  0  0  0  0  0  0  0  # atno 17370 bound_to 10713
  156.7307  130.4709  149.5500 LP  0  0  0  0  0  0  0  0  0  0  0  0  # atno 17371 bound_to 10713
  140.3435  134.7829  157.4415 LP  0  0  0  0  0  0  0  0  0  0  0  0  # atno 17394 bound_to 11000
  140.0918  134.5590  155.8437 LP  0  0  0  0  0  0  0  0  0  0  0  0  # atno 17395 bound_to 11000

$$$$
