#       Name:                AV-unprocessed.smi:2883
#       Creating user name   scv26
#       Creation time:       Fri Mar 27 15:55:16 2020


#       File generated by GOLD software.
#

@<TRIPOS>MOLECULE
AV-unprocessed.smi:2883
    43    45     1
SMALL
NO_CHARGES


@<TRIPOS>ATOM
      1 ****        -4.1486   1.1642  -0.7005 C.3            1 S1                 0.0000
      2 ****        -2.9061   1.1389   0.2206 C.3            1 S1                 0.0000
      3 ****        -2.0019   2.3037  -0.2477 C.3            1 S1                 0.0000
      4 ****        -3.3417   1.3762   1.6781 C.3            1 S1                 0.0000
      5 ****        -2.1667  -0.2060   0.1197 C.ar           1 S1                 0.0000
      6 ****        -2.9115  -1.3053  -0.0586 N.ar           1 S1                 0.0000
      7 ****        -2.2816  -2.4985  -0.0193 C.ar           1 S1                 0.0000
      8 ****        -0.8997  -2.6000   0.2322 C.ar           1 S1                 0.0000
      9 ****        -0.2110  -1.3900   0.4469 C.ar           1 S1                 0.0000
     10 ****         1.1644  -1.4176   0.7147 N.pl3          1 S1                 0.0000
     11 ****         1.9534  -0.1892   0.7050 C.3            1 S1                 0.0000
     12 ****         3.4015  -0.4020   1.1527 C.3            1 S1                 0.0000
     13 ****         4.1860   0.2132  -0.0149 C.3            1 S1                 0.0000
     14 ****         4.1679  -0.6990  -1.2479 C.3            1 S1                 0.0000
     15 ****         2.7284  -0.5365  -1.7323 C.3            1 S1                 0.0000
     16 ****         2.1494   0.4366  -0.6910 C.3            1 S1                 0.0000
     17 ****         3.2942   1.2326  -0.4351 O.3            1 S1                 0.0000
     18 ****        -0.8586  -0.2028   0.4069 N.ar           1 S1                 0.0000
     19 ****        -4.6483   2.1329  -0.6654 H              1 S1                 0.0000
     20 ****        -4.8892   0.4185  -0.4092 H              1 S1                 0.0000
     21 ****        -3.8775   0.9732  -1.7395 H              1 S1                 0.0000
     22 ****        -1.6526   2.1497  -1.2694 H              1 S1                 0.0000
     23 ****        -1.1227   2.4203   0.3872 H              1 S1                 0.0000
     24 ****        -2.5348   3.2549  -0.2236 H              1 S1                 0.0000
     25 ****        -3.8706   2.3235   1.7865 H              1 S1                 0.0000
     26 ****        -2.4823   1.4003   2.3491 H              1 S1                 0.0000
     27 ****        -4.0077   0.5856   2.0257 H              1 S1                 0.0000
     28 ****        -2.8852  -3.3788  -0.1831 H              1 S1                 0.0000
     29 ****        -0.4010  -3.5576   0.2639 H              1 S1                 0.0000
     30 ****         1.6518  -2.3015   0.6969 H              1 S1                 0.0000
     31 ****         1.4899   0.5419   1.3691 H              1 S1                 0.0000
     32 ****         3.5932   0.1402   2.0792 H              1 S1                 0.0000
     33 ****         3.6643  -1.4486   1.3137 H              1 S1                 0.0000
     34 ****         5.1803   0.5680   0.2576 H              1 S1                 0.0000
     35 ****         4.8684  -0.3444  -2.0046 H              1 S1                 0.0000
     36 ****         4.4197  -1.7318  -1.0050 H              1 S1                 0.0000
     37 ****         2.7126  -0.0864  -2.7254 H              1 S1                 0.0000
     38 ****         2.1862  -1.4808  -1.7843 H              1 S1                 0.0000
     39 ****         1.2886   1.0023  -1.0486 H              1 S1                 0.0000
     40 ****        -3.8973  -1.2441  -0.2150 LP             1 S1                 0.0000
     41 ****         3.6185   1.6982  -1.2586 LP             1 S1                 0.0000
     42 ****         3.1288   1.9061   0.2853 LP             1 S1                 0.0000
     43 ****        -0.3740   0.6533   0.5868 LP             1 S1                 0.0000
@<TRIPOS>BOND
    1    1    2 1     
    2    1   19 1     
    3    1   20 1     
    4    1   21 1     
    5    2    3 1     
    6    2    4 1     
    7    2    5 1     
    8    3   22 1     
    9    3   23 1     
   10    3   24 1     
   11    4   25 1     
   12    4   26 1     
   13    4   27 1     
   14    5   18 ar    
   15    5    6 ar    
   16    6    7 ar    
   17    7    8 ar    
   18    7   28 1     
   19    8    9 ar    
   20    8   29 1     
   21    9   10 1     
   22    9   18 ar    
   23   10   11 1     
   24   10   30 1     
   25   11   16 1     
   26   11   12 1     
   27   11   31 1     
   28   12   13 1     
   29   12   32 1     
   30   12   33 1     
   31   13   17 1     
   32   13   14 1     
   33   13   34 1     
   34   14   15 1     
   35   14   35 1     
   36   14   36 1     
   37   15   16 1     
   38   15   37 1     
   39   15   38 1     
   40   16   17 1     
   41   16   39 1     
   42    6   40 1     
   43   17   41 1     
   44   17   42 1     
   45   18   43 1     
@<TRIPOS>SUBSTRUCTURE
      1 S1             1
@<TRIPOS>SET
LONE_PAIRS      STATIC     ATOMS    <user>   **** ""
4 40 41 42 43
DONOR_HYDROGENS      STATIC     ATOMS    <user>   **** ""
1 30
ATOM$BLUE        STATIC     ATOMS    COLORGROUP SYSTEM
4 40 41 42 43
ATOM$RED        STATIC     ATOMS    COLORGROUP SYSTEM
1 30
