AV-unprocessed.smi:1760|AV-procd|sdf|7092|dock2
  -GOLD-   22720 8313D 1   1.00000     0.00000
 Structure written by MMmdl.
 43 45  0  0  0  0  0  0  0  0  3 V2000
  148.3144  139.5618  156.5580 O   0  0  0  0  0  0  0  0  0  0  0  0
  148.8587  140.1105  155.6002 C   0  0  0  0  0  0  0  0  0  0  0  0
  149.9325  140.9188  155.6577 N   0  0  0  0  0  0  0  0  0  0  0  0
  150.7038  141.3019  156.7682 C   0  0  0  0  0  0  0  0  0  0  0  0
  150.8621  142.5835  157.2013 C   0  0  0  0  0  0  0  0  0  0  0  0
  151.6679  142.9160  158.3697 C   0  0  0  0  0  0  0  0  0  0  0  0
  151.8946  144.3269  158.8806 C   0  0  0  0  0  0  0  0  0  0  0  0
  150.7331  144.9734  158.9753 F   0  0  0  0  0  0  0  0  0  0  0  0
  152.4485  144.2958  160.0921 F   0  0  0  0  0  0  0  0  0  0  0  0
  152.6955  145.0172  158.0688 F   0  0  0  0  0  0  0  0  0  0  0  0
  152.2219  141.7988  158.9619 C   0  0  0  0  0  0  0  0  0  0  0  0
  152.1045  140.5007  158.6066 N   0  5  0  0  0  0  0  0  0  0  0  0
  151.3508  140.2002  157.5114 C   0  0  0  0  0  0  0  0  0  0  0  0
  151.1998  139.0381  157.1321 O   0  0  0  0  0  0  0  0  0  0  0  0
  148.4276  139.9865  154.3364 N   0  0  0  0  0  0  0  0  0  0  0  0
  147.2747  139.2046  153.8974 C   0  0  2  0  0  0  0  0  0  0  0  0
  147.3388  137.7907  154.4986 C   0  0  0  0  0  0  0  0  0  0  0  0
  146.2012  136.9073  153.9597 C   0  0  0  0  0  0  0  0  0  0  0  0
  146.2283  136.8504  152.4770 N   0  3  1  0  0  0  0  0  0  0  0  0
  145.2184  135.9152  151.9359 C   0  0  0  0  0  0  0  0  0  0  0  0
  145.8110  134.6634  151.3315 C   0  0  0  0  0  0  0  0  0  0  0  0
  145.2794  135.7589  150.4342 C   0  0  0  0  0  0  0  0  0  0  0  0
  146.1189  138.2017  151.8731 C   0  0  0  0  0  0  0  0  0  0  0  0
  147.2528  139.1185  152.3620 C   0  0  0  0  0  0  0  0  0  0  0  0
  150.2178  141.3498  154.7905 H   0  0  0  0  0  0  0  0  0  0  0  0
  150.3749  143.4007  156.6960 H   0  0  0  0  0  0  0  0  0  0  0  0
  152.8549  141.9784  159.8570 H   0  0  0  0  0  0  0  0  0  0  0  0
  148.9393  140.4804  153.6199 H   0  0  0  0  0  0  0  0  0  0  0  0
  146.3452  139.6728  154.2266 H   0  0  0  0  0  0  0  0  0  0  0  0
  148.2986  137.3284  154.2627 H   0  0  0  0  0  0  0  0  0  0  0  0
  147.2807  137.8441  155.5865 H   0  0  0  0  0  0  0  0  0  0  0  0
  146.2987  135.9004  154.3674 H   0  0  0  0  0  0  0  0  0  0  0  0
  145.2357  137.2914  154.2932 H   0  0  0  0  0  0  0  0  0  0  0  0
  144.2636  135.8783  152.4575 H   0  0  0  0  0  0  0  0  0  0  0  0
  146.8905  134.5301  151.3743 H   0  0  0  0  0  0  0  0  0  0  0  0
  145.2267  133.7479  151.3994 H   0  0  0  0  0  0  0  0  0  0  0  0
  144.3453  135.5651  149.9109 H   0  0  0  0  0  0  0  0  0  0  0  0
  146.0068  136.3516  149.8824 H   0  0  0  0  0  0  0  0  0  0  0  0
  146.1589  138.1215  150.7862 H   0  0  0  0  0  0  0  0  0  0  0  0
  145.1495  138.6361  152.1231 H   0  0  0  0  0  0  0  0  0  0  0  0
  147.1327  140.1143  151.9335 H   0  0  0  0  0  0  0  0  0  0  0  0
  148.2079  138.7379  151.9969 H   0  0  0  0  0  0  0  0  0  0  0  0
  147.1323  136.4843  152.2144 H   0  0  0  0  0  0  0  0  0  0  0  0
  1  2  2  0  0  0  0
  2  3  1  0  0  0  0
  2 15  1  0  0  0  0
  3  4  1  0  0  0  0
  3 25  1  0  0  0  0
  4 13  1  0  0  0  0
  4  5  2  0  0  0  0
  5  6  1  0  0  0  0
  5 26  1  0  0  0  0
  6  7  1  0  0  0  0
  6 11  2  0  0  0  0
  7  8  1  0  0  0  0
  7  9  1  0  0  0  0
  7 10  1  0  0  0  0
 11 12  1  0  0  0  0
 11 27  1  0  0  0  0
 12 13  1  0  0  0  0
 13 14  2  0  0  0  0
 15 16  1  0  0  0  0
 15 28  1  0  0  0  0
 16 24  1  0  0  0  0
 16 17  1  0  0  0  0
 16 29  1  0  0  0  0
 17 18  1  0  0  0  0
 17 30  1  0  0  0  0
 17 31  1  0  0  0  0
 18 19  1  0  0  0  0
 18 32  1  0  0  0  0
 18 33  1  0  0  0  0
 19 20  1  0  0  0  0
 19 23  1  0  0  0  0
 19 43  1  0  0  0  0
 20 22  1  0  0  0  0
 20 21  1  0  0  0  0
 20 34  1  0  0  0  0
 21 22  1  0  0  0  0
 21 35  1  0  0  0  0
 21 36  1  0  0  0  0
 22 37  1  0  0  0  0
 22 38  1  0  0  0  0
 23 24  1  0  0  0  0
 23 39  1  0  0  0  0
 23 40  1  0  0  0  0
 24 41  1  0  0  0  0
 24 42  1  0  0  0  0
M  CHG  1  12  -1
M  CHG  1  19   1
M  END
> <s_m_source_file>
AV-unprocessed.smi

> <i_m_source_file_index>
1760

> <i_lp_mmshare_version>
43012

> <i_f3d_flags>
0

> <s_epik_input>
W0NIMl0xW0NIMl1bQ0hdMU4oW0NIMl1bQ0gyXTIpW0NIMl1bQ0gyXVtDSF0yW05IXUMoPU8pW05IXWMzW2NIXWMoQyhGKShGKUYpW2NIXVtuSF1jMz1P

> <s_epik_cmdline>
J2VwaWtfcHl0aG9uJywgJy1waCcsICc3LjAnLCAnLXRuJywgJzgnLCAnLW1hJywgJzIwMCcsICctbWV0YWxfYmluZGluZycsICctaW1hZScsICc8aW5maWxlLm1hZT4nLCAnLW9tYWUnLCAnPG91dGZpbGUubWFlPic=

> <r_lp_tautomer_probability>
0.999

> <r_epik_Ionization_Penalty>
3.16043

> <r_epik_Ionization_Penalty_Charging>
0.268029

> <r_epik_Ionization_Penalty_Neutral>
2.8924

> <r_epik_State_Penalty>
3.0039

> <r_epik_Charging_Adjusted_Penalty>
3.27193

> <i_epik_Tot_Q>
0

> <i_epik_Tot_abs_Q>
2

> <r_epik_Metal_State_Penalty>
0.560618

> <b_epik_Metal_Only>
1

> <s_lp_Force_Field>
OPLS_2005

> <r_lp_Energy>
39.9714

> <b_lp_Chiralities_Consistent>
1

> <s_lp_Variant>
AV-unprocessed.smi:1760-4

> <Gold.Version>
5.8.1

> <Gold.Id.Protein>
6NUR|6NUR_protein|mol2

> <Gold.PLP.Fitness>
44.6101

> <Gold.PLP.PLP>
-40.8691

> <Gold.PLP.part.hbond>
-1.0000

> <Gold.PLP.part.metal>
0.0000

> <Gold.PLP.part.buried>
-1.8750

> <Gold.PLP.part.nonpolar>
-37.6241

> <Gold.PLP.part.repulsive>
0.2125

> <Gold.PLP.ligand.clash>
0.0000

> <Gold.PLP.ligand.torsion>
1.7677

> <Gold.PLP.Chemscore.Hbond>
2.0000

> <Gold.PLP.Chemscore.CHOScore>
0.0000

> <Gold.PLP.Chemscore.Metal>
0.0000

> <Gold.Chemscore.Hbonds>
donor molecule, donor type, donor heavy atom, donor atom, acceptor molecule, acceptor atom, score
      L1  H    19    43       P1  7948  2.00

> <Gold.PLP.Chemscore.Internal.Correction>
1.2764

> <Gold.Rescore>
     Score         DG    S(hbond)    S(metal)    S(lipo)     H(rot)  DE(clash)    DE(int)     intcor
     12.49     -15.42       0.97        0.00      85.36       1.28       0.43       2.50       ----

> <Gold.Chemscore.Fitness>
12.4945

> <Gold.Chemscore.DG>
-15.4233

> <Gold.Chemscore.ZeroCoef>
-5.4800

> <Gold.Chemscore.Hbond>
0.9670

> <Gold.Chemscore.Metal>
0.0000

> <Gold.Chemscore.Lipo>
85.3607

> <Gold.Chemscore.Internal_Hbond>
0.0000

> <Gold.Chemscore.DEClash>
0.4271

> <Gold.Chemscore.DEInternal>
2.5017

> <Gold.Chemscore.Rot>
1.2787

> <Gold.Chemscore.Internal.Correction>
   9.000000E+99

> <Gold.Chemscore.Hbonds>
donor molecule, donor type, donor heavy atom, donor atom, acceptor molecule, acceptor atom, score
      L1  H    19    43       P1  7948  1.00

> <Gold.Chemscore.Hbond.Weighted>
-3.2297

> <Gold.Chemscore.Metal.Weighted>
-0.0000

> <Gold.Chemscore.Lipo.Weighted>
-9.9872

> <Gold.Chemscore.Internal_Hbond.Weighted>
0.0000

> <Gold.Chemscore.DEClash.Weighted>
0.4271

> <Gold.Chemscore.DEInternal.Weighted>
2.5017

> <Gold.Chemscore.Rot.Weighted>
3.2735

> <Gold.Chemscore.Internal.Correction.Weighted>
   9.000000E+99

> <Gold.Protein.RotatedTorsions>
[ 6907 6896 6895 6894 ] final  -59.13 input  -60.11 | X-H torsion
[ 7974 7965 7964 7962 ] final   19.22 input  175.53 | X-H torsion
[ 8008 7997 7996 7995 ] final -174.54 input   59.86 | X-H torsion
[ 10167 10162 10161 10158 ] final  173.08 input  -65.29 | X-H torsion
[ 10718 10713 10712 10709 ] final -153.77 input   66.30 | X-H torsion
[ 10763 10752 10751 10750 ] final   72.59 input  -60.55 | X-H torsion
[ 11005 11000 10999 10996 ] final   62.58 input  -57.11 | X-H torsion

> <Gold.Protein.ActiveResidues>
 VAL166  LYS551  ARG553  GLY616  TRP617  ASP618  TYR619  PRO620  LYS621  CYS622 
 ASP623  PHE694  ASN695  SER759  ASP760  ASP761  ALA762  ILE779  LEU786  VAL792 
 PHE793  MET794  SER795  GLU796  ALA797  LYS798  CYS799  TRP800  GLU811  SER814 

> <Gold.Protein.RotatedAtoms>
  150.7953  134.7008  159.6548 H   0  0  0  0  0  0  0  0  0  0  0  0  # atno 6907 bound_to 6896
  152.4065  134.6195  160.0057 H   0  0  0  0  0  0  0  0  0  0  0  0  # atno 6908 bound_to 6896
  151.6451  133.3287  159.3175 H   0  0  0  0  0  0  0  0  0  0  0  0  # atno 6909 bound_to 6896
  146.2157  139.8345  142.8653 H   0  0  0  0  0  0  0  0  0  0  0  0  # atno 7974 bound_to 7965
  155.9714  140.1163  157.0809 H   0  0  0  0  0  0  0  0  0  0  0  0  # atno 8008 bound_to 7997
  154.4157  140.1162  156.5379 H   0  0  0  0  0  0  0  0  0  0  0  0  # atno 8009 bound_to 7997
  155.6591  140.3473  155.4778 H   0  0  0  0  0  0  0  0  0  0  0  0  # atno 8010 bound_to 7997
  139.5097  144.3301  152.0119 H   0  0  0  0  0  0  0  0  0  0  0  0  # atno 10167 bound_to 10162
  156.4903  130.8344  151.2567 H   0  0  0  0  0  0  0  0  0  0  0  0  # atno 10718 bound_to 10713
  153.0468  135.5094  154.7767 H   0  0  0  0  0  0  0  0  0  0  0  0  # atno 10763 bound_to 10752
  154.6660  135.2946  154.9806 H   0  0  0  0  0  0  0  0  0  0  0  0  # atno 10764 bound_to 10752
  154.0641  135.6687  153.4868 H   0  0  0  0  0  0  0  0  0  0  0  0  # atno 10765 bound_to 10752
  140.0083  134.6336  155.9821 H   0  0  0  0  0  0  0  0  0  0  0  0  # atno 11005 bound_to 11000
  145.2963  141.0181  143.3634 LP  0  0  0  0  0  0  0  0  0  0  0  0  # atno 17320 bound_to 7965
  144.9039  139.4614  143.6619 LP  0  0  0  0  0  0  0  0  0  0  0  0  # atno 17321 bound_to 7965
  140.2741  144.3932  150.6141 LP  0  0  0  0  0  0  0  0  0  0  0  0  # atno 17342 bound_to 10162
  140.6067  143.2168  151.6967 LP  0  0  0  0  0  0  0  0  0  0  0  0  # atno 17343 bound_to 10162
  157.7474  131.0015  150.2968 LP  0  0  0  0  0  0  0  0  0  0  0  0  # atno 17370 bound_to 10713
  156.3433  130.3819  149.7390 LP  0  0  0  0  0  0  0  0  0  0  0  0  # atno 17371 bound_to 10713
  141.1692  133.6537  156.4591 LP  0  0  0  0  0  0  0  0  0  0  0  0  # atno 17394 bound_to 11000
  140.4601  134.6849  157.5081 LP  0  0  0  0  0  0  0  0  0  0  0  0  # atno 17395 bound_to 11000

$$$$
