AV-unprocessed.smi:1287|AV-procd|sdf|5380|dock2
  -GOLD-   22720 4523D 1   1.00000     0.00000
 Structure written by MMmdl.
 44 45  0  0  0  0  0  0  0  0  1 V2000
  148.7576  132.5176  152.9768 C   0  0  0  0  0  0  0  0  0  0  0  0
  149.1729  133.2054  154.2726 C   0  0  0  0  0  0  0  0  0  0  0  0
  148.8549  132.7223  155.3590 O   0  0  0  0  0  0  0  0  0  0  0  0
  149.8849  134.3360  154.1425 N   0  0  0  0  0  0  0  0  0  0  0  0
  150.3674  135.1615  155.2490 C   0  0  1  0  0  0  0  0  0  0  0  0
  151.6672  134.5342  155.7802 C   0  0  0  0  0  0  0  0  0  0  0  0
  150.6932  136.5841  154.7663 C   0  0  0  0  0  0  0  0  0  0  0  0
  151.8456  136.8973  154.4628 O   0  0  0  0  0  0  0  0  0  0  0  0
  149.6643  137.4443  154.7254 N   0  0  0  0  0  0  0  0  0  0  0  0
  149.7621  138.8443  154.3260 C   0  0  0  0  0  0  0  0  0  0  0  0
  150.3122  139.7640  155.4069 C   0  0  0  0  0  0  0  0  0  0  0  0
  149.8044  141.0638  155.6120 C   0  0  0  0  0  0  0  0  0  0  0  0
  150.3609  141.8628  156.6289 C   0  0  0  0  0  0  0  0  0  0  0  0
  151.4180  141.3446  157.4144 C   0  0  0  0  0  0  0  0  0  0  0  0
  151.9900  142.1269  158.4413 N   0  0  0  0  0  0  0  0  0  0  0  0
  152.3785  141.4030  159.6494 C   0  0  0  0  0  0  0  0  0  0  0  0
  153.2583  142.2908  160.5467 C   0  0  0  0  0  0  0  0  0  0  0  0
  152.5843  143.5133  160.8268 O   0  0  0  0  0  0  0  0  0  0  0  0
  152.3173  144.2539  159.6406 C   0  0  0  0  0  0  0  0  0  0  0  0
  151.4008  143.4363  158.7150 C   0  0  0  0  0  0  0  0  0  0  0  0
  151.9038  140.0947  157.2121 N   0  0  0  0  0  0  0  0  0  0  0  0
  151.3672  139.3334  156.2357 C   0  0  0  0  0  0  0  0  0  0  0  0
  148.2434  133.2190  152.3191 H   0  0  0  0  0  0  0  0  0  0  0  0
  148.0839  131.6842  153.1788 H   0  0  0  0  0  0  0  0  0  0  0  0
  149.6332  132.1312  152.4541 H   0  0  0  0  0  0  0  0  0  0  0  0
  150.0916  134.6612  153.2091 H   0  0  0  0  0  0  0  0  0  0  0  0
  149.6223  135.1927  156.0464 H   0  0  0  0  0  0  0  0  0  0  0  0
  152.0731  135.1097  156.6134 H   0  0  0  0  0  0  0  0  0  0  0  0
  152.4372  134.4778  155.0089 H   0  0  0  0  0  0  0  0  0  0  0  0
  151.4898  133.5212  156.1430 H   0  0  0  0  0  0  0  0  0  0  0  0
  148.7508  137.1063  154.9915 H   0  0  0  0  0  0  0  0  0  0  0  0
  150.3704  138.9253  153.4234 H   0  0  0  0  0  0  0  0  0  0  0  0
  148.7645  139.1919  154.0575 H   0  0  0  0  0  0  0  0  0  0  0  0
  148.9979  141.4492  155.0056 H   0  0  0  0  0  0  0  0  0  0  0  0
  149.9619  142.8508  156.8023 H   0  0  0  0  0  0  0  0  0  0  0  0
  151.4763  141.1083  160.1869 H   0  0  0  0  0  0  0  0  0  0  0  0
  152.9216  140.4882  159.4169 H   0  0  0  0  0  0  0  0  0  0  0  0
  153.4709  141.7801  161.4859 H   0  0  0  0  0  0  0  0  0  0  0  0
  154.2190  142.4932  160.0703 H   0  0  0  0  0  0  0  0  0  0  0  0
  151.8361  145.1941  159.9095 H   0  0  0  0  0  0  0  0  0  0  0  0
  153.2522  144.5068  159.1380 H   0  0  0  0  0  0  0  0  0  0  0  0
  151.2468  143.9840  157.7845 H   0  0  0  0  0  0  0  0  0  0  0  0
  150.4236  143.3024  159.1813 H   0  0  0  0  0  0  0  0  0  0  0  0
  151.7931  138.3479  156.1162 H   0  0  0  0  0  0  0  0  0  0  0  0
  1  2  1  0  0  0  0
  1 23  1  0  0  0  0
  1 24  1  0  0  0  0
  1 25  1  0  0  0  0
  2  3  2  0  0  0  0
  2  4  1  0  0  0  0
  4  5  1  0  0  0  0
  4 26  1  0  0  0  0
  5  6  1  0  0  0  0
  5  7  1  0  0  0  0
  5 27  1  0  0  0  0
  6 28  1  0  0  0  0
  6 29  1  0  0  0  0
  6 30  1  0  0  0  0
  7  8  2  0  0  0  0
  7  9  1  0  0  0  0
  9 10  1  0  0  0  0
  9 31  1  0  0  0  0
 10 11  1  0  0  0  0
 10 32  1  0  0  0  0
 10 33  1  0  0  0  0
 11 22  1  0  0  0  0
 11 12  2  0  0  0  0
 12 13  1  0  0  0  0
 12 34  1  0  0  0  0
 13 14  2  0  0  0  0
 13 35  1  0  0  0  0
 14 15  1  0  0  0  0
 14 21  1  0  0  0  0
 15 20  1  0  0  0  0
 15 16  1  0  0  0  0
 16 17  1  0  0  0  0
 16 36  1  0  0  0  0
 16 37  1  0  0  0  0
 17 18  1  0  0  0  0
 17 38  1  0  0  0  0
 17 39  1  0  0  0  0
 18 19  1  0  0  0  0
 19 20  1  0  0  0  0
 19 40  1  0  0  0  0
 19 41  1  0  0  0  0
 20 42  1  0  0  0  0
 20 43  1  0  0  0  0
 21 22  2  0  0  0  0
 22 44  1  0  0  0  0
M  END
> <s_m_source_file>
AV-unprocessed.smi

> <i_m_source_file_index>
1287

> <i_lp_mmshare_version>
43012

> <i_f3d_flags>
0

> <s_epik_input>
W0NIM11DKD1PKVtOSF1bQ0BIXShbQ0gzXSlDKD1PKVtOSF1bQ0gyXWMxW2NIXVtjSF1jKG5bY0hdMSlOMltDSDJdW0NIMl1PW0NIMl1bQ0gyXTI=

> <s_epik_cmdline>
J2VwaWtfcHl0aG9uJywgJy1waCcsICc3LjAnLCAnLXRuJywgJzgnLCAnLW1hJywgJzIwMCcsICctbWV0YWxfYmluZGluZycsICctaW1hZScsICc8aW5maWxlLm1hZT4nLCAnLW9tYWUnLCAnPG91dGZpbGUubWFlPic=

> <r_lp_tautomer_probability>
1

> <r_epik_Ionization_Penalty>
0.00481935

> <r_epik_Ionization_Penalty_Charging>
0

> <r_epik_Ionization_Penalty_Neutral>
0.00481935

> <r_epik_State_Penalty>
0.00349439

> <r_epik_Charging_Adjusted_Penalty>
0.00349439

> <i_epik_Tot_Q>
0

> <i_epik_Tot_abs_Q>
0

> <r_epik_Metal_State_Penalty>
-0

> <b_epik_Metal_Only>
0

> <s_lp_Force_Field>
OPLS_2005

> <r_lp_Energy>
13.9902

> <b_lp_Chiralities_Consistent>
1

> <s_lp_Variant>
AV-unprocessed.smi:1287-2

> <Gold.Version>
5.8.1

> <Gold.Id.Protein>
6NUR|6NUR_protein|mol2

> <Gold.PLP.Fitness>
41.7116

> <Gold.PLP.PLP>
-41.8037

> <Gold.PLP.part.hbond>
-2.8166

> <Gold.PLP.part.metal>
0.0000

> <Gold.PLP.part.buried>
-3.8428

> <Gold.PLP.part.nonpolar>
-34.9907

> <Gold.PLP.part.repulsive>
0.2714

> <Gold.PLP.ligand.clash>
0.0000

> <Gold.PLP.ligand.torsion>
1.7333

> <Gold.PLP.Chemscore.Hbond>
1.0000

> <Gold.PLP.Chemscore.CHOScore>
0.0000

> <Gold.PLP.Chemscore.Metal>
0.0000

> <Gold.Chemscore.Hbonds>
donor molecule, donor type, donor heavy atom, donor atom, acceptor molecule, acceptor atom, score
      P1  H 10752 10765       L1     8  1.00

> <Gold.PLP.Chemscore.Internal.Correction>
0.3745

> <Gold.Rescore>
     Score         DG    S(hbond)    S(metal)    S(lipo)     H(rot)  DE(clash)    DE(int)     intcor
     15.94     -17.47       1.98        0.00      93.15       2.16       0.10       1.43       ----

> <Gold.Chemscore.Fitness>
15.9401

> <Gold.Chemscore.DG>
-17.4698

> <Gold.Chemscore.ZeroCoef>
-5.4800

> <Gold.Chemscore.Hbond>
1.9837

> <Gold.Chemscore.Metal>
0.0000

> <Gold.Chemscore.Lipo>
93.1453

> <Gold.Chemscore.Internal_Hbond>
0.0000

> <Gold.Chemscore.DEClash>
0.0954

> <Gold.Chemscore.DEInternal>
1.4344

> <Gold.Chemscore.Rot>
2.1616

> <Gold.Chemscore.Internal.Correction>
   9.000000E+99

> <Gold.Chemscore.Hbonds>
donor molecule, donor type, donor heavy atom, donor atom, acceptor molecule, acceptor atom, score
      P1  H 10752 10765       L1     8  0.85

> <Gold.Chemscore.Hbond.Weighted>
-6.6255

> <Gold.Chemscore.Metal.Weighted>
-0.0000

> <Gold.Chemscore.Lipo.Weighted>
-10.8980

> <Gold.Chemscore.Internal_Hbond.Weighted>
0.0000

> <Gold.Chemscore.DEClash.Weighted>
0.0954

> <Gold.Chemscore.DEInternal.Weighted>
1.4344

> <Gold.Chemscore.Rot.Weighted>
5.5336

> <Gold.Chemscore.Internal.Correction.Weighted>
   9.000000E+99

> <Gold.Protein.RotatedTorsions>
[ 6907 6896 6895 6894 ] final -151.69 input  -60.11 | X-H torsion
[ 7974 7965 7964 7962 ] final   87.82 input  175.53 | X-H torsion
[ 8008 7997 7996 7995 ] final   73.59 input   59.86 | X-H torsion
[ 10167 10162 10161 10158 ] final  105.89 input  -65.29 | X-H torsion
[ 10718 10713 10712 10709 ] final  131.95 input   66.30 | X-H torsion
[ 10763 10752 10751 10750 ] final  176.21 input  -60.55 | X-H torsion
[ 11005 11000 10999 10996 ] final  -88.46 input  -57.11 | X-H torsion

> <Gold.Protein.ActiveResidues>
 VAL166  LYS551  ARG553  GLY616  TRP617  ASP618  TYR619  PRO620  LYS621  CYS622 
 ASP623  PHE694  ASN695  SER759  ASP760  ASP761  ALA762  ILE779  LEU786  VAL792 
 PHE793  MET794  SER795  GLU796  ALA797  LYS798  CYS799  TRP800  GLU811  SER814 

> <Gold.Protein.RotatedAtoms>
  151.2168  133.4525  159.2599 H   0  0  0  0  0  0  0  0  0  0  0  0  # atno 6907 bound_to 6896
  151.0923  134.9923  159.8419 H   0  0  0  0  0  0  0  0  0  0  0  0  # atno 6908 bound_to 6896
  152.5436  134.2100  159.8799 H   0  0  0  0  0  0  0  0  0  0  0  0  # atno 6909 bound_to 6896
  145.5538  139.2298  143.2497 H   0  0  0  0  0  0  0  0  0  0  0  0  # atno 7974 bound_to 7965
  155.7859  140.3480  155.5323 H   0  0  0  0  0  0  0  0  0  0  0  0  # atno 8008 bound_to 7997
  155.8682  140.0982  157.1589 H   0  0  0  0  0  0  0  0  0  0  0  0  # atno 8009 bound_to 7997
  154.4016  140.1345  156.4032 H   0  0  0  0  0  0  0  0  0  0  0  0  # atno 8010 bound_to 7997
  139.7055  144.7087  151.1114 H   0  0  0  0  0  0  0  0  0  0  0  0  # atno 10167 bound_to 10162
  157.4918  131.1091  150.9546 H   0  0  0  0  0  0  0  0  0  0  0  0  # atno 10718 bound_to 10713
  154.4780  135.2773  155.1592 H   0  0  0  0  0  0  0  0  0  0  0  0  # atno 10763 bound_to 10752
  154.3314  135.6189  153.5557 H   0  0  0  0  0  0  0  0  0  0  0  0  # atno 10764 bound_to 10752
  152.9872  135.5766  154.5175 H   0  0  0  0  0  0  0  0  0  0  0  0  # atno 10765 bound_to 10752
  141.1601  133.7571  156.9454 H   0  0  0  0  0  0  0  0  0  0  0  0  # atno 11005 bound_to 11000
  146.1898  140.6362  142.9151 LP  0  0  0  0  0  0  0  0  0  0  0  0  # atno 17320 bound_to 7965
  144.7516  140.5205  143.6798 LP  0  0  0  0  0  0  0  0  0  0  0  0  # atno 17321 bound_to 7965
  140.7720  143.5365  150.9362 LP  0  0  0  0  0  0  0  0  0  0  0  0  # atno 17342 bound_to 10162
  139.9048  143.6792  152.3125 LP  0  0  0  0  0  0  0  0  0  0  0  0  # atno 17343 bound_to 10162
  157.0246  130.5687  149.5335 LP  0  0  0  0  0  0  0  0  0  0  0  0  # atno 17370 bound_to 10713
  156.0178  130.5272  150.8185 LP  0  0  0  0  0  0  0  0  0  0  0  0  # atno 17371 bound_to 10713
  140.1293  134.9366  157.2315 LP  0  0  0  0  0  0  0  0  0  0  0  0  # atno 17394 bound_to 11000
  140.2973  134.3172  155.7299 LP  0  0  0  0  0  0  0  0  0  0  0  0  # atno 17395 bound_to 11000

$$$$
