AV-unprocessed.smi:2013|AV-procd|sdf|8160|dock2
  -GOLD-   2272010403D 1   1.00000     0.00000
 Structure written by MMmdl.
 50 51  0  0  0  0  0  0  0  0  1 V2000
  150.0966  130.7531  154.8773 C   0  0  0  0  0  0  0  0  0  0  0  0
  150.5107  132.2276  155.0575 C   0  0  0  0  0  0  0  0  0  0  0  0
  151.7251  132.3536  155.9934 C   0  0  0  0  0  0  0  0  0  0  0  0
  149.3745  133.2402  155.4127 C   0  0  1  0  0  0  0  0  0  0  0  0
  149.8501  134.4376  156.2856 C   0  0  0  0  0  0  0  0  0  0  0  0
  150.3113  135.5679  155.4865 N   0  0  0  0  0  0  0  0  0  0  0  0
  151.3010  136.4027  155.8361 C   0  0  0  0  0  0  0  0  0  0  0  0
  151.8918  136.3370  156.9149 O   0  0  0  0  0  0  0  0  0  0  0  0
  151.6739  137.4802  154.8106 C   0  0  0  0  0  0  0  0  0  0  0  0
  150.8242  138.6721  154.9224 N   0  0  0  0  0  0  0  0  0  0  0  0
  149.6099  138.7156  154.2620 C   0  0  0  0  0  0  0  0  0  0  0  0
  148.7610  139.7642  154.3331 C   0  0  0  0  0  0  0  0  0  0  0  0
  149.0876  140.9405  155.1303 C   0  0  0  0  0  0  0  0  0  0  0  0
  148.3345  141.9093  155.2333 O   0  0  0  0  0  0  0  0  0  0  0  0
  150.3409  140.8744  155.7857 N   0  0  0  0  0  0  0  0  0  0  0  0
  150.7577  141.9838  156.6183 C   0  0  0  0  0  0  0  0  0  0  0  0
  151.2195  139.7712  155.7153 C   0  0  0  0  0  0  0  0  0  0  0  0
  152.2921  139.7547  156.3248 O   0  0  0  0  0  0  0  0  0  0  0  0
  148.4899  133.6073  154.2893 N   0  0  0  0  0  0  0  0  0  0  0  0
  148.0235  132.4505  153.5271 C   0  0  0  0  0  0  0  0  0  0  0  0
  147.2196  132.8720  152.2859 C   0  0  0  0  0  0  0  0  0  0  0  0
  146.1248  133.6898  152.6849 O   0  0  0  0  0  0  0  0  0  0  0  0
  146.5400  134.8550  153.3899 C   0  0  0  0  0  0  0  0  0  0  0  0
  147.3480  134.4517  154.6357 C   0  0  0  0  0  0  0  0  0  0  0  0
  149.8612  130.2621  155.8185 H   0  0  0  0  0  0  0  0  0  0  0  0
  150.9151  130.1867  154.4325 H   0  0  0  0  0  0  0  0  0  0  0  0
  149.2421  130.6407  154.2114 H   0  0  0  0  0  0  0  0  0  0  0  0
  150.8786  132.5342  154.0776 H   0  0  0  0  0  0  0  0  0  0  0  0
  151.4896  132.0152  157.0028 H   0  0  0  0  0  0  0  0  0  0  0  0
  152.0659  133.3875  156.0580 H   0  0  0  0  0  0  0  0  0  0  0  0
  152.5617  131.7546  155.6328 H   0  0  0  0  0  0  0  0  0  0  0  0
  148.7411  132.6513  156.0780 H   0  0  0  0  0  0  0  0  0  0  0  0
  149.0431  134.7935  156.9251 H   0  0  0  0  0  0  0  0  0  0  0  0
  150.6550  134.1413  156.9583 H   0  0  0  0  0  0  0  0  0  0  0  0
  149.8745  135.6983  154.5855 H   0  0  0  0  0  0  0  0  0  0  0  0
  152.7234  137.7600  154.9198 H   0  0  0  0  0  0  0  0  0  0  0  0
  151.5846  137.0464  153.8140 H   0  0  0  0  0  0  0  0  0  0  0  0
  149.3187  137.8653  153.6623 H   0  0  0  0  0  0  0  0  0  0  0  0
  147.8247  139.7307  153.7957 H   0  0  0  0  0  0  0  0  0  0  0  0
  151.7851  142.2371  156.3503 H   0  0  0  0  0  0  0  0  0  0  0  0
  150.6866  141.6477  157.6540 H   0  0  0  0  0  0  0  0  0  0  0  0
  150.1277  142.8573  156.4524 H   0  0  0  0  0  0  0  0  0  0  0  0
  148.8729  131.8430  153.2136 H   0  0  0  0  0  0  0  0  0  0  0  0
  147.3947  131.8140  154.1495 H   0  0  0  0  0  0  0  0  0  0  0  0
  147.8518  133.4146  151.5815 H   0  0  0  0  0  0  0  0  0  0  0  0
  146.8385  131.9940  151.7643 H   0  0  0  0  0  0  0  0  0  0  0  0
  147.1364  135.4911  152.7340 H   0  0  0  0  0  0  0  0  0  0  0  0
  145.6599  135.4294  153.6788 H   0  0  0  0  0  0  0  0  0  0  0  0
  146.6898  133.9284  155.3297 H   0  0  0  0  0  0  0  0  0  0  0  0
  147.6760  135.3587  155.1328 H   0  0  0  0  0  0  0  0  0  0  0  0
  1  2  1  0  0  0  0
  1 25  1  0  0  0  0
  1 26  1  0  0  0  0
  1 27  1  0  0  0  0
  2  3  1  0  0  0  0
  2  4  1  0  0  0  0
  2 28  1  0  0  0  0
  3 29  1  0  0  0  0
  3 30  1  0  0  0  0
  3 31  1  0  0  0  0
  4  5  1  0  0  0  0
  4 19  1  0  0  0  0
  4 32  1  0  0  0  0
  5  6  1  0  0  0  0
  5 33  1  0  0  0  0
  5 34  1  0  0  0  0
  6  7  1  0  0  0  0
  6 35  1  0  0  0  0
  7  8  2  0  0  0  0
  7  9  1  0  0  0  0
  9 10  1  0  0  0  0
  9 36  1  0  0  0  0
  9 37  1  0  0  0  0
 10 17  1  0  0  0  0
 10 11  1  0  0  0  0
 11 12  2  0  0  0  0
 11 38  1  0  0  0  0
 12 13  1  0  0  0  0
 12 39  1  0  0  0  0
 13 14  2  0  0  0  0
 13 15  1  0  0  0  0
 15 16  1  0  0  0  0
 15 17  1  0  0  0  0
 16 40  1  0  0  0  0
 16 41  1  0  0  0  0
 16 42  1  0  0  0  0
 17 18  2  0  0  0  0
 19 24  1  0  0  0  0
 19 20  1  0  0  0  0
 20 21  1  0  0  0  0
 20 43  1  0  0  0  0
 20 44  1  0  0  0  0
 21 22  1  0  0  0  0
 21 45  1  0  0  0  0
 21 46  1  0  0  0  0
 22 23  1  0  0  0  0
 23 24  1  0  0  0  0
 23 47  1  0  0  0  0
 23 48  1  0  0  0  0
 24 49  1  0  0  0  0
 24 50  1  0  0  0  0
M  END
> <s_m_source_file>
AV-unprocessed.smi

> <i_m_source_file_index>
2013

> <i_lp_mmshare_version>
43012

> <i_f3d_flags>
0

> <s_epik_input>
W0NIMl0xW0NIMl1PW0NIMl1bQ0gyXU4xW0NASF0oW0NIXShbQ0gzXSlbQ0gzXSlbQ0gyXVtOSF1DKD1PKVtDSDJdbjJbY0hdW2NIXWMoPU8pbihbQ0gzXSljMj1P

> <s_epik_cmdline>
J2VwaWtfcHl0aG9uJywgJy1waCcsICc3LjAnLCAnLXRuJywgJzgnLCAnLW1hJywgJzIwMCcsICctbWV0YWxfYmluZGluZycsICctaW1hZScsICc8aW5maWxlLm1hZT4nLCAnLW9tYWUnLCAnPG91dGZpbGUubWFlPic=

> <r_lp_tautomer_probability>
1

> <r_epik_Ionization_Penalty>
0.45351

> <r_epik_Ionization_Penalty_Charging>
1.24653e-08

> <r_epik_Ionization_Penalty_Neutral>
0.45351

> <r_epik_State_Penalty>
0.456487

> <r_epik_Charging_Adjusted_Penalty>
0.456487

> <i_epik_Tot_Q>
0

> <i_epik_Tot_abs_Q>
0

> <r_epik_Metal_State_Penalty>
0.456449

> <b_epik_Metal_Only>
0

> <s_lp_Force_Field>
OPLS_2005

> <r_lp_Energy>
45.5307

> <b_lp_Chiralities_Consistent>
1

> <s_lp_Variant>
AV-unprocessed.smi:2013-4

> <Gold.Version>
5.8.1

> <Gold.Id.Protein>
6NUR|6NUR_protein|mol2

> <Gold.PLP.Fitness>
37.8906

> <Gold.PLP.PLP>
-35.0159

> <Gold.PLP.part.hbond>
-1.0000

> <Gold.PLP.part.metal>
0.0000

> <Gold.PLP.part.buried>
-1.5671

> <Gold.PLP.part.nonpolar>
-34.1566

> <Gold.PLP.part.repulsive>
2.3777

> <Gold.PLP.ligand.clash>
0.0000

> <Gold.PLP.ligand.torsion>
1.8864

> <Gold.PLP.Chemscore.Hbond>
1.0000

> <Gold.PLP.Chemscore.CHOScore>
1.0000

> <Gold.PLP.Chemscore.Metal>
0.0000

> <Gold.Chemscore.Hbonds>
donor molecule, donor type, donor heavy atom, donor atom, acceptor molecule, acceptor atom, score
      P1  H  7997  8009       L1    18  0.89
      L1  C    11    38       P1  7948  1.00

> <Gold.PLP.Chemscore.Internal.Correction>
0.6475

> <Gold.Rescore>
     Score         DG    S(hbond)    S(metal)    S(lipo)     H(rot)  DE(clash)    DE(int)     intcor
      8.25     -10.92       0.99        0.00      66.54       2.20       0.62       2.05       ----

> <Gold.Chemscore.Fitness>
8.2519

> <Gold.Chemscore.DG>
-10.9170

> <Gold.Chemscore.ZeroCoef>
-5.4800

> <Gold.Chemscore.Hbond>
0.9863

> <Gold.Chemscore.Metal>
0.0000

> <Gold.Chemscore.Lipo>
66.5355

> <Gold.Chemscore.Internal_Hbond>
0.0000

> <Gold.Chemscore.DEClash>
0.6179

> <Gold.Chemscore.DEInternal>
2.0471

> <Gold.Chemscore.Rot>
2.2039

> <Gold.Chemscore.Internal.Correction>
   9.000000E+99

> <Gold.Chemscore.Hbonds>
donor molecule, donor type, donor heavy atom, donor atom, acceptor molecule, acceptor atom, score
      P1  H  7997  8009       L1    18  0.87

> <Gold.Chemscore.Hbond.Weighted>
-3.2943

> <Gold.Chemscore.Metal.Weighted>
-0.0000

> <Gold.Chemscore.Lipo.Weighted>
-7.7847

> <Gold.Chemscore.Internal_Hbond.Weighted>
0.0000

> <Gold.Chemscore.DEClash.Weighted>
0.6179

> <Gold.Chemscore.DEInternal.Weighted>
2.0471

> <Gold.Chemscore.Rot.Weighted>
5.6420

> <Gold.Chemscore.Internal.Correction.Weighted>
   9.000000E+99

> <Gold.Protein.RotatedTorsions>
[ 6907 6896 6895 6894 ] final  -53.32 input  -60.11 | X-H torsion
[ 7974 7965 7964 7962 ] final  -64.64 input  175.53 | X-H torsion
[ 8008 7997 7996 7995 ] final -164.36 input   59.86 | X-H torsion
[ 10167 10162 10161 10158 ] final   58.88 input  -65.29 | X-H torsion
[ 10718 10713 10712 10709 ] final  131.41 input   66.30 | X-H torsion
[ 10763 10752 10751 10750 ] final  -39.54 input  -60.55 | X-H torsion
[ 11005 11000 10999 10996 ] final  -26.15 input  -57.11 | X-H torsion

> <Gold.Protein.ActiveResidues>
 VAL166  LYS551  ARG553  GLY616  TRP617  ASP618  TYR619  PRO620  LYS621  CYS622 
 ASP623  PHE694  ASN695  SER759  ASP760  ASP761  ALA762  ILE779  LEU786  VAL792 
 PHE793  MET794  SER795  GLU796  ALA797  LYS798  CYS799  TRP800  GLU811  SER814 

> <Gold.Protein.RotatedAtoms>
  150.8437  134.7738  159.6952 H   0  0  0  0  0  0  0  0  0  0  0  0  # atno 6907 bound_to 6896
  152.4519  134.5372  159.9838 H   0  0  0  0  0  0  0  0  0  0  0  0  # atno 6908 bound_to 6896
  151.5507  133.3380  159.2988 H   0  0  0  0  0  0  0  0  0  0  0  0  # atno 6909 bound_to 6896
  145.7643  140.8846  143.0414 H   0  0  0  0  0  0  0  0  0  0  0  0  # atno 7974 bound_to 7965
  155.8345  140.0939  157.1772 H   0  0  0  0  0  0  0  0  0  0  0  0  # atno 8008 bound_to 7997
  154.3980  140.1413  156.3715 H   0  0  0  0  0  0  0  0  0  0  0  0  # atno 8009 bound_to 7997
  155.8131  140.3449  155.5472 H   0  0  0  0  0  0  0  0  0  0  0  0  # atno 8010 bound_to 7997
  140.1825  144.4168  150.6608 H   0  0  0  0  0  0  0  0  0  0  0  0  # atno 10167 bound_to 10162
  157.4970  131.1093  150.9479 H   0  0  0  0  0  0  0  0  0  0  0  0  # atno 10718 bound_to 10713
  153.9310  135.6772  153.4745 H   0  0  0  0  0  0  0  0  0  0  0  0  # atno 10763 bound_to 10752
  153.0979  135.4842  154.8810 H   0  0  0  0  0  0  0  0  0  0  0  0  # atno 10764 bound_to 10752
  154.7428  135.3165  154.8656 H   0  0  0  0  0  0  0  0  0  0  0  0  # atno 10765 bound_to 10752
  140.9003  133.7528  156.0535 H   0  0  0  0  0  0  0  0  0  0  0  0  # atno 11005 bound_to 11000
  144.6824  139.9766  143.7483 LP  0  0  0  0  0  0  0  0  0  0  0  0  # atno 17320 bound_to 7965
  146.0233  139.3270  143.0799 LP  0  0  0  0  0  0  0  0  0  0  0  0  # atno 17321 bound_to 7965
  140.6510  143.2225  151.6077 LP  0  0  0  0  0  0  0  0  0  0  0  0  # atno 17342 bound_to 10162
  139.5290  144.2972  152.1103 LP  0  0  0  0  0  0  0  0  0  0  0  0  # atno 17343 bound_to 10162
  157.0162  130.5656  149.5326 LP  0  0  0  0  0  0  0  0  0  0  0  0  # atno 17370 bound_to 10713
  156.0206  130.5301  150.8265 LP  0  0  0  0  0  0  0  0  0  0  0  0  # atno 17371 bound_to 10713
  140.8238  134.3258  157.5372 LP  0  0  0  0  0  0  0  0  0  0  0  0  # atno 17394 bound_to 11000
  139.8741  134.9324  156.3554 LP  0  0  0  0  0  0  0  0  0  0  0  0  # atno 17395 bound_to 11000

$$$$
