#       Name:                AV-unprocessed.smi:1380
#       Creating user name   scv26
#       Creation time:       Fri Mar 27 05:20:52 2020


#       File generated by GOLD software.
#

@<TRIPOS>MOLECULE
AV-unprocessed.smi:1380
    36    37     1
SMALL
NO_CHARGES


@<TRIPOS>ATOM
      1 ****         0.2269   2.1010   0.8843 O.2            1 S1                 0.0000
      2 ****         0.0683   1.0136   1.4387 C.2            1 S1                 0.0000
      3 ****         1.0622   0.1513   1.6938 N.am           1 S1                 0.0000
      4 ****         2.4662   0.3699   1.3566 C.3            1 S1                 0.0000
      5 ****         2.7464   0.2969  -0.1585 C.3            1 S1                 0.0000
      6 ****         2.1992  -0.9565  -0.8194 C.ar           1 S1                 0.0000
      7 ****         2.8850  -2.1855  -0.7043 C.ar           1 S1                 0.0000
      8 ****         2.3529  -3.3352  -1.3247 C.ar           1 S1                 0.0000
      9 ****         1.1465  -3.2292  -2.0468 C.ar           1 S1                 0.0000
     10 ****         0.5182  -2.0361  -2.1355 N.pl3          1 S1                 1.0000
     11 ****         0.9954  -0.9125  -1.5567 C.ar           1 S1                 0.0000
     12 ****        -1.1187   0.5415   1.8427 N.am           1 S1                 0.0000
     13 ****        -2.3895   1.2310   1.6624 C.3            1 S1                 0.0000
     14 ****        -2.9660   1.1492   0.2616 C.3            1 S1                 0.0000
     15 ****        -2.7199   2.2434  -0.7515 C.3            1 S1                 0.0000
     16 ****        -4.0940   2.0643  -0.1540 C.3            1 S1                 0.0000
     17 ****         0.8336  -0.7162   2.1570 H              1 S1                 0.0000
     18 ****         2.8012   1.3275   1.7582 H              1 S1                 0.0000
     19 ****         3.0458  -0.3977   1.8698 H              1 S1                 0.0000
     20 ****         2.3238   1.1708  -0.6561 H              1 S1                 0.0000
     21 ****         3.8215   0.3477  -0.3339 H              1 S1                 0.0000
     22 ****         3.8078  -2.2478  -0.1458 H              1 S1                 0.0000
     23 ****         2.8633  -4.2842  -1.2476 H              1 S1                 0.0000
     24 ****         0.6687  -4.0560  -2.5520 H              1 S1                 0.0000
     25 ****         0.4013  -0.0205  -1.6951 H              1 S1                 0.0000
     26 ****        -1.1486  -0.3608   2.2945 H              1 S1                 0.0000
     27 ****        -3.1074   0.7846   2.3507 H              1 S1                 0.0000
     28 ****        -2.2921   2.2767   1.9596 H              1 S1                 0.0000
     29 ****        -3.0221   0.1349  -0.1294 H              1 S1                 0.0000
     30 ****        -2.1445   3.1105  -0.4337 H              1 S1                 0.0000
     31 ****        -2.5771   1.9442  -1.7877 H              1 S1                 0.0000
     32 ****        -4.8697   1.6485  -0.7937 H              1 S1                 0.0000
     33 ****        -4.4303   2.8134   0.5602 H              1 S1                 0.0000
     34 ****        -0.3536  -1.9811  -2.6628 H              1 S1                 0.0000
     35 ****         1.1407   2.3862   0.5951 LP             1 S1                 0.0000
     36 ****        -0.5581   2.6992   0.7230 LP             1 S1                 0.0000
@<TRIPOS>BOND
    1    1    2 2     
    2    2    3 am    
    3    2   12 am    
    4    3    4 1     
    5    3   17 1     
    6    4    5 1     
    7    4   18 1     
    8    4   19 1     
    9    5    6 1     
   10    5   20 1     
   11    5   21 1     
   12    6   11 ar    
   13    6    7 ar    
   14    7    8 ar    
   15    7   22 1     
   16    8    9 ar    
   17    8   23 1     
   18    9   10 ar    
   19    9   24 1     
   20   10   11 ar    
   21   10   34 1     
   22   11   25 1     
   23   12   13 1     
   24   12   26 1     
   25   13   14 1     
   26   13   27 1     
   27   13   28 1     
   28   14   16 1     
   29   14   15 1     
   30   14   29 1     
   31   15   16 1     
   32   15   30 1     
   33   15   31 1     
   34   16   32 1     
   35   16   33 1     
   36    1   35 1     
   37    1   36 1     
@<TRIPOS>SUBSTRUCTURE
      1 S1             1
@<TRIPOS>SET
LONE_PAIRS      STATIC     ATOMS    <user>   **** ""
2 35 36
DONOR_HYDROGENS      STATIC     ATOMS    <user>   **** ""
3 17 34 26
ATOM$BLUE        STATIC     ATOMS    COLORGROUP SYSTEM
2 35 36
ATOM$RED        STATIC     ATOMS    COLORGROUP SYSTEM
3 17 34 26
