AV-unprocessed.smi:1008|AV-procd|sdf|4412|dock4
  -GOLD-   22720 2353D 1   1.00000     0.00000
 Structure written by MMmdl.
 23 23  0  0  0  0  0  0  0  0  1 V2000
  145.5361  135.4931  151.2001 C   0  0  0  0  0  0  0  0  0  0  0  0
  145.1657  134.0599  150.8650 C   0  0  0  0  0  0  0  0  0  0  0  0
  143.9853  133.8903  150.2288 N   0  0  0  0  0  0  0  0  0  0  0  0
  143.6355  132.6394  149.9295 C   0  0  0  0  0  0  0  0  0  0  0  0
  142.4363  132.4754  149.2808 N   0  0  0  0  0  0  0  0  0  0  0  0
  144.3279  131.5310  150.1946 N   0  0  0  0  0  0  0  0  0  0  0  0
  145.5108  131.6802  150.8291 C   0  0  0  0  0  0  0  0  0  0  0  0
  146.2287  130.5551  151.1150 O   0  0  0  0  0  0  0  0  0  0  0  0
  145.9968  132.9596  151.1960 C   0  0  0  0  0  0  0  0  0  0  0  0
  147.3295  133.1304  151.9137 C   0  0  0  0  0  0  0  0  0  0  0  0
  147.1457  133.4925  153.3937 C   0  0  0  0  0  0  0  0  0  0  0  0
  148.1128  134.4459  153.7758 O   0  0  0  0  0  0  0  0  0  0  0  0
  146.9634  130.4362  150.5330 H   0  0  0  0  0  0  0  0  0  0  0  0
  145.7816  135.5894  152.2576 H   0  0  0  0  0  0  0  0  0  0  0  0
  144.7144  136.1774  150.9848 H   0  0  0  0  0  0  0  0  0  0  0  0
  146.3987  135.8082  150.6131 H   0  0  0  0  0  0  0  0  0  0  0  0
  141.8652  133.2759  149.0522 H   0  0  0  0  0  0  0  0  0  0  0  0
  142.1061  131.5511  149.0442 H   0  0  0  0  0  0  0  0  0  0  0  0
  147.9268  133.8924  151.4132 H   0  0  0  0  0  0  0  0  0  0  0  0
  147.9056  132.2087  151.8256 H   0  0  0  0  0  0  0  0  0  0  0  0
  146.1524  133.9053  153.5713 H   0  0  0  0  0  0  0  0  0  0  0  0
  147.2498  132.6083  154.0233 H   0  0  0  0  0  0  0  0  0  0  0  0
  148.1757  135.0992  153.0958 H   0  0  0  0  0  0  0  0  0  0  0  0
  1 14  1  0  0  0  0
  1 15  1  0  0  0  0
  1 16  1  0  0  0  0
  1  2  1  0  0  0  0
  2  9  2  0  0  0  0
  2  3  1  0  0  0  0
  3  4  2  0  0  0  0
  4  5  1  0  0  0  0
  4  6  1  0  0  0  0
  5 17  1  0  0  0  0
  5 18  1  0  0  0  0
  6  7  2  0  0  0  0
  7  8  1  0  0  0  0
  7  9  1  0  0  0  0
  8 13  1  0  0  0  0
  9 10  1  0  0  0  0
 10 11  1  0  0  0  0
 10 19  1  0  0  0  0
 10 20  1  0  0  0  0
 11 12  1  0  0  0  0
 11 21  1  0  0  0  0
 11 22  1  0  0  0  0
 12 23  1  0  0  0  0
M  END
> <s_m_source_file>
AV-unprocessed.smi

> <i_m_source_file_index>
1008

> <i_lp_mmshare_version>
43012

> <i_f3d_flags>
0

> <s_epik_input>
W0NIM11jMW5jKFtOSDJdKVtuSF1jKD1PKWMxW0NIMl1bQ0gyXVtPSF0=

> <s_epik_cmdline>
J2VwaWtfcHl0aG9uJywgJy1waCcsICc3LjAnLCAnLXRuJywgJzgnLCAnLW1hJywgJzIwMCcsICctbWV0YWxfYmluZGluZycsICctaW1hZScsICc8aW5maWxlLm1hZT4nLCAnLW9tYWUnLCAnPG91dGZpbGUubWFlPic=

> <r_lp_tautomer_probability>
0.0131372

> <r_epik_Ionization_Penalty>
8.55637

> <r_epik_Ionization_Penalty_Charging>
0

> <r_epik_Ionization_Penalty_Neutral>
8.55637

> <r_epik_State_Penalty>
2.72329

> <r_epik_Charging_Adjusted_Penalty>
2.72329

> <i_epik_Tot_Q>
0

> <i_epik_Tot_abs_Q>
0

> <r_epik_Metal_State_Penalty>
2.85363

> <b_epik_Metal_Only>
0

> <s_lp_Force_Field>
OPLS_2005

> <r_lp_Energy>
-5.16374

> <b_lp_Chiralities_Consistent>
1

> <s_lp_Variant>
AV-unprocessed.smi:1008-3

> <Gold.Version>
5.8.1

> <Gold.Id.Protein>
6NUR|6NUR_protein|mol2

> <Gold.PLP.Fitness>
34.8432

> <Gold.PLP.PLP>
-24.5079

> <Gold.PLP.part.hbond>
-4.5873

> <Gold.PLP.part.metal>
0.0000

> <Gold.PLP.part.buried>
-5.5999

> <Gold.PLP.part.nonpolar>
-15.1491

> <Gold.PLP.part.repulsive>
0.4682

> <Gold.PLP.ligand.clash>
0.0000

> <Gold.PLP.ligand.torsion>
0.4244

> <Gold.PLP.Chemscore.Hbond>
3.7280

> <Gold.PLP.Chemscore.CHOScore>
0.0000

> <Gold.PLP.Chemscore.Metal>
0.0000

> <Gold.Chemscore.Hbonds>
donor molecule, donor type, donor heavy atom, donor atom, acceptor molecule, acceptor atom, score
      L1  H     5    17       P1 10186  0.90
      L1  H     5    18       P1 10952  0.78
      L1  H     8    13       P1 10747  0.84
      L1  H    12    23       P1  7948  1.00
      P1  H 10785 10796       L1     6  0.17

> <Gold.PLP.Chemscore.Internal.Correction>
0.0001

> <Gold.Rescore>
     Score         DG    S(hbond)    S(metal)    S(lipo)     H(rot)  DE(clash)    DE(int)     intcor
     13.95     -14.31       3.83        0.00      25.87       2.73       0.01       0.35       ----

> <Gold.Chemscore.Fitness>
13.9528

> <Gold.Chemscore.DG>
-14.3135

> <Gold.Chemscore.ZeroCoef>
-5.4800

> <Gold.Chemscore.Hbond>
3.8293

> <Gold.Chemscore.Metal>
0.0000

> <Gold.Chemscore.Lipo>
25.8673

> <Gold.Chemscore.Internal_Hbond>
0.0000

> <Gold.Chemscore.DEClash>
0.0089

> <Gold.Chemscore.DEInternal>
0.3518

> <Gold.Chemscore.Rot>
2.7277

> <Gold.Chemscore.Internal.Correction>
   9.000000E+99

> <Gold.Chemscore.Hbonds>
donor molecule, donor type, donor heavy atom, donor atom, acceptor molecule, acceptor atom, score
      L1  H     5    17       P1 10186  0.83
      L1  H     5    18       P1 10952  0.78
      L1  H     8    13       P1 10747  0.79
      L1  H    12    23       P1  7948  0.95
      P1  H 10785 10796       L1     6  0.04

> <Gold.Chemscore.Hbond.Weighted>
-12.7899

> <Gold.Chemscore.Metal.Weighted>
-0.0000

> <Gold.Chemscore.Lipo.Weighted>
-3.0265

> <Gold.Chemscore.Internal_Hbond.Weighted>
0.0000

> <Gold.Chemscore.DEClash.Weighted>
0.0089

> <Gold.Chemscore.DEInternal.Weighted>
0.3518

> <Gold.Chemscore.Rot.Weighted>
6.9829

> <Gold.Chemscore.Internal.Correction.Weighted>
   9.000000E+99

> <Gold.Protein.RotatedTorsions>
[ 6907 6896 6895 6894 ] final -104.79 input  -60.11 | X-H torsion
[ 7974 7965 7964 7962 ] final  -94.33 input  175.53 | X-H torsion
[ 8008 7997 7996 7995 ] final -145.75 input   59.86 | X-H torsion
[ 10167 10162 10161 10158 ] final -149.49 input  -65.29 | X-H torsion
[ 10718 10713 10712 10709 ] final  -81.18 input   66.30 | X-H torsion
[ 10763 10752 10751 10750 ] final  156.40 input  -60.55 | X-H torsion
[ 11005 11000 10999 10996 ] final   21.64 input  -57.11 | X-H torsion

> <Gold.Protein.ActiveResidues>
 VAL166  LYS551  ARG553  GLY616  TRP617  ASP618  TYR619  PRO620  LYS621  CYS622 
 ASP623  PHE694  ASN695  SER759  ASP760  ASP761  ALA762  ILE779  LEU786  VAL792 
 PHE793  MET794  SER795  GLU796  ALA797  LYS798  CYS799  TRP800  GLU811  SER814 

> <Gold.Protein.RotatedAtoms>
  150.7304  134.0225  159.3705 H   0  0  0  0  0  0  0  0  0  0  0  0  # atno 6907 bound_to 6896
  151.8190  135.0655  160.0432 H   0  0  0  0  0  0  0  0  0  0  0  0  # atno 6908 bound_to 6896
  152.3017  133.5626  159.5659 H   0  0  0  0  0  0  0  0  0  0  0  0  # atno 6909 bound_to 6896
  145.3748  140.9510  143.2427 H   0  0  0  0  0  0  0  0  0  0  0  0  # atno 7974 bound_to 7965
  155.5482  140.0614  157.2855 H   0  0  0  0  0  0  0  0  0  0  0  0  # atno 8008 bound_to 7997
  154.4429  140.1907  156.0704 H   0  0  0  0  0  0  0  0  0  0  0  0  # atno 8009 bound_to 7997
  156.0535  140.3281  155.7382 H   0  0  0  0  0  0  0  0  0  0  0  0  # atno 8010 bound_to 7997
  139.7437  143.8622  152.2569 H   0  0  0  0  0  0  0  0  0  0  0  0  # atno 10167 bound_to 10162
  156.0055  130.4596  150.3914 H   0  0  0  0  0  0  0  0  0  0  0  0  # atno 10718 bound_to 10713
  154.1837  135.2798  155.3044 H   0  0  0  0  0  0  0  0  0  0  0  0  # atno 10763 bound_to 10752
  154.5982  135.5538  153.7351 H   0  0  0  0  0  0  0  0  0  0  0  0  # atno 10764 bound_to 10752
  153.0131  135.6385  154.1976 H   0  0  0  0  0  0  0  0  0  0  0  0  # atno 10765 bound_to 10752
  140.3893  134.1836  155.7662 H   0  0  0  0  0  0  0  0  0  0  0  0  # atno 11005 bound_to 11000
  144.8550  139.5263  143.6838 LP  0  0  0  0  0  0  0  0  0  0  0  0  # atno 17320 bound_to 7965
  146.2869  139.7029  142.9189 LP  0  0  0  0  0  0  0  0  0  0  0  0  # atno 17321 bound_to 7965
  139.8581  144.7131  150.9133 LP  0  0  0  0  0  0  0  0  0  0  0  0  # atno 17342 bound_to 10162
  140.7789  143.3841  151.1424 LP  0  0  0  0  0  0  0  0  0  0  0  0  # atno 17343 bound_to 10162
  157.1988  131.0433  151.2661 LP  0  0  0  0  0  0  0  0  0  0  0  0  # atno 17370 bound_to 10713
  157.3994  130.7325  149.6756 LP  0  0  0  0  0  0  0  0  0  0  0  0  # atno 17371 bound_to 10713
  141.1896  133.8234  157.0949 LP  0  0  0  0  0  0  0  0  0  0  0  0  # atno 17394 bound_to 11000
  140.0419  134.9850  157.0977 LP  0  0  0  0  0  0  0  0  0  0  0  0  # atno 17395 bound_to 11000

$$$$
