AV-unprocessed.smi:3078|AV-procd|sdf|11735|dock8
  -GOLD-   2272017133D 1   1.00000     0.00000
 Structure written by MMmdl.
 24 24  0  0  0  0  0  0  0  0  3 V2000
  152.4659  138.6500  155.1263 C   0  0  0  0  0  0  0  0  0  0  0  0
  151.1040  139.0627  154.8616 N   0  0  0  0  0  0  0  0  0  0  0  0
  150.0635  138.3205  154.3468 C   0  0  0  0  0  0  0  0  0  0  0  0
  148.9689  139.1388  154.2748 C   0  0  0  0  0  0  0  0  0  0  0  0
  147.5745  138.8340  153.7876 C   0  0  2  0  0  0  0  0  0  0  0  0
  147.5531  138.8568  152.3138 N   0  3  0  0  0  0  0  0  0  0  0  0
  146.5203  139.7988  154.3660 C   0  0  0  0  0  0  0  0  0  0  0  0
  145.1608  139.2293  154.3089 N   0  3  0  0  0  0  0  0  0  0  0  0
  149.4545  140.3785  154.7822 C   0  0  0  0  0  0  0  0  0  0  0  0
  150.7297  140.3302  155.1274 N   0  0  0  0  0  0  0  0  0  0  0  0
  152.5605  137.5701  155.0068 H   0  0  0  0  0  0  0  0  0  0  0  0
  152.7433  138.9179  156.1465 H   0  0  0  0  0  0  0  0  0  0  0  0
  153.1425  139.1452  154.4293 H   0  0  0  0  0  0  0  0  0  0  0  0
  150.1887  137.2818  154.0777 H   0  0  0  0  0  0  0  0  0  0  0  0
  147.2967  137.8191  154.0758 H   0  0  0  0  0  0  0  0  0  0  0  0
  148.1121  139.6303  151.9816 H   0  0  0  0  0  0  0  0  0  0  0  0
  146.6038  138.9697  151.9876 H   0  0  0  0  0  0  0  0  0  0  0  0
  146.7533  140.0552  155.4002 H   0  0  0  0  0  0  0  0  0  0  0  0
  146.5167  140.7323  153.8020 H   0  0  0  0  0  0  0  0  0  0  0  0
  144.6705  139.6030  153.5084 H   0  0  0  0  0  0  0  0  0  0  0  0
  144.6567  139.4697  155.1510 H   0  0  0  0  0  0  0  0  0  0  0  0
  148.9203  141.3091  154.9065 H   0  0  0  0  0  0  0  0  0  0  0  0
  145.2143  138.2238  154.2272 H   0  0  0  0  0  0  0  0  0  0  0  0
  147.9323  137.9928  151.9531 H   0  0  0  0  0  0  0  0  0  0  0  0
  1  2  1  0  0  0  0
  1 11  1  0  0  0  0
  1 12  1  0  0  0  0
  1 13  1  0  0  0  0
  2 10  1  0  0  0  0
  2  3  1  0  0  0  0
  3  4  2  0  0  0  0
  3 14  1  0  0  0  0
  4  5  1  0  0  0  0
  4  9  1  0  0  0  0
  5  6  1  0  0  0  0
  5  7  1  0  0  0  0
  5 15  1  0  0  0  0
  6 16  1  0  0  0  0
  6 17  1  0  0  0  0
  6 24  1  0  0  0  0
  7  8  1  0  0  0  0
  7 18  1  0  0  0  0
  7 19  1  0  0  0  0
  8 20  1  0  0  0  0
  8 21  1  0  0  0  0
  8 23  1  0  0  0  0
  9 10  2  0  0  0  0
  9 22  1  0  0  0  0
M  CHG  1   6   1
M  CHG  1   8   1
M  END
> <s_m_source_file>
AV-unprocessed.smi

> <i_m_source_file_index>
3078

> <i_lp_mmshare_version>
43012

> <i_f3d_flags>
0

> <s_epik_input>
W0NIM11uMVtjSF1jKFtjSF1uMSlbQ0BIXShbTkgyXSlbQ0gyXVtOSDJd

> <s_epik_cmdline>
J2VwaWtfcHl0aG9uJywgJy1waCcsICc3LjAnLCAnLXRuJywgJzgnLCAnLW1hJywgJzIwMCcsICctbWV0YWxfYmluZGluZycsICctaW1hZScsICc8aW5maWxlLm1hZT4nLCAnLW9tYWUnLCAnPG91dGZpbGUubWFlPic=

> <r_lp_tautomer_probability>
1

> <r_epik_Ionization_Penalty>
2.39325

> <r_epik_Ionization_Penalty_Charging>
2.39325

> <r_epik_Ionization_Penalty_Neutral>
1.68997e-07

> <r_epik_State_Penalty>
1.77229

> <r_epik_Charging_Adjusted_Penalty>
4.16555

> <i_epik_Tot_Q>
2

> <i_epik_Tot_abs_Q>
2

> <r_epik_Metal_State_Penalty>
1.77233

> <b_epik_Metal_Only>
0

> <s_lp_Force_Field>
OPLS_2005

> <r_lp_Energy>
8.51806

> <b_lp_Chiralities_Consistent>
1

> <s_lp_Variant>
AV-unprocessed.smi:3078-5

> <Gold.Version>
5.8.1

> <Gold.Id.Protein>
6NUR|6NUR_protein|mol2

> <Gold.PLP.Fitness>
39.4503

> <Gold.PLP.PLP>
-20.6400

> <Gold.PLP.part.hbond>
-4.0000

> <Gold.PLP.part.metal>
0.0000

> <Gold.PLP.part.buried>
-1.3601

> <Gold.PLP.part.nonpolar>
-15.5216

> <Gold.PLP.part.repulsive>
0.1522

> <Gold.PLP.ligand.clash>
0.0000

> <Gold.PLP.ligand.torsion>
0.7626

> <Gold.PLP.Chemscore.Hbond>
6.0000

> <Gold.PLP.Chemscore.CHOScore>
0.7729

> <Gold.PLP.Chemscore.Metal>
0.0000

> <Gold.Chemscore.Hbonds>
donor molecule, donor type, donor heavy atom, donor atom, acceptor molecule, acceptor atom, score
      L1  H     6    16       P1  7957  0.86
      L1  H     6    24       P1  7948  2.00
      L1  H     8    20       P1 10175  2.00
      P1  H  7989  7998       L1    10  0.45
      L1  C     3    14       P1  7948  0.47

> <Gold.PLP.Chemscore.Internal.Correction>
0.0169

> <Gold.Rescore>
     Score         DG    S(hbond)    S(metal)    S(lipo)     H(rot)  DE(clash)    DE(int)     intcor
     16.68     -17.73       3.44        0.00      37.90       1.43       0.14       0.92       ----

> <Gold.Chemscore.Fitness>
16.6754

> <Gold.Chemscore.DG>
-17.7343

> <Gold.Chemscore.ZeroCoef>
-5.4800

> <Gold.Chemscore.Hbond>
3.4378

> <Gold.Chemscore.Metal>
0.0000

> <Gold.Chemscore.Lipo>
37.8970

> <Gold.Chemscore.Internal_Hbond>
0.0000

> <Gold.Chemscore.DEClash>
0.1390

> <Gold.Chemscore.DEInternal>
0.9198

> <Gold.Chemscore.Rot>
1.4304

> <Gold.Chemscore.Internal.Correction>
   9.000000E+99

> <Gold.Chemscore.Hbonds>
donor molecule, donor type, donor heavy atom, donor atom, acceptor molecule, acceptor atom, score
      L1  H     6    16       P1  7957  0.85
      L1  H     6    24       P1  7948  0.95
      L1  H     8    20       P1 10175  1.00
      P1  H  7989  7998       L1    10  0.01

> <Gold.Chemscore.Hbond.Weighted>
-11.4821

> <Gold.Chemscore.Metal.Weighted>
-0.0000

> <Gold.Chemscore.Lipo.Weighted>
-4.4339

> <Gold.Chemscore.Internal_Hbond.Weighted>
0.0000

> <Gold.Chemscore.DEClash.Weighted>
0.1390

> <Gold.Chemscore.DEInternal.Weighted>
0.9198

> <Gold.Chemscore.Rot.Weighted>
3.6618

> <Gold.Chemscore.Internal.Correction.Weighted>
   9.000000E+99

> <Gold.Protein.RotatedTorsions>
[ 6907 6896 6895 6894 ] final  -98.56 input  -60.11 | X-H torsion
[ 7974 7965 7964 7962 ] final  -84.17 input  175.53 | X-H torsion
[ 8008 7997 7996 7995 ] final  -53.58 input   59.86 | X-H torsion
[ 10167 10162 10161 10158 ] final  -15.92 input  -65.29 | X-H torsion
[ 10718 10713 10712 10709 ] final -134.86 input   66.30 | X-H torsion
[ 10763 10752 10751 10750 ] final -133.57 input  -60.55 | X-H torsion
[ 11005 11000 10999 10996 ] final -108.12 input  -57.11 | X-H torsion

> <Gold.Protein.ActiveResidues>
 VAL166  LYS551  ARG553  GLY616  TRP617  ASP618  TYR619  PRO620  LYS621  CYS622 
 ASP623  PHE694  ASN695  SER759  ASP760  ASP761  ALA762  ILE779  LEU786  VAL792 
 PHE793  MET794  SER795  GLU796  ALA797  LYS798  CYS799  TRP800  GLU811  SER814 

> <Gold.Protein.RotatedAtoms>
  150.7051  134.1175  159.4022 H   0  0  0  0  0  0  0  0  0  0  0  0  # atno 6907 bound_to 6896
  151.9162  135.0316  160.0527 H   0  0  0  0  0  0  0  0  0  0  0  0  # atno 6908 bound_to 6896
  152.2295  133.5011  159.5244 H   0  0  0  0  0  0  0  0  0  0  0  0  # atno 6909 bound_to 6896
  145.5102  140.9540  143.1712 H   0  0  0  0  0  0  0  0  0  0  0  0  # atno 7974 bound_to 7965
  154.4137  140.1196  156.5176 H   0  0  0  0  0  0  0  0  0  0  0  0  # atno 8008 bound_to 7997
  155.6735  140.3496  155.4808 H   0  0  0  0  0  0  0  0  0  0  0  0  # atno 8009 bound_to 7997
  155.9613  140.1123  157.0883 H   0  0  0  0  0  0  0  0  0  0  0  0  # atno 8010 bound_to 7997
  140.7226  143.5169  150.9681 H   0  0  0  0  0  0  0  0  0  0  0  0  # atno 10167 bound_to 10162
  156.2600  130.7204  151.1135 H   0  0  0  0  0  0  0  0  0  0  0  0  # atno 10718 bound_to 10713
  154.8731  135.3762  154.4595 H   0  0  0  0  0  0  0  0  0  0  0  0  # atno 10763 bound_to 10752
  153.5264  135.7028  153.5710 H   0  0  0  0  0  0  0  0  0  0  0  0  # atno 10764 bound_to 10752
  153.3934  135.3966  155.1904 H   0  0  0  0  0  0  0  0  0  0  0  0  # atno 10765 bound_to 10752
  141.0918  133.9041  157.2057 H   0  0  0  0  0  0  0  0  0  0  0  0  # atno 11005 bound_to 11000
  144.7732  139.6689  143.7186 LP  0  0  0  0  0  0  0  0  0  0  0  0  # atno 17320 bound_to 7965
  146.2171  139.5569  142.9642 LP  0  0  0  0  0  0  0  0  0  0  0  0  # atno 17321 bound_to 7965
  139.8885  143.6983  152.3148 LP  0  0  0  0  0  0  0  0  0  0  0  0  # atno 17342 bound_to 10162
  139.7290  144.7586  151.0832 LP  0  0  0  0  0  0  0  0  0  0  0  0  # atno 17343 bound_to 10162
  157.7247  131.0658  150.5984 LP  0  0  0  0  0  0  0  0  0  0  0  0  # atno 17370 bound_to 10713
  156.6071  130.4370  149.5874 LP  0  0  0  0  0  0  0  0  0  0  0  0  # atno 17371 bound_to 10713
  139.9746  135.0118  156.9598 LP  0  0  0  0  0  0  0  0  0  0  0  0  # atno 17394 bound_to 11000
  140.5233  134.0885  155.7297 LP  0  0  0  0  0  0  0  0  0  0  0  0  # atno 17395 bound_to 11000

$$$$
