AV-unprocessed.smi:2374|AV-procd|sdf|9441|dock1
  -GOLD-   2272013 73D 1   1.00000     0.00000
 Structure written by MMmdl.
 38 39  0  0  0  0  0  0  0  0  1 V2000
  149.2463  130.3086  154.2466 C   0  0  0  0  0  0  0  0  0  0  0  0
  149.3874  131.4753  155.1820 C   0  0  0  0  0  0  0  0  0  0  0  0
  149.5525  131.2557  156.4755 N   0  0  0  0  0  0  0  0  0  0  0  0
  149.6396  132.5179  157.0708 O   0  0  0  0  0  0  0  0  0  0  0  0
  149.5185  133.4593  156.1006 C   0  0  0  0  0  0  0  0  0  0  0  0
  149.5777  134.8847  156.5350 C   0  0  0  0  0  0  0  0  0  0  0  0
  149.3572  132.8675  154.8784 C   0  0  0  0  0  0  0  0  0  0  0  0
  149.1803  133.5270  153.5351 C   0  0  0  0  0  0  0  0  0  0  0  0
  147.8311  133.1207  152.9448 C   0  0  0  0  0  0  0  0  0  0  0  0
  147.3450  132.0245  153.2198 O   0  0  0  0  0  0  0  0  0  0  0  0
  147.2514  134.0099  152.1215 N   0  0  0  0  0  0  0  0  0  0  0  0
  145.9968  133.8445  151.3859 C   0  0  0  0  0  0  0  0  0  0  0  0
  145.6381  135.0819  150.6639 C   0  0  0  0  0  0  0  0  0  0  0  0
  145.3578  136.0512  150.0972 N   0  0  0  0  0  0  0  0  0  0  0  0
  146.2145  132.7014  150.3686 C   0  0  0  0  0  0  0  0  0  0  0  0
  144.9235  132.3266  149.6207 C   0  0  0  0  0  0  0  0  0  0  0  0
  143.8092  131.9444  150.6050 C   0  0  0  0  0  0  0  0  0  0  0  0
  143.5665  133.0611  151.6302 C   0  0  0  0  0  0  0  0  0  0  0  0
  144.8662  133.4346  152.3634 C   0  0  0  0  0  0  0  0  0  0  0  0
  148.1966  130.1093  154.0300 H   0  0  0  0  0  0  0  0  0  0  0  0
  149.6769  129.4001  154.6690 H   0  0  0  0  0  0  0  0  0  0  0  0
  149.7503  130.5011  153.2994 H   0  0  0  0  0  0  0  0  0  0  0  0
  149.5470  134.9674  157.6217 H   0  0  0  0  0  0  0  0  0  0  0  0
  148.7349  135.4455  156.1303 H   0  0  0  0  0  0  0  0  0  0  0  0
  150.4964  135.3555  156.1850 H   0  0  0  0  0  0  0  0  0  0  0  0
  149.2154  134.6140  153.6182 H   0  0  0  0  0  0  0  0  0  0  0  0
  149.9793  133.2526  152.8455 H   0  0  0  0  0  0  0  0  0  0  0  0
  147.7387  134.8811  151.9716 H   0  0  0  0  0  0  0  0  0  0  0  0
  146.9820  132.9850  149.6470 H   0  0  0  0  0  0  0  0  0  0  0  0
  146.5933  131.8162  150.8828 H   0  0  0  0  0  0  0  0  0  0  0  0
  144.5964  133.1618  149.0005 H   0  0  0  0  0  0  0  0  0  0  0  0
  145.1171  131.4969  148.9404 H   0  0  0  0  0  0  0  0  0  0  0  0
  142.8884  131.7315  150.0611 H   0  0  0  0  0  0  0  0  0  0  0  0
  144.0810  131.0251  151.1252 H   0  0  0  0  0  0  0  0  0  0  0  0
  143.1597  133.9392  151.1273 H   0  0  0  0  0  0  0  0  0  0  0  0
  142.8128  132.7440  152.3513 H   0  0  0  0  0  0  0  0  0  0  0  0
  145.1908  132.5847  152.9659 H   0  0  0  0  0  0  0  0  0  0  0  0
  144.6572  134.2418  153.0660 H   0  0  0  0  0  0  0  0  0  0  0  0
  1  2  1  0  0  0  0
  1 20  1  0  0  0  0
  1 21  1  0  0  0  0
  1 22  1  0  0  0  0
  2  7  1  0  0  0  0
  2  3  2  0  0  0  0
  3  4  1  0  0  0  0
  4  5  1  0  0  0  0
  5  6  1  0  0  0  0
  5  7  2  0  0  0  0
  6 23  1  0  0  0  0
  6 24  1  0  0  0  0
  6 25  1  0  0  0  0
  7  8  1  0  0  0  0
  8  9  1  0  0  0  0
  8 26  1  0  0  0  0
  8 27  1  0  0  0  0
  9 10  2  0  0  0  0
  9 11  1  0  0  0  0
 11 12  1  0  0  0  0
 11 28  1  0  0  0  0
 12 19  1  0  0  0  0
 12 13  1  0  0  0  0
 12 15  1  0  0  0  0
 13 14  3  0  0  0  0
 15 16  1  0  0  0  0
 15 29  1  0  0  0  0
 15 30  1  0  0  0  0
 16 17  1  0  0  0  0
 16 31  1  0  0  0  0
 16 32  1  0  0  0  0
 17 18  1  0  0  0  0
 17 33  1  0  0  0  0
 17 34  1  0  0  0  0
 18 19  1  0  0  0  0
 18 35  1  0  0  0  0
 18 36  1  0  0  0  0
 19 37  1  0  0  0  0
 19 38  1  0  0  0  0
M  END
> <s_m_source_file>
AV-unprocessed.smi

> <i_m_source_file_index>
2374

> <i_lp_mmshare_version>
43012

> <i_f3d_flags>
0

> <s_epik_input>
W0NIM11jMW5vYyhbQ0gzXSljMVtDSDJdQyg9TylbTkhdQzIoQyNOKVtDSDJdW0NIMl1bQ0gyXVtDSDJdW0NIMl0y

> <s_epik_cmdline>
J2VwaWtfcHl0aG9uJywgJy1waCcsICc3LjAnLCAnLXRuJywgJzgnLCAnLW1hJywgJzIwMCcsICctbWV0YWxfYmluZGluZycsICctaW1hZScsICc8aW5maWxlLm1hZT4nLCAnLW9tYWUnLCAnPG91dGZpbGUubWFlPic=

> <r_lp_tautomer_probability>
1

> <r_epik_Ionization_Penalty>
5.32351e-07

> <r_epik_Ionization_Penalty_Charging>
0

> <r_epik_Ionization_Penalty_Neutral>
5.32351e-07

> <r_epik_State_Penalty>
-0

> <r_epik_Charging_Adjusted_Penalty>
0

> <i_epik_Tot_Q>
0

> <i_epik_Tot_abs_Q>
0

> <r_epik_Metal_State_Penalty>
-0

> <b_epik_Metal_Only>
0

> <s_lp_Force_Field>
OPLS_2005

> <r_lp_Energy>
1.24433

> <b_lp_Chiralities_Consistent>
1

> <s_lp_Variant>
AV-unprocessed.smi:2374-1

> <Gold.Version>
5.8.1

> <Gold.Id.Protein>
6NUR|6NUR_protein|mol2

> <Gold.PLP.Fitness>
36.1997

> <Gold.PLP.PLP>
-34.0341

> <Gold.PLP.part.hbond>
-1.0000

> <Gold.PLP.part.metal>
0.0000

> <Gold.PLP.part.buried>
-5.1832

> <Gold.PLP.part.nonpolar>
-28.5948

> <Gold.PLP.part.repulsive>
2.0244

> <Gold.PLP.ligand.clash>
0.0000

> <Gold.PLP.ligand.torsion>
0.4198

> <Gold.PLP.Chemscore.Hbond>
1.0000

> <Gold.PLP.Chemscore.CHOScore>
0.0000

> <Gold.PLP.Chemscore.Metal>
0.0000

> <Gold.Chemscore.Hbonds>
donor molecule, donor type, donor heavy atom, donor atom, acceptor molecule, acceptor atom, score
      L1  H    11    28       P1  7948  1.00

> <Gold.PLP.Chemscore.Internal.Correction>
0.0053

> <Gold.Rescore>
     Score         DG    S(hbond)    S(metal)    S(lipo)     H(rot)  DE(clash)    DE(int)     intcor
     14.06     -15.63       1.77        0.00      66.94       1.40       0.07       1.50       ----

> <Gold.Chemscore.Fitness>
14.0571

> <Gold.Chemscore.DG>
-15.6265

> <Gold.Chemscore.ZeroCoef>
-5.4800

> <Gold.Chemscore.Hbond>
1.7669

> <Gold.Chemscore.Metal>
0.0000

> <Gold.Chemscore.Lipo>
66.9352

> <Gold.Chemscore.Internal_Hbond>
0.0000

> <Gold.Chemscore.DEClash>
0.0737

> <Gold.Chemscore.DEInternal>
1.4957

> <Gold.Chemscore.Rot>
1.4009

> <Gold.Chemscore.Internal.Correction>
   9.000000E+99

> <Gold.Chemscore.Hbonds>
donor molecule, donor type, donor heavy atom, donor atom, acceptor molecule, acceptor atom, score
      L1  H    11    28       P1  7948  0.65

> <Gold.Chemscore.Hbond.Weighted>
-5.9013

> <Gold.Chemscore.Metal.Weighted>
-0.0000

> <Gold.Chemscore.Lipo.Weighted>
-7.8314

> <Gold.Chemscore.Internal_Hbond.Weighted>
0.0000

> <Gold.Chemscore.DEClash.Weighted>
0.0737

> <Gold.Chemscore.DEInternal.Weighted>
1.4957

> <Gold.Chemscore.Rot.Weighted>
3.5863

> <Gold.Chemscore.Internal.Correction.Weighted>
   9.000000E+99

> <Gold.Protein.RotatedTorsions>
[ 6907 6896 6895 6894 ] final  -18.70 input  -60.11 | X-H torsion
[ 7974 7965 7964 7962 ] final  -48.37 input  175.53 | X-H torsion
[ 8008 7997 7996 7995 ] final   44.82 input   59.86 | X-H torsion
[ 10167 10162 10161 10158 ] final   46.95 input  -65.29 | X-H torsion
[ 10718 10713 10712 10709 ] final  115.64 input   66.30 | X-H torsion
[ 10763 10752 10751 10750 ] final -172.98 input  -60.55 | X-H torsion
[ 11005 11000 10999 10996 ] final -125.75 input  -57.11 | X-H torsion

> <Gold.Protein.ActiveResidues>
 VAL166  LYS551  ARG553  GLY616  TRP617  ASP618  TYR619  PRO620  LYS621  CYS622 
 ASP623  PHE694  ASN695  SER759  ASP760  ASP761  ALA762  ILE779  LEU786  VAL792 
 PHE793  MET794  SER795  GLU796  ALA797  LYS798  CYS799  TRP800  GLU811  SER814 

> <Gold.Protein.RotatedAtoms>
  151.2742  135.0694  159.9144 H   0  0  0  0  0  0  0  0  0  0  0  0  # atno 6907 bound_to 6896
  152.5345  134.0099  159.7944 H   0  0  0  0  0  0  0  0  0  0  0  0  # atno 6908 bound_to 6896
  151.0342  133.5713  159.2688 H   0  0  0  0  0  0  0  0  0  0  0  0  # atno 6909 bound_to 6896
  145.9519  140.7564  142.9500 H   0  0  0  0  0  0  0  0  0  0  0  0  # atno 7974 bound_to 7965
  155.3257  140.3399  155.4240 H   0  0  0  0  0  0  0  0  0  0  0  0  # atno 8008 bound_to 7997
  156.1887  140.1690  156.8172 H   0  0  0  0  0  0  0  0  0  0  0  0  # atno 8009 bound_to 7997
  154.5416  140.0723  156.8503 H   0  0  0  0  0  0  0  0  0  0  0  0  # atno 8010 bound_to 7997
  140.3086  144.2847  150.6204 H   0  0  0  0  0  0  0  0  0  0  0  0  # atno 10167 bound_to 10162
  157.6210  131.1015  150.7359 H   0  0  0  0  0  0  0  0  0  0  0  0  # atno 10718 bound_to 10713
  154.6131  135.2867  155.0410 H   0  0  0  0  0  0  0  0  0  0  0  0  # atno 10763 bound_to 10752
  154.1632  135.6484  153.4995 H   0  0  0  0  0  0  0  0  0  0  0  0  # atno 10764 bound_to 10752
  153.0203  135.5383  154.6892 H   0  0  0  0  0  0  0  0  0  0  0  0  # atno 10765 bound_to 10752
  140.9737  134.0770  157.3842 H   0  0  0  0  0  0  0  0  0  0  0  0  # atno 11005 bound_to 11000
  144.6797  140.2448  143.7339 LP  0  0  0  0  0  0  0  0  0  0  0  0  # atno 17320 bound_to 7965
  145.8160  139.2023  143.1966 LP  0  0  0  0  0  0  0  0  0  0  0  0  # atno 17321 bound_to 7965
  140.5588  143.2195  151.7801 LP  0  0  0  0  0  0  0  0  0  0  0  0  # atno 17342 bound_to 10162
  139.4899  144.4377  151.9800 LP  0  0  0  0  0  0  0  0  0  0  0  0  # atno 17343 bound_to 10162
  156.7716  130.4830  149.5417 LP  0  0  0  0  0  0  0  0  0  0  0  0  # atno 17370 bound_to 10713
  156.1355  130.6208  151.0394 LP  0  0  0  0  0  0  0  0  0  0  0  0  # atno 17371 bound_to 10713
  139.8922  135.0123  156.6833 LP  0  0  0  0  0  0  0  0  0  0  0  0  # atno 17394 bound_to 11000
  140.7291  133.9075  155.8199 LP  0  0  0  0  0  0  0  0  0  0  0  0  # atno 17395 bound_to 11000

$$$$
