AV-unprocessed.smi:1726|AV-procd|sdf|6958|dock2
  -GOLD-   22720 8173D 1   1.00000     0.00000
 Structure written by MMmdl.
 43 44  0  0  0  0  0  0  0  0  2 V2000
  151.3029  137.5626  154.6043 C   0  0  0  0  0  0  0  0  0  0  0  0
  150.4233  138.8048  154.4003 C   0  0  0  0  0  0  0  0  0  0  0  0
  149.0547  138.4574  153.9435 N   0  3  2  0  0  0  0  0  0  0  0  0
  148.3613  139.6045  153.3017 C   0  0  0  0  0  0  0  0  0  0  0  0
  147.0102  139.1747  152.7032 C   0  0  0  0  0  0  0  0  0  0  0  0
  146.1216  138.4888  153.7547 C   0  0  0  0  0  0  0  0  0  0  0  0
  146.8740  137.3360  154.4431 C   0  0  1  0  0  0  0  0  0  0  0  0
  147.0746  136.2378  153.4968 N   0  0  0  0  0  0  0  0  0  0  0  0
  146.2857  135.1605  153.3781 C   0  0  0  0  0  0  0  0  0  0  0  0
  145.2883  134.9769  154.0749 O   0  0  0  0  0  0  0  0  0  0  0  0
  146.7530  134.3254  152.4324 N   0  0  0  0  0  0  0  0  0  0  0  0
  146.2303  133.0968  151.9952 C   0  0  0  0  0  0  0  0  0  0  0  0
  146.7012  131.8766  152.3634 C   0  0  0  0  0  0  0  0  0  0  0  0
  146.1038  130.6421  151.8819 C   0  0  0  0  0  0  0  0  0  0  0  0
  146.6914  129.2840  152.2326 C   0  0  0  0  0  0  0  0  0  0  0  0
  146.9974  128.5910  151.1348 F   0  0  0  0  0  0  0  0  0  0  0  0
  147.7968  129.4163  152.9663 F   0  0  0  0  0  0  0  0  0  0  0  0
  145.8082  128.5773  152.9369 F   0  0  0  0  0  0  0  0  0  0  0  0
  145.0585  130.7682  151.0436 C   0  0  0  0  0  0  0  0  0  0  0  0
  144.5543  132.0184  150.6783 N   0  0  0  0  0  0  0  0  0  0  0  0
  145.0680  133.1966  151.0970 C   0  0  0  0  0  0  0  0  0  0  0  0
  144.5697  134.2592  150.7268 O   0  0  0  0  0  0  0  0  0  0  0  0
  148.2139  137.8540  155.0116 C   0  0  0  0  0  0  0  0  0  0  0  0
  143.7578  132.0285  150.0575 H   0  0  0  0  0  0  0  0  0  0  0  0
  152.3251  137.8530  154.8478 H   0  0  0  0  0  0  0  0  0  0  0  0
  151.3401  136.9538  153.7003 H   0  0  0  0  0  0  0  0  0  0  0  0
  150.9446  136.9333  155.4185 H   0  0  0  0  0  0  0  0  0  0  0  0
  150.3752  139.4008  155.3129 H   0  0  0  0  0  0  0  0  0  0  0  0
  150.9054  139.4306  153.6482 H   0  0  0  0  0  0  0  0  0  0  0  0
  148.2131  140.3980  154.0362 H   0  0  0  0  0  0  0  0  0  0  0  0
  148.9856  140.0191  152.5094 H   0  0  0  0  0  0  0  0  0  0  0  0
  146.4938  140.0424  152.2911 H   0  0  0  0  0  0  0  0  0  0  0  0
  147.1819  138.4969  151.8660 H   0  0  0  0  0  0  0  0  0  0  0  0
  145.8212  139.2221  154.5044 H   0  0  0  0  0  0  0  0  0  0  0  0
  145.2009  138.1266  153.2953 H   0  0  0  0  0  0  0  0  0  0  0  0
  146.2576  136.9667  155.2648 H   0  0  0  0  0  0  0  0  0  0  0  0
  147.8695  136.3110  152.8784 H   0  0  0  0  0  0  0  0  0  0  0  0
  147.6239  134.5863  151.9931 H   0  0  0  0  0  0  0  0  0  0  0  0
  147.5271  131.7837  153.0495 H   0  0  0  0  0  0  0  0  0  0  0  0
  144.5392  129.9369  150.5896 H   0  0  0  0  0  0  0  0  0  0  0  0
  148.7450  137.0384  155.5006 H   0  0  0  0  0  0  0  0  0  0  0  0
  148.0259  138.5991  155.7863 H   0  0  0  0  0  0  0  0  0  0  0  0
  149.1653  137.7567  153.2247 H   0  0  0  0  0  0  0  0  0  0  0  0
  1  2  1  0  0  0  0
  1 25  1  0  0  0  0
  1 26  1  0  0  0  0
  1 27  1  0  0  0  0
  2  3  1  0  0  0  0
  2 28  1  0  0  0  0
  2 29  1  0  0  0  0
  3 23  1  0  0  0  0
  3  4  1  0  0  0  0
  3 43  1  0  0  0  0
  4  5  1  0  0  0  0
  4 30  1  0  0  0  0
  4 31  1  0  0  0  0
  5  6  1  0  0  0  0
  5 32  1  0  0  0  0
  5 33  1  0  0  0  0
  6  7  1  0  0  0  0
  6 34  1  0  0  0  0
  6 35  1  0  0  0  0
  7  8  1  0  0  0  0
  7 23  1  0  0  0  0
  7 36  1  0  0  0  0
  8  9  1  0  0  0  0
  8 37  1  0  0  0  0
  9 10  2  0  0  0  0
  9 11  1  0  0  0  0
 11 12  1  0  0  0  0
 11 38  1  0  0  0  0
 12 21  1  0  0  0  0
 12 13  2  0  0  0  0
 13 14  1  0  0  0  0
 13 39  1  0  0  0  0
 14 15  1  0  0  0  0
 14 19  2  0  0  0  0
 15 16  1  0  0  0  0
 15 17  1  0  0  0  0
 15 18  1  0  0  0  0
 19 20  1  0  0  0  0
 19 40  1  0  0  0  0
 20 24  1  0  0  0  0
 20 21  1  0  0  0  0
 21 22  2  0  0  0  0
 23 41  1  0  0  0  0
 23 42  1  0  0  0  0
M  CHG  1   3   1
M  END
> <s_m_source_file>
AV-unprocessed.smi

> <i_m_source_file_index>
1726

> <i_lp_mmshare_version>
43012

> <i_f3d_flags>
0

> <s_epik_input>
W0NIM11bQ0gyXU4xW0NIMl1bQ0gyXVtDSDJdW0NASF0oW0NIMl0xKVtOSF1DKD1PKVtOSF1jMltjSF1jKEMoRikoRilGKVtjSF1bbkhdYzI9Tw==

> <s_epik_cmdline>
J2VwaWtfcHl0aG9uJywgJy1waCcsICc3LjAnLCAnLXRuJywgJzgnLCAnLW1hJywgJzIwMCcsICctbWV0YWxfYmluZGluZycsICctaW1hZScsICc8aW5maWxlLm1hZT4nLCAnLW9tYWUnLCAnPG91dGZpbGUubWFlPic=

> <r_lp_tautomer_probability>
1

> <r_epik_Ionization_Penalty>
0.00745721

> <r_epik_Ionization_Penalty_Charging>
0.00743804

> <r_epik_Ionization_Penalty_Neutral>
1.91703e-05

> <r_epik_State_Penalty>
-0

> <r_epik_Charging_Adjusted_Penalty>
0.00743804

> <i_epik_Tot_Q>
1

> <i_epik_Tot_abs_Q>
1

> <r_epik_Metal_State_Penalty>
0.37929

> <b_epik_Metal_Only>
0

> <s_lp_Force_Field>
OPLS_2005

> <r_lp_Energy>
34.544

> <b_lp_Chiralities_Consistent>
1

> <s_lp_Variant>
AV-unprocessed.smi:1726-2

> <Gold.Version>
5.8.1

> <Gold.Id.Protein>
6NUR|6NUR_protein|mol2

> <Gold.PLP.Fitness>
43.2409

> <Gold.PLP.PLP>
-34.4819

> <Gold.PLP.part.hbond>
-3.7153

> <Gold.PLP.part.metal>
0.0000

> <Gold.PLP.part.buried>
0.2877

> <Gold.PLP.part.nonpolar>
-31.4444

> <Gold.PLP.part.repulsive>
0.3093

> <Gold.PLP.ligand.clash>
0.0000

> <Gold.PLP.ligand.torsion>
1.2582

> <Gold.PLP.Chemscore.Hbond>
3.7354

> <Gold.PLP.Chemscore.CHOScore>
0.0000

> <Gold.PLP.Chemscore.Metal>
0.0000

> <Gold.Chemscore.Hbonds>
donor molecule, donor type, donor heavy atom, donor atom, acceptor molecule, acceptor atom, score
      L1  H     3    43       P1  7948  2.00
      L1  H     8    37       P1  7948  0.89
      L1  H    11    38       P1  7948  0.76

> <Gold.PLP.Chemscore.Internal.Correction>
0.0692

> <Gold.Rescore>
     Score         DG    S(hbond)    S(metal)    S(lipo)     H(rot)  DE(clash)    DE(int)     intcor
     16.36     -19.22       2.39        0.00      77.36       1.29       1.76       1.10       ----

> <Gold.Chemscore.Fitness>
16.3576

> <Gold.Chemscore.DG>
-19.2208

> <Gold.Chemscore.ZeroCoef>
-5.4800

> <Gold.Chemscore.Hbond>
2.3917

> <Gold.Chemscore.Metal>
0.0000

> <Gold.Chemscore.Lipo>
77.3581

> <Gold.Chemscore.Internal_Hbond>
0.0000

> <Gold.Chemscore.DEClash>
1.7637

> <Gold.Chemscore.DEInternal>
1.0996

> <Gold.Chemscore.Rot>
1.2884

> <Gold.Chemscore.Internal.Correction>
   9.000000E+99

> <Gold.Chemscore.Hbonds>
donor molecule, donor type, donor heavy atom, donor atom, acceptor molecule, acceptor atom, score
      L1  H     3    43       P1  7948  0.93
      L1  H     8    37       P1  7948  0.86
      L1  H    11    38       P1  7948  0.36

> <Gold.Chemscore.Hbond.Weighted>
-7.9882

> <Gold.Chemscore.Metal.Weighted>
-0.0000

> <Gold.Chemscore.Lipo.Weighted>
-9.0509

> <Gold.Chemscore.Internal_Hbond.Weighted>
0.0000

> <Gold.Chemscore.DEClash.Weighted>
1.7637

> <Gold.Chemscore.DEInternal.Weighted>
1.0996

> <Gold.Chemscore.Rot.Weighted>
3.2983

> <Gold.Chemscore.Internal.Correction.Weighted>
   9.000000E+99

> <Gold.Protein.RotatedTorsions>
[ 6907 6896 6895 6894 ] final   72.79 input  -60.11 | X-H torsion
[ 7974 7965 7964 7962 ] final   33.95 input  175.53 | X-H torsion
[ 8008 7997 7996 7995 ] final -159.06 input   59.86 | X-H torsion
[ 10167 10162 10161 10158 ] final  -80.79 input  -65.29 | X-H torsion
[ 10718 10713 10712 10709 ] final  116.38 input   66.30 | X-H torsion
[ 10763 10752 10751 10750 ] final  -87.36 input  -60.55 | X-H torsion
[ 11005 11000 10999 10996 ] final    1.89 input  -57.11 | X-H torsion

> <Gold.Protein.ActiveResidues>
 VAL166  LYS551  ARG553  GLY616  TRP617  ASP618  TYR619  PRO620  LYS621  CYS622 
 ASP623  PHE694  ASN695  SER759  ASP760  ASP761  ALA762  ILE779  LEU786  VAL792 
 PHE793  MET794  SER795  GLU796  ALA797  LYS798  CYS799  TRP800  GLU811  SER814 

> <Gold.Protein.RotatedAtoms>
  152.4887  134.4519  159.9576 H   0  0  0  0  0  0  0  0  0  0  0  0  # atno 6907 bound_to 6896
  151.4510  133.3611  159.2803 H   0  0  0  0  0  0  0  0  0  0  0  0  # atno 6908 bound_to 6896
  150.9022  134.8459  159.7428 H   0  0  0  0  0  0  0  0  0  0  0  0  # atno 6909 bound_to 6896
  146.1386  139.6331  142.9178 H   0  0  0  0  0  0  0  0  0  0  0  0  # atno 7974 bound_to 7965
  155.7569  140.0834  157.2174 H   0  0  0  0  0  0  0  0  0  0  0  0  # atno 8008 bound_to 7997
  154.4007  140.1550  156.2844 H   0  0  0  0  0  0  0  0  0  0  0  0  # atno 8009 bound_to 7997
  155.8877  140.3417  155.5936 H   0  0  0  0  0  0  0  0  0  0  0  0  # atno 8010 bound_to 7997
  140.4471  143.2495  151.8542 H   0  0  0  0  0  0  0  0  0  0  0  0  # atno 10167 bound_to 10162
  157.6164  131.1024  150.7464 H   0  0  0  0  0  0  0  0  0  0  0  0  # atno 10718 bound_to 10713
  154.6327  135.5416  153.7699 H   0  0  0  0  0  0  0  0  0  0  0  0  # atno 10763 bound_to 10752
  153.0293  135.6440  154.1277 H   0  0  0  0  0  0  0  0  0  0  0  0  # atno 10764 bound_to 10752
  154.1206  135.2920  155.3189 H   0  0  0  0  0  0  0  0  0  0  0  0  # atno 10765 bound_to 10752
  140.6104  133.9753  155.8175 H   0  0  0  0  0  0  0  0  0  0  0  0  # atno 11005 bound_to 11000
  145.5099  141.0435  143.2493 LP  0  0  0  0  0  0  0  0  0  0  0  0  # atno 17320 bound_to 7965
  144.7767  139.6615  143.7172 LP  0  0  0  0  0  0  0  0  0  0  0  0  # atno 17321 bound_to 7965
  139.4793  144.5163  151.8864 LP  0  0  0  0  0  0  0  0  0  0  0  0  # atno 17342 bound_to 10162
  140.4251  144.2191  150.5887 LP  0  0  0  0  0  0  0  0  0  0  0  0  # atno 17343 bound_to 10162
  156.7830  130.4865  149.5397 LP  0  0  0  0  0  0  0  0  0  0  0  0  # atno 17370 bound_to 10713
  156.1288  130.6163  151.0303 LP  0  0  0  0  0  0  0  0  0  0  0  0  # atno 17371 bound_to 10713
  141.0811  134.0060  157.3384 LP  0  0  0  0  0  0  0  0  0  0  0  0  # atno 17394 bound_to 11000
  139.9194  135.0199  156.8008 LP  0  0  0  0  0  0  0  0  0  0  0  0  # atno 17395 bound_to 11000

$$$$
