#       Name:                AV-unprocessed.smi:492
#       Creating user name   scv26
#       Creation time:       Thu Mar 26 23:15:04 2020


#       File generated by GOLD software.
#

@<TRIPOS>MOLECULE
AV-unprocessed.smi:492
    53    55     1
SMALL
NO_CHARGES


@<TRIPOS>ATOM
      1 ****        -6.6446   3.4179   0.1972 C.3            1 S1                 0.0000
      2 ****        -5.8514   2.4328  -0.4489 O.3            1 S1                 0.0000
      3 ****        -4.4821   2.5915  -0.4359 C.ar           1 S1                 0.0000
      4 ****        -3.8110   3.6785   0.1790 C.ar           1 S1                 0.0000
      5 ****        -2.4053   3.7618   0.1442 C.ar           1 S1                 0.0000
      6 ****        -1.6478   2.7613  -0.4974 C.ar           1 S1                 0.0000
      7 ****        -0.1353   2.8647  -0.5480 C.3            1 S1                 0.0000
      8 ****         0.4837   1.5925  -0.4577 O.3            1 S1                 0.0000
      9 ****         1.8989   1.6533  -0.5321 C.3            1 S1                 0.0000
     10 ****         2.4840   0.2352  -0.4372 C.3            1 S1                 0.0000
     11 ****         2.2835  -0.4252  -1.6712 O.3            1 S1                 0.0000
     12 ****         1.9307  -0.5811   0.7502 C.3            1 S1                 0.0000
     13 ****         2.4684  -1.9329   0.8048 N.pl3          1 S1                 0.0000
     14 ****         3.6236  -2.3523   1.3764 C.2            1 S1                 0.0000
     15 ****         4.5471  -1.4065   2.0765 C.3            1 S1                 0.0000
     16 ****         3.8813  -3.6566   1.2781 N.2            1 S1                 0.0000
     17 ****         2.7876  -4.1291   0.5780 C.ar           1 S1                 0.0000
     18 ****         2.4638  -5.4377   0.1534 C.ar           1 S1                 0.0000
     19 ****         1.2703  -5.6828  -0.5572 C.ar           1 S1                 0.0000
     20 ****         0.3859  -4.6258  -0.8545 C.ar           1 S1                 0.0000
     21 ****         0.6900  -3.3145  -0.4421 C.ar           1 S1                 0.0000
     22 ****         1.8821  -3.0751   0.2680 C.ar           1 S1                 0.0000
     23 ****        -2.3108   1.6834  -1.1189 C.ar           1 S1                 0.0000
     24 ****        -3.7159   1.6009  -1.0836 C.ar           1 S1                 0.0000
     25 ****        -7.6971   3.1528   0.0987 H              1 S1                 0.0000
     26 ****        -6.5088   4.4006  -0.2565 H              1 S1                 0.0000
     27 ****        -6.4179   3.4766   1.2626 H              1 S1                 0.0000
     28 ****        -4.3527   4.4639   0.6835 H              1 S1                 0.0000
     29 ****        -1.9105   4.5990   0.6145 H              1 S1                 0.0000
     30 ****         0.1446   3.3503  -1.4840 H              1 S1                 0.0000
     31 ****         0.2141   3.4998   0.2676 H              1 S1                 0.0000
     32 ****         2.2197   2.1419  -1.4538 H              1 S1                 0.0000
     33 ****         2.2718   2.2545   0.2986 H              1 S1                 0.0000
     34 ****         3.5638   0.3290  -0.3229 H              1 S1                 0.0000
     35 ****         1.3537  -0.5051  -1.8190 H              1 S1                 0.0000
     36 ****         2.1460  -0.0742   1.6910 H              1 S1                 0.0000
     37 ****         0.8444  -0.6540   0.6911 H              1 S1                 0.0000
     38 ****         5.4188  -1.9380   2.4598 H              1 S1                 0.0000
     39 ****         4.0386  -0.9334   2.9166 H              1 S1                 0.0000
     40 ****         4.8933  -0.6342   1.3901 H              1 S1                 0.0000
     41 ****         3.1346  -6.2542   0.3753 H              1 S1                 0.0000
     42 ****         1.0326  -6.6868  -0.8767 H              1 S1                 0.0000
     43 ****        -0.5254  -4.8220  -1.4000 H              1 S1                 0.0000
     44 ****         0.0155  -2.5026  -0.6702 H              1 S1                 0.0000
     45 ****        -1.7457   0.9147  -1.6256 H              1 S1                 0.0000
     46 ****        -4.2114   0.7681  -1.5610 H              1 S1                 0.0000
     47 ****        -6.1377   2.4020  -1.4065 LP             1 S1                 0.0000
     48 ****        -6.0529   1.5559  -0.0124 LP             1 S1                 0.0000
     49 ****         0.1502   1.0227  -1.2087 LP             1 S1                 0.0000
     50 ****         0.2289   1.1762   0.4151 LP             1 S1                 0.0000
     51 ****         2.6998  -1.3339  -1.6395 LP             1 S1                 0.0000
     52 ****         2.6985   0.1059  -2.4099 LP             1 S1                 0.0000
     53 ****         4.6692  -4.1658   1.6244 LP             1 S1                 0.0000
@<TRIPOS>BOND
    1    1    2 1     
    2    1   25 1     
    3    1   26 1     
    4    1   27 1     
    5    2    3 1     
    6    3   24 ar    
    7    3    4 ar    
    8    4    5 ar    
    9    4   28 1     
   10    5    6 ar    
   11    5   29 1     
   12    6    7 1     
   13    6   23 ar    
   14    7    8 1     
   15    7   30 1     
   16    7   31 1     
   17    8    9 1     
   18    9   10 1     
   19    9   32 1     
   20    9   33 1     
   21   10   11 1     
   22   10   12 1     
   23   10   34 1     
   24   11   35 1     
   25   12   13 1     
   26   12   36 1     
   27   12   37 1     
   28   13   22 1     
   29   13   14 1     
   30   14   15 1     
   31   14   16 2     
   32   15   38 1     
   33   15   39 1     
   34   15   40 1     
   35   16   17 1     
   36   17   22 ar    
   37   17   18 ar    
   38   18   19 ar    
   39   18   41 1     
   40   19   20 ar    
   41   19   42 1     
   42   20   21 ar    
   43   20   43 1     
   44   21   22 ar    
   45   21   44 1     
   46   23   24 ar    
   47   23   45 1     
   48   24   46 1     
   49    2   47 1     
   50    2   48 1     
   51    8   49 1     
   52    8   50 1     
   53   11   51 1     
   54   11   52 1     
   55   16   53 1     
@<TRIPOS>SUBSTRUCTURE
      1 S1             1
@<TRIPOS>SET
LONE_PAIRS      STATIC     ATOMS    <user>   **** ""
7 47 48 49 50 51 52 53
DONOR_HYDROGENS      STATIC     ATOMS    <user>   **** ""
1 35
ATOM$BLUE        STATIC     ATOMS    COLORGROUP SYSTEM
7 47 48 49 50 51 52 53
ATOM$RED        STATIC     ATOMS    COLORGROUP SYSTEM
1 35
