#       Name:                AV-unprocessed.smi:2226
#       Creating user name   scv26
#       Creation time:       Fri Mar 27 12:22:30 2020


#       File generated by GOLD software.
#

@<TRIPOS>MOLECULE
AV-unprocessed.smi:2226
    45    47     1
SMALL
NO_CHARGES


@<TRIPOS>ATOM
      1 ****        -3.7588  -1.3684  -0.2811 C.3            1 S1                 0.0000
      2 ****        -2.3421  -1.7774  -0.4326 N.4            1 S1                 1.0000
      3 ****        -1.4915  -1.5276   0.7551 C.3            1 S1                 0.0000
      4 ****        -0.1999  -2.3690   0.6371 C.3            1 S1                 0.0000
      5 ****         0.5555  -2.1746  -0.6918 C.3            1 S1                 0.0000
      6 ****        -0.3895  -2.0927  -1.9067 C.3            1 S1                 0.0000
      7 ****        -1.6730  -1.2679  -1.6532 C.3            1 S1                 0.0000
      8 ****        -1.4726   0.2675  -1.5912 C.3            1 S1                 0.0000
      9 ****        -0.8922   0.8196  -0.2661 C.3            1 S1                 0.0000
     10 ****         0.5439   1.0640  -0.3761 N.am           1 S1                 0.0000
     11 ****         1.2790   1.8869   0.3860 C.2            1 S1                 0.0000
     12 ****         0.7409   2.5449   1.2792 O.2            1 S1                 0.0000
     13 ****         2.5926   1.8861   0.0686 N.pl3          1 S1                -1.0000
     14 ****         3.4484   2.6492   0.7673 C.2            1 S1                 0.0000
     15 ****         3.9517   3.8247   0.3871 N.2            1 S1                 0.0000
     16 ****         4.7836   4.2317   1.4189 C.2            1 S1                 0.0000
     17 ****         4.7525   3.2672   2.3888 C.2            1 S1                 0.0000
     18 ****         3.9163   2.2623   1.9879 O.3            1 S1                 0.0000
     19 ****        -1.2730  -0.0120   0.9884 C.3            1 S1                 0.0000
     20 ****        -3.8670  -0.2913  -0.1548 H              1 S1                 0.0000
     21 ****        -4.2041  -1.8562   0.5864 H              1 S1                 0.0000
     22 ****        -4.3356  -1.6651  -1.1574 H              1 S1                 0.0000
     23 ****        -2.0223  -1.9110   1.6277 H              1 S1                 0.0000
     24 ****         0.4651  -2.1667   1.4775 H              1 S1                 0.0000
     25 ****        -0.4723  -3.4220   0.7204 H              1 S1                 0.0000
     26 ****         1.1857  -1.2934  -0.6412 H              1 S1                 0.0000
     27 ****         1.2569  -2.9973  -0.8334 H              1 S1                 0.0000
     28 ****         0.1481  -1.7056  -2.7730 H              1 S1                 0.0000
     29 ****        -0.6867  -3.1083  -2.1714 H              1 S1                 0.0000
     30 ****        -2.3323  -1.4690  -2.4988 H              1 S1                 0.0000
     31 ****        -0.8800   0.6055  -2.4425 H              1 S1                 0.0000
     32 ****        -2.4487   0.7312  -1.7370 H              1 S1                 0.0000
     33 ****        -1.3317   1.8107  -0.1363 H              1 S1                 0.0000
     34 ****         1.0346   0.5549  -1.0966 H              1 S1                 0.0000
     35 ****         5.3261   5.1647   1.3811 H              1 S1                 0.0000
     36 ****         5.2288   3.1504   3.3505 H              1 S1                 0.0000
     37 ****        -2.2066   0.3974   1.3757 H              1 S1                 0.0000
     38 ****        -0.5559   0.1396   1.7957 H              1 S1                 0.0000
     39 ****        -2.3733  -2.7814  -0.5378 H              1 S1                 0.0000
     40 ****        -0.2436   2.4648   1.4352 LP             1 S1                 0.0000
     41 ****         1.2890   3.1585   1.8475 LP             1 S1                 0.0000
     42 ****         2.9262   1.3189  -0.6844 LP             1 S1                 0.0000
     43 ****         3.7670   4.3119  -0.4664 LP             1 S1                 0.0000
     44 ****         4.4160   1.3992   1.9140 LP             1 S1                 0.0000
     45 ****         3.1612   2.1558   2.6348 LP             1 S1                 0.0000
@<TRIPOS>BOND
    1    1    2 1     
    2    1   20 1     
    3    1   21 1     
    4    1   22 1     
    5    2    7 1     
    6    2    3 1     
    7    2   39 1     
    8    3   19 1     
    9    3    4 1     
   10    3   23 1     
   11    4    5 1     
   12    4   24 1     
   13    4   25 1     
   14    5    6 1     
   15    5   26 1     
   16    5   27 1     
   17    6    7 1     
   18    6   28 1     
   19    6   29 1     
   20    7    8 1     
   21    7   30 1     
   22    8    9 1     
   23    8   31 1     
   24    8   32 1     
   25    9   10 1     
   26    9   19 1     
   27    9   33 1     
   28   10   34 1     
   29   10   11 am    
   30   11   13 1     
   31   11   12 2     
   32   13   14 1     
   33   14   18 1     
   34   14   15 2     
   35   15   16 1     
   36   16   35 1     
   37   16   17 2     
   38   17   36 1     
   39   17   18 1     
   40   19   37 1     
   41   19   38 1     
   42   12   40 1     
   43   12   41 1     
   44   13   42 1     
   45   15   43 1     
   46   18   44 1     
   47   18   45 1     
@<TRIPOS>SUBSTRUCTURE
      1 S1             1
@<TRIPOS>SET
LONE_PAIRS      STATIC     ATOMS    <user>   **** ""
6 40 41 42 43 44 45
DONOR_HYDROGENS      STATIC     ATOMS    <user>   **** ""
2 39 34
ATOM$BLUE        STATIC     ATOMS    COLORGROUP SYSTEM
6 40 41 42 43 44 45
ATOM$RED        STATIC     ATOMS    COLORGROUP SYSTEM
2 39 34
