AV-unprocessed.smi:2713|AV-procd|sdf|10479|dock5
  -GOLD-   2272014523D 1   1.00000     0.00000
 Structure written by MMmdl.
 52 53  0  0  0  0  0  0  0  0  1 V2000
  145.5508  133.5929  152.2096 C   0  0  0  0  0  0  0  0  0  0  0  0
  144.3158  133.4582  151.2913 C   0  0  0  0  0  0  0  0  0  0  0  0
  144.4181  134.5822  150.2384 C   0  0  0  0  0  0  0  0  0  0  0  0
  144.3729  132.1129  150.5392 C   0  0  0  0  0  0  0  0  0  0  0  0
  142.9742  133.6770  152.0685 C   0  0  0  0  0  0  0  0  0  0  0  0
  142.7544  134.8938  153.0245 C   0  0  0  0  0  0  0  0  0  0  0  0
  143.1673  136.2452  152.4018 C   0  0  0  0  0  0  0  0  0  0  0  0
  141.2503  134.9408  153.3767 C   0  0  0  0  0  0  0  0  0  0  0  0
  143.4917  134.6110  154.2611 N   0  0  0  0  0  0  0  0  0  0  0  0
  143.4484  135.6224  155.3112 C   0  0  0  0  0  0  0  0  0  0  0  0
  144.2501  135.2129  156.5301 C   0  0  0  0  0  0  0  0  0  0  0  0
  144.7502  133.9049  156.6940 C   0  0  0  0  0  0  0  0  0  0  0  0
  145.4715  133.5530  157.7799 N   0  0  0  0  0  0  0  0  0  0  0  0
  145.7076  134.4925  158.7066 C   0  0  0  0  0  0  0  0  0  0  0  0
  146.4560  134.1228  159.8313 N   0  0  0  0  0  0  0  0  0  0  0  0
  147.2460  132.8901  159.8703 C   0  0  0  0  0  0  0  0  0  0  0  0
  147.3088  132.3280  161.3009 C   0  0  0  0  0  0  0  0  0  0  0  0
  147.8079  133.3212  162.1882 O   0  0  0  0  0  0  0  0  0  0  0  0
  146.9581  134.4609  162.2291 C   0  0  0  0  0  0  0  0  0  0  0  0
  146.8814  135.1030  160.8336 C   0  0  0  0  0  0  0  0  0  0  0  0
  145.2804  135.7611  158.6378 N   0  0  0  0  0  0  0  0  0  0  0  0
  144.5563  136.1260  157.5585 C   0  0  0  0  0  0  0  0  0  0  0  0
  146.4713  133.6204  151.6251 H   0  0  0  0  0  0  0  0  0  0  0  0
  145.6593  132.7620  152.9020 H   0  0  0  0  0  0  0  0  0  0  0  0
  145.5148  134.5115  152.7960 H   0  0  0  0  0  0  0  0  0  0  0  0
  144.3885  135.5683  150.7039 H   0  0  0  0  0  0  0  0  0  0  0  0
  143.5983  134.5345  149.5206 H   0  0  0  0  0  0  0  0  0  0  0  0
  145.3467  134.5183  149.6698 H   0  0  0  0  0  0  0  0  0  0  0  0
  145.2729  132.0409  149.9277 H   0  0  0  0  0  0  0  0  0  0  0  0
  143.5174  131.9925  149.8738 H   0  0  0  0  0  0  0  0  0  0  0  0
  144.3869  131.2636  151.2212 H   0  0  0  0  0  0  0  0  0  0  0  0
  142.1778  133.6887  151.3227 H   0  0  0  0  0  0  0  0  0  0  0  0
  142.7745  132.7770  152.6533 H   0  0  0  0  0  0  0  0  0  0  0  0
  142.7506  136.3588  151.4006 H   0  0  0  0  0  0  0  0  0  0  0  0
  144.2490  136.3538  152.3371 H   0  0  0  0  0  0  0  0  0  0  0  0
  142.8011  137.0883  152.9885 H   0  0  0  0  0  0  0  0  0  0  0  0
  140.6412  135.0465  152.4782 H   0  0  0  0  0  0  0  0  0  0  0  0
  140.9986  135.7819  154.0226 H   0  0  0  0  0  0  0  0  0  0  0  0
  140.9273  134.0293  153.8818 H   0  0  0  0  0  0  0  0  0  0  0  0
  143.2044  133.7164  154.6319 H   0  0  0  0  0  0  0  0  0  0  0  0
  143.8574  136.5643  154.9463 H   0  0  0  0  0  0  0  0  0  0  0  0
  142.4199  135.8096  155.6175 H   0  0  0  0  0  0  0  0  0  0  0  0
  144.5726  133.1379  155.9543 H   0  0  0  0  0  0  0  0  0  0  0  0
  146.8310  132.1206  159.2195 H   0  0  0  0  0  0  0  0  0  0  0  0
  148.2512  133.1064  159.5071 H   0  0  0  0  0  0  0  0  0  0  0  0
  146.3241  131.9915  161.6299 H   0  0  0  0  0  0  0  0  0  0  0  0
  147.9680  131.4607  161.3340 H   0  0  0  0  0  0  0  0  0  0  0  0
  145.9651  134.1779  162.5826 H   0  0  0  0  0  0  0  0  0  0  0  0
  147.3594  135.1753  162.9482 H   0  0  0  0  0  0  0  0  0  0  0  0
  147.8605  135.4882  160.5466 H   0  0  0  0  0  0  0  0  0  0  0  0
  146.2109  135.9601  160.8864 H   0  0  0  0  0  0  0  0  0  0  0  0
  144.2216  137.1523  157.5189 H   0  0  0  0  0  0  0  0  0  0  0  0
  1  2  1  0  0  0  0
  1 23  1  0  0  0  0
  1 24  1  0  0  0  0
  1 25  1  0  0  0  0
  2  3  1  0  0  0  0
  2  4  1  0  0  0  0
  2  5  1  0  0  0  0
  3 26  1  0  0  0  0
  3 27  1  0  0  0  0
  3 28  1  0  0  0  0
  4 29  1  0  0  0  0
  4 30  1  0  0  0  0
  4 31  1  0  0  0  0
  5  6  1  0  0  0  0
  5 32  1  0  0  0  0
  5 33  1  0  0  0  0
  6  7  1  0  0  0  0
  6  8  1  0  0  0  0
  6  9  1  0  0  0  0
  7 34  1  0  0  0  0
  7 35  1  0  0  0  0
  7 36  1  0  0  0  0
  8 37  1  0  0  0  0
  8 38  1  0  0  0  0
  8 39  1  0  0  0  0
  9 10  1  0  0  0  0
  9 40  1  0  0  0  0
 10 11  1  0  0  0  0
 10 41  1  0  0  0  0
 10 42  1  0  0  0  0
 11 22  1  0  0  0  0
 11 12  2  0  0  0  0
 12 13  1  0  0  0  0
 12 43  1  0  0  0  0
 13 14  2  0  0  0  0
 14 15  1  0  0  0  0
 14 21  1  0  0  0  0
 15 20  1  0  0  0  0
 15 16  1  0  0  0  0
 16 17  1  0  0  0  0
 16 44  1  0  0  0  0
 16 45  1  0  0  0  0
 17 18  1  0  0  0  0
 17 46  1  0  0  0  0
 17 47  1  0  0  0  0
 18 19  1  0  0  0  0
 19 20  1  0  0  0  0
 19 48  1  0  0  0  0
 19 49  1  0  0  0  0
 20 50  1  0  0  0  0
 20 51  1  0  0  0  0
 21 22  2  0  0  0  0
 22 52  1  0  0  0  0
M  END
> <s_m_source_file>
AV-unprocessed.smi

> <i_m_source_file_index>
2713

> <i_lp_mmshare_version>
43012

> <i_f3d_flags>
0

> <s_epik_input>
W0NIM11DKFtDSDNdKShbQ0gzXSlbQ0gyXUMoW0NIM10pKFtDSDNdKVtOSF1bQ0gyXWMxW2NIXW5jKG5bY0hdMSlOMltDSDJdW0NIMl1PW0NIMl1bQ0gyXTI=

> <s_epik_cmdline>
J2VwaWtfcHl0aG9uJywgJy1waCcsICc3LjAnLCAnLXRuJywgJzgnLCAnLW1hJywgJzIwMCcsICctbWV0YWxfYmluZGluZycsICctaW1hZScsICc8aW5maWxlLm1hZT4nLCAnLW9tYWUnLCAnPG91dGZpbGUubWFlPic=

> <r_lp_tautomer_probability>
1

> <r_epik_Ionization_Penalty>
1.66691

> <r_epik_Ionization_Penalty_Charging>
0

> <r_epik_Ionization_Penalty_Neutral>
1.66691

> <r_epik_State_Penalty>
1.77023

> <r_epik_Charging_Adjusted_Penalty>
1.77023

> <i_epik_Tot_Q>
0

> <i_epik_Tot_abs_Q>
0

> <r_epik_Metal_State_Penalty>
1.77023

> <b_epik_Metal_Only>
0

> <s_lp_Force_Field>
OPLS_2005

> <r_lp_Energy>
27.9038

> <b_lp_Chiralities_Consistent>
1

> <s_lp_Variant>
AV-unprocessed.smi:2713-2

> <Gold.Version>
5.8.1

> <Gold.Id.Protein>
6NUR|6NUR_protein|mol2

> <Gold.PLP.Fitness>
34.8775

> <Gold.PLP.PLP>
-29.5055

> <Gold.PLP.part.hbond>
-1.0000

> <Gold.PLP.part.metal>
0.0000

> <Gold.PLP.part.buried>
-4.0151

> <Gold.PLP.part.nonpolar>
-25.0157

> <Gold.PLP.part.repulsive>
0.0370

> <Gold.PLP.ligand.clash>
0.0000

> <Gold.PLP.ligand.torsion>
0.3885

> <Gold.PLP.Chemscore.Hbond>
1.0000

> <Gold.PLP.Chemscore.CHOScore>
0.9976

> <Gold.PLP.Chemscore.Metal>
0.0000

> <Gold.Chemscore.Hbonds>
donor molecule, donor type, donor heavy atom, donor atom, acceptor molecule, acceptor atom, score
      L1  H     9    40       P1 10957  1.00
      L1  C    12    43       P1 10957  0.82

> <Gold.PLP.Chemscore.Internal.Correction>
0.1563

> <Gold.Rescore>
     Score         DG    S(hbond)    S(metal)    S(lipo)     H(rot)  DE(clash)    DE(int)     intcor
     14.13     -14.85       0.99        0.00      84.24       1.48       0.13       0.58       ----

> <Gold.Chemscore.Fitness>
14.1337

> <Gold.Chemscore.DG>
-14.8480

> <Gold.Chemscore.ZeroCoef>
-5.4800

> <Gold.Chemscore.Hbond>
0.9886

> <Gold.Chemscore.Metal>
0.0000

> <Gold.Chemscore.Lipo>
84.2408

> <Gold.Chemscore.Internal_Hbond>
0.0000

> <Gold.Chemscore.DEClash>
0.1341

> <Gold.Chemscore.DEInternal>
0.5802

> <Gold.Chemscore.Rot>
1.4805

> <Gold.Chemscore.Internal.Correction>
   9.000000E+99

> <Gold.Chemscore.Hbonds>
donor molecule, donor type, donor heavy atom, donor atom, acceptor molecule, acceptor atom, score
      L1  H     9    40       P1 10957  0.93

> <Gold.Chemscore.Hbond.Weighted>
-3.3019

> <Gold.Chemscore.Metal.Weighted>
-0.0000

> <Gold.Chemscore.Lipo.Weighted>
-9.8562

> <Gold.Chemscore.Internal_Hbond.Weighted>
0.0000

> <Gold.Chemscore.DEClash.Weighted>
0.1341

> <Gold.Chemscore.DEInternal.Weighted>
0.5802

> <Gold.Chemscore.Rot.Weighted>
3.7900

> <Gold.Chemscore.Internal.Correction.Weighted>
   9.000000E+99

> <Gold.Protein.RotatedTorsions>
[ 6907 6896 6895 6894 ] final  115.04 input  -60.11 | X-H torsion
[ 7974 7965 7964 7962 ] final    3.39 input  175.53 | X-H torsion
[ 8008 7997 7996 7995 ] final   17.41 input   59.86 | X-H torsion
[ 10167 10162 10161 10158 ] final -150.86 input  -65.29 | X-H torsion
[ 10718 10713 10712 10709 ] final -118.59 input   66.30 | X-H torsion
[ 10763 10752 10751 10750 ] final -114.14 input  -60.55 | X-H torsion
[ 11005 11000 10999 10996 ] final   44.93 input  -57.11 | X-H torsion

> <Gold.Protein.ActiveResidues>
 VAL166  LYS551  ARG553  GLY616  TRP617  ASP618  TYR619  PRO620  LYS621  CYS622 
 ASP623  PHE694  ASN695  SER759  ASP760  ASP761  ALA762  ILE779  LEU786  VAL792 
 PHE793  MET794  SER795  GLU796  ALA797  LYS798  CYS799  TRP800  GLU811  SER814 

> <Gold.Protein.RotatedAtoms>
  152.4766  133.8153  159.7024 H   0  0  0  0  0  0  0  0  0  0  0  0  # atno 6907 bound_to 6896
  150.8787  133.7392  159.2945 H   0  0  0  0  0  0  0  0  0  0  0  0  # atno 6908 bound_to 6896
  151.4904  135.1060  159.9854 H   0  0  0  0  0  0  0  0  0  0  0  0  # atno 6909 bound_to 6896
  146.2445  140.0693  142.8363 H   0  0  0  0  0  0  0  0  0  0  0  0  # atno 7974 bound_to 7965
  154.8910  140.2987  155.5370 H   0  0  0  0  0  0  0  0  0  0  0  0  # atno 8008 bound_to 7997
  156.3021  140.2424  156.3860 H   0  0  0  0  0  0  0  0  0  0  0  0  # atno 8009 bound_to 7997
  154.8618  140.0405  157.1659 H   0  0  0  0  0  0  0  0  0  0  0  0  # atno 8010 bound_to 7997
  139.7318  143.8797  152.2537 H   0  0  0  0  0  0  0  0  0  0  0  0  # atno 10167 bound_to 10162
  156.1117  130.6254  150.9309 H   0  0  0  0  0  0  0  0  0  0  0  0  # atno 10718 bound_to 10713
  154.8427  135.4429  154.1459 H   0  0  0  0  0  0  0  0  0  0  0  0  # atno 10763 bound_to 10752
  153.2632  135.6938  153.7563 H   0  0  0  0  0  0  0  0  0  0  0  0  # atno 10764 bound_to 10752
  153.6831  135.3399  155.3159 H   0  0  0  0  0  0  0  0  0  0  0  0  # atno 10765 bound_to 10752
  140.1506  134.4466  155.8384 H   0  0  0  0  0  0  0  0  0  0  0  0  # atno 11005 bound_to 11000
  145.0831  140.9234  143.4814 LP  0  0  0  0  0  0  0  0  0  0  0  0  # atno 17320 bound_to 7965
  145.0850  139.2932  143.5764 LP  0  0  0  0  0  0  0  0  0  0  0  0  # atno 17321 bound_to 7965
  139.8722  144.7062  150.8974 LP  0  0  0  0  0  0  0  0  0  0  0  0  # atno 17342 bound_to 10162
  140.7772  143.3729  151.1617 LP  0  0  0  0  0  0  0  0  0  0  0  0  # atno 17343 bound_to 10162
  157.6299  131.0922  150.8462 LP  0  0  0  0  0  0  0  0  0  0  0  0  # atno 17370 bound_to 10713
  156.8572  130.5100  149.5307 LP  0  0  0  0  0  0  0  0  0  0  0  0  # atno 17371 bound_to 10713
  141.2198  133.6871  156.7415 LP  0  0  0  0  0  0  0  0  0  0  0  0  # atno 17394 bound_to 11000
  140.2609  134.8467  157.3758 LP  0  0  0  0  0  0  0  0  0  0  0  0  # atno 17395 bound_to 11000

$$$$
