AV-unprocessed.smi:1748|AV-procd|sdf|7039|dock4
  -GOLD-   22720 8253D 1   1.00000     0.00000
 Structure written by MMmdl.
 40 41  0  0  0  0  0  0  0  0  2 V2000
  141.8177  134.6260  152.8816 C   0  0  0  0  0  0  0  0  0  0  0  0
  142.9411  134.2961  151.9784 N   0  3  2  0  0  0  0  0  0  0  0  0
  142.8131  132.9388  151.3910 C   0  0  0  0  0  0  0  0  0  0  0  0
  143.9276  132.6735  150.3650 C   0  0  0  0  0  0  0  0  0  0  0  0
  145.3142  132.8783  150.9909 C   0  0  0  0  0  0  0  0  0  0  0  0
  145.4108  134.2804  151.6136 C   0  0  2  0  0  0  0  0  0  0  0  0
  146.7098  134.4510  152.2581 N   0  0  0  0  0  0  0  0  0  0  0  0
  147.2282  133.6243  153.1778 C   0  0  0  0  0  0  0  0  0  0  0  0
  146.6526  132.6093  153.5698 O   0  0  0  0  0  0  0  0  0  0  0  0
  148.4421  134.0463  153.5765 N   0  0  0  0  0  0  0  0  0  0  0  0
  149.3043  133.4870  154.5347 C   0  0  0  0  0  0  0  0  0  0  0  0
  149.6143  132.1670  154.6226 C   0  0  0  0  0  0  0  0  0  0  0  0
  150.5022  131.6497  155.6499 C   0  0  0  0  0  0  0  0  0  0  0  0
  150.8968  130.1815  155.6880 C   0  0  0  0  0  0  0  0  0  0  0  0
  150.3067  129.4917  154.7108 F   0  0  0  0  0  0  0  0  0  0  0  0
  152.2161  130.0639  155.5426 F   0  0  0  0  0  0  0  0  0  0  0  0
  150.5584  129.6301  156.8537 F   0  0  0  0  0  0  0  0  0  0  0  0
  151.0125  132.5494  156.5111 C   0  0  0  0  0  0  0  0  0  0  0  0
  150.6823  133.9049  156.4407 N   0  0  0  0  0  0  0  0  0  0  0  0
  149.8585  134.4392  155.5114 C   0  0  0  0  0  0  0  0  0  0  0  0
  149.6156  135.6455  155.5156 O   0  0  0  0  0  0  0  0  0  0  0  0
  144.2629  134.5023  152.6215 C   0  0  0  0  0  0  0  0  0  0  0  0
  151.0935  134.5139  157.1333 H   0  0  0  0  0  0  0  0  0  0  0  0
  141.8017  133.9604  153.7457 H   0  0  0  0  0  0  0  0  0  0  0  0
  140.8643  134.5335  152.3605 H   0  0  0  0  0  0  0  0  0  0  0  0
  141.9007  135.6522  153.2413 H   0  0  0  0  0  0  0  0  0  0  0  0
  142.8482  132.1916  152.1855 H   0  0  0  0  0  0  0  0  0  0  0  0
  141.8412  132.8404  150.9058 H   0  0  0  0  0  0  0  0  0  0  0  0
  143.8413  131.6593  149.9742 H   0  0  0  0  0  0  0  0  0  0  0  0
  143.8083  133.3443  149.5129 H   0  0  0  0  0  0  0  0  0  0  0  0
  145.4870  132.1170  151.7532 H   0  0  0  0  0  0  0  0  0  0  0  0
  146.0875  132.7443  150.2335 H   0  0  0  0  0  0  0  0  0  0  0  0
  145.3211  135.0139  150.8094 H   0  0  0  0  0  0  0  0  0  0  0  0
  147.2507  135.2601  151.9880 H   0  0  0  0  0  0  0  0  0  0  0  0
  148.8135  134.8583  153.1049 H   0  0  0  0  0  0  0  0  0  0  0  0
  149.1884  131.4494  153.9402 H   0  0  0  0  0  0  0  0  0  0  0  0
  151.7042  132.3090  157.3051 H   0  0  0  0  0  0  0  0  0  0  0  0
  144.3102  135.5168  153.0199 H   0  0  0  0  0  0  0  0  0  0  0  0
  144.3648  133.8236  153.4703 H   0  0  0  0  0  0  0  0  0  0  0  0
  142.8914  134.9494  151.2096 H   0  0  0  0  0  0  0  0  0  0  0  0
  1  2  1  0  0  0  0
  1 24  1  0  0  0  0
  1 25  1  0  0  0  0
  1 26  1  0  0  0  0
  2 22  1  0  0  0  0
  2  3  1  0  0  0  0
  2 40  1  0  0  0  0
  3  4  1  0  0  0  0
  3 27  1  0  0  0  0
  3 28  1  0  0  0  0
  4  5  1  0  0  0  0
  4 29  1  0  0  0  0
  4 30  1  0  0  0  0
  5  6  1  0  0  0  0
  5 31  1  0  0  0  0
  5 32  1  0  0  0  0
  6  7  1  0  0  0  0
  6 22  1  0  0  0  0
  6 33  1  0  0  0  0
  7  8  1  0  0  0  0
  7 34  1  0  0  0  0
  8  9  2  0  0  0  0
  8 10  1  0  0  0  0
 10 11  1  0  0  0  0
 10 35  1  0  0  0  0
 11 20  1  0  0  0  0
 11 12  2  0  0  0  0
 12 13  1  0  0  0  0
 12 36  1  0  0  0  0
 13 14  1  0  0  0  0
 13 18  2  0  0  0  0
 14 15  1  0  0  0  0
 14 16  1  0  0  0  0
 14 17  1  0  0  0  0
 18 19  1  0  0  0  0
 18 37  1  0  0  0  0
 19 23  1  0  0  0  0
 19 20  1  0  0  0  0
 20 21  2  0  0  0  0
 22 38  1  0  0  0  0
 22 39  1  0  0  0  0
M  CHG  1   2   1
M  END
> <s_m_source_file>
AV-unprocessed.smi

> <i_m_source_file_index>
1748

> <i_lp_mmshare_version>
43012

> <i_f3d_flags>
0

> <s_epik_input>
W0NIM11OMVtDSDJdW0NIMl1bQ0gyXVtDQEhdKFtDSDJdMSlbTkhdQyg9TylbTkhdYzJbY0hdYyhDKEYpKEYpRilbY0hdW25IXWMyPU8=

> <s_epik_cmdline>
J2VwaWtfcHl0aG9uJywgJy1waCcsICc3LjAnLCAnLXRuJywgJzgnLCAnLW1hJywgJzIwMCcsICctbWV0YWxfYmluZGluZycsICctaW1hZScsICc8aW5maWxlLm1hZT4nLCAnLW9tYWUnLCAnPG91dGZpbGUubWFlPic=

> <r_lp_tautomer_probability>
1

> <r_epik_Ionization_Penalty>
0.00746315

> <r_epik_Ionization_Penalty_Charging>
0.00744398

> <r_epik_Ionization_Penalty_Neutral>
1.91704e-05

> <r_epik_State_Penalty>
-0

> <r_epik_Charging_Adjusted_Penalty>
0.00744398

> <i_epik_Tot_Q>
1

> <i_epik_Tot_abs_Q>
1

> <r_epik_Metal_State_Penalty>
0.379332

> <b_epik_Metal_Only>
0

> <s_lp_Force_Field>
OPLS_2005

> <r_lp_Energy>
25.4307

> <b_lp_Chiralities_Consistent>
1

> <s_lp_Variant>
AV-unprocessed.smi:1748-4

> <Gold.Version>
5.8.1

> <Gold.Id.Protein>
6NUR|6NUR_protein|mol2

> <Gold.PLP.Fitness>
41.2892

> <Gold.PLP.PLP>
-36.5029

> <Gold.PLP.part.hbond>
-2.7045

> <Gold.PLP.part.metal>
0.0000

> <Gold.PLP.part.buried>
-4.4488

> <Gold.PLP.part.nonpolar>
-30.3106

> <Gold.PLP.part.repulsive>
0.3566

> <Gold.PLP.ligand.clash>
0.0000

> <Gold.PLP.ligand.torsion>
0.4717

> <Gold.PLP.Chemscore.Hbond>
1.9000

> <Gold.PLP.Chemscore.CHOScore>
0.0000

> <Gold.PLP.Chemscore.Metal>
0.0000

> <Gold.Chemscore.Hbonds>
donor molecule, donor type, donor heavy atom, donor atom, acceptor molecule, acceptor atom, score
      L1  H     7    34       P1  7948  1.00
      L1  H    10    35       P1  7948  1.00

> <Gold.PLP.Chemscore.Internal.Correction>
0.0298

> <Gold.Rescore>
     Score         DG    S(hbond)    S(metal)    S(lipo)     H(rot)  DE(clash)    DE(int)     intcor
     14.67     -16.28       1.56        0.00      69.52       1.00       0.08       1.52       ----

> <Gold.Chemscore.Fitness>
14.6727

> <Gold.Chemscore.DG>
-16.2760

> <Gold.Chemscore.ZeroCoef>
-5.4800

> <Gold.Chemscore.Hbond>
1.5637

> <Gold.Chemscore.Metal>
0.0000

> <Gold.Chemscore.Lipo>
69.5151

> <Gold.Chemscore.Internal_Hbond>
0.0000

> <Gold.Chemscore.DEClash>
0.0839

> <Gold.Chemscore.DEInternal>
1.5193

> <Gold.Chemscore.Rot>
1.0000

> <Gold.Chemscore.Internal.Correction>
   9.000000E+99

> <Gold.Chemscore.Hbonds>
donor molecule, donor type, donor heavy atom, donor atom, acceptor molecule, acceptor atom, score
      L1  H     7    34       P1  7948  0.94
      L1  H    10    35       P1  7948  0.25

> <Gold.Chemscore.Hbond.Weighted>
-5.2227

> <Gold.Chemscore.Metal.Weighted>
-0.0000

> <Gold.Chemscore.Lipo.Weighted>
-8.1333

> <Gold.Chemscore.Internal_Hbond.Weighted>
0.0000

> <Gold.Chemscore.DEClash.Weighted>
0.0839

> <Gold.Chemscore.DEInternal.Weighted>
1.5193

> <Gold.Chemscore.Rot.Weighted>
2.5600

> <Gold.Chemscore.Internal.Correction.Weighted>
   9.000000E+99

> <Gold.Protein.RotatedTorsions>
[ 6907 6896 6895 6894 ] final  -75.88 input  -60.11 | X-H torsion
[ 7974 7965 7964 7962 ] final  154.64 input  175.53 | X-H torsion
[ 8008 7997 7996 7995 ] final   37.35 input   59.86 | X-H torsion
[ 10167 10162 10161 10158 ] final -110.61 input  -65.29 | X-H torsion
[ 10718 10713 10712 10709 ] final  -47.16 input   66.30 | X-H torsion
[ 10763 10752 10751 10750 ] final -159.60 input  -60.55 | X-H torsion
[ 11005 11000 10999 10996 ] final   70.87 input  -57.11 | X-H torsion

> <Gold.Protein.ActiveResidues>
 VAL166  LYS551  ARG553  GLY616  TRP617  ASP618  TYR619  PRO620  LYS621  CYS622 
 ASP623  PHE694  ASN695  SER759  ASP760  ASP761  ALA762  ILE779  LEU786  VAL792 
 PHE793  MET794  SER795  GLU796  ALA797  LYS798  CYS799  TRP800  GLU811  SER814 

> <Gold.Protein.RotatedAtoms>
  150.7044  134.4655  159.5400 H   0  0  0  0  0  0  0  0  0  0  0  0  # atno 6907 bound_to 6896
  152.2321  134.8309  160.0481 H   0  0  0  0  0  0  0  0  0  0  0  0  # atno 6908 bound_to 6896
  151.9121  133.3529  159.3904 H   0  0  0  0  0  0  0  0  0  0  0  0  # atno 6909 bound_to 6896
  144.8076  139.6960  143.6155 H   0  0  0  0  0  0  0  0  0  0  0  0  # atno 7974 bound_to 7965
  155.2023  140.3317  155.4341 H   0  0  0  0  0  0  0  0  0  0  0  0  # atno 8008 bound_to 7997
  156.2402  140.1891  156.7059 H   0  0  0  0  0  0  0  0  0  0  0  0  # atno 8009 bound_to 7997
  154.6133  140.0606  156.9508 H   0  0  0  0  0  0  0  0  0  0  0  0  # atno 8010 bound_to 7997
  140.1426  143.4266  152.1551 H   0  0  0  0  0  0  0  0  0  0  0  0  # atno 10167 bound_to 10162
  156.2111  130.4161  149.9113 H   0  0  0  0  0  0  0  0  0  0  0  0  # atno 10718 bound_to 10713
  154.7461  135.3080  154.8642 H   0  0  0  0  0  0  0  0  0  0  0  0  # atno 10763 bound_to 10752
  153.9442  135.6771  153.4748 H   0  0  0  0  0  0  0  0  0  0  0  0  # atno 10764 bound_to 10752
  153.1058  135.4890  154.8874 H   0  0  0  0  0  0  0  0  0  0  0  0  # atno 10765 bound_to 10752
  139.9574  134.7120  156.0722 H   0  0  0  0  0  0  0  0  0  0  0  0  # atno 11005 bound_to 11000
  146.2370  139.5924  142.9517 LP  0  0  0  0  0  0  0  0  0  0  0  0  # atno 17320 bound_to 7965
  145.5401  141.0421  143.2335 LP  0  0  0  0  0  0  0  0  0  0  0  0  # atno 17321 bound_to 7965
  139.5465  144.7302  151.4568 LP  0  0  0  0  0  0  0  0  0  0  0  0  # atno 17342 bound_to 10162
  140.6751  143.8207  150.7048 LP  0  0  0  0  0  0  0  0  0  0  0  0  # atno 17343 bound_to 10162
  156.6791  130.8851  151.3573 LP  0  0  0  0  0  0  0  0  0  0  0  0  # atno 17370 bound_to 10713
  157.7039  130.9363  150.0870 LP  0  0  0  0  0  0  0  0  0  0  0  0  # atno 17371 bound_to 10713
  141.1247  133.6602  156.3306 LP  0  0  0  0  0  0  0  0  0  0  0  0  # atno 17394 bound_to 11000
  140.5578  134.5964  157.5425 LP  0  0  0  0  0  0  0  0  0  0  0  0  # atno 17395 bound_to 11000

$$$$
