#       Name:                AV-unprocessed.smi:2635
#       Creating user name   scv26
#       Creation time:       Fri Mar 27 14:26:37 2020


#       File generated by GOLD software.
#

@<TRIPOS>MOLECULE
AV-unprocessed.smi:2635
    38    39     1
SMALL
NO_CHARGES


@<TRIPOS>ATOM
      1 ****        -3.6969   2.8844  -2.0317 C.3            1 S1                 0.0000
      2 ****        -2.9907   2.3127  -0.8138 C.2            1 S1                 0.0000
      3 ****        -2.5308   1.0358  -0.7727 C.2            1 S1                 0.0000
      4 ****        -1.8897   0.4900   0.3271 N.am           1 S1                 0.0000
      5 ****        -1.3551  -0.8599   0.3345 C.3            1 S1                 0.0000
      6 ****         0.0316  -0.7974   0.2488 O.3            1 S1                 0.0000
      7 ****         0.6516  -2.0722   0.2769 C.3            1 S1                 0.0000
      8 ****         2.1593  -1.9488   0.2013 C.ar           1 S1                 0.0000
      9 ****         2.8075  -1.9365  -1.0514 C.ar           1 S1                 0.0000
     10 ****         4.2094  -1.8175  -1.1207 C.ar           1 S1                 0.0000
     11 ****         4.9668  -1.7091   0.0617 C.ar           1 S1                 0.0000
     12 ****         4.3220  -1.7181   1.3138 C.ar           1 S1                 0.0000
     13 ****         2.9200  -1.8365   1.3838 C.ar           1 S1                 0.0000
     14 ****        -1.6632   1.2812   1.4725 C.2            1 S1                 0.0000
     15 ****        -1.0802   0.8652   2.4740 O.2            1 S1                 0.0000
     16 ****        -2.1386   2.5911   1.4312 N.am           1 S1                 0.0000
     17 ****        -2.8044   3.1815   0.3530 C.2            1 S1                 0.0000
     18 ****        -3.1800   4.3495   0.4378 O.2            1 S1                 0.0000
     19 ****        -1.9848   3.1638   2.2483 H              1 S1                 0.0000
     20 ****        -3.7436   2.1623  -2.8472 H              1 S1                 0.0000
     21 ****        -3.1737   3.7683  -2.3982 H              1 S1                 0.0000
     22 ****        -4.7185   3.1701  -1.7792 H              1 S1                 0.0000
     23 ****        -2.6721   0.4089  -1.6416 H              1 S1                 0.0000
     24 ****        -1.6792  -1.3679   1.2462 H              1 S1                 0.0000
     25 ****        -1.7575  -1.4059  -0.5208 H              1 S1                 0.0000
     26 ****         0.3822  -2.6000   1.1933 H              1 S1                 0.0000
     27 ****         0.2991  -2.6800  -0.5581 H              1 S1                 0.0000
     28 ****         2.2315  -2.0168  -1.9619 H              1 S1                 0.0000
     29 ****         4.7035  -1.8085  -2.0810 H              1 S1                 0.0000
     30 ****         6.0416  -1.6174   0.0083 H              1 S1                 0.0000
     31 ****         4.9023  -1.6332   2.2206 H              1 S1                 0.0000
     32 ****         2.4301  -1.8395   2.3465 H              1 S1                 0.0000
     33 ****         0.3737  -0.2606   1.0200 LP             1 S1                 0.0000
     34 ****         0.2769  -0.3436  -0.6080 LP             1 S1                 0.0000
     35 ****        -0.7416  -0.0753   2.5009 LP             1 S1                 0.0000
     36 ****        -0.9453   1.4679   3.2605 LP             1 S1                 0.0000
     37 ****        -3.6552   4.7789  -0.3302 LP             1 S1                 0.0000
     38 ****        -3.0101   4.8698   1.2747 LP             1 S1                 0.0000
@<TRIPOS>BOND
    1    1    2 1     
    2    1   20 1     
    3    1   21 1     
    4    1   22 1     
    5    2   17 1     
    6    2    3 2     
    7    3    4 1     
    8    3   23 1     
    9    4    5 1     
   10    4   14 1     
   11    5    6 1     
   12    5   24 1     
   13    5   25 1     
   14    6    7 1     
   15    7    8 1     
   16    7   26 1     
   17    7   27 1     
   18    8   13 ar    
   19    8    9 ar    
   20    9   10 ar    
   21    9   28 1     
   22   10   11 ar    
   23   10   29 1     
   24   11   12 ar    
   25   11   30 1     
   26   12   13 ar    
   27   12   31 1     
   28   13   32 1     
   29   14   15 2     
   30   14   16 1     
   31   16   19 1     
   32   16   17 1     
   33   17   18 2     
   34    6   33 1     
   35    6   34 1     
   36   15   35 1     
   37   15   36 1     
   38   18   37 1     
   39   18   38 1     
@<TRIPOS>SUBSTRUCTURE
      1 S1             1
@<TRIPOS>SET
LONE_PAIRS      STATIC     ATOMS    <user>   **** ""
6 33 34 35 36 37 38
DONOR_HYDROGENS      STATIC     ATOMS    <user>   **** ""
1 19
ATOM$BLUE        STATIC     ATOMS    COLORGROUP SYSTEM
6 33 34 35 36 37 38
ATOM$RED        STATIC     ATOMS    COLORGROUP SYSTEM
1 19
