AV-unprocessed.smi:1452|AV-procd|sdf|5904|dock4
  -GOLD-   22720 5593D 1   1.00000     0.00000
 Structure written by MMmdl.
 40 42  0  0  0  0  0  0  0  0  2 V2000
  146.2848  135.5378  152.3318 O   0  0  0  0  0  0  0  0  0  0  0  0
  145.6224  136.3663  151.7100 C   0  0  0  0  0  0  0  0  0  0  0  0
  144.7883  135.9924  150.7169 N   0  0  0  0  0  0  0  0  0  0  0  0
  144.4849  134.7055  150.1827 C   0  0  0  0  0  0  0  0  0  0  0  0
  144.7054  133.6324  151.0753 C   0  0  0  0  0  0  0  0  0  0  0  0
  144.4247  132.3152  150.6634 C   0  0  0  0  0  0  0  0  0  0  0  0
  143.9245  132.1031  149.3666 C   0  0  0  0  0  0  0  0  0  0  0  0
  143.7274  133.2245  148.5411 C   0  0  0  0  0  0  0  0  0  0  0  0
  143.9966  134.4877  148.9342 N   0  0  0  0  0  0  0  0  0  0  0  0
  145.6769  137.6834  151.9691 N   0  0  0  0  0  0  0  0  0  0  0  0
  146.4611  138.3171  153.0259 C   0  0  1  0  0  0  0  0  0  0  0  0
  147.0507  139.6757  152.5986 C   0  0  0  0  0  0  0  0  0  0  0  0
  146.8418  140.5900  153.8100 C   0  0  0  0  0  0  0  0  0  0  0  0
  145.5911  140.0867  154.3896 N   0  3  2  0  0  0  0  0  0  0  0  0
  145.1894  140.5669  155.7269 C   0  0  0  0  0  0  0  0  0  0  0  0
  143.7696  140.0411  156.0285 C   0  0  0  0  0  0  0  0  0  0  0  0
  143.6597  138.5110  155.8403 C   0  0  0  0  0  0  0  0  0  0  0  0
  144.2153  138.0602  154.4723 C   0  0  0  0  0  0  0  0  0  0  0  0
  145.6405  138.6173  154.3021 C   0  0  1  0  0  0  0  0  0  0  0  0
  144.3640  136.7598  150.2162 H   0  0  0  0  0  0  0  0  0  0  0  0
  145.0874  133.8119  152.0702 H   0  0  0  0  0  0  0  0  0  0  0  0
  144.5896  131.4833  151.3319 H   0  0  0  0  0  0  0  0  0  0  0  0
  143.6963  131.1079  149.0146 H   0  0  0  0  0  0  0  0  0  0  0  0
  143.3424  133.1054  147.5391 H   0  0  0  0  0  0  0  0  0  0  0  0
  145.0990  138.2903  151.4044 H   0  0  0  0  0  0  0  0  0  0  0  0
  147.2914  137.6625  153.2979 H   0  0  0  0  0  0  0  0  0  0  0  0
  148.0989  139.6054  152.3065 H   0  0  0  0  0  0  0  0  0  0  0  0
  146.4994  140.0776  151.7468 H   0  0  0  0  0  0  0  0  0  0  0  0
  147.6555  140.4698  154.5270 H   0  0  0  0  0  0  0  0  0  0  0  0
  146.7713  141.6433  153.5370 H   0  0  0  0  0  0  0  0  0  0  0  0
  145.9007  140.2238  156.4798 H   0  0  0  0  0  0  0  0  0  0  0  0
  145.1984  141.6573  155.7452 H   0  0  0  0  0  0  0  0  0  0  0  0
  143.4766  140.3153  157.0424 H   0  0  0  0  0  0  0  0  0  0  0  0
  143.0586  140.5315  155.3622 H   0  0  0  0  0  0  0  0  0  0  0  0
  144.2148  138.0121  156.6358 H   0  0  0  0  0  0  0  0  0  0  0  0
  142.6218  138.1939  155.9457 H   0  0  0  0  0  0  0  0  0  0  0  0
  144.2206  136.9714  154.4164 H   0  0  0  0  0  0  0  0  0  0  0  0
  143.5677  138.4180  153.6704 H   0  0  0  0  0  0  0  0  0  0  0  0
  146.2407  138.2595  155.1417 H   0  0  0  0  0  0  0  0  0  0  0  0
  144.8647  140.3786  153.7516 H   0  0  0  0  0  0  0  0  0  0  0  0
  1  2  2  0  0  0  0
  2  3  1  0  0  0  0
  2 10  1  0  0  0  0
  3  4  1  0  0  0  0
  3 20  1  0  0  0  0
  4  9  1  0  0  0  0
  4  5  2  0  0  0  0
  5  6  1  0  0  0  0
  5 21  1  0  0  0  0
  6  7  2  0  0  0  0
  6 22  1  0  0  0  0
  7  8  1  0  0  0  0
  7 23  1  0  0  0  0
  8  9  2  0  0  0  0
  8 24  1  0  0  0  0
 10 11  1  0  0  0  0
 10 25  1  0  0  0  0
 11 19  1  0  0  0  0
 11 12  1  0  0  0  0
 11 26  1  0  0  0  0
 12 13  1  0  0  0  0
 12 27  1  0  0  0  0
 12 28  1  0  0  0  0
 13 14  1  0  0  0  0
 13 29  1  0  0  0  0
 13 30  1  0  0  0  0
 14 19  1  0  0  0  0
 14 15  1  0  0  0  0
 14 40  1  0  0  0  0
 15 16  1  0  0  0  0
 15 31  1  0  0  0  0
 15 32  1  0  0  0  0
 16 17  1  0  0  0  0
 16 33  1  0  0  0  0
 16 34  1  0  0  0  0
 17 18  1  0  0  0  0
 17 35  1  0  0  0  0
 17 36  1  0  0  0  0
 18 19  1  0  0  0  0
 18 37  1  0  0  0  0
 18 38  1  0  0  0  0
 19 39  1  0  0  0  0
M  CHG  1  14   1
M  END
> <s_m_source_file>
AV-unprocessed.smi

> <i_m_source_file_index>
1452

> <i_lp_mmshare_version>
43012

> <i_f3d_flags>
0

> <s_epik_input>
W0NIMl0xW0NIMl1bQ0gyXVtDSDJdW0NASF0oTjEyKVtDQEBIXShbQ0gyXVtDSDJdMilbTkhdQyg9TylbTkhdYzNbY0hdW2NIXVtjSF1bY0hdbjM=

> <s_epik_cmdline>
J2VwaWtfcHl0aG9uJywgJy1waCcsICc3LjAnLCAnLXRuJywgJzgnLCAnLW1hJywgJzIwMCcsICctbWV0YWxfYmluZGluZycsICctaW1hZScsICc8aW5maWxlLm1hZT4nLCAnLW9tYWUnLCAnPG91dGZpbGUubWFlPic=

> <r_epik_Ionization_Penalty>
0.00100813

> <r_epik_Ionization_Penalty_Charging>
0.000974069

> <r_epik_Ionization_Penalty_Neutral>
3.40643e-05

> <r_epik_State_Penalty>
0.000633842

> <r_epik_Charging_Adjusted_Penalty>
0.00160791

> <i_epik_Tot_Q>
1

> <i_epik_Tot_abs_Q>
1

> <r_epik_Metal_State_Penalty>
-0

> <b_epik_Metal_Only>
0

> <s_lp_Force_Field>
OPLS_2005

> <r_lp_Energy>
45.5748

> <b_lp_Chiralities_Consistent>
1

> <s_lp_Variant>
AV-unprocessed.smi:1452-2

> <Gold.Version>
5.8.1

> <Gold.Id.Protein>
6NUR|6NUR_protein|mol2

> <Gold.PLP.Fitness>
35.6033

> <Gold.PLP.PLP>
-21.4998

> <Gold.PLP.part.hbond>
-3.0000

> <Gold.PLP.part.metal>
0.0000

> <Gold.PLP.part.buried>
2.0365

> <Gold.PLP.part.nonpolar>
-25.4923

> <Gold.PLP.part.repulsive>
6.4591

> <Gold.PLP.ligand.clash>
0.0000

> <Gold.PLP.ligand.torsion>
0.4485

> <Gold.PLP.Chemscore.Hbond>
4.0000

> <Gold.PLP.Chemscore.CHOScore>
1.0000

> <Gold.PLP.Chemscore.Metal>
0.0000

> <Gold.Chemscore.Hbonds>
donor molecule, donor type, donor heavy atom, donor atom, acceptor molecule, acceptor atom, score
      L1  H     3    20       P1 10171  1.00
      L1  H    10    25       P1 10171  1.00
      L1  H    14    40       P1 10175  2.00
      L1  C     8    24       P1 10195  1.00

> <Gold.PLP.Chemscore.Internal.Correction>
0.0005

> <Gold.Rescore>
     Score         DG    S(hbond)    S(metal)    S(lipo)     H(rot)  DE(clash)    DE(int)     intcor
     13.76     -20.43       2.90        0.00      66.97       1.00       4.83       1.84       ----

> <Gold.Chemscore.Fitness>
13.7606

> <Gold.Chemscore.DG>
-20.4346

> <Gold.Chemscore.ZeroCoef>
-5.4800

> <Gold.Chemscore.Hbond>
2.8979

> <Gold.Chemscore.Metal>
0.0000

> <Gold.Chemscore.Lipo>
66.9715

> <Gold.Chemscore.Internal_Hbond>
0.0000

> <Gold.Chemscore.DEClash>
4.8313

> <Gold.Chemscore.DEInternal>
1.8428

> <Gold.Chemscore.Rot>
1.0000

> <Gold.Chemscore.Internal.Correction>
   9.000000E+99

> <Gold.Chemscore.Hbonds>
donor molecule, donor type, donor heavy atom, donor atom, acceptor molecule, acceptor atom, score
      L1  H     3    20       P1 10171  0.99
      L1  H    10    25       P1 10171  0.89
      L1  H    14    40       P1 10175  1.00

> <Gold.Chemscore.Hbond.Weighted>
-9.6790

> <Gold.Chemscore.Metal.Weighted>
-0.0000

> <Gold.Chemscore.Lipo.Weighted>
-7.8357

> <Gold.Chemscore.Internal_Hbond.Weighted>
0.0000

> <Gold.Chemscore.DEClash.Weighted>
4.8313

> <Gold.Chemscore.DEInternal.Weighted>
1.8428

> <Gold.Chemscore.Rot.Weighted>
2.5600

> <Gold.Chemscore.Internal.Correction.Weighted>
   9.000000E+99

> <Gold.Protein.RotatedTorsions>
[ 6907 6896 6895 6894 ] final   38.62 input  -60.11 | X-H torsion
[ 7974 7965 7964 7962 ] final  -44.00 input  175.53 | X-H torsion
[ 8008 7997 7996 7995 ] final -153.28 input   59.86 | X-H torsion
[ 10167 10162 10161 10158 ] final -157.32 input  -65.29 | X-H torsion
[ 10718 10713 10712 10709 ] final   28.14 input   66.30 | X-H torsion
[ 10763 10752 10751 10750 ] final  -36.53 input  -60.55 | X-H torsion
[ 11005 11000 10999 10996 ] final   53.02 input  -57.11 | X-H torsion

> <Gold.Protein.ActiveResidues>
 VAL166  LYS551  ARG553  GLY616  TRP617  ASP618  TYR619  PRO620  LYS621  CYS622 
 ASP623  PHE694  ASN695  SER759  ASP760  ASP761  ALA762  ILE779  LEU786  VAL792 
 PHE793  MET794  SER795  GLU796  ALA797  LYS798  CYS799  TRP800  GLU811  SER814 

> <Gold.Protein.RotatedAtoms>
  152.1589  134.8928  160.0542 H   0  0  0  0  0  0  0  0  0  0  0  0  # atno 6907 bound_to 6896
  151.9932  133.3793  159.4161 H   0  0  0  0  0  0  0  0  0  0  0  0  # atno 6908 bound_to 6896
  150.6885  134.3836  159.5089 H   0  0  0  0  0  0  0  0  0  0  0  0  # atno 6909 bound_to 6896
  145.9964  140.7123  142.9292 H   0  0  0  0  0  0  0  0  0  0  0  0  # atno 7974 bound_to 7965
  155.6684  140.0730  157.2529 H   0  0  0  0  0  0  0  0  0  0  0  0  # atno 8008 bound_to 7997
  154.4128  140.1703  156.1903 H   0  0  0  0  0  0  0  0  0  0  0  0  # atno 8009 bound_to 7997
  155.9638  140.3367  155.6517 H   0  0  0  0  0  0  0  0  0  0  0  0  # atno 8010 bound_to 7997
  139.6780  143.9631  152.2321 H   0  0  0  0  0  0  0  0  0  0  0  0  # atno 10167 bound_to 10162
  157.2296  130.7017  149.6307 H   0  0  0  0  0  0  0  0  0  0  0  0  # atno 10718 bound_to 10713
  153.8813  135.6821  153.4767 H   0  0  0  0  0  0  0  0  0  0  0  0  # atno 10763 bound_to 10752
  153.1232  135.4730  154.9228 H   0  0  0  0  0  0  0  0  0  0  0  0  # atno 10764 bound_to 10752
  154.7667  135.3226  154.8223 H   0  0  0  0  0  0  0  0  0  0  0  0  # atno 10765 bound_to 10752
  140.0801  134.5350  155.8955 H   0  0  0  0  0  0  0  0  0  0  0  0  # atno 11005 bound_to 11000
  144.6905  140.3158  143.7240 LP  0  0  0  0  0  0  0  0  0  0  0  0  # atno 17320 bound_to 7965
  145.7553  139.1807  143.2298 LP  0  0  0  0  0  0  0  0  0  0  0  0  # atno 17321 bound_to 7965
  139.9413  144.6680  150.8264 LP  0  0  0  0  0  0  0  0  0  0  0  0  # atno 17342 bound_to 10162
  140.7642  143.3243  151.2552 LP  0  0  0  0  0  0  0  0  0  0  0  0  # atno 17343 bound_to 10162
  155.9676  130.4493  150.5654 LP  0  0  0  0  0  0  0  0  0  0  0  0  # atno 17370 bound_to 10713
  157.3492  131.0730  151.1727 LP  0  0  0  0  0  0  0  0  0  0  0  0  # atno 17371 bound_to 10713
  141.2044  133.6638  156.6117 LP  0  0  0  0  0  0  0  0  0  0  0  0  # atno 17394 bound_to 11000
  140.3500  134.7777  157.4460 LP  0  0  0  0  0  0  0  0  0  0  0  0  # atno 17395 bound_to 11000

$$$$
