AV-unprocessed.smi:3340|AV-procd|sdf|12879|dock7
  -GOLD-   2272019283D 1   1.00000     0.00000
 Structure written by MMmdl.
 42 43  0  0  0  0  0  0  0  0  2 V2000
  137.8994  140.6793  153.3022 C   0  0  0  0  0  0  0  0  0  0  0  0
  137.7969  139.3590  154.0692 C   0  0  0  0  0  0  0  0  0  0  0  0
  136.9142  139.2538  154.9209 O   0  0  0  0  0  0  0  0  0  0  0  0
  138.6676  138.3594  153.7899 N   0  0  0  0  0  0  0  0  0  0  0  0
  139.7611  138.5050  152.8180 C   0  0  0  0  0  0  0  0  0  0  0  0
  141.1079  138.4080  153.5629 C   0  0  0  0  0  0  0  0  0  0  0  0
  141.1771  137.1095  154.2615 N   0  0  0  0  0  0  0  0  0  0  0  0
  142.0007  136.0777  153.9497 C   0  0  0  0  0  0  0  0  0  0  0  0
  141.8223  134.9252  154.3465 O   0  0  0  0  0  0  0  0  0  0  0  0
  143.0723  136.4198  153.2138 N   0  0  0  0  0  0  0  0  0  0  0  0
  144.1304  135.5131  152.7789 C   0  0  2  0  0  0  0  0  0  0  0  0
  145.4308  135.8657  153.5194 C   0  0  0  0  0  0  0  0  0  0  0  0
  144.2720  135.5631  151.2423 C   0  0  0  0  0  0  0  0  0  0  0  0
  144.8460  134.3362  150.6822 N   0  0  0  0  0  0  0  0  0  0  0  0
  144.1790  133.3388  150.0188 C   0  0  0  0  0  0  0  0  0  0  0  0
  145.1181  132.3989  149.6799 C   0  0  0  0  0  0  0  0  0  0  0  0
  146.3181  132.8635  150.1481 N   0  3  0  0  0  0  0  0  0  0  0  0
  146.1511  134.0435  150.7543 C   0  0  0  0  0  0  0  0  0  0  0  0
  140.0768  136.9645  155.2274 C   0  0  0  0  0  0  0  0  0  0  0  0
  138.7308  137.0636  154.4825 C   0  0  0  0  0  0  0  0  0  0  0  0
  137.7593  140.5169  152.2331 H   0  0  0  0  0  0  0  0  0  0  0  0
  138.8696  141.1484  153.4672 H   0  0  0  0  0  0  0  0  0  0  0  0
  137.1309  141.3778  153.6350 H   0  0  0  0  0  0  0  0  0  0  0  0
  139.6851  137.7157  152.0685 H   0  0  0  0  0  0  0  0  0  0  0  0
  139.7153  139.4454  152.2677 H   0  0  0  0  0  0  0  0  0  0  0  0
  141.9179  138.5749  152.8534 H   0  0  0  0  0  0  0  0  0  0  0  0
  141.1895  139.2115  154.2965 H   0  0  0  0  0  0  0  0  0  0  0  0
  143.1641  137.3885  152.9440 H   0  0  0  0  0  0  0  0  0  0  0  0
  143.8575  134.4972  153.0707 H   0  0  0  0  0  0  0  0  0  0  0  0
  146.2238  135.1516  153.2980 H   0  0  0  0  0  0  0  0  0  0  0  0
  145.2808  135.8545  154.5995 H   0  0  0  0  0  0  0  0  0  0  0  0
  145.7880  136.8584  153.2435 H   0  0  0  0  0  0  0  0  0  0  0  0
  143.2993  135.7089  150.7701 H   0  0  0  0  0  0  0  0  0  0  0  0
  144.8979  136.4049  150.9412 H   0  0  0  0  0  0  0  0  0  0  0  0
  143.1131  133.3714  149.8436 H   0  0  0  0  0  0  0  0  0  0  0  0
  145.0248  131.4595  149.1544 H   0  0  0  0  0  0  0  0  0  0  0  0
  146.9189  134.6387  151.2158 H   0  0  0  0  0  0  0  0  0  0  0  0
  140.1232  136.0260  155.7812 H   0  0  0  0  0  0  0  0  0  0  0  0
  140.1519  137.7539  155.9768 H   0  0  0  0  0  0  0  0  0  0  0  0
  137.9153  136.9024  155.1856 H   0  0  0  0  0  0  0  0  0  0  0  0
  138.6485  136.2614  153.7477 H   0  0  0  0  0  0  0  0  0  0  0  0
  147.2051  132.3855  150.0507 H   0  0  0  0  0  0  0  0  0  0  0  0
  1  2  1  0  0  0  0
  1 21  1  0  0  0  0
  1 22  1  0  0  0  0
  1 23  1  0  0  0  0
  2  3  2  0  0  0  0
  2  4  1  0  0  0  0
  4 20  1  0  0  0  0
  4  5  1  0  0  0  0
  5  6  1  0  0  0  0
  5 24  1  0  0  0  0
  5 25  1  0  0  0  0
  6  7  1  0  0  0  0
  6 26  1  0  0  0  0
  6 27  1  0  0  0  0
  7  8  1  0  0  0  0
  7 19  1  0  0  0  0
  8  9  2  0  0  0  0
  8 10  1  0  0  0  0
 10 11  1  0  0  0  0
 10 28  1  0  0  0  0
 11 12  1  0  0  0  0
 11 13  1  0  0  0  0
 11 29  1  0  0  0  0
 12 30  1  0  0  0  0
 12 31  1  0  0  0  0
 12 32  1  0  0  0  0
 13 14  1  0  0  0  0
 13 33  1  0  0  0  0
 13 34  1  0  0  0  0
 14 18  1  0  0  0  0
 14 15  1  0  0  0  0
 15 16  2  0  0  0  0
 15 35  1  0  0  0  0
 16 17  1  0  0  0  0
 16 36  1  0  0  0  0
 17 18  2  0  0  0  0
 17 42  1  0  0  0  0
 18 37  1  0  0  0  0
 19 20  1  0  0  0  0
 19 38  1  0  0  0  0
 19 39  1  0  0  0  0
 20 40  1  0  0  0  0
 20 41  1  0  0  0  0
M  CHG  1  17   1
M  END
> <s_m_source_file>
AV-unprocessed.smi

> <i_m_source_file_index>
3340

> <i_lp_mmshare_version>
43012

> <i_f3d_flags>
0

> <s_epik_input>
W0NIM11DKD1PKU4xW0NIMl1bQ0gyXU4oW0NIMl1bQ0gyXTEpQyg9TylbTkhdW0NASF0oW0NIM10pW0NIMl1uMltjSF1bY0hdbltjSF0y

> <s_epik_cmdline>
J2VwaWtfcHl0aG9uJywgJy1waCcsICc3LjAnLCAnLXRuJywgJzgnLCAnLW1hJywgJzIwMCcsICctbWV0YWxfYmluZGluZycsICctaW1hZScsICc8aW5maWxlLm1hZT4nLCAnLW9tYWUnLCAnPG91dGZpbGUubWFlPic=

> <r_lp_tautomer_probability>
1

> <r_epik_Ionization_Penalty>
0.254791

> <r_epik_Ionization_Penalty_Charging>
0

> <r_epik_Ionization_Penalty_Neutral>
0.254791

> <r_epik_State_Penalty>
0.246235

> <r_epik_Charging_Adjusted_Penalty>
0.246235

> <i_epik_Tot_Q>
1

> <i_epik_Tot_abs_Q>
1

> <r_epik_Metal_State_Penalty>
0.536161

> <b_epik_Metal_Only>
0

> <s_lp_Force_Field>
OPLS_2005

> <r_lp_Energy>
50.8971

> <b_lp_Chiralities_Consistent>
1

> <s_lp_Variant>
AV-unprocessed.smi:3340-1

> <Gold.Version>
5.8.1

> <Gold.Id.Protein>
6NUR|6NUR_protein|mol2

> <Gold.PLP.Fitness>
44.2633

> <Gold.PLP.PLP>
-35.2137

> <Gold.PLP.part.hbond>
-1.4281

> <Gold.PLP.part.metal>
0.0000

> <Gold.PLP.part.buried>
-4.8645

> <Gold.PLP.part.nonpolar>
-29.5941

> <Gold.PLP.part.repulsive>
0.2329

> <Gold.PLP.ligand.clash>
0.0000

> <Gold.PLP.ligand.torsion>
0.6060

> <Gold.PLP.Chemscore.Hbond>
1.4165

> <Gold.PLP.Chemscore.CHOScore>
1.9814

> <Gold.PLP.Chemscore.Metal>
0.0000

> <Gold.Chemscore.Hbonds>
donor molecule, donor type, donor heavy atom, donor atom, acceptor molecule, acceptor atom, score
      L1  H    17    42       P1 10747  0.23
      P1  H 11000 11005       L1     9  0.77
      L1  C    15    35       P1 10186  1.00
      L1  C    18    37       P1  7948  0.81

> <Gold.PLP.Chemscore.Internal.Correction>
0.0679

> <Gold.Rescore>
     Score         DG    S(hbond)    S(metal)    S(lipo)     H(rot)  DE(clash)    DE(int)     intcor
     12.87     -14.43       1.68        0.00      65.58       1.70       0.96       0.60       ----

> <Gold.Chemscore.Fitness>
12.8660

> <Gold.Chemscore.DG>
-14.4285

> <Gold.Chemscore.ZeroCoef>
-5.4800

> <Gold.Chemscore.Hbond>
1.6831

> <Gold.Chemscore.Metal>
0.0000

> <Gold.Chemscore.Lipo>
65.5759

> <Gold.Chemscore.Internal_Hbond>
0.0000

> <Gold.Chemscore.DEClash>
0.9613

> <Gold.Chemscore.DEInternal>
0.6011

> <Gold.Chemscore.Rot>
1.6975

> <Gold.Chemscore.Internal.Correction>
   9.000000E+99

> <Gold.Chemscore.Hbonds>
donor molecule, donor type, donor heavy atom, donor atom, acceptor molecule, acceptor atom, score
      L1  H    17    42       P1 10747  0.25
      P1  H 11000 11005       L1     9  0.73

> <Gold.Chemscore.Hbond.Weighted>
-5.6216

> <Gold.Chemscore.Metal.Weighted>
-0.0000

> <Gold.Chemscore.Lipo.Weighted>
-7.6724

> <Gold.Chemscore.Internal_Hbond.Weighted>
0.0000

> <Gold.Chemscore.DEClash.Weighted>
0.9613

> <Gold.Chemscore.DEInternal.Weighted>
0.6011

> <Gold.Chemscore.Rot.Weighted>
4.3455

> <Gold.Chemscore.Internal.Correction.Weighted>
   9.000000E+99

> <Gold.Protein.RotatedTorsions>
[ 6907 6896 6895 6894 ] final  -92.23 input  -60.11 | X-H torsion
[ 7974 7965 7964 7962 ] final -149.96 input  175.53 | X-H torsion
[ 8008 7997 7996 7995 ] final -117.91 input   59.86 | X-H torsion
[ 10167 10162 10161 10158 ] final  104.84 input  -65.29 | X-H torsion
[ 10718 10713 10712 10709 ] final  173.12 input   66.30 | X-H torsion
[ 10763 10752 10751 10750 ] final   22.26 input  -60.55 | X-H torsion
[ 11005 11000 10999 10996 ] final    8.14 input  -57.11 | X-H torsion

> <Gold.Protein.ActiveResidues>
 VAL166  LYS551  ARG553  GLY616  TRP617  ASP618  TYR619  PRO620  LYS621  CYS622 
 ASP623  PHE694  ASN695  SER759  ASP760  ASP761  ALA762  ILE779  LEU786  VAL792 
 PHE793  MET794  SER795  GLU796  ALA797  LYS798  CYS799  TRP800  GLU811  SER814 

> <Gold.Protein.RotatedAtoms>
  150.6903  134.2155  159.4375 H   0  0  0  0  0  0  0  0  0  0  0  0  # atno 6907 bound_to 6896
  152.0114  134.9871  160.0577 H   0  0  0  0  0  0  0  0  0  0  0  0  # atno 6908 bound_to 6896
  152.1485  133.4472  159.4838 H   0  0  0  0  0  0  0  0  0  0  0  0  # atno 6909 bound_to 6896
  144.7936  140.4996  143.5755 H   0  0  0  0  0  0  0  0  0  0  0  0  # atno 7974 bound_to 7965
  155.0913  140.0395  157.2669 H   0  0  0  0  0  0  0  0  0  0  0  0  # atno 8008 bound_to 7997
  154.6830  140.2637  155.6864 H   0  0  0  0  0  0  0  0  0  0  0  0  # atno 8009 bound_to 7997
  156.2701  140.2775  156.1380 H   0  0  0  0  0  0  0  0  0  0  0  0  # atno 8010 bound_to 7997
  139.7143  144.7071  151.0976 H   0  0  0  0  0  0  0  0  0  0  0  0  # atno 10167 bound_to 10162
  156.9689  131.0084  151.2910 H   0  0  0  0  0  0  0  0  0  0  0  0  # atno 10718 bound_to 10713
  153.0929  135.6652  153.9818 H   0  0  0  0  0  0  0  0  0  0  0  0  # atno 10763 bound_to 10752
  153.9410  135.2994  155.3444 H   0  0  0  0  0  0  0  0  0  0  0  0  # atno 10764 bound_to 10752
  154.7345  135.5107  153.9093 H   0  0  0  0  0  0  0  0  0  0  0  0  # atno 10765 bound_to 10752
  140.5403  134.0381  155.7902 H   0  0  0  0  0  0  0  0  0  0  0  0  # atno 11005 bound_to 11000
  145.5730  139.1484  143.3277 LP  0  0  0  0  0  0  0  0  0  0  0  0  # atno 17320 bound_to 7965
  146.2197  140.5863  142.9023 LP  0  0  0  0  0  0  0  0  0  0  0  0  # atno 17321 bound_to 7965
  140.7740  143.5251  150.9490 LP  0  0  0  0  0  0  0  0  0  0  0  0  # atno 17342 bound_to 10162
  139.8937  143.6922  152.3141 LP  0  0  0  0  0  0  0  0  0  0  0  0  # atno 17343 bound_to 10162
  157.5606  130.8243  149.8261 LP  0  0  0  0  0  0  0  0  0  0  0  0  # atno 17370 bound_to 10713
  156.0291  130.3770  150.1739 LP  0  0  0  0  0  0  0  0  0  0  0  0  # atno 17371 bound_to 10713
  141.1231  133.9429  157.2690 LP  0  0  0  0  0  0  0  0  0  0  0  0  # atno 17394 bound_to 11000
  139.9507  135.0176  156.8986 LP  0  0  0  0  0  0  0  0  0  0  0  0  # atno 17395 bound_to 11000

$$$$
