AV-unprocessed.smi:3032|AV-procd|sdf|11562|dock8
  -GOLD-   2272016533D 1   1.00000     0.00000
 Structure written by MMmdl.
 37 38  0  0  0  0  0  0  0  0  1 V2000
  153.1183  142.0936  161.2246 C   0  0  0  0  0  0  0  0  0  0  0  0
  152.1947  142.7530  160.1906 C   0  0  1  0  0  0  0  0  0  0  0  0
  152.7426  144.1189  159.7353 C   0  0  0  0  0  0  0  0  0  0  0  0
  151.8242  144.7754  158.6927 C   0  0  0  0  0  0  0  0  0  0  0  0
  151.6010  143.8500  157.4864 C   0  0  0  0  0  0  0  0  0  0  0  0
  151.0381  142.4831  157.9277 C   0  0  1  0  0  0  0  0  0  0  0  0
  150.8469  141.5485  156.7265 C   0  0  0  0  0  0  0  0  0  0  0  0
  151.4212  140.4596  156.6918 O   0  0  0  0  0  0  0  0  0  0  0  0
  150.0148  141.9745  155.7625 N   0  0  0  0  0  0  0  0  0  0  0  0
  149.6057  141.1994  154.5928 C   0  0  0  0  0  0  0  0  0  0  0  0
  148.0762  141.0209  154.5127 C   0  0  0  0  0  0  0  0  0  0  0  0
  147.6362  140.0167  153.4944 C   0  0  0  0  0  0  0  0  0  0  0  0
  147.9861  138.7335  153.5968 N   0  0  0  0  0  0  0  0  0  0  0  0
  147.3397  138.1797  152.5484 N   0  0  0  0  0  0  0  0  0  0  0  0
  146.6646  139.1329  151.9083 C   0  0  0  0  0  0  0  0  0  0  0  0
  146.8047  140.3334  152.4536 N   0  0  0  0  0  0  0  0  0  0  0  0
  151.9666  141.8328  158.9759 C   0  0  0  0  0  0  0  0  0  0  0  0
  154.1035  141.8901  160.8036 H   0  0  0  0  0  0  0  0  0  0  0  0
  152.7041  141.1472  161.5733 H   0  0  0  0  0  0  0  0  0  0  0  0
  153.2543  142.7348  162.0958 H   0  0  0  0  0  0  0  0  0  0  0  0
  151.2299  142.9208  160.6716 H   0  0  0  0  0  0  0  0  0  0  0  0
  152.8538  144.7823  160.5937 H   0  0  0  0  0  0  0  0  0  0  0  0
  153.7399  143.9935  159.3113 H   0  0  0  0  0  0  0  0  0  0  0  0
  150.8647  145.0181  159.1510 H   0  0  0  0  0  0  0  0  0  0  0  0
  152.2557  145.7200  158.3609 H   0  0  0  0  0  0  0  0  0  0  0  0
  150.9185  144.3280  156.7823 H   0  0  0  0  0  0  0  0  0  0  0  0
  152.5464  143.7168  156.9578 H   0  0  0  0  0  0  0  0  0  0  0  0
  150.0646  142.6502  158.3926 H   0  0  0  0  0  0  0  0  0  0  0  0
  149.5893  142.8832  155.8759 H   0  0  0  0  0  0  0  0  0  0  0  0
  149.9600  141.7151  153.7002 H   0  0  0  0  0  0  0  0  0  0  0  0
  150.0913  140.2224  154.5879 H   0  0  0  0  0  0  0  0  0  0  0  0
  147.6947  140.7165  155.4883 H   0  0  0  0  0  0  0  0  0  0  0  0
  147.6067  141.9802  154.2917 H   0  0  0  0  0  0  0  0  0  0  0  0
  146.0590  138.9459  151.0337 H   0  0  0  0  0  0  0  0  0  0  0  0
  152.9289  141.5881  158.5227 H   0  0  0  0  0  0  0  0  0  0  0  0
  151.5377  140.8874  159.3111 H   0  0  0  0  0  0  0  0  0  0  0  0
  147.3842  137.1957  152.3255 H   0  0  0  0  0  0  0  0  0  0  0  0
  1  2  1  0  0  0  0
  1 18  1  0  0  0  0
  1 19  1  0  0  0  0
  1 20  1  0  0  0  0
  2 17  1  0  0  0  0
  2  3  1  0  0  0  0
  2 21  1  0  0  0  0
  3  4  1  0  0  0  0
  3 22  1  0  0  0  0
  3 23  1  0  0  0  0
  4  5  1  0  0  0  0
  4 24  1  0  0  0  0
  4 25  1  0  0  0  0
  5  6  1  0  0  0  0
  5 26  1  0  0  0  0
  5 27  1  0  0  0  0
  6  7  1  0  0  0  0
  6 17  1  0  0  0  0
  6 28  1  0  0  0  0
  7  8  2  0  0  0  0
  7  9  1  0  0  0  0
  9 10  1  0  0  0  0
  9 29  1  0  0  0  0
 10 11  1  0  0  0  0
 10 30  1  0  0  0  0
 10 31  1  0  0  0  0
 11 32  1  0  0  0  0
 11 33  1  0  0  0  0
 11 12  1  0  0  0  0
 12 16  1  0  0  0  0
 12 13  2  0  0  0  0
 13 14  1  0  0  0  0
 14 15  1  0  0  0  0
 14 37  1  0  0  0  0
 15 16  2  0  0  0  0
 15 34  1  0  0  0  0
 17 35  1  0  0  0  0
 17 36  1  0  0  0  0
M  END
> <s_m_source_file>
AV-unprocessed.smi

> <i_m_source_file_index>
3032

> <i_lp_mmshare_version>
43012

> <i_f3d_flags>
0

> <s_epik_input>
W0NIM11bQ0BASF0xW0NIMl1bQ0gyXVtDSDJdW0NASF0oW0NIMl0xKUMoPU8pW05IXVtDSDJdW0NIMl1jMm5uW2NIXVtuSF0y

> <s_epik_cmdline>
J2VwaWtfcHl0aG9uJywgJy1waCcsICc3LjAnLCAnLXRuJywgJzgnLCAnLW1hJywgJzIwMCcsICctbWV0YWxfYmluZGluZycsICctaW1hZScsICc8aW5maWxlLm1hZT4nLCAnLW9tYWUnLCAnPG91dGZpbGUubWFlPic=

> <r_epik_Ionization_Penalty>
0.000752022

> <r_epik_Ionization_Penalty_Charging>
0

> <r_epik_Ionization_Penalty_Neutral>
0.000752022

> <r_epik_State_Penalty>
0.639926

> <r_epik_Charging_Adjusted_Penalty>
0.639926

> <i_epik_Tot_Q>
0

> <i_epik_Tot_abs_Q>
0

> <r_epik_Metal_State_Penalty>
0.76532

> <b_epik_Metal_Only>
0

> <s_lp_Force_Field>
OPLS_2005

> <r_lp_Energy>
8.74502

> <b_lp_Chiralities_Consistent>
1

> <s_lp_Variant>
AV-unprocessed.smi:3032-6

> <Gold.Version>
5.8.1

> <Gold.Id.Protein>
6NUR|6NUR_protein|mol2

> <Gold.PLP.Fitness>
45.7377

> <Gold.PLP.PLP>
-38.2209

> <Gold.PLP.part.hbond>
-2.4040

> <Gold.PLP.part.metal>
0.0000

> <Gold.PLP.part.buried>
-2.5471

> <Gold.PLP.part.nonpolar>
-35.1809

> <Gold.PLP.part.repulsive>
1.1396

> <Gold.PLP.ligand.clash>
0.0000

> <Gold.PLP.ligand.torsion>
0.0431

> <Gold.PLP.Chemscore.Hbond>
1.5280

> <Gold.PLP.Chemscore.CHOScore>
1.0000

> <Gold.PLP.Chemscore.Metal>
0.0000

> <Gold.Chemscore.Hbonds>
donor molecule, donor type, donor heavy atom, donor atom, acceptor molecule, acceptor atom, score
      L1  H     9    29       P1  8028  1.00
      L1  H    14    37       P1  7948  0.51
      L1  C    15    34       P1 10171  1.00

> <Gold.PLP.Chemscore.Internal.Correction>
0.0189

> <Gold.Rescore>
     Score         DG    S(hbond)    S(metal)    S(lipo)     H(rot)  DE(clash)    DE(int)     intcor
     15.73     -16.32       1.64        0.00      95.08       2.25       0.50       0.09       ----

> <Gold.Chemscore.Fitness>
15.7302

> <Gold.Chemscore.DG>
-16.3187

> <Gold.Chemscore.ZeroCoef>
-5.4800

> <Gold.Chemscore.Hbond>
1.6391

> <Gold.Chemscore.Metal>
0.0000

> <Gold.Chemscore.Lipo>
95.0820

> <Gold.Chemscore.Internal_Hbond>
0.0000

> <Gold.Chemscore.DEClash>
0.5004

> <Gold.Chemscore.DEInternal>
0.0881

> <Gold.Chemscore.Rot>
2.2501

> <Gold.Chemscore.Internal.Correction>
   9.000000E+99

> <Gold.Chemscore.Hbonds>
donor molecule, donor type, donor heavy atom, donor atom, acceptor molecule, acceptor atom, score
      L1  H     9    29       P1  8028  0.98
      L1  H    14    37       P1  7948  0.52

> <Gold.Chemscore.Hbond.Weighted>
-5.4745

> <Gold.Chemscore.Metal.Weighted>
-0.0000

> <Gold.Chemscore.Lipo.Weighted>
-11.1246

> <Gold.Chemscore.Internal_Hbond.Weighted>
0.0000

> <Gold.Chemscore.DEClash.Weighted>
0.5004

> <Gold.Chemscore.DEInternal.Weighted>
0.0881

> <Gold.Chemscore.Rot.Weighted>
5.7603

> <Gold.Chemscore.Internal.Correction.Weighted>
   9.000000E+99

> <Gold.Protein.RotatedTorsions>
[ 6907 6896 6895 6894 ] final   48.10 input  -60.11 | X-H torsion
[ 7974 7965 7964 7962 ] final    9.77 input  175.53 | X-H torsion
[ 8008 7997 7996 7995 ] final  -76.69 input   59.86 | X-H torsion
[ 10167 10162 10161 10158 ] final -150.70 input  -65.29 | X-H torsion
[ 10718 10713 10712 10709 ] final  170.09 input   66.30 | X-H torsion
[ 10763 10752 10751 10750 ] final  113.24 input  -60.55 | X-H torsion
[ 11005 11000 10999 10996 ] final -126.97 input  -57.11 | X-H torsion

> <Gold.Protein.ActiveResidues>
 VAL166  LYS551  ARG553  GLY616  TRP617  ASP618  TYR619  PRO620  LYS621  CYS622 
 ASP623  PHE694  ASN695  SER759  ASP760  ASP761  ALA762  ILE779  LEU786  VAL792 
 PHE793  MET794  SER795  GLU796  ALA797  LYS798  CYS799  TRP800  GLU811  SER814 

> <Gold.Protein.RotatedAtoms>
  152.2757  134.7884  160.0405 H   0  0  0  0  0  0  0  0  0  0  0  0  # atno 6907 bound_to 6896
  151.8481  133.3430  159.3672 H   0  0  0  0  0  0  0  0  0  0  0  0  # atno 6908 bound_to 6896
  150.7169  134.5254  159.5718 H   0  0  0  0  0  0  0  0  0  0  0  0  # atno 6909 bound_to 6896
  146.2398  139.9733  142.8444 H   0  0  0  0  0  0  0  0  0  0  0  0  # atno 7974 bound_to 7965
  154.5528  140.0723  156.8695 H   0  0  0  0  0  0  0  0  0  0  0  0  # atno 8008 bound_to 7997
  155.2960  140.3381  155.4232 H   0  0  0  0  0  0  0  0  0  0  0  0  # atno 8009 bound_to 7997
  156.1976  140.1709  156.7952 H   0  0  0  0  0  0  0  0  0  0  0  0  # atno 8010 bound_to 7997
  139.7331  143.8777  152.2541 H   0  0  0  0  0  0  0  0  0  0  0  0  # atno 10167 bound_to 10162
  157.0132  131.0210  151.2797 H   0  0  0  0  0  0  0  0  0  0  0  0  # atno 10718 bound_to 10713
  153.4897  135.3661  155.2485 H   0  0  0  0  0  0  0  0  0  0  0  0  # atno 10763 bound_to 10752
  154.8752  135.3974  154.3604 H   0  0  0  0  0  0  0  0  0  0  0  0  # atno 10764 bound_to 10752
  153.4221  135.7080  153.6353 H   0  0  0  0  0  0  0  0  0  0  0  0  # atno 10765 bound_to 10752
  140.9638  134.0900  157.3941 H   0  0  0  0  0  0  0  0  0  0  0  0  # atno 11005 bound_to 11000
  145.1660  140.9697  143.4349 LP  0  0  0  0  0  0  0  0  0  0  0  0  # atno 17320 bound_to 7965
  145.0072  139.3543  143.6138 LP  0  0  0  0  0  0  0  0  0  0  0  0  # atno 17321 bound_to 7965
  139.8706  144.7070  150.8992 LP  0  0  0  0  0  0  0  0  0  0  0  0  # atno 17342 bound_to 10162
  140.7774  143.3741  151.1594 LP  0  0  0  0  0  0  0  0  0  0  0  0  # atno 17343 bound_to 10162
  157.5305  130.8055  149.7911 LP  0  0  0  0  0  0  0  0  0  0  0  0  # atno 17370 bound_to 10713
  156.0128  130.3826  150.2207 LP  0  0  0  0  0  0  0  0  0  0  0  0  # atno 17371 bound_to 10713
  139.8887  135.0100  156.6637 LP  0  0  0  0  0  0  0  0  0  0  0  0  # atno 17394 bound_to 11000
  140.7429  133.8962  155.8291 LP  0  0  0  0  0  0  0  0  0  0  0  0  # atno 17395 bound_to 11000

$$$$
