AV-unprocessed.smi:3110|AV-procd|sdf|11830|dock5
  -GOLD-   2272017203D 1   1.00000     0.00000
 Structure written by MMmdl.
 33 34  0  0  0  0  0  0  0  0  1 V2000
  153.1039  140.6524  157.0558 O   0  0  0  0  0  0  0  0  0  0  0  0
  151.9385  140.7753  157.4321 C   0  0  0  0  0  0  0  0  0  0  0  0
  151.6282  141.0204  158.9111 C   0  0  0  0  0  0  0  0  0  0  0  0
  152.1598  142.3802  159.4104 C   0  0  2  0  0  0  0  0  0  0  0  0
  152.0981  142.5051  160.9111 C   0  0  0  0  0  0  0  0  0  0  0  0
  151.5427  143.6472  161.3105 C   0  0  0  0  0  0  0  0  0  0  0  0
  151.1199  144.5137  160.1573 C   0  0  0  0  0  0  0  0  0  0  0  0
  151.3646  143.6210  158.9214 C   0  0  0  0  0  0  0  0  0  0  0  0
  150.8839  140.6987  156.6052 N   0  0  0  0  0  0  0  0  0  0  0  0
  150.9511  140.3871  155.1804 C   0  0  0  0  0  0  0  0  0  0  0  0
  150.0307  139.2099  154.8068 C   0  0  0  0  0  0  0  0  0  0  0  0
  148.8053  139.6404  154.1589 N   0  0  0  0  0  0  0  0  0  0  0  0
  148.1076  138.9761  153.1581 C   0  0  0  0  0  0  0  0  0  0  0  0
  147.0215  139.7627  152.8477 C   0  0  0  0  0  0  0  0  0  0  0  0
  147.0267  140.9048  153.6450 N   0  0  0  0  0  0  0  0  0  0  0  0
  148.1112  140.7620  154.3959 C   0  0  0  0  0  0  0  0  0  0  0  0
  150.5484  140.9623  159.0561 H   0  0  0  0  0  0  0  0  0  0  0  0
  152.0588  140.2145  159.5077 H   0  0  0  0  0  0  0  0  0  0  0  0
  153.2089  142.4857  159.1290 H   0  0  0  0  0  0  0  0  0  0  0  0
  152.4890  141.7425  161.5684 H   0  0  0  0  0  0  0  0  0  0  0  0
  151.4138  143.9521  162.3384 H   0  0  0  0  0  0  0  0  0  0  0  0
  150.0730  144.8040  160.2491 H   0  0  0  0  0  0  0  0  0  0  0  0
  151.7329  145.4150  160.1318 H   0  0  0  0  0  0  0  0  0  0  0  0
  151.8941  144.1553  158.1318 H   0  0  0  0  0  0  0  0  0  0  0  0
  150.3994  143.3200  158.5118 H   0  0  0  0  0  0  0  0  0  0  0  0
  149.9633  140.8228  157.0010 H   0  0  0  0  0  0  0  0  0  0  0  0
  150.6344  141.2764  154.6353 H   0  0  0  0  0  0  0  0  0  0  0  0
  151.9773  140.1896  154.8654 H   0  0  0  0  0  0  0  0  0  0  0  0
  150.5504  138.5112  154.1499 H   0  0  0  0  0  0  0  0  0  0  0  0
  149.7607  138.6525  155.7044 H   0  0  0  0  0  0  0  0  0  0  0  0
  148.4371  138.0301  152.7546 H   0  0  0  0  0  0  0  0  0  0  0  0
  146.2436  139.5958  152.1174 H   0  0  0  0  0  0  0  0  0  0  0  0
  148.4111  141.4930  155.1327 H   0  0  0  0  0  0  0  0  0  0  0  0
  1  2  2  0  0  0  0
  2  3  1  0  0  0  0
  2  9  1  0  0  0  0
  3  4  1  0  0  0  0
  3 17  1  0  0  0  0
  3 18  1  0  0  0  0
  4  8  1  0  0  0  0
  4  5  1  0  0  0  0
  4 19  1  0  0  0  0
  5  6  2  0  0  0  0
  5 20  1  0  0  0  0
  6  7  1  0  0  0  0
  6 21  1  0  0  0  0
  7  8  1  0  0  0  0
  7 22  1  0  0  0  0
  7 23  1  0  0  0  0
  8 24  1  0  0  0  0
  8 25  1  0  0  0  0
  9 10  1  0  0  0  0
  9 26  1  0  0  0  0
 10 11  1  0  0  0  0
 10 27  1  0  0  0  0
 10 28  1  0  0  0  0
 11 12  1  0  0  0  0
 11 29  1  0  0  0  0
 11 30  1  0  0  0  0
 12 16  1  0  0  0  0
 12 13  1  0  0  0  0
 13 14  2  0  0  0  0
 13 31  1  0  0  0  0
 14 15  1  0  0  0  0
 14 32  1  0  0  0  0
 15 16  2  0  0  0  0
 16 33  1  0  0  0  0
M  END
> <s_m_source_file>
AV-unprocessed.smi

> <i_m_source_file_index>
3110

> <i_lp_mmshare_version>
43012

> <i_f3d_flags>
0

> <s_epik_input>
W0NIMl0xW0NIMl1bQ0hdPVtDSF1bQ0BIXTFbQ0gyXUMoPU8pW05IXVtDSDJdW0NIMl1uMltjSF1bY0hdbltjSF0y

> <s_epik_cmdline>
J2VwaWtfcHl0aG9uJywgJy1waCcsICc3LjAnLCAnLXRuJywgJzgnLCAnLW1hJywgJzIwMCcsICctbWV0YWxfYmluZGluZycsICctaW1hZScsICc8aW5maWxlLm1hZT4nLCAnLW9tYWUnLCAnPG91dGZpbGUubWFlPic=

> <r_lp_tautomer_probability>
1

> <r_epik_Ionization_Penalty>
0.593629

> <r_epik_Ionization_Penalty_Charging>
0.593629

> <r_epik_Ionization_Penalty_Neutral>
1.57355e-08

> <r_epik_State_Penalty>
0.607413

> <r_epik_Charging_Adjusted_Penalty>
1.20104

> <i_epik_Tot_Q>
0

> <i_epik_Tot_abs_Q>
0

> <r_epik_Metal_State_Penalty>
0.299385

> <b_epik_Metal_Only>
0

> <s_lp_Force_Field>
OPLS_2005

> <r_lp_Energy>
17.6057

> <b_lp_Chiralities_Consistent>
1

> <s_lp_Variant>
AV-unprocessed.smi:3110-3

> <Gold.Version>
5.8.1

> <Gold.Id.Protein>
6NUR|6NUR_protein|mol2

> <Gold.PLP.Fitness>
42.2208

> <Gold.PLP.PLP>
-34.7870

> <Gold.PLP.part.hbond>
-1.0000

> <Gold.PLP.part.metal>
0.0000

> <Gold.PLP.part.buried>
-1.5726

> <Gold.PLP.part.nonpolar>
-32.4288

> <Gold.PLP.part.repulsive>
0.2453

> <Gold.PLP.ligand.clash>
0.0000

> <Gold.PLP.ligand.torsion>
0.7822

> <Gold.PLP.Chemscore.Hbond>
1.0000

> <Gold.PLP.Chemscore.CHOScore>
1.9939

> <Gold.PLP.Chemscore.Metal>
0.0000

> <Gold.Chemscore.Hbonds>
donor molecule, donor type, donor heavy atom, donor atom, acceptor molecule, acceptor atom, score
      P1  H  7997  8008       L1     1  0.51
      L1  C    13    31       P1  7948  1.00
      L1  C    14    32       P1 10175  0.45

> <Gold.PLP.Chemscore.Internal.Correction>
0.0163

> <Gold.Rescore>
     Score         DG    S(hbond)    S(metal)    S(lipo)     H(rot)  DE(clash)    DE(int)     intcor
     14.05     -14.84       0.99        0.00      95.89       2.01       0.27       0.52       ----

> <Gold.Chemscore.Fitness>
14.0505

> <Gold.Chemscore.DG>
-14.8418

> <Gold.Chemscore.ZeroCoef>
-5.4800

> <Gold.Chemscore.Hbond>
0.9850

> <Gold.Chemscore.Metal>
0.0000

> <Gold.Chemscore.Lipo>
95.8933

> <Gold.Chemscore.Internal_Hbond>
0.0000

> <Gold.Chemscore.DEClash>
0.2697

> <Gold.Chemscore.DEInternal>
0.5216

> <Gold.Chemscore.Rot>
2.0108

> <Gold.Chemscore.Internal.Correction>
   9.000000E+99

> <Gold.Chemscore.Hbonds>
donor molecule, donor type, donor heavy atom, donor atom, acceptor molecule, acceptor atom, score
      P1  H  7997  8008       L1     1  0.52

> <Gold.Chemscore.Hbond.Weighted>
-3.2901

> <Gold.Chemscore.Metal.Weighted>
-0.0000

> <Gold.Chemscore.Lipo.Weighted>
-11.2195

> <Gold.Chemscore.Internal_Hbond.Weighted>
0.0000

> <Gold.Chemscore.DEClash.Weighted>
0.2697

> <Gold.Chemscore.DEInternal.Weighted>
0.5216

> <Gold.Chemscore.Rot.Weighted>
5.1477

> <Gold.Chemscore.Internal.Correction.Weighted>
   9.000000E+99

> <Gold.Protein.RotatedTorsions>
[ 6907 6896 6895 6894 ] final   83.81 input  -60.11 | X-H torsion
[ 7974 7965 7964 7962 ] final  -52.04 input  175.53 | X-H torsion
[ 8008 7997 7996 7995 ] final  -57.78 input   59.86 | X-H torsion
[ 10167 10162 10161 10158 ] final  114.08 input  -65.29 | X-H torsion
[ 10718 10713 10712 10709 ] final -115.61 input   66.30 | X-H torsion
[ 10763 10752 10751 10750 ] final  119.83 input  -60.55 | X-H torsion
[ 11005 11000 10999 10996 ] final   65.76 input  -57.11 | X-H torsion

> <Gold.Protein.ActiveResidues>
 VAL166  LYS551  ARG553  GLY616  TRP617  ASP618  TYR619  PRO620  LYS621  CYS622 
 ASP623  PHE694  ASN695  SER759  ASP760  ASP761  ALA762  ILE779  LEU786  VAL792 
 PHE793  MET794  SER795  GLU796  ALA797  LYS798  CYS799  TRP800  GLU811  SER814 

> <Gold.Protein.RotatedAtoms>
  152.5337  134.2838  159.9017 H   0  0  0  0  0  0  0  0  0  0  0  0  # atno 6907 bound_to 6896
  151.2792  133.4211  159.2633 H   0  0  0  0  0  0  0  0  0  0  0  0  # atno 6908 bound_to 6896
  151.0299  134.9547  159.8162 H   0  0  0  0  0  0  0  0  0  0  0  0  # atno 6909 bound_to 6896
  145.9124  140.7904  142.9689 H   0  0  0  0  0  0  0  0  0  0  0  0  # atno 7974 bound_to 7965
  154.4282  140.1099  156.5852 H   0  0  0  0  0  0  0  0  0  0  0  0  # atno 8008 bound_to 7997
  155.6070  140.3494  155.4592 H   0  0  0  0  0  0  0  0  0  0  0  0  # atno 8009 bound_to 7997
  156.0129  140.1223  157.0425 H   0  0  0  0  0  0  0  0  0  0  0  0  # atno 8010 bound_to 7997
  139.6414  144.7124  151.2228 H   0  0  0  0  0  0  0  0  0  0  0  0  # atno 10167 bound_to 10162
  156.0907  130.6090  150.8928 H   0  0  0  0  0  0  0  0  0  0  0  0  # atno 10718 bound_to 10713
  153.5891  135.3469  155.2904 H   0  0  0  0  0  0  0  0  0  0  0  0  # atno 10763 bound_to 10752
  154.8655  135.4200  154.2536 H   0  0  0  0  0  0  0  0  0  0  0  0  # atno 10764 bound_to 10752
  153.3339  135.7046  153.6994 H   0  0  0  0  0  0  0  0  0  0  0  0  # atno 10765 bound_to 10752
  139.9874  134.6646  156.0151 H   0  0  0  0  0  0  0  0  0  0  0  0  # atno 11005 bound_to 11000
  144.6744  140.1846  143.7402 LP  0  0  0  0  0  0  0  0  0  0  0  0  # atno 17320 bound_to 7965
  145.8655  139.2245  143.1691 LP  0  0  0  0  0  0  0  0  0  0  0  0  # atno 17321 bound_to 7965
  140.7493  143.6305  150.8428 LP  0  0  0  0  0  0  0  0  0  0  0  0  # atno 17342 bound_to 10162
  139.9942  143.5814  152.2899 LP  0  0  0  0  0  0  0  0  0  0  0  0  # atno 17343 bound_to 10162
  157.6055  131.0939  150.8886 LP  0  0  0  0  0  0  0  0  0  0  0  0  # atno 17370 bound_to 10713
  156.9036  130.5255  149.5282 LP  0  0  0  0  0  0  0  0  0  0  0  0  # atno 17371 bound_to 10713
  141.1536  133.6545  156.4092 LP  0  0  0  0  0  0  0  0  0  0  0  0  # atno 17394 bound_to 11000
  140.4975  134.6517  157.5235 LP  0  0  0  0  0  0  0  0  0  0  0  0  # atno 17395 bound_to 11000

$$$$
