#       Name:                AV-unprocessed.smi:384
#       Creating user name   scv26
#       Creation time:       Thu Mar 26 22:40:53 2020


#       File generated by GOLD software.
#

@<TRIPOS>MOLECULE
AV-unprocessed.smi:384
    40    41     1
SMALL
NO_CHARGES


@<TRIPOS>ATOM
      1 ****        -2.9401  -1.4344   2.1341 C.3            1 S1                 0.0000
      2 ****        -2.3255  -0.7689   0.8985 C.3            1 S1                 0.0000
      3 ****        -0.7912  -0.6928   0.9903 C.3            1 S1                 0.0000
      4 ****        -0.2614   0.0370  -0.1527 N.3            1 S1                 0.0000
      5 ****         1.1378   0.0131  -0.2321 C.ar           1 S1                 0.0000
      6 ****         1.7482  -0.6149  -1.3366 C.ar           1 S1                 0.0000
      7 ****         3.1542  -0.6419  -1.4085 C.ar           1 S1                 0.0000
      8 ****         3.9083  -0.0405  -0.3762 C.ar           1 S1                 0.0000
      9 ****         5.4108  -0.0464  -0.4057 C.2            1 S1                 0.0000
     10 ****         6.0351   0.5003   0.5306 O.co2          1 S1                 0.0000
     11 ****         5.9920  -0.5990  -1.3660 O.co2          1 S1                -1.0000
     12 ****         3.1983   0.5657   0.6854 C.ar           1 S1                 0.0000
     13 ****         1.8498   0.5950   0.7617 N.ar           1 S1                 0.0000
     14 ****        -0.8251   1.3760  -0.2627 C.3            1 S1                 0.0000
     15 ****        -2.3650   1.3164  -0.3088 C.3            1 S1                 0.0000
     16 ****        -2.9207   0.8189  -1.6550 C.3            1 S1                 0.0000
     17 ****        -2.8614   0.5509   0.7933 O.3            1 S1                 0.0000
     18 ****        -2.5663  -2.4510   2.2588 H              1 S1                 0.0000
     19 ****        -4.0255  -1.4875   2.0479 H              1 S1                 0.0000
     20 ****        -2.7045  -0.8770   3.0411 H              1 S1                 0.0000
     21 ****        -2.6111  -1.3523   0.0230 H              1 S1                 0.0000
     22 ****        -0.4965  -0.1922   1.9139 H              1 S1                 0.0000
     23 ****        -0.3650  -1.6967   1.0167 H              1 S1                 0.0000
     24 ****         1.1531  -1.0701  -2.1145 H              1 S1                 0.0000
     25 ****         3.6358  -1.1215  -2.2482 H              1 S1                 0.0000
     26 ****         3.7165   1.0434   1.5042 H              1 S1                 0.0000
     27 ****        -0.5111   1.9678   0.5985 H              1 S1                 0.0000
     28 ****        -0.4361   1.8759  -1.1508 H              1 S1                 0.0000
     29 ****        -2.7401   2.3305  -0.1686 H              1 S1                 0.0000
     30 ****        -2.6300   1.4896  -2.4637 H              1 S1                 0.0000
     31 ****        -4.0098   0.7802  -1.6345 H              1 S1                 0.0000
     32 ****        -2.5549  -0.1746  -1.9126 H              1 S1                 0.0000
     33 ****        -0.5687  -0.4607  -0.9637 LP             1 S1                 0.0000
     34 ****         7.0351   0.5059   0.5287 LP             1 S1                 0.0000
     35 ****         5.5342   0.9318   1.2808 LP             1 S1                 0.0000
     36 ****         6.9912  -0.6143  -1.4039 LP             1 S1                 0.0000
     37 ****         5.4574  -1.0253  -2.0957 LP             1 S1                 0.0000
     38 ****         1.3893   1.0353   1.5325 LP             1 S1                 0.0000
     39 ****        -2.6436   1.0428   1.6363 LP             1 S1                 0.0000
     40 ****        -3.8540   0.4765   0.6978 LP             1 S1                 0.0000
@<TRIPOS>BOND
    1    1    2 1     
    2    1   18 1     
    3    1   19 1     
    4    1   20 1     
    5    2   17 1     
    6    2    3 1     
    7    2   21 1     
    8    3    4 1     
    9    3   22 1     
   10    3   23 1     
   11    4    5 1     
   12    4   14 1     
   13    5   13 ar    
   14    5    6 ar    
   15    6    7 ar    
   16    6   24 1     
   17    7    8 ar    
   18    7   25 1     
   19    8    9 1     
   20    8   12 ar    
   21    9   10 ar    
   22    9   11 ar    
   23   12   13 ar    
   24   12   26 1     
   25   14   15 1     
   26   14   27 1     
   27   14   28 1     
   28   15   16 1     
   29   15   17 1     
   30   15   29 1     
   31   16   30 1     
   32   16   31 1     
   33   16   32 1     
   34    4   33 1     
   35   10   34 1     
   36   10   35 1     
   37   11   36 1     
   38   11   37 1     
   39   13   38 1     
   40   17   39 1     
   41   17   40 1     
@<TRIPOS>SUBSTRUCTURE
      1 S1             1
@<TRIPOS>SET
LONE_PAIRS      STATIC     ATOMS    <user>   **** ""
8 33 34 35 36 37 38 39 40
ATOM$BLUE        STATIC     ATOMS    COLORGROUP SYSTEM
8 33 34 35 36 37 38 39 40
