AV-unprocessed.smi:3201|AV-procd|sdf|12237|dock3
  -GOLD-   2272018 73D 1   1.00000     0.00000
 Structure written by MMmdl.
 41 43  0  0  0  0  0  0  0  0  2 V2000
  151.7441  144.8833  160.5382 C   0  0  0  0  0  0  0  0  0  0  0  0
  152.1846  143.5385  160.0571 C   0  0  0  0  0  0  0  0  0  0  0  0
  152.0691  142.9455  158.8284 C   0  0  0  0  0  0  0  0  0  0  0  0
  151.4463  143.4832  157.5692 C   0  0  0  0  0  0  0  0  0  0  0  0
  150.9711  142.3492  156.6521 C   0  0  0  0  0  0  0  0  0  0  0  0
  149.5092  142.1646  156.7491 N   0  3  0  0  0  0  0  0  0  0  0  0
  148.9694  141.0839  155.8952 C   0  0  2  0  0  0  0  0  0  0  0  0
  149.1964  141.2996  154.3827 C   0  0  0  0  0  0  0  0  0  0  0  0
  147.7808  141.1209  153.7996 C   0  0  2  0  0  0  0  0  0  0  0  0
  146.9508  142.3777  154.1137 C   0  0  0  0  0  0  0  0  0  0  0  0
  146.7125  142.2519  155.6295 C   0  0  0  0  0  0  0  0  0  0  0  0
  147.4353  140.9345  155.9874 C   0  0  1  0  0  0  0  0  0  0  0  0
  147.1597  140.0951  154.7436 C   0  0  0  0  0  0  0  0  0  0  0  0
  152.6797  141.6724  159.0099 C   0  0  0  0  0  0  0  0  0  0  0  0
  153.1321  141.4904  160.2374 N   0  0  0  0  0  0  0  0  0  0  0  0
  152.8296  142.6359  160.8822 N   0  0  0  0  0  0  0  0  0  0  0  0
  153.1934  142.7832  162.2785 C   0  0  0  0  0  0  0  0  0  0  0  0
  151.1603  145.4037  159.7792 H   0  0  0  0  0  0  0  0  0  0  0  0
  152.6041  145.5055  160.7861 H   0  0  0  0  0  0  0  0  0  0  0  0
  151.1232  144.7937  161.4296 H   0  0  0  0  0  0  0  0  0  0  0  0
  150.6059  144.1371  157.8046 H   0  0  0  0  0  0  0  0  0  0  0  0
  152.1609  144.1058  157.0294 H   0  0  0  0  0  0  0  0  0  0  0  0
  151.2430  142.5710  155.6193 H   0  0  0  0  0  0  0  0  0  0  0  0
  151.4689  141.4172  156.9234 H   0  0  0  0  0  0  0  0  0  0  0  0
  149.2884  141.9450  157.7099 H   0  0  0  0  0  0  0  0  0  0  0  0
  149.4269  140.1417  156.2026 H   0  0  0  0  0  0  0  0  0  0  0  0
  149.6101  142.2801  154.1427 H   0  0  0  0  0  0  0  0  0  0  0  0
  149.8801  140.5462  153.9894 H   0  0  0  0  0  0  0  0  0  0  0  0
  147.7722  140.8446  152.7448 H   0  0  0  0  0  0  0  0  0  0  0  0
  147.4709  143.2984  153.8469 H   0  0  0  0  0  0  0  0  0  0  0  0
  146.0028  142.3619  153.5743 H   0  0  0  0  0  0  0  0  0  0  0  0
  147.0875  143.1121  156.1841 H   0  0  0  0  0  0  0  0  0  0  0  0
  145.6446  142.1706  155.8376 H   0  0  0  0  0  0  0  0  0  0  0  0
  147.0951  140.4887  156.9226 H   0  0  0  0  0  0  0  0  0  0  0  0
  146.0969  139.9266  154.5602 H   0  0  0  0  0  0  0  0  0  0  0  0
  147.6785  139.1346  154.7411 H   0  0  0  0  0  0  0  0  0  0  0  0
  152.8044  140.8783  158.2885 H   0  0  0  0  0  0  0  0  0  0  0  0
  153.9266  143.5833  162.3826 H   0  0  0  0  0  0  0  0  0  0  0  0
  153.6228  141.8580  162.6656 H   0  0  0  0  0  0  0  0  0  0  0  0
  152.3084  143.0306  162.8648 H   0  0  0  0  0  0  0  0  0  0  0  0
  149.0500  143.0299  156.5031 H   0  0  0  0  0  0  0  0  0  0  0  0
  1  2  1  0  0  0  0
  1 18  1  0  0  0  0
  1 19  1  0  0  0  0
  1 20  1  0  0  0  0
  2 16  1  0  0  0  0
  2  3  2  0  0  0  0
  3  4  1  0  0  0  0
  3 14  1  0  0  0  0
  4  5  1  0  0  0  0
  4 21  1  0  0  0  0
  4 22  1  0  0  0  0
  5  6  1  0  0  0  0
  5 23  1  0  0  0  0
  5 24  1  0  0  0  0
  6  7  1  0  0  0  0
  6 25  1  0  0  0  0
  6 41  1  0  0  0  0
  7 12  1  0  0  0  0
  7  8  1  0  0  0  0
  7 26  1  0  0  0  0
  8  9  1  0  0  0  0
  8 27  1  0  0  0  0
  8 28  1  0  0  0  0
  9 13  1  0  0  0  0
  9 10  1  0  0  0  0
  9 29  1  0  0  0  0
 10 11  1  0  0  0  0
 10 30  1  0  0  0  0
 10 31  1  0  0  0  0
 11 12  1  0  0  0  0
 11 32  1  0  0  0  0
 11 33  1  0  0  0  0
 12 13  1  0  0  0  0
 12 34  1  0  0  0  0
 13 35  1  0  0  0  0
 13 36  1  0  0  0  0
 14 15  2  0  0  0  0
 14 37  1  0  0  0  0
 15 16  1  0  0  0  0
 16 17  1  0  0  0  0
 17 38  1  0  0  0  0
 17 39  1  0  0  0  0
 17 40  1  0  0  0  0
M  CHG  1   6   1
M  END
> <s_m_source_file>
AV-unprocessed.smi

> <i_m_source_file_index>
3201

> <i_lp_mmshare_version>
43012

> <i_f3d_flags>
0

> <s_epik_input>
W0NIM11uMW5bY0hdYyhjMVtDSDNdKVtDSDJdW0NIMl1bTkhdW0NASF0oW0NIMl1bQ0BIXTIzKVtDQEhdKFtDSDJdMylbQ0gyXVtDSDJdMg==

> <s_epik_cmdline>
J2VwaWtfcHl0aG9uJywgJy1waCcsICc3LjAnLCAnLXRuJywgJzgnLCAnLW1hJywgJzIwMCcsICctbWV0YWxfYmluZGluZycsICctaW1hZScsICc8aW5maWxlLm1hZT4nLCAnLW9tYWUnLCAnPG91dGZpbGUubWFlPic=

> <r_lp_tautomer_probability>
1

> <r_epik_Ionization_Penalty>
0.000331174

> <r_epik_Ionization_Penalty_Charging>
0.000242709

> <r_epik_Ionization_Penalty_Neutral>
8.84659e-05

> <r_epik_State_Penalty>
-0

> <r_epik_Charging_Adjusted_Penalty>
0.000242709

> <i_epik_Tot_Q>
1

> <i_epik_Tot_abs_Q>
1

> <r_epik_Metal_State_Penalty>
-0

> <b_epik_Metal_Only>
0

> <s_lp_Force_Field>
OPLS_2005

> <r_lp_Energy>
50.9619

> <b_lp_Chiralities_Consistent>
1

> <s_lp_Variant>
AV-unprocessed.smi:3201-1

> <Gold.Version>
5.8.1

> <Gold.Id.Protein>
6NUR|6NUR_protein|mol2

> <Gold.PLP.Fitness>
47.2758

> <Gold.PLP.PLP>
-42.5437

> <Gold.PLP.part.hbond>
-1.0000

> <Gold.PLP.part.metal>
0.0000

> <Gold.PLP.part.buried>
-5.1239

> <Gold.PLP.part.nonpolar>
-36.5271

> <Gold.PLP.part.repulsive>
0.0204

> <Gold.PLP.ligand.clash>
0.0000

> <Gold.PLP.ligand.torsion>
0.6504

> <Gold.PLP.Chemscore.Hbond>
2.0000

> <Gold.PLP.Chemscore.CHOScore>
0.0000

> <Gold.PLP.Chemscore.Metal>
0.0000

> <Gold.Chemscore.Hbonds>
donor molecule, donor type, donor heavy atom, donor atom, acceptor molecule, acceptor atom, score
      L1  H     6    41       P1  8028  2.00

> <Gold.PLP.Chemscore.Internal.Correction>
0.0328

> <Gold.Rescore>
     Score         DG    S(hbond)    S(metal)    S(lipo)     H(rot)  DE(clash)    DE(int)     intcor
     18.17     -18.89       0.99        0.00     116.04       1.36       0.13       0.58       ----

> <Gold.Chemscore.Fitness>
18.1724

> <Gold.Chemscore.DG>
-18.8897

> <Gold.Chemscore.ZeroCoef>
-5.4800

> <Gold.Chemscore.Hbond>
0.9914

> <Gold.Chemscore.Metal>
0.0000

> <Gold.Chemscore.Lipo>
116.0426

> <Gold.Chemscore.Internal_Hbond>
0.0000

> <Gold.Chemscore.DEClash>
0.1341

> <Gold.Chemscore.DEInternal>
0.5832

> <Gold.Chemscore.Rot>
1.3588

> <Gold.Chemscore.Internal.Correction>
   9.000000E+99

> <Gold.Chemscore.Hbonds>
donor molecule, donor type, donor heavy atom, donor atom, acceptor molecule, acceptor atom, score
      L1  H     6    41       P1  8028  0.98

> <Gold.Chemscore.Hbond.Weighted>
-3.3113

> <Gold.Chemscore.Metal.Weighted>
-0.0000

> <Gold.Chemscore.Lipo.Weighted>
-13.5770

> <Gold.Chemscore.Internal_Hbond.Weighted>
0.0000

> <Gold.Chemscore.DEClash.Weighted>
0.1341

> <Gold.Chemscore.DEInternal.Weighted>
0.5832

> <Gold.Chemscore.Rot.Weighted>
3.4786

> <Gold.Chemscore.Internal.Correction.Weighted>
   9.000000E+99

> <Gold.Protein.RotatedTorsions>
[ 6907 6896 6895 6894 ] final   28.65 input  -60.11 | X-H torsion
[ 7974 7965 7964 7962 ] final  -39.20 input  175.53 | X-H torsion
[ 8008 7997 7996 7995 ] final  -38.49 input   59.86 | X-H torsion
[ 10167 10162 10161 10158 ] final  101.25 input  -65.29 | X-H torsion
[ 10718 10713 10712 10709 ] final  151.25 input   66.30 | X-H torsion
[ 10763 10752 10751 10750 ] final  -12.43 input  -60.55 | X-H torsion
[ 11005 11000 10999 10996 ] final  179.84 input  -57.11 | X-H torsion

> <Gold.Protein.ActiveResidues>
 VAL166  LYS551  ARG553  GLY616  TRP617  ASP618  TYR619  PRO620  LYS621  CYS622 
 ASP623  PHE694  ASN695  SER759  ASP760  ASP761  ALA762  ILE779  LEU786  VAL792 
 PHE793  MET794  SER795  GLU796  ALA797  LYS798  CYS799  TRP800  GLU811  SER814 

> <Gold.Protein.RotatedAtoms>
  152.0201  134.9828  160.0570 H   0  0  0  0  0  0  0  0  0  0  0  0  # atno 6907 bound_to 6896
  152.1346  133.4423  159.4745 H   0  0  0  0  0  0  0  0  0  0  0  0  # atno 6908 bound_to 6896
  150.6859  134.2298  159.4473 H   0  0  0  0  0  0  0  0  0  0  0  0  # atno 6909 bound_to 6896
  146.0418  140.6599  142.9083 H   0  0  0  0  0  0  0  0  0  0  0  0  # atno 7974 bound_to 7965
  154.4036  140.1576  156.2709 H   0  0  0  0  0  0  0  0  0  0  0  0  # atno 8008 bound_to 7997
  155.8954  140.3436  155.5965 H   0  0  0  0  0  0  0  0  0  0  0  0  # atno 8009 bound_to 7997
  155.7510  140.0805  157.2192 H   0  0  0  0  0  0  0  0  0  0  0  0  # atno 8010 bound_to 7997
  139.7455  144.6999  151.0511 H   0  0  0  0  0  0  0  0  0  0  0  0  # atno 10167 bound_to 10162
  157.2730  131.0821  151.1586 H   0  0  0  0  0  0  0  0  0  0  0  0  # atno 10718 bound_to 10713
  153.4984  135.7017  153.5845 H   0  0  0  0  0  0  0  0  0  0  0  0  # atno 10763 bound_to 10752
  153.3988  135.3877  155.1973 H   0  0  0  0  0  0  0  0  0  0  0  0  # atno 10764 bound_to 10752
  154.8712  135.3876  154.4451 H   0  0  0  0  0  0  0  0  0  0  0  0  # atno 10765 bound_to 10752
  140.4106  134.6695  157.4612 H   0  0  0  0  0  0  0  0  0  0  0  0  # atno 11005 bound_to 11000
  144.7078  140.3921  143.7104 LP  0  0  0  0  0  0  0  0  0  0  0  0  # atno 17320 bound_to 7965
  145.6872  139.1631  143.2667 LP  0  0  0  0  0  0  0  0  0  0  0  0  # atno 17321 bound_to 7965
  140.7791  143.4872  150.9940 LP  0  0  0  0  0  0  0  0  0  0  0  0  # atno 17342 bound_to 10162
  139.8561  143.7375  152.3176 LP  0  0  0  0  0  0  0  0  0  0  0  0  # atno 17343 bound_to 10162
  157.3050  130.6861  149.6184 LP  0  0  0  0  0  0  0  0  0  0  0  0  # atno 17370 bound_to 10713
  155.9663  130.4381  150.5201 LP  0  0  0  0  0  0  0  0  0  0  0  0  # atno 17371 bound_to 10713
  140.0270  134.6462  155.9159 LP  0  0  0  0  0  0  0  0  0  0  0  0  # atno 17394 bound_to 11000
  141.1822  133.6548  156.5069 LP  0  0  0  0  0  0  0  0  0  0  0  0  # atno 17395 bound_to 11000

$$$$
