AV-unprocessed.smi:3134|AV-procd|sdf|11943|dock7
  -GOLD-   2272017333D 1   1.00000     0.00000
 Structure written by MMmdl.
 36 36  0  0  0  0  0  0  0  0  1 V2000
  153.2191  139.0480  154.5096 C   0  0  0  0  0  0  0  0  0  0  0  0
  152.3293  138.4807  155.6233 C   0  0  0  0  0  0  0  0  0  0  0  0
  151.5752  137.2231  155.1628 C   0  0  0  0  0  0  0  0  0  0  0  0
  151.3856  139.5052  156.0587 N   0  0  0  0  0  0  0  0  0  0  0  0
  150.4928  140.1279  155.2727 C   0  0  0  0  0  0  0  0  0  0  0  0
  150.3658  139.8891  154.0713 O   0  0  0  0  0  0  0  0  0  0  0  0
  149.6355  141.2164  155.9407 C   0  0  2  0  0  0  0  0  0  0  0  0
  148.5896  141.7682  154.9581 C   0  0  0  0  0  0  0  0  0  0  0  0
  150.4300  142.3270  156.4967 N   0  0  0  0  0  0  0  0  0  0  0  0
  151.0478  142.0422  157.7872 C   0  0  0  0  0  0  0  0  0  0  0  0
  151.6191  143.3401  158.3752 C   0  0  0  0  0  0  0  0  0  0  0  0
  152.2147  143.1192  159.6788 N   0  0  0  0  0  0  0  0  0  0  0  0
  151.9009  143.7232  160.8781 C   0  0  0  0  0  0  0  0  0  0  0  0
  152.7268  143.1933  161.8276 C   0  0  0  0  0  0  0  0  0  0  0  0
  153.5213  142.2617  161.1027 C   0  0  0  0  0  0  0  0  0  0  0  0
  153.2129  142.2199  159.8165 N   0  0  0  0  0  0  0  0  0  0  0  0
  153.9515  138.3106  154.1802 H   0  0  0  0  0  0  0  0  0  0  0  0
  153.7679  139.9252  154.8538 H   0  0  0  0  0  0  0  0  0  0  0  0
  152.6298  139.3427  153.6406 H   0  0  0  0  0  0  0  0  0  0  0  0
  152.9760  138.2121  156.4605 H   0  0  0  0  0  0  0  0  0  0  0  0
  152.2695  136.4471  154.8398 H   0  0  0  0  0  0  0  0  0  0  0  0
  150.9095  137.4428  154.3274 H   0  0  0  0  0  0  0  0  0  0  0  0
  150.9705  136.8063  155.9690 H   0  0  0  0  0  0  0  0  0  0  0  0
  151.4248  139.7751  157.0308 H   0  0  0  0  0  0  0  0  0  0  0  0
  149.0898  140.7542  156.7656 H   0  0  0  0  0  0  0  0  0  0  0  0
  147.9767  140.9684  154.5406 H   0  0  0  0  0  0  0  0  0  0  0  0
  149.0568  142.2982  154.1269 H   0  0  0  0  0  0  0  0  0  0  0  0
  147.9167  142.4665  155.4568 H   0  0  0  0  0  0  0  0  0  0  0  0
  151.1335  142.6430  155.8443 H   0  0  0  0  0  0  0  0  0  0  0  0
  150.3058  141.6205  158.4669 H   0  0  0  0  0  0  0  0  0  0  0  0
  151.8483  141.3096  157.6759 H   0  0  0  0  0  0  0  0  0  0  0  0
  152.3776  143.7620  157.7138 H   0  0  0  0  0  0  0  0  0  0  0  0
  150.8339  144.0905  158.4767 H   0  0  0  0  0  0  0  0  0  0  0  0
  151.1246  144.4703  160.9548 H   0  0  0  0  0  0  0  0  0  0  0  0
  152.7589  143.4346  162.8796 H   0  0  0  0  0  0  0  0  0  0  0  0
  154.3079  141.6192  161.4701 H   0  0  0  0  0  0  0  0  0  0  0  0
  1  2  1  0  0  0  0
  1 17  1  0  0  0  0
  1 18  1  0  0  0  0
  1 19  1  0  0  0  0
  2  3  1  0  0  0  0
  2  4  1  0  0  0  0
  2 20  1  0  0  0  0
  3 21  1  0  0  0  0
  3 22  1  0  0  0  0
  3 23  1  0  0  0  0
  4  5  1  0  0  0  0
  4 24  1  0  0  0  0
  5  6  2  0  0  0  0
  5  7  1  0  0  0  0
  7  8  1  0  0  0  0
  7  9  1  0  0  0  0
  7 25  1  0  0  0  0
  8 26  1  0  0  0  0
  8 27  1  0  0  0  0
  8 28  1  0  0  0  0
  9 10  1  0  0  0  0
  9 29  1  0  0  0  0
 10 11  1  0  0  0  0
 10 30  1  0  0  0  0
 10 31  1  0  0  0  0
 11 12  1  0  0  0  0
 11 32  1  0  0  0  0
 11 33  1  0  0  0  0
 12 16  1  0  0  0  0
 12 13  1  0  0  0  0
 13 14  2  0  0  0  0
 13 34  1  0  0  0  0
 14 15  1  0  0  0  0
 14 35  1  0  0  0  0
 15 16  2  0  0  0  0
 15 36  1  0  0  0  0
M  END
> <s_m_source_file>
AV-unprocessed.smi

> <i_m_source_file_index>
3134

> <i_lp_mmshare_version>
43012

> <i_f3d_flags>
0

> <s_epik_input>
W0NIM11bQ0hdKFtDSDNdKVtOSF1DKD1PKVtDQEhdKFtDSDNdKVtOSF1bQ0gyXVtDSDJdbjFbY0hdW2NIXVtjSF1uMQ==

> <s_epik_cmdline>
J2VwaWtfcHl0aG9uJywgJy1waCcsICc3LjAnLCAnLXRuJywgJzgnLCAnLW1hJywgJzIwMCcsICctbWV0YWxfYmluZGluZycsICctaW1hZScsICc8aW5maWxlLm1hZT4nLCAnLW9tYWUnLCAnPG91dGZpbGUubWFlPic=

> <r_lp_tautomer_probability>
1

> <r_epik_Ionization_Penalty>
0.731872

> <r_epik_Ionization_Penalty_Charging>
0

> <r_epik_Ionization_Penalty_Neutral>
0.731872

> <r_epik_State_Penalty>
0.75611

> <r_epik_Charging_Adjusted_Penalty>
0.75611

> <i_epik_Tot_Q>
0

> <i_epik_Tot_abs_Q>
0

> <r_epik_Metal_State_Penalty>
0.755373

> <b_epik_Metal_Only>
0

> <s_lp_Force_Field>
OPLS_2005

> <r_lp_Energy>
3.66061

> <b_lp_Chiralities_Consistent>
1

> <s_lp_Variant>
AV-unprocessed.smi:3134-3

> <Gold.Version>
5.8.1

> <Gold.Id.Protein>
6NUR|6NUR_protein|mol2

> <Gold.PLP.Fitness>
39.6454

> <Gold.PLP.PLP>
-37.1806

> <Gold.PLP.part.hbond>
-2.0000

> <Gold.PLP.part.metal>
0.0000

> <Gold.PLP.part.buried>
-3.3206

> <Gold.PLP.part.nonpolar>
-32.7309

> <Gold.PLP.part.repulsive>
0.8746

> <Gold.PLP.ligand.clash>
0.0000

> <Gold.PLP.ligand.torsion>
0.2937

> <Gold.PLP.Chemscore.Hbond>
1.0000

> <Gold.PLP.Chemscore.CHOScore>
0.0000

> <Gold.PLP.Chemscore.Metal>
0.0000

> <Gold.Chemscore.Hbonds>
donor molecule, donor type, donor heavy atom, donor atom, acceptor molecule, acceptor atom, score
      P1  H  7989  7998       L1     6  0.95

> <Gold.PLP.Chemscore.Internal.Correction>
0.0522

> <Gold.Rescore>
     Score         DG    S(hbond)    S(metal)    S(lipo)     H(rot)  DE(clash)    DE(int)     intcor
     10.11     -11.83       0.40        0.00      87.89       2.05       0.40       1.32       ----

> <Gold.Chemscore.Fitness>
10.1116

> <Gold.Chemscore.DG>
-11.8322

> <Gold.Chemscore.ZeroCoef>
-5.4800

> <Gold.Chemscore.Hbond>
0.3964

> <Gold.Chemscore.Metal>
0.0000

> <Gold.Chemscore.Lipo>
87.8925

> <Gold.Chemscore.Internal_Hbond>
0.0000

> <Gold.Chemscore.DEClash>
0.3995

> <Gold.Chemscore.DEInternal>
1.3211

> <Gold.Chemscore.Rot>
2.0529

> <Gold.Chemscore.Internal.Correction>
   9.000000E+99

> <Gold.Chemscore.Hbonds>
donor molecule, donor type, donor heavy atom, donor atom, acceptor molecule, acceptor atom, score
      P1  H  7989  7998       L1     6  0.21

> <Gold.Chemscore.Hbond.Weighted>
-1.3241

> <Gold.Chemscore.Metal.Weighted>
-0.0000

> <Gold.Chemscore.Lipo.Weighted>
-10.2834

> <Gold.Chemscore.Internal_Hbond.Weighted>
0.0000

> <Gold.Chemscore.DEClash.Weighted>
0.3995

> <Gold.Chemscore.DEInternal.Weighted>
1.3211

> <Gold.Chemscore.Rot.Weighted>
5.2554

> <Gold.Chemscore.Internal.Correction.Weighted>
   9.000000E+99

> <Gold.Protein.RotatedTorsions>
[ 6907 6896 6895 6894 ] final  143.03 input  -60.11 | X-H torsion
[ 7974 7965 7964 7962 ] final    9.62 input  175.53 | X-H torsion
[ 8008 7997 7996 7995 ] final  127.92 input   59.86 | X-H torsion
[ 10167 10162 10161 10158 ] final  -25.43 input  -65.29 | X-H torsion
[ 10718 10713 10712 10709 ] final -135.58 input   66.30 | X-H torsion
[ 10763 10752 10751 10750 ] final -152.76 input  -60.55 | X-H torsion
[ 11005 11000 10999 10996 ] final  123.18 input  -57.11 | X-H torsion

> <Gold.Protein.ActiveResidues>
 VAL166  LYS551  ARG553  GLY616  TRP617  ASP618  TYR619  PRO620  LYS621  CYS622 
 ASP623  PHE694  ASN695  SER759  ASP760  ASP761  ALA762  ILE779  LEU786  VAL792 
 PHE793  MET794  SER795  GLU796  ALA797  LYS798  CYS799  TRP800  GLU811  SER814 

> <Gold.Protein.RotatedAtoms>
  152.2114  133.4914  159.5111 H   0  0  0  0  0  0  0  0  0  0  0  0  # atno 6907 bound_to 6896
  150.6991  134.1463  159.4132 H   0  0  0  0  0  0  0  0  0  0  0  0  # atno 6908 bound_to 6896
  151.9382  135.0225  160.0584 H   0  0  0  0  0  0  0  0  0  0  0  0  # atno 6909 bound_to 6896
  146.2401  139.9756  142.8442 H   0  0  0  0  0  0  0  0  0  0  0  0  # atno 7974 bound_to 7965
  156.2902  140.2657  156.2351 H   0  0  0  0  0  0  0  0  0  0  0  0  # atno 8008 bound_to 7997
  155.0033  140.0387  157.2387 H   0  0  0  0  0  0  0  0  0  0  0  0  # atno 8009 bound_to 7997
  154.7582  140.2756  155.6241 H   0  0  0  0  0  0  0  0  0  0  0  0  # atno 8010 bound_to 7997
  140.7286  143.4265  151.0868 H   0  0  0  0  0  0  0  0  0  0  0  0  # atno 10167 bound_to 10162
  156.2677  130.7247  151.1203 H   0  0  0  0  0  0  0  0  0  0  0  0  # atno 10718 bound_to 10713
  154.7973  135.3228  154.7636 H   0  0  0  0  0  0  0  0  0  0  0  0  # atno 10763 bound_to 10752
  153.8312  135.6879  153.4818 H   0  0  0  0  0  0  0  0  0  0  0  0  # atno 10764 bound_to 10752
  153.1670  135.4638  154.9793 H   0  0  0  0  0  0  0  0  0  0  0  0  # atno 10765 bound_to 10752
  139.9301  134.9641  156.8221 H   0  0  0  0  0  0  0  0  0  0  0  0  # atno 11005 bound_to 11000
  145.1640  140.9687  143.4361 LP  0  0  0  0  0  0  0  0  0  0  0  0  # atno 17320 bound_to 7965
  145.0090  139.3527  143.6129 LP  0  0  0  0  0  0  0  0  0  0  0  0  # atno 17321 bound_to 7965
  139.7917  143.8209  152.3152 LP  0  0  0  0  0  0  0  0  0  0  0  0  # atno 17342 bound_to 10162
  139.8195  144.7302  150.9591 LP  0  0  0  0  0  0  0  0  0  0  0  0  # atno 17343 bound_to 10162
  157.7273  131.0640  150.5871 LP  0  0  0  0  0  0  0  0  0  0  0  0  # atno 17370 bound_to 10713
  156.5964  130.4343  149.5915 LP  0  0  0  0  0  0  0  0  0  0  0  0  # atno 17371 bound_to 10713
  140.6226  133.9980  155.7625 LP  0  0  0  0  0  0  0  0  0  0  0  0  # atno 17394 bound_to 11000
  141.0884  133.9954  157.3276 LP  0  0  0  0  0  0  0  0  0  0  0  0  # atno 17395 bound_to 11000

$$$$
