AV-unprocessed.smi:1475|AV-procd|sdf|5979|dock6
  -GOLD-   22720 6 73D 1   1.00000     0.00000
 Structure written by MMmdl.
 50 51  0  0  0  0  0  0  0  0  2 V2000
  136.0393  136.5215  155.5656 C   0  0  0  0  0  0  0  0  0  0  0  0
  137.0926  137.4525  155.0412 C   0  0  0  0  0  0  0  0  0  0  0  0
  137.1461  138.8707  155.1439 C   0  0  0  0  0  0  0  0  0  0  0  0
  138.3028  139.2128  154.5020 C   0  0  0  0  0  0  0  0  0  0  0  0
  138.9125  140.5567  154.2713 C   0  0  0  0  0  0  0  0  0  0  0  0
  138.8771  138.0354  154.0546 N   0  0  0  0  0  0  0  0  0  0  0  0
  140.1119  137.8376  153.3061 C   0  0  0  0  0  0  0  0  0  0  0  0
  140.9317  136.6516  153.8282 C   0  0  0  0  0  0  0  0  0  0  0  0
  140.5334  136.0150  154.8029 O   0  0  0  0  0  0  0  0  0  0  0  0
  142.0782  136.3692  153.1906 N   0  0  0  0  0  0  0  0  0  0  0  0
  142.9685  135.2718  153.5382 C   0  0  0  0  0  0  0  0  0  0  0  0
  143.3225  134.4560  152.2847 C   0  0  0  0  0  0  0  0  0  0  0  0
  144.2367  133.3213  152.5843 N   0  3  1  0  0  0  0  0  0  0  0  0
  144.4595  132.4188  151.4242 C   0  0  0  0  0  0  0  0  0  0  0  0
  145.4108  133.0387  150.3791 C   0  0  2  0  0  0  0  0  0  0  0  0
  145.6262  132.0940  149.1881 C   0  0  0  0  0  0  0  0  0  0  0  0
  146.7466  133.4181  151.0421 C   0  0  0  0  0  0  0  0  0  0  0  0
  146.5199  134.3437  152.2504 C   0  0  2  0  0  0  0  0  0  0  0  0
  147.8447  134.6888  152.9451 C   0  0  0  0  0  0  0  0  0  0  0  0
  145.5190  133.7032  153.2375 C   0  0  0  0  0  0  0  0  0  0  0  0
  138.1308  136.9592  154.3868 N   0  0  0  0  0  0  0  0  0  0  0  0
  135.3806  137.0294  156.2701 H   0  0  0  0  0  0  0  0  0  0  0  0
  136.4847  135.6713  156.0834 H   0  0  0  0  0  0  0  0  0  0  0  0
  135.4229  136.1326  154.7550 H   0  0  0  0  0  0  0  0  0  0  0  0
  136.4409  139.5368  155.6188 H   0  0  0  0  0  0  0  0  0  0  0  0
  138.2764  141.3463  154.6719 H   0  0  0  0  0  0  0  0  0  0  0  0
  139.0502  140.7454  153.2065 H   0  0  0  0  0  0  0  0  0  0  0  0
  139.8845  140.6312  154.7590 H   0  0  0  0  0  0  0  0  0  0  0  0
  139.8782  137.6793  152.2534 H   0  0  0  0  0  0  0  0  0  0  0  0
  140.7061  138.7511  153.3625 H   0  0  0  0  0  0  0  0  0  0  0  0
  142.3354  136.9425  152.4001 H   0  0  0  0  0  0  0  0  0  0  0  0
  143.8602  135.6913  154.0036 H   0  0  0  0  0  0  0  0  0  0  0  0
  142.4882  134.6277  154.2769 H   0  0  0  0  0  0  0  0  0  0  0  0
  142.3932  134.0606  151.8717 H   0  0  0  0  0  0  0  0  0  0  0  0
  143.7445  135.1013  151.5145 H   0  0  0  0  0  0  0  0  0  0  0  0
  144.8832  131.4845  151.7955 H   0  0  0  0  0  0  0  0  0  0  0  0
  143.5045  132.1545  150.9681 H   0  0  0  0  0  0  0  0  0  0  0  0
  144.9526  133.9489  149.9897 H   0  0  0  0  0  0  0  0  0  0  0  0
  146.0936  131.1598  149.5012 H   0  0  0  0  0  0  0  0  0  0  0  0
  146.2691  132.5515  148.4356 H   0  0  0  0  0  0  0  0  0  0  0  0
  144.6799  131.8477  148.7056 H   0  0  0  0  0  0  0  0  0  0  0  0
  147.2674  132.5147  151.3636 H   0  0  0  0  0  0  0  0  0  0  0  0
  147.3966  133.9079  150.3159 H   0  0  0  0  0  0  0  0  0  0  0  0
  146.1004  135.2810  151.8848 H   0  0  0  0  0  0  0  0  0  0  0  0
  148.3289  133.7971  153.3445 H   0  0  0  0  0  0  0  0  0  0  0  0
  147.6847  135.3802  153.7730 H   0  0  0  0  0  0  0  0  0  0  0  0
  148.5401  135.1621  152.2513 H   0  0  0  0  0  0  0  0  0  0  0  0
  145.3392  134.3668  154.0823 H   0  0  0  0  0  0  0  0  0  0  0  0
  145.9594  132.7994  153.6609 H   0  0  0  0  0  0  0  0  0  0  0  0
  143.7366  132.7624  153.2611 H   0  0  0  0  0  0  0  0  0  0  0  0
  1  2  1  0  0  0  0
  1 22  1  0  0  0  0
  1 23  1  0  0  0  0
  1 24  1  0  0  0  0
  2 21  2  0  0  0  0
  2  3  1  0  0  0  0
  3  4  2  0  0  0  0
  3 25  1  0  0  0  0
  4  5  1  0  0  0  0
  4  6  1  0  0  0  0
  5 26  1  0  0  0  0
  5 27  1  0  0  0  0
  5 28  1  0  0  0  0
  6  7  1  0  0  0  0
  6 21  1  0  0  0  0
  7  8  1  0  0  0  0
  7 29  1  0  0  0  0
  7 30  1  0  0  0  0
  8  9  2  0  0  0  0
  8 10  1  0  0  0  0
 10 11  1  0  0  0  0
 10 31  1  0  0  0  0
 11 12  1  0  0  0  0
 11 32  1  0  0  0  0
 11 33  1  0  0  0  0
 12 13  1  0  0  0  0
 12 34  1  0  0  0  0
 12 35  1  0  0  0  0
 13 20  1  0  0  0  0
 13 14  1  0  0  0  0
 13 50  1  0  0  0  0
 14 15  1  0  0  0  0
 14 36  1  0  0  0  0
 14 37  1  0  0  0  0
 15 16  1  0  0  0  0
 15 17  1  0  0  0  0
 15 38  1  0  0  0  0
 16 39  1  0  0  0  0
 16 40  1  0  0  0  0
 16 41  1  0  0  0  0
 17 18  1  0  0  0  0
 17 42  1  0  0  0  0
 17 43  1  0  0  0  0
 18 19  1  0  0  0  0
 18 20  1  0  0  0  0
 18 44  1  0  0  0  0
 19 45  1  0  0  0  0
 19 46  1  0  0  0  0
 19 47  1  0  0  0  0
 20 48  1  0  0  0  0
 20 49  1  0  0  0  0
M  CHG  1  13   1
M  END
> <s_m_source_file>
AV-unprocessed.smi

> <i_m_source_file_index>
1475

> <i_lp_mmshare_version>
43012

> <i_f3d_flags>
0

> <s_epik_input>
W0NIM11jMVtjSF1jKFtDSDNdKW4objEpW0NIMl1DKD1PKVtOSF1bQ0gyXVtDSDJdTjJbQ0gyXVtDQEBIXShbQ0gzXSlbQ0gyXVtDQEBIXShbQ0gzXSlbQ0gyXTI=

> <s_epik_cmdline>
J2VwaWtfcHl0aG9uJywgJy1waCcsICc3LjAnLCAnLXRuJywgJzgnLCAnLW1hJywgJzIwMCcsICctbWV0YWxfYmluZGluZycsICctaW1hZScsICc8aW5maWxlLm1hZT4nLCAnLW9tYWUnLCAnPG91dGZpbGUubWFlPic=

> <r_lp_tautomer_probability>
1

> <r_epik_Ionization_Penalty>
0.00206431

> <r_epik_Ionization_Penalty_Charging>
0.00187095

> <r_epik_Ionization_Penalty_Neutral>
0.000193364

> <r_epik_State_Penalty>
-0

> <r_epik_Charging_Adjusted_Penalty>
0.00187095

> <i_epik_Tot_Q>
1

> <i_epik_Tot_abs_Q>
1

> <r_epik_Metal_State_Penalty>
-0

> <b_epik_Metal_Only>
0

> <s_lp_Force_Field>
OPLS_2005

> <r_lp_Energy>
18.0361

> <b_lp_Chiralities_Consistent>
1

> <s_lp_Variant>
AV-unprocessed.smi:1475-4

> <Gold.Version>
5.8.1

> <Gold.Id.Protein>
6NUR|6NUR_protein|mol2

> <Gold.PLP.Fitness>
44.3658

> <Gold.PLP.PLP>
-36.0864

> <Gold.PLP.part.hbond>
-2.0000

> <Gold.PLP.part.metal>
0.0000

> <Gold.PLP.part.buried>
-4.8976

> <Gold.PLP.part.nonpolar>
-29.5262

> <Gold.PLP.part.repulsive>
0.1522

> <Gold.PLP.ligand.clash>
0.0000

> <Gold.PLP.ligand.torsion>
0.3001

> <Gold.PLP.Chemscore.Hbond>
2.9425

> <Gold.PLP.Chemscore.CHOScore>
0.0000

> <Gold.PLP.Chemscore.Metal>
0.0000

> <Gold.Chemscore.Hbonds>
donor molecule, donor type, donor heavy atom, donor atom, acceptor molecule, acceptor atom, score
      L1  H    13    50       P1 10957  1.66
      P1  H 11000 11005       L1     9  0.86

> <Gold.PLP.Chemscore.Internal.Correction>
0.0521

> <Gold.Rescore>
     Score         DG    S(hbond)    S(metal)    S(lipo)     H(rot)  DE(clash)    DE(int)     intcor
     15.41     -16.91       1.81        0.00      81.96       1.64       0.03       1.46       ----

> <Gold.Chemscore.Fitness>
15.4123

> <Gold.Chemscore.DG>
-16.9104

> <Gold.Chemscore.ZeroCoef>
-5.4800

> <Gold.Chemscore.Hbond>
1.8081

> <Gold.Chemscore.Metal>
0.0000

> <Gold.Chemscore.Lipo>
81.9630

> <Gold.Chemscore.Internal_Hbond>
0.0000

> <Gold.Chemscore.DEClash>
0.0338

> <Gold.Chemscore.DEInternal>
1.4643

> <Gold.Chemscore.Rot>
1.6399

> <Gold.Chemscore.Internal.Correction>
   9.000000E+99

> <Gold.Chemscore.Hbonds>
donor molecule, donor type, donor heavy atom, donor atom, acceptor molecule, acceptor atom, score
      L1  H    13    50       P1 10957  0.36
      P1  H 11000 11005       L1     9  0.85

> <Gold.Chemscore.Hbond.Weighted>
-6.0389

> <Gold.Chemscore.Metal.Weighted>
-0.0000

> <Gold.Chemscore.Lipo.Weighted>
-9.5897

> <Gold.Chemscore.Internal_Hbond.Weighted>
0.0000

> <Gold.Chemscore.DEClash.Weighted>
0.0338

> <Gold.Chemscore.DEInternal.Weighted>
1.4643

> <Gold.Chemscore.Rot.Weighted>
4.1982

> <Gold.Chemscore.Internal.Correction.Weighted>
   9.000000E+99

> <Gold.Protein.RotatedTorsions>
[ 6907 6896 6895 6894 ] final  149.55 input  -60.11 | X-H torsion
[ 7974 7965 7964 7962 ] final   81.59 input  175.53 | X-H torsion
[ 8008 7997 7996 7995 ] final -160.81 input   59.86 | X-H torsion
[ 10167 10162 10161 10158 ] final  -44.18 input  -65.29 | X-H torsion
[ 10718 10713 10712 10709 ] final  -35.54 input   66.30 | X-H torsion
[ 10763 10752 10751 10750 ] final   39.49 input  -60.55 | X-H torsion
[ 11005 11000 10999 10996 ] final   59.79 input  -57.11 | X-H torsion

> <Gold.Protein.ActiveResidues>
 VAL166  LYS551  ARG553  GLY616  TRP617  ASP618  TYR619  PRO620  LYS621  CYS622 
 ASP623  PHE694  ASN695  SER759  ASP760  ASP761  ALA762  ILE779  LEU786  VAL792 
 PHE793  MET794  SER795  GLU796  ALA797  LYS798  CYS799  TRP800  GLU811  SER814 

> <Gold.Protein.RotatedAtoms>
  152.1265  133.4383  159.4699 H   0  0  0  0  0  0  0  0  0  0  0  0  # atno 6907 bound_to 6896
  150.6875  134.2472  159.4505 H   0  0  0  0  0  0  0  0  0  0  0  0  # atno 6908 bound_to 6896
  152.0353  134.9743  160.0624 H   0  0  0  0  0  0  0  0  0  0  0  0  # atno 6909 bound_to 6896
  145.6361  139.2415  143.2057 H   0  0  0  0  0  0  0  0  0  0  0  0  # atno 7974 bound_to 7965
  155.7830  140.0867  157.2049 H   0  0  0  0  0  0  0  0  0  0  0  0  # atno 8008 bound_to 7997
  154.3989  140.1504  156.3132 H   0  0  0  0  0  0  0  0  0  0  0  0  # atno 8009 bound_to 7997
  155.8635  140.3429  155.5775 H   0  0  0  0  0  0  0  0  0  0  0  0  # atno 8010 bound_to 7997
  140.6906  143.2944  151.3458 H   0  0  0  0  0  0  0  0  0  0  0  0  # atno 10167 bound_to 10162
  156.3374  130.4288  149.7817 H   0  0  0  0  0  0  0  0  0  0  0  0  # atno 10718 bound_to 10713
  152.9965  135.6219  154.2474 H   0  0  0  0  0  0  0  0  0  0  0  0  # atno 10763 bound_to 10752
  154.2213  135.2796  155.2925 H   0  0  0  0  0  0  0  0  0  0  0  0  # atno 10764 bound_to 10752
  154.5526  135.5729  153.6994 H   0  0  0  0  0  0  0  0  0  0  0  0  # atno 10765 bound_to 10752
  140.0278  134.6056  155.9548 H   0  0  0  0  0  0  0  0  0  0  0  0  # atno 11005 bound_to 11000
  146.1318  140.7175  142.9408 LP  0  0  0  0  0  0  0  0  0  0  0  0  # atno 17320 bound_to 7965
  144.7175  140.4260  143.7033 LP  0  0  0  0  0  0  0  0  0  0  0  0  # atno 17321 bound_to 7965
  139.6306  144.0728  152.2473 LP  0  0  0  0  0  0  0  0  0  0  0  0  # atno 17342 bound_to 10162
  140.0202  144.6159  150.7573 LP  0  0  0  0  0  0  0  0  0  0  0  0  # atno 17343 bound_to 10162
  156.5067  130.8153  151.3153 LP  0  0  0  0  0  0  0  0  0  0  0  0  # atno 17370 bound_to 10713
  157.7441  130.9927  150.2646 LP  0  0  0  0  0  0  0  0  0  0  0  0  # atno 17371 bound_to 10713
  141.1813  133.6547  156.5033 LP  0  0  0  0  0  0  0  0  0  0  0  0  # atno 17394 bound_to 11000
  140.4276  134.7131  157.4924 LP  0  0  0  0  0  0  0  0  0  0  0  0  # atno 17395 bound_to 11000

$$$$
