#       Name:                AV-unprocessed.smi:1834
#       Creating user name   scv26
#       Creation time:       Fri Mar 27 09:16:47 2020


#       File generated by GOLD software.
#

@<TRIPOS>MOLECULE
AV-unprocessed.smi:1834
    49    50     1
SMALL
NO_CHARGES


@<TRIPOS>ATOM
      1 ****        -0.5065   3.1642   1.6830 C.3            1 S1                 0.0000
      2 ****        -1.9889   2.7694   1.6070 C.3            1 S1                 0.0000
      3 ****        -2.3701   2.2280   0.2777 N.4            1 S1                 1.0000
      4 ****        -3.8332   2.3148   0.0392 C.3            1 S1                 0.0000
      5 ****        -4.1845   1.8808  -1.3912 C.3            1 S1                 0.0000
      6 ****        -3.6757   0.4620  -1.6708 C.3            1 S1                 0.0000
      7 ****        -2.1638   0.3640  -1.3993 C.3            1 S1                 0.0000
      8 ****        -1.6605  -1.0711  -1.6709 C.3            1 S1                 0.0000
      9 ****        -0.2063  -1.1882  -1.5946 N.am           1 S1                 0.0000
     10 ****         0.4856  -1.5998  -0.5217 C.2            1 S1                 0.0000
     11 ****        -0.0435  -1.9084   0.5464 O.2            1 S1                 0.0000
     12 ****         1.8064  -1.6144  -0.7713 N.am           1 S1                 0.0000
     13 ****         2.8264  -1.9244   0.0725 C.2            1 S1                 0.0000
     14 ****         2.7712  -2.3172   1.3821 C.2            1 S1                 0.0000
     15 ****         4.1460  -2.4897   1.7159 C.2            1 S1                 0.0000
     16 ****         4.7311  -2.9167   3.0295 C.3            1 S1                 0.0000
     17 ****         4.9576  -2.2239   0.6985 N.2            1 S1                 0.0000
     18 ****         4.1449  -1.8729  -0.3213 N.pl3          1 S1                 0.0000
     19 ****         4.7091  -1.5153  -1.6082 C.3            1 S1                 0.0000
     20 ****        -1.8560   0.8530   0.0359 C.3            1 S1                 0.0000
     21 ****        -0.2900   3.6511   2.6341 H              1 S1                 0.0000
     22 ****        -0.2431   3.8628   0.8883 H              1 S1                 0.0000
     23 ****         0.1546   2.3013   1.6078 H              1 S1                 0.0000
     24 ****        -2.2371   2.0512   2.3898 H              1 S1                 0.0000
     25 ****        -2.5787   3.6641   1.8115 H              1 S1                 0.0000
     26 ****        -4.3600   1.6914   0.7637 H              1 S1                 0.0000
     27 ****        -4.1741   3.3393   0.1944 H              1 S1                 0.0000
     28 ****        -5.2639   1.9246  -1.5391 H              1 S1                 0.0000
     29 ****        -3.7453   2.5777  -2.1064 H              1 S1                 0.0000
     30 ****        -4.2135  -0.2496  -1.0426 H              1 S1                 0.0000
     31 ****        -3.8932   0.1905  -2.7044 H              1 S1                 0.0000
     32 ****        -1.6566   1.0316  -2.0981 H              1 S1                 0.0000
     33 ****        -2.1425  -1.7791  -0.9942 H              1 S1                 0.0000
     34 ****        -1.9519  -1.3741  -2.6770 H              1 S1                 0.0000
     35 ****         0.3107  -0.9561  -2.4304 H              1 S1                 0.0000
     36 ****         2.0875  -1.3441  -1.7023 H              1 S1                 0.0000
     37 ****         1.9077  -2.4634   2.0131 H              1 S1                 0.0000
     38 ****         3.9496  -3.1108   3.7644 H              1 S1                 0.0000
     39 ****         5.3851  -2.1455   3.4372 H              1 S1                 0.0000
     40 ****         5.3172  -3.8295   2.9206 H              1 S1                 0.0000
     41 ****         4.2919  -0.5644  -1.9417 H              1 S1                 0.0000
     42 ****         4.4677  -2.2873  -2.3393 H              1 S1                 0.0000
     43 ****         5.7936  -1.4192  -1.5385 H              1 S1                 0.0000
     44 ****        -0.7793   0.8477   0.1930 H              1 S1                 0.0000
     45 ****        -2.2859   0.1678   0.7685 H              1 S1                 0.0000
     46 ****        -1.9381   2.8290  -0.4095 H              1 S1                 0.0000
     47 ****        -1.0374  -1.8584   0.6449 LP             1 S1                 0.0000
     48 ****         0.5206  -2.2091   1.3153 LP             1 S1                 0.0000
     49 ****         5.9563  -2.2732   0.6896 LP             1 S1                 0.0000
@<TRIPOS>BOND
    1    1    2 1     
    2    1   21 1     
    3    1   22 1     
    4    1   23 1     
    5    2    3 1     
    6    2   24 1     
    7    2   25 1     
    8    3   20 1     
    9    3    4 1     
   10    3   46 1     
   11    4    5 1     
   12    4   26 1     
   13    4   27 1     
   14    5    6 1     
   15    5   28 1     
   16    5   29 1     
   17    6    7 1     
   18    6   30 1     
   19    6   31 1     
   20    7    8 1     
   21    7   20 1     
   22    7   32 1     
   23    8    9 1     
   24    8   33 1     
   25    8   34 1     
   26    9   10 am    
   27    9   35 1     
   28   10   11 2     
   29   10   12 am    
   30   12   13 1     
   31   12   36 1     
   32   13   18 1     
   33   13   14 2     
   34   14   15 1     
   35   14   37 1     
   36   15   16 1     
   37   15   17 2     
   38   16   38 1     
   39   16   39 1     
   40   16   40 1     
   41   17   18 1     
   42   18   19 1     
   43   19   41 1     
   44   19   42 1     
   45   19   43 1     
   46   20   44 1     
   47   20   45 1     
   48   11   47 1     
   49   11   48 1     
   50   17   49 1     
@<TRIPOS>SUBSTRUCTURE
      1 S1             1
@<TRIPOS>SET
LONE_PAIRS      STATIC     ATOMS    <user>   **** ""
3 47 48 49
DONOR_HYDROGENS      STATIC     ATOMS    <user>   **** ""
3 46 35 36
ATOM$BLUE        STATIC     ATOMS    COLORGROUP SYSTEM
3 47 48 49
ATOM$RED        STATIC     ATOMS    COLORGROUP SYSTEM
3 46 35 36
