AV-unprocessed.smi:2909|AV-procd|sdf|11173|dock3
  -GOLD-   2272016 63D 1   1.00000     0.00000
 Structure written by MMmdl.
 44 45  0  0  0  0  0  0  0  0  1 V2000
  150.7957  133.3498  155.7779 C   0  0  0  0  0  0  0  0  0  0  0  0
  150.6916  134.8390  155.6271 C   0  0  0  0  0  0  0  0  0  0  0  0
  149.6525  135.5910  155.0040 C   0  0  0  0  0  0  0  0  0  0  0  0
  150.0440  136.8928  155.1481 C   0  0  0  0  0  0  0  0  0  0  0  0
  149.3985  138.1720  154.7219 C   0  0  0  0  0  0  0  0  0  0  0  0
  150.2070  139.3732  155.2107 C   0  0  0  0  0  0  0  0  0  0  0  0
  150.5522  140.2461  154.4145 O   0  0  0  0  0  0  0  0  0  0  0  0
  150.5111  139.3983  156.5181 N   0  0  0  0  0  0  0  0  0  0  0  0
  151.3104  140.4263  157.1773 C   0  0  2  0  0  0  0  0  0  0  0  0
  151.4086  140.1454  158.6860 C   0  0  0  0  0  0  0  0  0  0  0  0
  152.1920  141.2483  159.4146 C   0  0  0  0  0  0  0  0  0  0  0  0
  151.5928  142.6579  159.1853 C   0  0  1  0  0  0  0  0  0  0  0  0
  152.4089  143.7695  159.9092 C   0  0  0  0  0  0  0  0  0  0  0  0
  152.4777  143.5590  161.4345 C   0  0  0  0  0  0  0  0  0  0  0  0
  151.8692  145.1854  159.6286 C   0  0  0  0  0  0  0  0  0  0  0  0
  151.4675  142.9138  157.6628 C   0  0  0  0  0  0  0  0  0  0  0  0
  150.6822  141.8074  156.9405 C   0  0  0  0  0  0  0  0  0  0  0  0
  151.2470  136.8588  155.8169 N   0  0  0  0  0  0  0  0  0  0  0  0
  151.6511  135.6106  156.1160 N   0  0  0  0  0  0  0  0  0  0  0  0
  151.7911  137.6690  156.0775 H   0  0  0  0  0  0  0  0  0  0  0  0
  150.0674  132.8386  155.1479 H   0  0  0  0  0  0  0  0  0  0  0  0
  150.6129  133.0479  156.8093 H   0  0  0  0  0  0  0  0  0  0  0  0
  151.7862  132.9919  155.4956 H   0  0  0  0  0  0  0  0  0  0  0  0
  148.7541  135.2287  154.5271 H   0  0  0  0  0  0  0  0  0  0  0  0
  148.3813  138.2288  155.1115 H   0  0  0  0  0  0  0  0  0  0  0  0
  149.3171  138.2093  153.6347 H   0  0  0  0  0  0  0  0  0  0  0  0
  150.1845  138.6366  157.0951 H   0  0  0  0  0  0  0  0  0  0  0  0
  152.3148  140.4317  156.7492 H   0  0  0  0  0  0  0  0  0  0  0  0
  150.4081  140.0693  159.1145 H   0  0  0  0  0  0  0  0  0  0  0  0
  151.8908  139.1825  158.8584 H   0  0  0  0  0  0  0  0  0  0  0  0
  152.2006  141.0006  160.4751 H   0  0  0  0  0  0  0  0  0  0  0  0
  153.2313  141.2327  159.0841 H   0  0  0  0  0  0  0  0  0  0  0  0
  150.5847  142.6603  159.6030 H   0  0  0  0  0  0  0  0  0  0  0  0
  153.4325  143.7359  159.5334 H   0  0  0  0  0  0  0  0  0  0  0  0
  151.4809  143.4794  161.8696 H   0  0  0  0  0  0  0  0  0  0  0  0
  152.9852  144.3907  161.9240 H   0  0  0  0  0  0  0  0  0  0  0  0
  153.0356  142.6617  161.6996 H   0  0  0  0  0  0  0  0  0  0  0  0
  150.8123  145.2659  159.8844 H   0  0  0  0  0  0  0  0  0  0  0  0
  151.9879  145.4683  158.5832 H   0  0  0  0  0  0  0  0  0  0  0  0
  152.4071  145.9340  160.2109 H   0  0  0  0  0  0  0  0  0  0  0  0
  150.9599  143.8580  157.4707 H   0  0  0  0  0  0  0  0  0  0  0  0
  152.4613  143.0011  157.2216 H   0  0  0  0  0  0  0  0  0  0  0  0
  150.6467  142.0226  155.8718 H   0  0  0  0  0  0  0  0  0  0  0  0
  149.6488  141.8108  157.2909 H   0  0  0  0  0  0  0  0  0  0  0  0
  1 21  1  0  0  0  0
  1 22  1  0  0  0  0
  1 23  1  0  0  0  0
  1  2  1  0  0  0  0
  2 19  2  0  0  0  0
  2  3  1  0  0  0  0
  3  4  2  0  0  0  0
  3 24  1  0  0  0  0
  4 18  1  0  0  0  0
  4  5  1  0  0  0  0
  5  6  1  0  0  0  0
  5 25  1  0  0  0  0
  5 26  1  0  0  0  0
  6  7  2  0  0  0  0
  6  8  1  0  0  0  0
  8  9  1  0  0  0  0
  8 27  1  0  0  0  0
  9 17  1  0  0  0  0
  9 10  1  0  0  0  0
  9 28  1  0  0  0  0
 10 11  1  0  0  0  0
 10 29  1  0  0  0  0
 10 30  1  0  0  0  0
 11 12  1  0  0  0  0
 11 31  1  0  0  0  0
 11 32  1  0  0  0  0
 12 13  1  0  0  0  0
 12 16  1  0  0  0  0
 12 33  1  0  0  0  0
 13 14  1  0  0  0  0
 13 15  1  0  0  0  0
 13 34  1  0  0  0  0
 14 35  1  0  0  0  0
 14 36  1  0  0  0  0
 14 37  1  0  0  0  0
 15 38  1  0  0  0  0
 15 39  1  0  0  0  0
 15 40  1  0  0  0  0
 16 17  1  0  0  0  0
 16 41  1  0  0  0  0
 16 42  1  0  0  0  0
 17 43  1  0  0  0  0
 17 44  1  0  0  0  0
 18 19  1  0  0  0  0
 18 20  1  0  0  0  0
M  END
> <s_m_source_file>
AV-unprocessed.smi

> <i_m_source_file_index>
2909

> <i_lp_mmshare_version>
43012

> <i_f3d_flags>
0

> <s_epik_input>
W0NIM11jMVtjSF1jKG5bbkhdMSlbQ0gyXUMoPU8pW05IXVtDQEBIXTJbQ0gyXVtDSDJdW0NAQEhdKFtDSF0oW0NIM10pW0NIM10pW0NIMl1bQ0gyXTI=

> <s_epik_cmdline>
J2VwaWtfcHl0aG9uJywgJy1waCcsICc3LjAnLCAnLXRuJywgJzgnLCAnLW1hJywgJzIwMCcsICctbWV0YWxfYmluZGluZycsICctaW1hZScsICc8aW5maWxlLm1hZT4nLCAnLW9tYWUnLCAnPG91dGZpbGUubWFlPic=

> <r_lp_tautomer_probability>
0.5

> <r_epik_Ionization_Penalty>
0.00013296

> <r_epik_Ionization_Penalty_Charging>
0

> <r_epik_Ionization_Penalty_Neutral>
0.00013296

> <r_epik_State_Penalty>
0.41068

> <r_epik_Charging_Adjusted_Penalty>
0.41068

> <i_epik_Tot_Q>
0

> <i_epik_Tot_abs_Q>
0

> <r_epik_Metal_State_Penalty>
0.41066

> <b_epik_Metal_Only>
0

> <s_lp_Force_Field>
OPLS_2005

> <r_lp_Energy>
10.7875

> <b_lp_Chiralities_Consistent>
1

> <s_lp_Variant>
AV-unprocessed.smi:2909-3

> <Gold.Version>
5.8.1

> <Gold.Id.Protein>
6NUR|6NUR_protein|mol2

> <Gold.PLP.Fitness>
43.1780

> <Gold.PLP.PLP>
-37.3504

> <Gold.PLP.part.hbond>
-1.9055

> <Gold.PLP.part.metal>
0.0000

> <Gold.PLP.part.buried>
-5.9888

> <Gold.PLP.part.nonpolar>
-30.1027

> <Gold.PLP.part.repulsive>
0.2281

> <Gold.PLP.ligand.clash>
0.0000

> <Gold.PLP.ligand.torsion>
0.0973

> <Gold.PLP.Chemscore.Hbond>
2.0000

> <Gold.PLP.Chemscore.CHOScore>
0.0000

> <Gold.PLP.Chemscore.Metal>
0.0000

> <Gold.Chemscore.Hbonds>
donor molecule, donor type, donor heavy atom, donor atom, acceptor molecule, acceptor atom, score
      P1  H  7989  7998       L1     7  1.00
      P1  H 10752 10763       L1    19  1.00

> <Gold.PLP.Chemscore.Internal.Correction>
0.0222

> <Gold.Rescore>
     Score         DG    S(hbond)    S(metal)    S(lipo)     H(rot)  DE(clash)    DE(int)     intcor
     17.44     -20.25       1.82        0.00     107.24       1.50       0.04       2.77       ----

> <Gold.Chemscore.Fitness>
17.4432

> <Gold.Chemscore.DG>
-20.2522

> <Gold.Chemscore.ZeroCoef>
-5.4800

> <Gold.Chemscore.Hbond>
1.8169

> <Gold.Chemscore.Metal>
0.0000

> <Gold.Chemscore.Lipo>
107.2359

> <Gold.Chemscore.Internal_Hbond>
0.0000

> <Gold.Chemscore.DEClash>
0.0431

> <Gold.Chemscore.DEInternal>
2.7660

> <Gold.Chemscore.Rot>
1.5011

> <Gold.Chemscore.Internal.Correction>
   9.000000E+99

> <Gold.Chemscore.Hbonds>
donor molecule, donor type, donor heavy atom, donor atom, acceptor molecule, acceptor atom, score
      P1  H  7989  7998       L1     7  0.94
      P1  H 10752 10763       L1    19  0.36

> <Gold.Chemscore.Hbond.Weighted>
-6.0685

> <Gold.Chemscore.Metal.Weighted>
-0.0000

> <Gold.Chemscore.Lipo.Weighted>
-12.5466

> <Gold.Chemscore.Internal_Hbond.Weighted>
0.0000

> <Gold.Chemscore.DEClash.Weighted>
0.0431

> <Gold.Chemscore.DEInternal.Weighted>
2.7660

> <Gold.Chemscore.Rot.Weighted>
3.8429

> <Gold.Chemscore.Internal.Correction.Weighted>
   9.000000E+99

> <Gold.Protein.RotatedTorsions>
[ 6907 6896 6895 6894 ] final   64.93 input  -60.11 | X-H torsion
[ 7974 7965 7964 7962 ] final  170.43 input  175.53 | X-H torsion
[ 8008 7997 7996 7995 ] final  139.51 input   59.86 | X-H torsion
[ 10167 10162 10161 10158 ] final  -23.43 input  -65.29 | X-H torsion
[ 10718 10713 10712 10709 ] final -130.39 input   66.30 | X-H torsion
[ 10763 10752 10751 10750 ] final  100.91 input  -60.55 | X-H torsion
[ 11005 11000 10999 10996 ] final -136.09 input  -57.11 | X-H torsion

> <Gold.Protein.ActiveResidues>
 VAL166  LYS551  ARG553  GLY616  TRP617  ASP618  TYR619  PRO620  LYS621  CYS622 
 ASP623  PHE694  ASN695  SER759  ASP760  ASP761  ALA762  ILE779  LEU786  VAL792 
 PHE793  MET794  SER795  GLU796  ALA797  LYS798  CYS799  TRP800  GLU811  SER814 

> <Gold.Protein.RotatedAtoms>
  152.4369  134.5668  159.9909 H   0  0  0  0  0  0  0  0  0  0  0  0  # atno 6907 bound_to 6896
  151.5776  133.3376  159.3010 H   0  0  0  0  0  0  0  0  0  0  0  0  # atno 6908 bound_to 6896
  150.8269  134.7539  159.6885 H   0  0  0  0  0  0  0  0  0  0  0  0  # atno 6909 bound_to 6896
  144.7324  139.9200  143.6419 H   0  0  0  0  0  0  0  0  0  0  0  0  # atno 7974 bound_to 7965
  156.2989  140.2365  156.4249 H   0  0  0  0  0  0  0  0  0  0  0  0  # atno 8008 bound_to 7997
  154.8322  140.0432  157.1505 H   0  0  0  0  0  0  0  0  0  0  0  0  # atno 8009 bound_to 7997
  154.9195  140.3001  155.5227 H   0  0  0  0  0  0  0  0  0  0  0  0  # atno 8010 bound_to 7997
  140.7288  143.4444  151.0609 H   0  0  0  0  0  0  0  0  0  0  0  0  # atno 10167 bound_to 10162
  156.2140  130.6936  151.0682 H   0  0  0  0  0  0  0  0  0  0  0  0  # atno 10718 bound_to 10713
  153.3200  135.4062  155.1408 H   0  0  0  0  0  0  0  0  0  0  0  0  # atno 10763 bound_to 10752
  154.8598  135.3585  154.5610 H   0  0  0  0  0  0  0  0  0  0  0  0  # atno 10764 bound_to 10752
  153.6042  135.7070  153.5431 H   0  0  0  0  0  0  0  0  0  0  0  0  # atno 10765 bound_to 10752
  140.8837  134.1899  157.4574 H   0  0  0  0  0  0  0  0  0  0  0  0  # atno 11005 bound_to 11000
  146.0936  139.3928  143.0390 LP  0  0  0  0  0  0  0  0  0  0  0  0  # atno 17320 bound_to 7965
  145.7676  140.9910  143.1166 LP  0  0  0  0  0  0  0  0  0  0  0  0  # atno 17321 bound_to 7965
  139.8114  143.7945  152.3171 LP  0  0  0  0  0  0  0  0  0  0  0  0  # atno 17342 bound_to 10162
  139.7996  144.7379  150.9843 LP  0  0  0  0  0  0  0  0  0  0  0  0  # atno 17343 bound_to 10162
  157.7053  131.0759  150.6686 LP  0  0  0  0  0  0  0  0  0  0  0  0  # atno 17370 bound_to 10713
  156.6746  130.4549  149.5646 LP  0  0  0  0  0  0  0  0  0  0  0  0  # atno 17371 bound_to 10713
  139.8722  134.9828  156.5173 LP  0  0  0  0  0  0  0  0  0  0  0  0  # atno 17394 bound_to 11000
  140.8430  133.8190  155.9094 LP  0  0  0  0  0  0  0  0  0  0  0  0  # atno 17395 bound_to 11000

$$$$
