AV-unprocessed.smi:1230|AV-procd|sdf|5156|dock8
  -GOLD-   22720 4233D 1   1.00000     0.00000
 Structure written by MMmdl.
 39 40  0  0  0  0  0  0  0  0  1 V2000
  153.6256  140.7496  160.4582 C   0  0  0  0  0  0  0  0  0  0  0  0
  153.1691  141.9188  159.5699 C   0  0  2  0  0  0  0  0  0  0  0  0
  152.7612  143.1294  160.4340 C   0  0  0  0  0  0  0  0  0  0  0  0
  152.2911  144.3119  159.5740 C   0  0  0  0  0  0  0  0  0  0  0  0
  151.1384  143.8961  158.6504 C   0  0  0  0  0  0  0  0  0  0  0  0
  151.5385  142.6998  157.7747 C   0  0  0  0  0  0  0  0  0  0  0  0
  152.0153  141.5049  158.6283 C   0  0  1  0  0  0  0  0  0  0  0  0
  152.4974  140.4720  157.7772 O   0  0  0  0  0  0  0  0  0  0  0  0
  151.5062  139.8758  156.9547 C   0  0  0  0  0  0  0  0  0  0  0  0
  151.5606  140.5403  155.5709 C   0  0  0  0  0  0  0  0  0  0  0  0
  150.3505  140.3515  154.8107 N   0  0  0  0  0  0  0  0  0  0  0  0
  149.4004  141.3506  154.6656 C   0  0  0  0  0  0  0  0  0  0  0  0
  148.2696  141.1868  153.9388 C   0  0  0  0  0  0  0  0  0  0  0  0
  147.3020  142.2240  153.7978 C   0  0  0  0  0  0  0  0  0  0  0  0
  146.5242  143.0760  153.7056 N   0  0  0  0  0  0  0  0  0  0  0  0
  147.9955  139.9225  153.2580 C   0  0  0  0  0  0  0  0  0  0  0  0
  147.0009  139.6745  152.5790 O   0  0  0  0  0  0  0  0  0  0  0  0
  148.9865  138.9502  153.4277 N   0  0  0  0  0  0  0  0  0  0  0  0
  150.1588  139.1042  154.1708 C   0  0  0  0  0  0  0  0  0  0  0  0
  150.9667  138.1780  154.2411 O   0  0  0  0  0  0  0  0  0  0  0  0
  148.8435  138.0610  152.9712 H   0  0  0  0  0  0  0  0  0  0  0  0
  152.8111  140.3886  161.0868 H   0  0  0  0  0  0  0  0  0  0  0  0
  154.4434  141.0508  161.1132 H   0  0  0  0  0  0  0  0  0  0  0  0
  153.9805  139.9101  159.8598 H   0  0  0  0  0  0  0  0  0  0  0  0
  154.0188  142.2188  158.9543 H   0  0  0  0  0  0  0  0  0  0  0  0
  151.9629  142.8407  161.1190 H   0  0  0  0  0  0  0  0  0  0  0  0
  153.6004  143.4436  161.0557 H   0  0  0  0  0  0  0  0  0  0  0  0
  151.9758  145.1356  160.2149 H   0  0  0  0  0  0  0  0  0  0  0  0
  153.1239  144.6850  158.9766 H   0  0  0  0  0  0  0  0  0  0  0  0
  150.2642  143.6361  159.2486 H   0  0  0  0  0  0  0  0  0  0  0  0
  150.8445  144.7363  158.0208 H   0  0  0  0  0  0  0  0  0  0  0  0
  150.6910  142.4143  157.1523 H   0  0  0  0  0  0  0  0  0  0  0  0
  152.3340  143.0007  157.0916 H   0  0  0  0  0  0  0  0  0  0  0  0
  151.1880  141.1372  159.2387 H   0  0  0  0  0  0  0  0  0  0  0  0
  151.6969  138.8057  156.8600 H   0  0  0  0  0  0  0  0  0  0  0  0
  150.5176  139.9961  157.3969 H   0  0  0  0  0  0  0  0  0  0  0  0
  151.7553  141.6136  155.6274 H   0  0  0  0  0  0  0  0  0  0  0  0
  152.3668  140.1145  154.9717 H   0  0  0  0  0  0  0  0  0  0  0  0
  149.5649  142.3036  155.1487 H   0  0  0  0  0  0  0  0  0  0  0  0
  1  2  1  0  0  0  0
  1 22  1  0  0  0  0
  1 23  1  0  0  0  0
  1 24  1  0  0  0  0
  2  7  1  0  0  0  0
  2  3  1  0  0  0  0
  2 25  1  0  0  0  0
  3  4  1  0  0  0  0
  3 26  1  0  0  0  0
  3 27  1  0  0  0  0
  4  5  1  0  0  0  0
  4 28  1  0  0  0  0
  4 29  1  0  0  0  0
  5  6  1  0  0  0  0
  5 30  1  0  0  0  0
  5 31  1  0  0  0  0
  6  7  1  0  0  0  0
  6 32  1  0  0  0  0
  6 33  1  0  0  0  0
  7  8  1  0  0  0  0
  7 34  1  0  0  0  0
  8  9  1  0  0  0  0
  9 10  1  0  0  0  0
  9 35  1  0  0  0  0
  9 36  1  0  0  0  0
 10 11  1  0  0  0  0
 10 37  1  0  0  0  0
 10 38  1  0  0  0  0
 11 19  1  0  0  0  0
 11 12  1  0  0  0  0
 12 13  2  0  0  0  0
 12 39  1  0  0  0  0
 13 14  1  0  0  0  0
 13 16  1  0  0  0  0
 14 15  3  0  0  0  0
 16 17  2  0  0  0  0
 16 18  1  0  0  0  0
 18 21  1  0  0  0  0
 18 19  1  0  0  0  0
 19 20  2  0  0  0  0
M  END
> <s_m_source_file>
AV-unprocessed.smi

> <i_m_source_file_index>
1230

> <i_lp_mmshare_version>
43012

> <i_f3d_flags>
0

> <s_epik_input>
W0NIM11bQ0BASF0xW0NIMl1bQ0gyXVtDSDJdW0NIMl1bQ0BIXTFPW0NIMl1bQ0gyXW4yW2NIXWMoQyNOKWMoPU8pW25IXWMyPU8=

> <s_epik_cmdline>
J2VwaWtfcHl0aG9uJywgJy1waCcsICc3LjAnLCAnLXRuJywgJzgnLCAnLW1hJywgJzIwMCcsICctbWV0YWxfYmluZGluZycsICctaW1hZScsICc8aW5maWxlLm1hZT4nLCAnLW9tYWUnLCAnPG91dGZpbGUubWFlPic=

> <r_epik_Ionization_Penalty>
0.421541

> <r_epik_Ionization_Penalty_Charging>
0.421541

> <r_epik_Ionization_Penalty_Neutral>
2.29267e-11

> <r_epik_State_Penalty>
0.422277

> <r_epik_Charging_Adjusted_Penalty>
0.843818

> <i_epik_Tot_Q>
0

> <i_epik_Tot_abs_Q>
0

> <r_epik_Metal_State_Penalty>
4.11629

> <b_epik_Metal_Only>
0

> <s_lp_Force_Field>
OPLS_2005

> <r_lp_Energy>
13.3679

> <b_lp_Chiralities_Consistent>
1

> <s_lp_Variant>
AV-unprocessed.smi:1230-5

> <Gold.Version>
5.8.1

> <Gold.Id.Protein>
6NUR|6NUR_protein|mol2

> <Gold.PLP.Fitness>
49.7568

> <Gold.PLP.PLP>
-44.3728

> <Gold.PLP.part.hbond>
-2.9351

> <Gold.PLP.part.metal>
0.0000

> <Gold.PLP.part.buried>
-1.2805

> <Gold.PLP.part.nonpolar>
-40.3665

> <Gold.PLP.part.repulsive>
0.7361

> <Gold.PLP.ligand.clash>
0.0000

> <Gold.PLP.ligand.torsion>
0.6083

> <Gold.PLP.Chemscore.Hbond>
1.4923

> <Gold.PLP.Chemscore.CHOScore>
0.7034

> <Gold.PLP.Chemscore.Metal>
0.0000

> <Gold.Chemscore.Hbonds>
donor molecule, donor type, donor heavy atom, donor atom, acceptor molecule, acceptor atom, score
      L1  H    18    21       P1  7948  0.78
      P1  H  7997  8010       L1     8  0.49
      L1  C    12    39       P1  8028  0.94

> <Gold.PLP.Chemscore.Internal.Correction>
0.0138

> <Gold.Rescore>
     Score         DG    S(hbond)    S(metal)    S(lipo)     H(rot)  DE(clash)    DE(int)     intcor
     15.85     -16.67       1.20        0.00     103.84       1.94       0.18       0.65       ----

> <Gold.Chemscore.Fitness>
15.8520

> <Gold.Chemscore.DG>
-16.6750

> <Gold.Chemscore.ZeroCoef>
-5.4800

> <Gold.Chemscore.Hbond>
1.2002

> <Gold.Chemscore.Metal>
0.0000

> <Gold.Chemscore.Lipo>
103.8353

> <Gold.Chemscore.Internal_Hbond>
0.0000

> <Gold.Chemscore.DEClash>
0.1777

> <Gold.Chemscore.DEInternal>
0.6453

> <Gold.Chemscore.Rot>
1.9385

> <Gold.Chemscore.Internal.Correction>
   9.000000E+99

> <Gold.Chemscore.Hbonds>
donor molecule, donor type, donor heavy atom, donor atom, acceptor molecule, acceptor atom, score
      L1  H    18    21       P1  7948  0.77
      P1  H  7997  8010       L1     8  0.31

> <Gold.Chemscore.Hbond.Weighted>
-4.0088

> <Gold.Chemscore.Metal.Weighted>
-0.0000

> <Gold.Chemscore.Lipo.Weighted>
-12.1487

> <Gold.Chemscore.Internal_Hbond.Weighted>
0.0000

> <Gold.Chemscore.DEClash.Weighted>
0.1777

> <Gold.Chemscore.DEInternal.Weighted>
0.6453

> <Gold.Chemscore.Rot.Weighted>
4.9625

> <Gold.Chemscore.Internal.Correction.Weighted>
   9.000000E+99

> <Gold.Protein.RotatedTorsions>
[ 6907 6896 6895 6894 ] final  -52.95 input  -60.11 | X-H torsion
[ 7974 7965 7964 7962 ] final  126.78 input  175.53 | X-H torsion
[ 8008 7997 7996 7995 ] final   46.91 input   59.86 | X-H torsion
[ 10167 10162 10161 10158 ] final -150.67 input  -65.29 | X-H torsion
[ 10718 10713 10712 10709 ] final   -2.60 input   66.30 | X-H torsion
[ 10763 10752 10751 10750 ] final  -32.99 input  -60.55 | X-H torsion
[ 11005 11000 10999 10996 ] final   36.52 input  -57.11 | X-H torsion

> <Gold.Protein.ActiveResidues>
 VAL166  LYS551  ARG553  GLY616  TRP617  ASP618  TYR619  PRO620  LYS621  CYS622 
 ASP623  PHE694  ASN695  SER759  ASP760  ASP761  ALA762  ILE779  LEU786  VAL792 
 PHE793  MET794  SER795  GLU796  ALA797  LYS798  CYS799  TRP800  GLU811  SER814 

> <Gold.Protein.RotatedAtoms>
  150.8471  134.7783  159.6978 H   0  0  0  0  0  0  0  0  0  0  0  0  # atno 6907 bound_to 6896
  152.4545  134.5318  159.9823 H   0  0  0  0  0  0  0  0  0  0  0  0  # atno 6908 bound_to 6896
  151.5447  133.3389  159.2977 H   0  0  0  0  0  0  0  0  0  0  0  0  # atno 6909 bound_to 6896
  145.0579  139.3829  143.5021 H   0  0  0  0  0  0  0  0  0  0  0  0  # atno 7974 bound_to 7965
  155.3603  140.3418  155.4240 H   0  0  0  0  0  0  0  0  0  0  0  0  # atno 8008 bound_to 7997
  156.1717  140.1634  156.8469 H   0  0  0  0  0  0  0  0  0  0  0  0  # atno 8009 bound_to 7997
  154.5240  140.0760  156.8207 H   0  0  0  0  0  0  0  0  0  0  0  0  # atno 8010 bound_to 7997
  139.7334  143.8773  152.2541 H   0  0  0  0  0  0  0  0  0  0  0  0  # atno 10167 bound_to 10162
  156.7884  130.5353  149.5739 H   0  0  0  0  0  0  0  0  0  0  0  0  # atno 10718 bound_to 10713
  153.8228  135.6873  153.4825 H   0  0  0  0  0  0  0  0  0  0  0  0  # atno 10763 bound_to 10752
  153.1558  135.4599  154.9701 H   0  0  0  0  0  0  0  0  0  0  0  0  # atno 10764 bound_to 10752
  154.7920  135.3305  154.7699 H   0  0  0  0  0  0  0  0  0  0  0  0  # atno 10765 bound_to 10752
  140.2318  134.3519  155.7961 H   0  0  0  0  0  0  0  0  0  0  0  0  # atno 11005 bound_to 11000
  146.3522  140.0262  142.8654 LP  0  0  0  0  0  0  0  0  0  0  0  0  # atno 17320 bound_to 7965
  145.1445  140.9589  143.4469 LP  0  0  0  0  0  0  0  0  0  0  0  0  # atno 17321 bound_to 7965
  139.8703  144.7072  150.8996 LP  0  0  0  0  0  0  0  0  0  0  0  0  # atno 17342 bound_to 10162
  140.7775  143.3744  151.1590 LP  0  0  0  0  0  0  0  0  0  0  0  0  # atno 17343 bound_to 10162
  156.1174  130.6085  151.0141 LP  0  0  0  0  0  0  0  0  0  0  0  0  # atno 17370 bound_to 10713
  157.6612  131.0880  150.7833 LP  0  0  0  0  0  0  0  0  0  0  0  0  # atno 17371 bound_to 10713
  141.2217  133.7249  156.8743 LP  0  0  0  0  0  0  0  0  0  0  0  0  # atno 17394 bound_to 11000
  140.1743  134.9078  157.2871 LP  0  0  0  0  0  0  0  0  0  0  0  0  # atno 17395 bound_to 11000

$$$$
