AV-unprocessed.smi:2739|AV-procd|sdf|10552|dock7
  -GOLD-   2272015 03D 1   1.00000     0.00000
 Structure written by MMmdl.
 35 35  0  0  0  0  0  0  0  0  1 V2000
  151.7371  145.8042  160.1615 C   0  0  0  0  0  0  0  0  0  0  0  0
  150.8295  144.9731  159.2431 C   0  0  0  0  0  0  0  0  0  0  0  0
  151.5952  144.1020  158.2275 C   0  0  2  0  0  0  0  0  0  0  0  0
  152.7045  144.8965  157.5245 C   0  0  0  0  0  0  0  0  0  0  0  0
  150.6860  143.5598  157.2196 N   0  0  0  0  0  0  0  0  0  0  0  0
  150.6638  142.2930  156.7746 C   0  0  0  0  0  0  0  0  0  0  0  0
  151.4156  141.4098  157.1861 O   0  0  0  0  0  0  0  0  0  0  0  0
  149.6275  141.9711  155.6977 C   0  0  0  0  0  0  0  0  0  0  0  0
  149.8191  140.6310  155.1736 N   0  0  0  0  0  0  0  0  0  0  0  0
  148.8626  139.6918  154.8528 C   0  0  0  0  0  0  0  0  0  0  0  0
  149.5186  138.5823  154.4029 C   0  0  0  0  0  0  0  0  0  0  0  0
  150.8958  138.9363  154.4860 C   0  0  0  0  0  0  0  0  0  0  0  0
  152.0870  138.0928  154.1110 C   0  0  1  0  0  0  0  0  0  0  0  0
  153.4058  138.8450  154.3361 C   0  0  0  0  0  0  0  0  0  0  0  0
  152.1339  136.8777  154.8317 O   0  0  0  0  0  0  0  0  0  0  0  0
  151.0674  140.1682  154.9480 N   0  0  0  0  0  0  0  0  0  0  0  0
  151.1438  146.4453  160.8137 H   0  0  0  0  0  0  0  0  0  0  0  0
  152.4025  146.4445  159.5818 H   0  0  0  0  0  0  0  0  0  0  0  0
  152.3532  145.1696  160.7986 H   0  0  0  0  0  0  0  0  0  0  0  0
  150.1781  144.3453  159.8525 H   0  0  0  0  0  0  0  0  0  0  0  0
  150.1715  145.6543  158.7023 H   0  0  0  0  0  0  0  0  0  0  0  0
  152.0771  143.2891  158.7733 H   0  0  0  0  0  0  0  0  0  0  0  0
  153.4210  145.2918  158.2450 H   0  0  0  0  0  0  0  0  0  0  0  0
  152.2972  145.7387  156.9640 H   0  0  0  0  0  0  0  0  0  0  0  0
  153.2557  144.2663  156.8257 H   0  0  0  0  0  0  0  0  0  0  0  0
  150.0250  144.2072  156.8143 H   0  0  0  0  0  0  0  0  0  0  0  0
  148.6220  142.0435  156.1142 H   0  0  0  0  0  0  0  0  0  0  0  0
  149.6915  142.6968  154.8851 H   0  0  0  0  0  0  0  0  0  0  0  0
  147.8073  139.8895  154.9716 H   0  0  0  0  0  0  0  0  0  0  0  0
  149.0804  137.6551  154.0647 H   0  0  0  0  0  0  0  0  0  0  0  0
  152.0186  137.8299  153.0549 H   0  0  0  0  0  0  0  0  0  0  0  0
  153.4319  139.7687  153.7570 H   0  0  0  0  0  0  0  0  0  0  0  0
  154.2610  138.2411  154.0313 H   0  0  0  0  0  0  0  0  0  0  0  0
  153.5405  139.1071  155.3862 H   0  0  0  0  0  0  0  0  0  0  0  0
  151.2501  136.6314  155.0581 H   0  0  0  0  0  0  0  0  0  0  0  0
  1  2  1  0  0  0  0
  1 17  1  0  0  0  0
  1 18  1  0  0  0  0
  1 19  1  0  0  0  0
  2  3  1  0  0  0  0
  2 20  1  0  0  0  0
  2 21  1  0  0  0  0
  3  4  1  0  0  0  0
  3  5  1  0  0  0  0
  3 22  1  0  0  0  0
  4 23  1  0  0  0  0
  4 24  1  0  0  0  0
  4 25  1  0  0  0  0
  5  6  1  0  0  0  0
  5 26  1  0  0  0  0
  6  7  2  0  0  0  0
  6  8  1  0  0  0  0
  8  9  1  0  0  0  0
  8 27  1  0  0  0  0
  8 28  1  0  0  0  0
  9 16  1  0  0  0  0
  9 10  1  0  0  0  0
 10 11  2  0  0  0  0
 10 29  1  0  0  0  0
 11 12  1  0  0  0  0
 11 30  1  0  0  0  0
 12 13  1  0  0  0  0
 12 16  2  0  0  0  0
 13 14  1  0  0  0  0
 13 15  1  0  0  0  0
 13 31  1  0  0  0  0
 14 32  1  0  0  0  0
 14 33  1  0  0  0  0
 14 34  1  0  0  0  0
 15 35  1  0  0  0  0
M  END
> <s_m_source_file>
AV-unprocessed.smi

> <i_m_source_file_index>
2739

> <i_lp_mmshare_version>
43012

> <i_f3d_flags>
0

> <s_epik_input>
W0NIM11bQ0gyXVtDQEhdKFtDSDNdKVtOSF1DKD1PKVtDSDJdbjFbY0hdW2NIXWMobjEpW0NASF0oW0NIM10pW09IXQ==

> <s_epik_cmdline>
J2VwaWtfcHl0aG9uJywgJy1waCcsICc3LjAnLCAnLXRuJywgJzgnLCAnLW1hJywgJzIwMCcsICctbWV0YWxfYmluZGluZycsICctaW1hZScsICc8aW5maWxlLm1hZT4nLCAnLW9tYWUnLCAnPG91dGZpbGUubWFlPic=

> <r_lp_tautomer_probability>
1

> <r_epik_Ionization_Penalty>
5.22246e-06

> <r_epik_Ionization_Penalty_Charging>
0

> <r_epik_Ionization_Penalty_Neutral>
5.22246e-06

> <r_epik_State_Penalty>
-0

> <r_epik_Charging_Adjusted_Penalty>
0

> <i_epik_Tot_Q>
0

> <i_epik_Tot_abs_Q>
0

> <r_epik_Metal_State_Penalty>
-0

> <b_epik_Metal_Only>
0

> <s_lp_Force_Field>
OPLS_2005

> <r_lp_Energy>
1.64389

> <b_lp_Chiralities_Consistent>
1

> <s_lp_Variant>
AV-unprocessed.smi:2739-3

> <Gold.Version>
5.8.1

> <Gold.Id.Protein>
6NUR|6NUR_protein|mol2

> <Gold.PLP.Fitness>
45.8334

> <Gold.PLP.PLP>
-38.0524

> <Gold.PLP.part.hbond>
-3.0000

> <Gold.PLP.part.metal>
0.0000

> <Gold.PLP.part.buried>
-2.1167

> <Gold.PLP.part.nonpolar>
-33.0341

> <Gold.PLP.part.repulsive>
0.0927

> <Gold.PLP.ligand.clash>
0.0000

> <Gold.PLP.ligand.torsion>
0.6260

> <Gold.PLP.Chemscore.Hbond>
3.0000

> <Gold.PLP.Chemscore.CHOScore>
0.0000

> <Gold.PLP.Chemscore.Metal>
0.0000

> <Gold.Chemscore.Hbonds>
donor molecule, donor type, donor heavy atom, donor atom, acceptor molecule, acceptor atom, score
      L1  H     5    26       P1  8028  1.00
      P1  H  7989  7998       L1    16  0.90
      P1  H 10752 10763       L1    15  0.88

> <Gold.PLP.Chemscore.Internal.Correction>
0.0331

> <Gold.Rescore>
     Score         DG    S(hbond)    S(metal)    S(lipo)     H(rot)  DE(clash)    DE(int)     intcor
     13.68     -17.78       2.15        0.00      94.92       2.34       1.89       2.20       ----

> <Gold.Chemscore.Fitness>
13.6800

> <Gold.Chemscore.DG>
-17.7790

> <Gold.Chemscore.ZeroCoef>
-5.4800

> <Gold.Chemscore.Hbond>
2.1546

> <Gold.Chemscore.Metal>
0.0000

> <Gold.Chemscore.Lipo>
94.9171

> <Gold.Chemscore.Internal_Hbond>
0.0000

> <Gold.Chemscore.DEClash>
1.8948

> <Gold.Chemscore.DEInternal>
2.2041

> <Gold.Chemscore.Rot>
2.3448

> <Gold.Chemscore.Internal.Correction>
   9.000000E+99

> <Gold.Chemscore.Hbonds>
donor molecule, donor type, donor heavy atom, donor atom, acceptor molecule, acceptor atom, score
      L1  H     5    26       P1  8028  0.93
      P1  H  7989  7998       L1    16  0.12
      P1  H 10752 10763       L1    15  0.53

> <Gold.Chemscore.Hbond.Weighted>
-7.1964

> <Gold.Chemscore.Metal.Weighted>
-0.0000

> <Gold.Chemscore.Lipo.Weighted>
-11.1053

> <Gold.Chemscore.Internal_Hbond.Weighted>
0.0000

> <Gold.Chemscore.DEClash.Weighted>
1.8948

> <Gold.Chemscore.DEInternal.Weighted>
2.2041

> <Gold.Chemscore.Rot.Weighted>
6.0027

> <Gold.Chemscore.Internal.Correction.Weighted>
   9.000000E+99

> <Gold.Protein.RotatedTorsions>
[ 6907 6896 6895 6894 ] final  -23.64 input  -60.11 | X-H torsion
[ 7974 7965 7964 7962 ] final -114.17 input  175.53 | X-H torsion
[ 8008 7997 7996 7995 ] final    3.97 input   59.86 | X-H torsion
[ 10167 10162 10161 10158 ] final  178.96 input  -65.29 | X-H torsion
[ 10718 10713 10712 10709 ] final -167.34 input   66.30 | X-H torsion
[ 10763 10752 10751 10750 ] final   66.35 input  -60.55 | X-H torsion
[ 11005 11000 10999 10996 ] final   93.14 input  -57.11 | X-H torsion

> <Gold.Protein.ActiveResidues>
 VAL166  LYS551  ARG553  GLY616  TRP617  ASP618  TYR619  PRO620  LYS621  CYS622 
 ASP623  PHE694  ASN695  SER759  ASP760  ASP761  ALA762  ILE779  LEU786  VAL792 
 PHE793  MET794  SER795  GLU796  ALA797  LYS798  CYS799  TRP800  GLU811  SER814 

> <Gold.Protein.RotatedAtoms>
  151.2011  135.0443  159.8872 H   0  0  0  0  0  0  0  0  0  0  0  0  # atno 6907 bound_to 6896
  152.5432  134.0849  159.8262 H   0  0  0  0  0  0  0  0  0  0  0  0  # atno 6908 bound_to 6896
  151.0990  133.5210  159.2643 H   0  0  0  0  0  0  0  0  0  0  0  0  # atno 6909 bound_to 6896
  145.1233  140.8682  143.3801 H   0  0  0  0  0  0  0  0  0  0  0  0  # atno 7974 bound_to 7965
  154.7102  140.2691  155.6636 H   0  0  0  0  0  0  0  0  0  0  0  0  # atno 8008 bound_to 7997
  156.2793  140.2755  156.1666 H   0  0  0  0  0  0  0  0  0  0  0  0  # atno 8009 bound_to 7997
  155.0645  140.0371  157.2578 H   0  0  0  0  0  0  0  0  0  0  0  0  # atno 8010 bound_to 7997
  139.5316  144.2618  152.0700 H   0  0  0  0  0  0  0  0  0  0  0  0  # atno 10167 bound_to 10162
  156.6809  130.9121  151.3057 H   0  0  0  0  0  0  0  0  0  0  0  0  # atno 10718 bound_to 10713
  153.0136  135.5324  154.6810 H   0  0  0  0  0  0  0  0  0  0  0  0  # atno 10763 bound_to 10752
  154.5970  135.2864  155.0578 H   0  0  0  0  0  0  0  0  0  0  0  0  # atno 10764 bound_to 10752
  154.1650  135.6541  153.5047 H   0  0  0  0  0  0  0  0  0  0  0  0  # atno 10765 bound_to 10752
  139.8814  134.8773  156.3675 H   0  0  0  0  0  0  0  0  0  0  0  0  # atno 11005 bound_to 11000
  145.0716  139.3027  143.5829 LP  0  0  0  0  0  0  0  0  0  0  0  0  # atno 17320 bound_to 7965
  146.3519  140.0192  142.8660 LP  0  0  0  0  0  0  0  0  0  0  0  0  # atno 17321 bound_to 7965
  140.2082  144.4589  150.6398 LP  0  0  0  0  0  0  0  0  0  0  0  0  # atno 17342 bound_to 10162
  140.6497  143.2222  151.6105 LP  0  0  0  0  0  0  0  0  0  0  0  0  # atno 17343 bound_to 10162
  157.7044  130.9368  150.0884 LP  0  0  0  0  0  0  0  0  0  0  0  0  # atno 17370 bound_to 10713
  156.1868  130.3652  149.8962 LP  0  0  0  0  0  0  0  0  0  0  0  0  # atno 17371 bound_to 10713
  140.9487  133.7465  156.0243 LP  0  0  0  0  0  0  0  0  0  0  0  0  # atno 17394 bound_to 11000
  140.8132  134.3375  157.5405 LP  0  0  0  0  0  0  0  0  0  0  0  0  # atno 17395 bound_to 11000

$$$$
