AV-unprocessed.smi:2636|AV-procd|sdf|10260|dock9
  -GOLD-   2272014273D 1   1.00000     0.00000
 Structure written by MMmdl.
 35 36  0  0  0  0  0  0  0  0  2 V2000
  150.6052  134.1389  154.4306 C   0  0  0  0  0  0  0  0  0  0  0  0
  151.3669  135.2535  155.1235 C   0  0  0  0  0  0  0  0  0  0  0  0
  151.5631  136.4632  154.5601 C   0  0  0  0  0  0  0  0  0  0  0  0
  152.2796  137.4839  155.2076 N   0  0  0  0  0  0  0  0  0  0  0  0
  152.4151  138.7772  154.5474 C   0  0  0  0  0  0  0  0  0  0  0  0
  151.3820  139.6529  154.9037 O   0  0  0  0  0  0  0  0  0  0  0  0
  151.5030  140.3207  156.1565 C   0  0  0  0  0  0  0  0  0  0  0  0
  150.3245  141.2423  156.4264 C   0  0  0  0  0  0  0  0  0  0  0  0
  150.1166  142.0402  157.4926 C   0  0  0  0  0  0  0  0  0  0  0  0
  150.9996  142.2977  158.6434 C   0  0  0  0  0  0  0  0  0  0  0  0
  150.9061  143.4675  159.4314 C   0  0  0  0  0  0  0  0  0  0  0  0
  151.7891  143.6786  160.5082 C   0  0  0  0  0  0  0  0  0  0  0  0
  152.7709  142.7179  160.8135 C   0  0  0  0  0  0  0  0  0  0  0  0
  152.8665  141.5457  160.0411 C   0  0  0  0  0  0  0  0  0  0  0  0
  151.9866  141.3399  158.9610 C   0  0  0  0  0  0  0  0  0  0  0  0
  152.7945  137.2786  156.4561 C   0  0  0  0  0  0  0  0  0  0  0  0
  153.4108  138.1898  157.0100 O   0  0  0  0  0  0  0  0  0  0  0  0
  152.6055  136.0596  157.0476 N   0  5  0  0  0  0  0  0  0  0  0  0
  151.9237  135.0329  156.4603 C   0  0  0  0  0  0  0  0  0  0  0  0
  151.7661  133.9452  157.0142 O   0  0  0  0  0  0  0  0  0  0  0  0
  150.2662  134.4505  153.4423 H   0  0  0  0  0  0  0  0  0  0  0  0
  149.7313  133.8526  155.0163 H   0  0  0  0  0  0  0  0  0  0  0  0
  151.2411  133.2619  154.3085 H   0  0  0  0  0  0  0  0  0  0  0  0
  151.1839  136.7209  153.5822 H   0  0  0  0  0  0  0  0  0  0  0  0
  153.3682  139.2171  154.8454 H   0  0  0  0  0  0  0  0  0  0  0  0
  152.4455  138.6424  153.4656 H   0  0  0  0  0  0  0  0  0  0  0  0
  151.6585  139.5942  156.9502 H   0  0  0  0  0  0  0  0  0  0  0  0
  152.4031  140.9339  156.1191 H   0  0  0  0  0  0  0  0  0  0  0  0
  149.5631  141.2253  155.6605 H   0  0  0  0  0  0  0  0  0  0  0  0
  149.1901  142.5959  157.5055 H   0  0  0  0  0  0  0  0  0  0  0  0
  150.1449  144.2062  159.2309 H   0  0  0  0  0  0  0  0  0  0  0  0
  151.7092  144.5767  161.1026 H   0  0  0  0  0  0  0  0  0  0  0  0
  153.4485  142.8800  161.6387 H   0  0  0  0  0  0  0  0  0  0  0  0
  153.6200  140.8072  160.2714 H   0  0  0  0  0  0  0  0  0  0  0  0
  152.0771  140.4406  158.3692 H   0  0  0  0  0  0  0  0  0  0  0  0
  1  2  1  0  0  0  0
  1 21  1  0  0  0  0
  1 22  1  0  0  0  0
  1 23  1  0  0  0  0
  2 19  1  0  0  0  0
  2  3  2  0  0  0  0
  3  4  1  0  0  0  0
  3 24  1  0  0  0  0
  4  5  1  0  0  0  0
  4 16  1  0  0  0  0
  5  6  1  0  0  0  0
  5 25  1  0  0  0  0
  5 26  1  0  0  0  0
  6  7  1  0  0  0  0
  7  8  1  0  0  0  0
  7 27  1  0  0  0  0
  7 28  1  0  0  0  0
  8  9  2  0  0  0  0
  8 29  1  0  0  0  0
  9 10  1  0  0  0  0
  9 30  1  0  0  0  0
 10 15  1  0  0  0  0
 10 11  2  0  0  0  0
 11 12  1  0  0  0  0
 11 31  1  0  0  0  0
 12 13  2  0  0  0  0
 12 32  1  0  0  0  0
 13 14  1  0  0  0  0
 13 33  1  0  0  0  0
 14 15  2  0  0  0  0
 14 34  1  0  0  0  0
 15 35  1  0  0  0  0
 16 17  2  0  0  0  0
 16 18  1  0  0  0  0
 18 19  1  0  0  0  0
 19 20  2  0  0  0  0
M  CHG  1  18  -1
M  END
> <s_m_source_file>
AV-unprocessed.smi

> <i_m_source_file_index>
2636

> <i_lp_mmshare_version>
43012

> <i_f3d_flags>
0

> <s_epik_input>
Tz1jMVtuSF1jKD1PKW4oW2NIXWMxW0NIM10pW0NIMl1PW0NIMl0vW0NIXT1bQ0hdL2MyW2NIXVtjSF1bY0hdW2NIXVtjSF0y

> <s_epik_cmdline>
J2VwaWtfcHl0aG9uJywgJy1waCcsICc3LjAnLCAnLXRuJywgJzgnLCAnLW1hJywgJzIwMCcsICctbWV0YWxfYmluZGluZycsICctaW1hZScsICc8aW5maWxlLm1hZT4nLCAnLW9tYWUnLCAnPG91dGZpbGUubWFlPic=

> <r_lp_tautomer_probability>
0.999537

> <r_epik_Ionization_Penalty>
3.43625

> <r_epik_Ionization_Penalty_Charging>
7.29021e-08

> <r_epik_Ionization_Penalty_Neutral>
3.43625

> <r_epik_State_Penalty>
3.43567

> <r_epik_Charging_Adjusted_Penalty>
3.43567

> <i_epik_Tot_Q>
-1

> <i_epik_Tot_abs_Q>
1

> <r_epik_Metal_State_Penalty>
0.168611

> <b_epik_Metal_Only>
1

> <s_epik_Chemistry_Notes>
This compound contains an acetal/aminal-like group ( X-CH(R)-Y where X, Y are N, S, or O) that may be acid/base labile, releasing an aldehyde.

> <s_lp_Force_Field>
OPLS_2005

> <r_lp_Energy>
10.6813

> <b_lp_Chiralities_Consistent>
1

> <s_lp_Variant>
AV-unprocessed.smi:2636-4

> <Gold.Version>
5.8.1

> <Gold.Id.Protein>
6NUR|6NUR_protein|mol2

> <Gold.PLP.Fitness>
49.2277

> <Gold.PLP.PLP>
-41.6046

> <Gold.PLP.part.hbond>
-2.1452

> <Gold.PLP.part.metal>
0.0000

> <Gold.PLP.part.buried>
-4.2160

> <Gold.PLP.part.nonpolar>
-35.3189

> <Gold.PLP.part.repulsive>
0.0556

> <Gold.PLP.ligand.clash>
0.0000

> <Gold.PLP.ligand.torsion>
0.5758

> <Gold.PLP.Chemscore.Hbond>
1.8247

> <Gold.PLP.Chemscore.CHOScore>
1.0923

> <Gold.PLP.Chemscore.Metal>
0.0000

> <Gold.Chemscore.Hbonds>
donor molecule, donor type, donor heavy atom, donor atom, acceptor molecule, acceptor atom, score
      P1  H  7989  7998       L1     6  0.80
      P1  H  7997  8009       L1    17  0.02
      L1  C     3    24       P1  7949  1.00

> <Gold.PLP.Chemscore.Internal.Correction>
0.0237

> <Gold.Rescore>
     Score         DG    S(hbond)    S(metal)    S(lipo)     H(rot)  DE(clash)    DE(int)     intcor
     15.81     -16.53       1.30        0.00      98.60       1.88       0.02       0.70       ----

> <Gold.Chemscore.Fitness>
15.8147

> <Gold.Chemscore.DG>
-16.5348

> <Gold.Chemscore.ZeroCoef>
-5.4800

> <Gold.Chemscore.Hbond>
1.2968

> <Gold.Chemscore.Metal>
0.0000

> <Gold.Chemscore.Lipo>
98.6002

> <Gold.Chemscore.Internal_Hbond>
0.0000

> <Gold.Chemscore.DEClash>
0.0249

> <Gold.Chemscore.DEInternal>
0.6952

> <Gold.Chemscore.Rot>
1.8800

> <Gold.Chemscore.Internal.Correction>
   9.000000E+99

> <Gold.Chemscore.Hbonds>
donor molecule, donor type, donor heavy atom, donor atom, acceptor molecule, acceptor atom, score
      P1  H  7989  7998       L1     6  0.09
      P1  H  7997  8009       L1    17  0.04

> <Gold.Chemscore.Hbond.Weighted>
-4.3315

> <Gold.Chemscore.Metal.Weighted>
-0.0000

> <Gold.Chemscore.Lipo.Weighted>
-11.5362

> <Gold.Chemscore.Internal_Hbond.Weighted>
0.0000

> <Gold.Chemscore.DEClash.Weighted>
0.0249

> <Gold.Chemscore.DEInternal.Weighted>
0.6952

> <Gold.Chemscore.Rot.Weighted>
4.8129

> <Gold.Chemscore.Internal.Correction.Weighted>
   9.000000E+99

> <Gold.Protein.RotatedTorsions>
[ 6907 6896 6895 6894 ] final  131.48 input  -60.11 | X-H torsion
[ 7974 7965 7964 7962 ] final  -13.21 input  175.53 | X-H torsion
[ 8008 7997 7996 7995 ] final -142.78 input   59.86 | X-H torsion
[ 10167 10162 10161 10158 ] final  -74.49 input  -65.29 | X-H torsion
[ 10718 10713 10712 10709 ] final  154.41 input   66.30 | X-H torsion
[ 10763 10752 10751 10750 ] final -156.88 input  -60.55 | X-H torsion
[ 11005 11000 10999 10996 ] final  133.51 input  -57.11 | X-H torsion

> <Gold.Protein.ActiveResidues>
 VAL166  LYS551  ARG553  GLY616  TRP617  ASP618  TYR619  PRO620  LYS621  CYS622 
 ASP623  PHE694  ASN695  SER759  ASP760  ASP761  ALA762  ILE779  LEU786  VAL792 
 PHE793  MET794  SER795  GLU796  ALA797  LYS798  CYS799  TRP800  GLU811  SER814 

> <Gold.Protein.RotatedAtoms>
  152.3421  133.6079  159.5883 H   0  0  0  0  0  0  0  0  0  0  0  0  # atno 6907 bound_to 6896
  150.7485  133.9705  159.3553 H   0  0  0  0  0  0  0  0  0  0  0  0  # atno 6908 bound_to 6896
  151.7568  135.0820  160.0390 H   0  0  0  0  0  0  0  0  0  0  0  0  # atno 6909 bound_to 6896
  146.2123  140.3169  142.8387 H   0  0  0  0  0  0  0  0  0  0  0  0  # atno 7974 bound_to 7965
  155.4999  140.0574  157.2941 H   0  0  0  0  0  0  0  0  0  0  0  0  # atno 8008 bound_to 7997
  154.4591  140.1987  156.0245 H   0  0  0  0  0  0  0  0  0  0  0  0  # atno 8009 bound_to 7997
  156.0856  140.3241  155.7754 H   0  0  0  0  0  0  0  0  0  0  0  0  # atno 8010 bound_to 7997
  140.5023  143.2359  151.7732 H   0  0  0  0  0  0  0  0  0  0  0  0  # atno 10167 bound_to 10162
  157.2319  131.0741  151.1847 H   0  0  0  0  0  0  0  0  0  0  0  0  # atno 10718 bound_to 10713
  154.7679  135.3136  154.8249 H   0  0  0  0  0  0  0  0  0  0  0  0  # atno 10763 bound_to 10752
  153.8992  135.6817  153.4760 H   0  0  0  0  0  0  0  0  0  0  0  0  # atno 10764 bound_to 10752
  153.1288  135.4789  154.9248 H   0  0  0  0  0  0  0  0  0  0  0  0  # atno 10765 bound_to 10752
  139.9856  134.9533  156.9735 H   0  0  0  0  0  0  0  0  0  0  0  0  # atno 11005 bound_to 11000
  144.8948  140.7569  143.5904 LP  0  0  0  0  0  0  0  0  0  0  0  0  # atno 17320 bound_to 7965
  145.3093  139.1824  143.4647 LP  0  0  0  0  0  0  0  0  0  0  0  0  # atno 17321 bound_to 7965
  139.4875  144.4505  151.9659 LP  0  0  0  0  0  0  0  0  0  0  0  0  # atno 17342 bound_to 10162
  140.3595  144.2991  150.5936 LP  0  0  0  0  0  0  0  0  0  0  0  0  # atno 17343 bound_to 10162
  157.3469  130.7062  149.6416 LP  0  0  0  0  0  0  0  0  0  0  0  0  # atno 17370 bound_to 10713
  155.9675  130.4264  150.4696 LP  0  0  0  0  0  0  0  0  0  0  0  0  # atno 17371 bound_to 10713
  140.5008  134.1099  155.7250 LP  0  0  0  0  0  0  0  0  0  0  0  0  # atno 17394 bound_to 11000
  141.1522  133.8948  157.2069 LP  0  0  0  0  0  0  0  0  0  0  0  0  # atno 17395 bound_to 11000

$$$$
