AV-unprocessed.smi:2832|AV-procd|sdf|10913|dock8
  -GOLD-   2272015363D 1   1.00000     0.00000
 Structure written by MMmdl.
 33 33  0  0  0  0  0  0  0  0  2 V2000
  147.7102  141.0935  153.5816 C   0  0  0  0  0  0  0  0  0  0  0  0
  148.3224  140.3336  154.7633 C   0  0  0  0  0  0  0  0  0  0  0  0
  149.7865  139.9162  154.4976 C   0  0  0  0  0  0  0  0  0  0  0  0
  150.4500  138.9988  155.5665 C   0  0  2  0  0  0  0  0  0  0  0  0
  149.6582  137.6692  155.6486 C   0  0  0  0  0  0  0  0  0  0  0  0
  150.5227  139.7368  156.8398 N   0  0  0  0  0  0  0  0  0  0  0  0
  151.0077  140.9547  157.1450 C   0  0  0  0  0  0  0  0  0  0  0  0
  151.6328  141.6814  156.3741 O   0  0  0  0  0  0  0  0  0  0  0  0
  150.7382  141.4283  158.5739 C   0  0  0  0  0  0  0  0  0  0  0  0
  151.3733  142.7106  158.8312 N   0  0  0  0  0  0  0  0  0  0  0  0
  151.3060  143.8709  158.0854 C   0  0  0  0  0  0  0  0  0  0  0  0
  152.0580  144.8124  158.7271 C   0  0  0  0  0  0  0  0  0  0  0  0
  152.5482  144.1285  159.8743 C   0  0  0  0  0  0  0  0  0  0  0  0
  152.1327  142.8739  159.9371 N   0  0  0  0  0  0  0  0  0  0  0  0
  151.9017  138.6102  155.1904 C   0  0  0  0  0  0  0  0  0  0  0  0
  152.1734  137.4016  155.0142 O   0  0  0  0  0  0  0  0  0  0  0  0
  152.7375  139.5385  155.1029 O   0  5  0  0  0  0  0  0  0  0  0  0
  146.6763  141.3684  153.7910 H   0  0  0  0  0  0  0  0  0  0  0  0
  147.7168  140.4855  152.6766 H   0  0  0  0  0  0  0  0  0  0  0  0
  148.2631  142.0104  153.3754 H   0  0  0  0  0  0  0  0  0  0  0  0
  148.2559  140.9589  155.6530 H   0  0  0  0  0  0  0  0  0  0  0  0
  147.7124  139.4524  154.9632 H   0  0  0  0  0  0  0  0  0  0  0  0
  149.8169  139.4026  153.5356 H   0  0  0  0  0  0  0  0  0  0  0  0
  150.3935  140.8121  154.3577 H   0  0  0  0  0  0  0  0  0  0  0  0
  149.7303  137.1093  154.7150 H   0  0  0  0  0  0  0  0  0  0  0  0
  148.5960  137.8407  155.8246 H   0  0  0  0  0  0  0  0  0  0  0  0
  150.0285  137.0194  156.4431 H   0  0  0  0  0  0  0  0  0  0  0  0
  150.0480  139.2689  157.5978 H   0  0  0  0  0  0  0  0  0  0  0  0
  149.6651  141.5295  158.7423 H   0  0  0  0  0  0  0  0  0  0  0  0
  151.1054  140.6860  159.2848 H   0  0  0  0  0  0  0  0  0  0  0  0
  150.7393  143.9276  157.1671 H   0  0  0  0  0  0  0  0  0  0  0  0
  152.2320  145.8336  158.4218 H   0  0  0  0  0  0  0  0  0  0  0  0
  153.1879  144.5049  160.6590 H   0  0  0  0  0  0  0  0  0  0  0  0
  1  2  1  0  0  0  0
  1 18  1  0  0  0  0
  1 19  1  0  0  0  0
  1 20  1  0  0  0  0
  2  3  1  0  0  0  0
  2 21  1  0  0  0  0
  2 22  1  0  0  0  0
  3  4  1  0  0  0  0
  3 23  1  0  0  0  0
  3 24  1  0  0  0  0
  4  5  1  0  0  0  0
  4  6  1  0  0  0  0
  4 15  1  0  0  0  0
  5 25  1  0  0  0  0
  5 26  1  0  0  0  0
  5 27  1  0  0  0  0
  6  7  1  0  0  0  0
  6 28  1  0  0  0  0
  7  8  2  0  0  0  0
  7  9  1  0  0  0  0
  9 10  1  0  0  0  0
  9 29  1  0  0  0  0
  9 30  1  0  0  0  0
 10 14  1  0  0  0  0
 10 11  1  0  0  0  0
 11 12  2  0  0  0  0
 11 31  1  0  0  0  0
 12 13  1  0  0  0  0
 12 32  1  0  0  0  0
 13 14  2  0  0  0  0
 13 33  1  0  0  0  0
 15 16  2  0  0  0  0
 15 17  1  0  0  0  0
M  CHG  1  17  -1
M  END
> <s_m_source_file>
AV-unprocessed.smi

> <i_m_source_file_index>
2832

> <i_lp_mmshare_version>
43012

> <i_f3d_flags>
0

> <s_epik_input>
W0NIM11bQ0gyXVtDSDJdW0NAXShbQ0gzXSkoQyg9TylbT0hdKVtOSF1DKD1PKVtDSDJdbjFbY0hdW2NIXVtjSF1uMQ==

> <s_epik_cmdline>
J2VwaWtfcHl0aG9uJywgJy1waCcsICc3LjAnLCAnLXRuJywgJzgnLCAnLW1hJywgJzIwMCcsICctbWV0YWxfYmluZGluZycsICctaW1hZScsICc8aW5maWxlLm1hZT4nLCAnLW9tYWUnLCAnPG91dGZpbGUubWFlPic=

> <r_lp_tautomer_probability>
1

> <r_epik_Ionization_Penalty>
0.000287256

> <r_epik_Ionization_Penalty_Charging>
0.00026921

> <r_epik_Ionization_Penalty_Neutral>
1.80463e-05

> <r_epik_State_Penalty>
-0

> <r_epik_Charging_Adjusted_Penalty>
0.00026921

> <i_epik_Tot_Q>
-1

> <i_epik_Tot_abs_Q>
1

> <r_epik_Metal_State_Penalty>
-0

> <b_epik_Metal_Only>
0

> <s_lp_Force_Field>
OPLS_2005

> <r_lp_Energy>
2.74442

> <b_lp_Chiralities_Consistent>
1

> <s_lp_Variant>
AV-unprocessed.smi:2832-2

> <Gold.Version>
5.8.1

> <Gold.Id.Protein>
6NUR|6NUR_protein|mol2

> <Gold.PLP.Fitness>
45.4867

> <Gold.PLP.PLP>
-31.5361

> <Gold.PLP.part.hbond>
-3.0000

> <Gold.PLP.part.metal>
0.0000

> <Gold.PLP.part.buried>
-1.3428

> <Gold.PLP.part.nonpolar>
-27.2961

> <Gold.PLP.part.repulsive>
0.1827

> <Gold.PLP.ligand.clash>
0.0000

> <Gold.PLP.ligand.torsion>
0.2368

> <Gold.PLP.Chemscore.Hbond>
3.7905

> <Gold.PLP.Chemscore.CHOScore>
1.0000

> <Gold.PLP.Chemscore.Metal>
0.0000

> <Gold.Chemscore.Hbonds>
donor molecule, donor type, donor heavy atom, donor atom, acceptor molecule, acceptor atom, score
      P1  H  7989  7998       L1    17  0.14
      P1  H  7997  8009       L1    17  2.00
      P1  H 10752 10764       L1    16  1.50
      L1  C    11    31       P1  8028  1.00

> <Gold.PLP.Chemscore.Internal.Correction>
0.0527

> <Gold.Rescore>
     Score         DG    S(hbond)    S(metal)    S(lipo)     H(rot)  DE(clash)    DE(int)     intcor
      9.11     -13.28       1.68        0.00      72.78       2.47       1.58       2.59       ----

> <Gold.Chemscore.Fitness>
9.1100

> <Gold.Chemscore.DG>
-13.2771

> <Gold.Chemscore.ZeroCoef>
-5.4800

> <Gold.Chemscore.Hbond>
1.6800

> <Gold.Chemscore.Metal>
0.0000

> <Gold.Chemscore.Lipo>
72.7823

> <Gold.Chemscore.Internal_Hbond>
0.0000

> <Gold.Chemscore.DEClash>
1.5807

> <Gold.Chemscore.DEInternal>
2.5864

> <Gold.Chemscore.Rot>
2.4726

> <Gold.Chemscore.Internal.Correction>
   9.000000E+99

> <Gold.Chemscore.Hbonds>
donor molecule, donor type, donor heavy atom, donor atom, acceptor molecule, acceptor atom, score
      P1  H  7989  7998       L1    17  0.04
      P1  H  7997  8009       L1    17  0.95
      P1  H 10752 10764       L1    16  0.73

> <Gold.Chemscore.Hbond.Weighted>
-5.6113

> <Gold.Chemscore.Metal.Weighted>
-0.0000

> <Gold.Chemscore.Lipo.Weighted>
-8.5155

> <Gold.Chemscore.Internal_Hbond.Weighted>
0.0000

> <Gold.Chemscore.DEClash.Weighted>
1.5807

> <Gold.Chemscore.DEInternal.Weighted>
2.5864

> <Gold.Chemscore.Rot.Weighted>
6.3297

> <Gold.Chemscore.Internal.Correction.Weighted>
   9.000000E+99

> <Gold.Protein.RotatedTorsions>
[ 6907 6896 6895 6894 ] final  174.58 input  -60.11 | X-H torsion
[ 7974 7965 7964 7962 ] final -176.47 input  175.53 | X-H torsion
[ 8008 7997 7996 7995 ] final -129.55 input   59.86 | X-H torsion
[ 10167 10162 10161 10158 ] final  -71.99 input  -65.29 | X-H torsion
[ 10718 10713 10712 10709 ] final -162.63 input   66.30 | X-H torsion
[ 10763 10752 10751 10750 ] final  -69.58 input  -60.55 | X-H torsion
[ 11005 11000 10999 10996 ] final   96.59 input  -57.11 | X-H torsion

> <Gold.Protein.ActiveResidues>
 VAL166  LYS551  ARG553  GLY616  TRP617  ASP618  TYR619  PRO620  LYS621  CYS622 
 ASP623  PHE694  ASN695  SER759  ASP760  ASP761  ALA762  ILE779  LEU786  VAL792 
 PHE793  MET794  SER795  GLU796  ALA797  LYS798  CYS799  TRP800  GLU811  SER814 

> <Gold.Protein.RotatedAtoms>
  151.7500  133.3327  159.3388 H   0  0  0  0  0  0  0  0  0  0  0  0  # atno 6907 bound_to 6896
  150.7539  134.6201  159.6141 H   0  0  0  0  0  0  0  0  0  0  0  0  # atno 6908 bound_to 6896
  152.3475  134.7054  160.0298 H   0  0  0  0  0  0  0  0  0  0  0  0  # atno 6909 bound_to 6896
  144.7127  140.1165  143.6408 H   0  0  0  0  0  0  0  0  0  0  0  0  # atno 7974 bound_to 7965
  155.2810  140.0444  157.3015 H   0  0  0  0  0  0  0  0  0  0  0  0  # atno 8008 bound_to 7997
  154.5596  140.2342  155.8323 H   0  0  0  0  0  0  0  0  0  0  0  0  # atno 8009 bound_to 7997
  156.2036  140.3018  155.9587 H   0  0  0  0  0  0  0  0  0  0  0  0  # atno 8010 bound_to 7997
  140.5228  143.2329  151.7399 H   0  0  0  0  0  0  0  0  0  0  0  0  # atno 10167 bound_to 10162
  156.6131  130.8859  151.2941 H   0  0  0  0  0  0  0  0  0  0  0  0  # atno 10718 bound_to 10713
  154.4055  135.6021  153.5922 H   0  0  0  0  0  0  0  0  0  0  0  0  # atno 10763 bound_to 10752
  152.9789  135.5916  154.4133 H   0  0  0  0  0  0  0  0  0  0  0  0  # atno 10764 bound_to 10752
  154.3938  135.2842  155.2117 H   0  0  0  0  0  0  0  0  0  0  0  0  # atno 10765 bound_to 10752
  139.8780  134.8958  156.4181 H   0  0  0  0  0  0  0  0  0  0  0  0  # atno 11005 bound_to 11000
  145.9409  139.2668  143.1269 LP  0  0  0  0  0  0  0  0  0  0  0  0  # atno 17320 bound_to 7965
  145.9425  140.8969  143.0300 LP  0  0  0  0  0  0  0  0  0  0  0  0  # atno 17321 bound_to 7965
  139.4929  144.4229  151.9958 LP  0  0  0  0  0  0  0  0  0  0  0  0  # atno 17342 bound_to 10162
  140.3327  144.3298  150.5984 LP  0  0  0  0  0  0  0  0  0  0  0  0  # atno 17343 bound_to 10162
  157.7249  130.9608  150.1591 LP  0  0  0  0  0  0  0  0  0  0  0  0  # atno 17370 bound_to 10713
  156.2373  130.3687  149.8376 LP  0  0  0  0  0  0  0  0  0  0  0  0  # atno 17371 bound_to 10713
  140.9153  133.7683  155.9841 LP  0  0  0  0  0  0  0  0  0  0  0  0  # atno 17394 bound_to 11000
  140.8500  134.2965  157.5279 LP  0  0  0  0  0  0  0  0  0  0  0  0  # atno 17395 bound_to 11000

$$$$
