AV-unprocessed.smi:3095|AV-procd|sdf|11795|dock5
  -GOLD-   2272017173D 1   1.00000     0.00000
 Structure written by MMmdl.
 24 25  0  0  0  0  0  0  0  0  1 V2000
  152.7020  142.9120  161.6734 C   0  0  0  0  0  0  0  0  0  0  0  0
  152.3797  142.9263  160.2122 C   0  0  0  0  0  0  0  0  0  0  0  0
  152.4121  144.0095  159.3700 C   0  0  0  0  0  0  0  0  0  0  0  0
  151.9676  143.5789  157.7416 S   0  0  0  0  0  0  0  0  0  0  0  0
  151.7331  141.9178  158.2748 C   0  0  0  0  0  0  0  0  0  0  0  0
  151.3417  140.8164  157.3418 C   0  0  1  0  0  0  0  0  0  0  0  0
  151.0274  141.3347  155.9252 C   0  0  0  0  0  0  0  0  0  0  0  0
  150.7248  140.2169  155.0330 N   0  0  0  0  0  0  0  0  0  0  0  0
  151.8081  139.2349  155.0311 C   0  0  0  0  0  0  0  0  0  0  0  0
  152.1133  138.7705  156.4668 C   0  0  0  0  0  0  0  0  0  0  0  0
  152.4300  139.8974  157.2777 O   0  0  0  0  0  0  0  0  0  0  0  0
  152.0011  141.7421  159.5732 N   0  0  0  0  0  0  0  0  0  0  0  0
  153.0448  143.8888  162.0158 H   0  0  0  0  0  0  0  0  0  0  0  0
  153.4885  142.1907  161.8962 H   0  0  0  0  0  0  0  0  0  0  0  0
  151.8276  142.6429  162.2665 H   0  0  0  0  0  0  0  0  0  0  0  0
  152.6723  145.0306  159.6064 H   0  0  0  0  0  0  0  0  0  0  0  0
  150.4679  140.3145  157.7615 H   0  0  0  0  0  0  0  0  0  0  0  0
  150.1862  142.0275  155.9560 H   0  0  0  0  0  0  0  0  0  0  0  0
  151.8811  141.8938  155.5395 H   0  0  0  0  0  0  0  0  0  0  0  0
  150.5789  140.5641  154.0903 H   0  0  0  0  0  0  0  0  0  0  0  0
  151.5383  138.3808  154.4097 H   0  0  0  0  0  0  0  0  0  0  0  0
  152.7047  139.6725  154.5902 H   0  0  0  0  0  0  0  0  0  0  0  0
  151.2672  138.2263  156.8899 H   0  0  0  0  0  0  0  0  0  0  0  0
  152.9624  138.0871  156.4668 H   0  0  0  0  0  0  0  0  0  0  0  0
  1  2  1  0  0  0  0
  1 13  1  0  0  0  0
  1 14  1  0  0  0  0
  1 15  1  0  0  0  0
  2 12  1  0  0  0  0
  2  3  2  0  0  0  0
  3  4  1  0  0  0  0
  3 16  1  0  0  0  0
  4  5  1  0  0  0  0
  5  6  1  0  0  0  0
  5 12  2  0  0  0  0
  6 11  1  0  0  0  0
  6  7  1  0  0  0  0
  6 17  1  0  0  0  0
  7  8  1  0  0  0  0
  7 18  1  0  0  0  0
  7 19  1  0  0  0  0
  8  9  1  0  0  0  0
  8 20  1  0  0  0  0
  9 10  1  0  0  0  0
  9 21  1  0  0  0  0
  9 22  1  0  0  0  0
 10 11  1  0  0  0  0
 10 23  1  0  0  0  0
 10 24  1  0  0  0  0
M  END
> <s_m_source_file>
AV-unprocessed.smi

> <i_m_source_file_index>
3095

> <i_lp_mmshare_version>
43012

> <i_f3d_flags>
0

> <s_epik_input>
W0NIM11jMVtjSF1zYyhuMSlbQ0BASF0yW0NIMl1bTkhdW0NIMl1bQ0gyXU8y

> <s_epik_cmdline>
J2VwaWtfcHl0aG9uJywgJy1waCcsICc3LjAnLCAnLXRuJywgJzgnLCAnLW1hJywgJzIwMCcsICctbWV0YWxfYmluZGluZycsICctaW1hZScsICc8aW5maWxlLm1hZT4nLCAnLW9tYWUnLCAnPG91dGZpbGUubWFlPic=

> <r_epik_Ionization_Penalty>
0.982843

> <r_epik_Ionization_Penalty_Charging>
0

> <r_epik_Ionization_Penalty_Neutral>
0.982843

> <r_epik_State_Penalty>
2.16535

> <r_epik_Charging_Adjusted_Penalty>
2.16535

> <i_epik_Tot_Q>
0

> <i_epik_Tot_abs_Q>
0

> <r_epik_Metal_State_Penalty>
2.16288

> <b_epik_Metal_Only>
0

> <s_lp_Force_Field>
OPLS_2005

> <r_lp_Energy>
7.28811

> <b_lp_Chiralities_Consistent>
1

> <s_lp_Variant>
AV-unprocessed.smi:3095-4

> <Gold.Version>
5.8.1

> <Gold.Id.Protein>
6NUR|6NUR_protein|mol2

> <Gold.PLP.Fitness>
32.7790

> <Gold.PLP.PLP>
-30.0015

> <Gold.PLP.part.hbond>
-2.0000

> <Gold.PLP.part.metal>
0.0000

> <Gold.PLP.part.buried>
-2.8038

> <Gold.PLP.part.nonpolar>
-23.7813

> <Gold.PLP.part.repulsive>
0.0000

> <Gold.PLP.ligand.clash>
0.0000

> <Gold.PLP.ligand.torsion>
0.0417

> <Gold.PLP.Chemscore.Hbond>
0.9500

> <Gold.PLP.Chemscore.CHOScore>
0.0000

> <Gold.PLP.Chemscore.Metal>
0.0000

> <Gold.Chemscore.Hbonds>
donor molecule, donor type, donor heavy atom, donor atom, acceptor molecule, acceptor atom, score
      P1  H  7997  8010       L1    11  0.82

> <Gold.PLP.Chemscore.Internal.Correction>
0.0110

> <Gold.Rescore>
     Score         DG    S(hbond)    S(metal)    S(lipo)     H(rot)  DE(clash)    DE(int)     intcor
     14.24     -14.33       0.48        0.00      83.79       1.00       0.02       0.07       ----

> <Gold.Chemscore.Fitness>
14.2376

> <Gold.Chemscore.DG>
-14.3288

> <Gold.Chemscore.ZeroCoef>
-5.4800

> <Gold.Chemscore.Hbond>
0.4808

> <Gold.Chemscore.Metal>
0.0000

> <Gold.Chemscore.Lipo>
83.7858

> <Gold.Chemscore.Internal_Hbond>
0.0000

> <Gold.Chemscore.DEClash>
0.0204

> <Gold.Chemscore.DEInternal>
0.0708

> <Gold.Chemscore.Rot>
1.0000

> <Gold.Chemscore.Internal.Correction>
   9.000000E+99

> <Gold.Chemscore.Hbonds>
donor molecule, donor type, donor heavy atom, donor atom, acceptor molecule, acceptor atom, score
      P1  H  7997  8010       L1    11  0.18

> <Gold.Chemscore.Hbond.Weighted>
-1.6058

> <Gold.Chemscore.Metal.Weighted>
-0.0000

> <Gold.Chemscore.Lipo.Weighted>
-9.8029

> <Gold.Chemscore.Internal_Hbond.Weighted>
0.0000

> <Gold.Chemscore.DEClash.Weighted>
0.0204

> <Gold.Chemscore.DEInternal.Weighted>
0.0708

> <Gold.Chemscore.Rot.Weighted>
2.5600

> <Gold.Chemscore.Internal.Correction.Weighted>
   9.000000E+99

> <Gold.Protein.RotatedTorsions>
[ 6907 6896 6895 6894 ] final  124.84 input  -60.11 | X-H torsion
[ 7974 7965 7964 7962 ] final -117.92 input  175.53 | X-H torsion
[ 8008 7997 7996 7995 ] final   46.05 input   59.86 | X-H torsion
[ 10167 10162 10161 10158 ] final   33.15 input  -65.29 | X-H torsion
[ 10718 10713 10712 10709 ] final -123.24 input   66.30 | X-H torsion
[ 10763 10752 10751 10750 ] final  -76.20 input  -60.55 | X-H torsion
[ 11005 11000 10999 10996 ] final   -8.63 input  -57.11 | X-H torsion

> <Gold.Protein.ActiveResidues>
 VAL166  LYS551  ARG553  GLY616  TRP617  ASP618  TYR619  PRO620  LYS621  CYS622 
 ASP623  PHE694  ASN695  SER759  ASP760  ASP761  ALA762  ILE779  LEU786  VAL792 
 PHE793  MET794  SER795  GLU796  ALA797  LYS798  CYS799  TRP800  GLU811  SER814 

> <Gold.Protein.RotatedAtoms>
  152.4043  133.6865  159.6342 H   0  0  0  0  0  0  0  0  0  0  0  0  # atno 6907 bound_to 6896
  150.7930  133.8736  159.3274 H   0  0  0  0  0  0  0  0  0  0  0  0  # atno 6908 bound_to 6896
  151.6494  135.1005  160.0209 H   0  0  0  0  0  0  0  0  0  0  0  0  # atno 6909 bound_to 6896
  145.0797  140.8417  143.4046 H   0  0  0  0  0  0  0  0  0  0  0  0  # atno 7974 bound_to 7965
  155.3461  140.3411  155.4239 H   0  0  0  0  0  0  0  0  0  0  0  0  # atno 8008 bound_to 7997
  156.1788  140.1657  156.8348 H   0  0  0  0  0  0  0  0  0  0  0  0  # atno 8009 bound_to 7997
  154.5311  140.0745  156.8329 H   0  0  0  0  0  0  0  0  0  0  0  0  # atno 8010 bound_to 7997
  140.4433  144.1155  150.6178 H   0  0  0  0  0  0  0  0  0  0  0  0  # atno 10167 bound_to 10162
  156.1485  130.6518  150.9879 H   0  0  0  0  0  0  0  0  0  0  0  0  # atno 10718 bound_to 10713
  154.4967  135.5806  153.6499 H   0  0  0  0  0  0  0  0  0  0  0  0  # atno 10763 bound_to 10752
  152.9871  135.6125  154.3056 H   0  0  0  0  0  0  0  0  0  0  0  0  # atno 10764 bound_to 10752
  154.2960  135.2847  155.2612 H   0  0  0  0  0  0  0  0  0  0  0  0  # atno 10765 bound_to 10752
  140.7255  133.8792  155.8853 H   0  0  0  0  0  0  0  0  0  0  0  0  # atno 11005 bound_to 11000
  145.1192  139.2704  143.5597 LP  0  0  0  0  0  0  0  0  0  0  0  0  # atno 17320 bound_to 7965
  146.3531  140.0811  142.8617 LP  0  0  0  0  0  0  0  0  0  0  0  0  # atno 17321 bound_to 7965
  140.4293  143.2575  151.9616 LP  0  0  0  0  0  0  0  0  0  0  0  0  # atno 17342 bound_to 10162
  139.4791  144.5759  151.8012 LP  0  0  0  0  0  0  0  0  0  0  0  0  # atno 17343 bound_to 10162
  157.6637  131.0876  150.7778 LP  0  0  0  0  0  0  0  0  0  0  0  0  # atno 17370 bound_to 10713
  156.7848  130.4871  149.5395 LP  0  0  0  0  0  0  0  0  0  0  0  0  # atno 17371 bound_to 10713
  140.9966  134.1206  157.4357 LP  0  0  0  0  0  0  0  0  0  0  0  0  # atno 17394 bound_to 11000
  139.8838  135.0056  156.6326 LP  0  0  0  0  0  0  0  0  0  0  0  0  # atno 17395 bound_to 11000

$$$$
