AV-unprocessed.smi:767|AV-procd|sdf|3669|dock6
  -GOLD-   22720 1 83D 1   1.00000     0.00000
 Structure written by MMmdl.
 48 50  0  0  0  0  0  0  0  0  2 V2000
  151.2631  142.8176  157.8425 C   0  0  0  0  0  0  0  0  0  0  0  0
  150.5924  141.8339  156.9070 C   0  0  0  0  0  0  0  0  0  0  0  0
  151.0959  140.5327  156.6933 C   0  0  0  0  0  0  0  0  0  0  0  0
  150.4197  139.6698  155.8061 C   0  0  0  0  0  0  0  0  0  0  0  0
  149.2545  140.1245  155.1509 C   0  0  0  0  0  0  0  0  0  0  0  0
  148.5018  139.2191  154.1959 C   0  0  0  0  0  0  0  0  0  0  0  0
  147.9920  137.9457  154.8897 C   0  0  0  0  0  0  0  0  0  0  0  0
  147.8243  136.8498  153.9435 N   0  0  0  0  0  0  0  0  0  0  0  0
  146.7670  136.0273  153.9049 C   0  0  0  0  0  0  0  0  0  0  0  0
  145.8035  136.1067  154.6674 O   0  0  0  0  0  0  0  0  0  0  0  0
  146.8827  135.1127  152.9335 N   0  0  0  0  0  0  0  0  0  0  0  0
  145.8932  134.0764  152.6558 C   0  0  2  0  0  0  0  0  0  0  0  0
  146.4189  133.0085  151.6839 C   0  0  1  0  0  0  0  0  0  0  0  0
  146.6098  131.5934  152.1573 C   0  0  0  0  0  0  0  0  0  0  0  0
  145.3023  130.9143  151.7387 C   0  0  0  0  0  0  0  0  0  0  0  0
  144.3690  131.9830  151.5995 O   0  0  0  0  0  0  0  0  0  0  0  0
  145.0591  133.0803  151.0062 C   0  0  1  0  0  0  0  0  0  0  0  0
  144.8079  134.4731  151.6223 C   0  0  0  0  0  0  0  0  0  0  0  0
  143.4038  134.7167  152.1777 C   0  0  0  0  0  0  0  0  0  0  0  0
  145.1199  135.6431  150.6783 C   0  0  0  0  0  0  0  0  0  0  0  0
  148.7965  141.4352  155.4044 C   0  0  0  0  0  0  0  0  0  0  0  0
  149.4732  142.2315  156.2609 N   0  3  0  0  0  0  0  0  0  0  0  0
  152.1427  142.3761  158.3123 H   0  0  0  0  0  0  0  0  0  0  0  0
  150.5743  143.1233  158.6306 H   0  0  0  0  0  0  0  0  0  0  0  0
  151.5794  143.7065  157.2963 H   0  0  0  0  0  0  0  0  0  0  0  0
  151.9886  140.1972  157.2009 H   0  0  0  0  0  0  0  0  0  0  0  0
  150.7918  138.6703  155.6334 H   0  0  0  0  0  0  0  0  0  0  0  0
  147.6686  139.7767  153.7659 H   0  0  0  0  0  0  0  0  0  0  0  0
  149.1563  138.9563  153.3636 H   0  0  0  0  0  0  0  0  0  0  0  0
  148.7025  137.6273  155.6530 H   0  0  0  0  0  0  0  0  0  0  0  0
  147.0491  138.1405  155.4036 H   0  0  0  0  0  0  0  0  0  0  0  0
  148.5674  136.7039  153.2757 H   0  0  0  0  0  0  0  0  0  0  0  0
  147.7099  135.1251  152.3552 H   0  0  0  0  0  0  0  0  0  0  0  0
  145.4632  133.6284  153.5546 H   0  0  0  0  0  0  0  0  0  0  0  0
  147.2110  133.3831  151.0327 H   0  0  0  0  0  0  0  0  0  0  0  0
  147.4758  131.1117  151.7028 H   0  0  0  0  0  0  0  0  0  0  0  0
  146.7367  131.5591  153.2397 H   0  0  0  0  0  0  0  0  0  0  0  0
  145.4196  130.4186  150.7739 H   0  0  0  0  0  0  0  0  0  0  0  0
  144.9605  130.1752  152.4635 H   0  0  0  0  0  0  0  0  0  0  0  0
  145.1008  133.0340  149.9168 H   0  0  0  0  0  0  0  0  0  0  0  0
  142.6553  134.7221  151.3849 H   0  0  0  0  0  0  0  0  0  0  0  0
  143.3402  135.6716  152.7003 H   0  0  0  0  0  0  0  0  0  0  0  0
  143.1135  133.9440  152.8898 H   0  0  0  0  0  0  0  0  0  0  0  0
  144.4029  135.6941  149.8585 H   0  0  0  0  0  0  0  0  0  0  0  0
  146.1094  135.5490  150.2299 H   0  0  0  0  0  0  0  0  0  0  0  0
  145.0889  136.6009  151.1986 H   0  0  0  0  0  0  0  0  0  0  0  0
  147.9157  141.8681  154.9525 H   0  0  0  0  0  0  0  0  0  0  0  0
  149.1234  143.1755  156.4276 H   0  0  0  0  0  0  0  0  0  0  0  0
  1  2  1  0  0  0  0
  1 23  1  0  0  0  0
  1 24  1  0  0  0  0
  1 25  1  0  0  0  0
  2 22  1  0  0  0  0
  2  3  2  0  0  0  0
  3  4  1  0  0  0  0
  3 26  1  0  0  0  0
  4  5  2  0  0  0  0
  4 27  1  0  0  0  0
  5  6  1  0  0  0  0
  5 21  1  0  0  0  0
  6  7  1  0  0  0  0
  6 28  1  0  0  0  0
  6 29  1  0  0  0  0
  7  8  1  0  0  0  0
  7 30  1  0  0  0  0
  7 31  1  0  0  0  0
  8  9  1  0  0  0  0
  8 32  1  0  0  0  0
  9 10  2  0  0  0  0
  9 11  1  0  0  0  0
 11 12  1  0  0  0  0
 11 33  1  0  0  0  0
 12 18  1  0  0  0  0
 12 13  1  0  0  0  0
 12 34  1  0  0  0  0
 13 17  1  0  0  0  0
 13 14  1  0  0  0  0
 13 35  1  0  0  0  0
 14 15  1  0  0  0  0
 14 36  1  0  0  0  0
 14 37  1  0  0  0  0
 15 16  1  0  0  0  0
 15 38  1  0  0  0  0
 15 39  1  0  0  0  0
 16 17  1  0  0  0  0
 17 18  1  0  0  0  0
 17 40  1  0  0  0  0
 18 19  1  0  0  0  0
 18 20  1  0  0  0  0
 19 41  1  0  0  0  0
 19 42  1  0  0  0  0
 19 43  1  0  0  0  0
 20 44  1  0  0  0  0
 20 45  1  0  0  0  0
 20 46  1  0  0  0  0
 21 22  2  0  0  0  0
 21 47  1  0  0  0  0
 22 48  1  0  0  0  0
M  CHG  1  22   1
M  END
> <s_m_source_file>
AV-unprocessed.smi

> <i_m_source_file_index>
767

> <i_lp_mmshare_version>
43012

> <i_f3d_flags>
0

> <s_epik_input>
W0NIM11jMVtjSF1bY0hdYyhbY0hdbjEpW0NIMl1bQ0gyXVtOSF1DKD1PKVtOSF1bQ0BIXTJDKFtDSDNdKShbQ0gzXSlbQ0BIXShbQ0BASF0yMylPW0NIMl1bQ0gyXTM=

> <s_epik_cmdline>
J2VwaWtfcHl0aG9uJywgJy1waCcsICc3LjAnLCAnLXRuJywgJzgnLCAnLW1hJywgJzIwMCcsICctbWV0YWxfYmluZGluZycsICctaW1hZScsICc8aW5maWxlLm1hZT4nLCAnLW9tYWUnLCAnPG91dGZpbGUubWFlPic=

> <r_epik_Ionization_Penalty>
1.41853

> <r_epik_Ionization_Penalty_Charging>
1.41848

> <r_epik_Ionization_Penalty_Neutral>
5.17407e-05

> <r_epik_State_Penalty>
1.50205

> <r_epik_Charging_Adjusted_Penalty>
2.92053

> <i_epik_Tot_Q>
1

> <i_epik_Tot_abs_Q>
1

> <r_epik_Metal_State_Penalty>
1.5544

> <b_epik_Metal_Only>
0

> <s_lp_Force_Field>
OPLS_2005

> <r_lp_Energy>
38.5293

> <b_lp_Chiralities_Consistent>
1

> <s_lp_Variant>
AV-unprocessed.smi:767-13

> <Gold.Version>
5.8.1

> <Gold.Id.Protein>
6NUR|6NUR_protein|mol2

> <Gold.PLP.Fitness>
43.9560

> <Gold.PLP.PLP>
-33.7909

> <Gold.PLP.part.hbond>
-2.5750

> <Gold.PLP.part.metal>
0.0000

> <Gold.PLP.part.buried>
-3.2208

> <Gold.PLP.part.nonpolar>
-29.3174

> <Gold.PLP.part.repulsive>
0.3176

> <Gold.PLP.ligand.clash>
0.0000

> <Gold.PLP.ligand.torsion>
0.4940

> <Gold.PLP.Chemscore.Hbond>
3.6563

> <Gold.PLP.Chemscore.CHOScore>
0.0000

> <Gold.PLP.Chemscore.Metal>
0.0000

> <Gold.Chemscore.Hbonds>
donor molecule, donor type, donor heavy atom, donor atom, acceptor molecule, acceptor atom, score
      L1  H     8    32       P1  7948  0.96
      L1  H    11    33       P1  7948  0.82
      L1  H    22    48       P1  8028  1.73

> <Gold.PLP.Chemscore.Internal.Correction>
0.1843

> <Gold.Rescore>
     Score         DG    S(hbond)    S(metal)    S(lipo)     H(rot)  DE(clash)    DE(int)     intcor
     20.97     -21.53       2.79        0.00      90.86       1.52       0.05       0.51       ----

> <Gold.Chemscore.Fitness>
20.9741

> <Gold.Chemscore.DG>
-21.5344

> <Gold.Chemscore.ZeroCoef>
-5.4800

> <Gold.Chemscore.Hbond>
2.7915

> <Gold.Chemscore.Metal>
0.0000

> <Gold.Chemscore.Lipo>
90.8575

> <Gold.Chemscore.Internal_Hbond>
0.0000

> <Gold.Chemscore.DEClash>
0.0473

> <Gold.Chemscore.DEInternal>
0.5130

> <Gold.Chemscore.Rot>
1.5233

> <Gold.Chemscore.Internal.Correction>
   9.000000E+99

> <Gold.Chemscore.Hbonds>
donor molecule, donor type, donor heavy atom, donor atom, acceptor molecule, acceptor atom, score
      L1  H     8    32       P1  7948  0.86
      L1  H    11    33       P1  7948  0.80
      L1  H    22    48       P1  8028  0.85

> <Gold.Chemscore.Hbond.Weighted>
-9.3236

> <Gold.Chemscore.Metal.Weighted>
-0.0000

> <Gold.Chemscore.Lipo.Weighted>
-10.6303

> <Gold.Chemscore.Internal_Hbond.Weighted>
0.0000

> <Gold.Chemscore.DEClash.Weighted>
0.0473

> <Gold.Chemscore.DEInternal.Weighted>
0.5130

> <Gold.Chemscore.Rot.Weighted>
3.8995

> <Gold.Chemscore.Internal.Correction.Weighted>
   9.000000E+99

> <Gold.Protein.RotatedTorsions>
[ 6907 6896 6895 6894 ] final   78.66 input  -60.11 | X-H torsion
[ 7974 7965 7964 7962 ] final  -75.22 input  175.53 | X-H torsion
[ 8008 7997 7996 7995 ] final  141.47 input   59.86 | X-H torsion
[ 10167 10162 10161 10158 ] final  -77.60 input  -65.29 | X-H torsion
[ 10718 10713 10712 10709 ] final  -93.59 input   66.30 | X-H torsion
[ 10763 10752 10751 10750 ] final  -90.07 input  -60.55 | X-H torsion
[ 11005 11000 10999 10996 ] final -148.95 input  -57.11 | X-H torsion

> <Gold.Protein.ActiveResidues>
 VAL166  LYS551  ARG553  GLY616  TRP617  ASP618  TYR619  PRO620  LYS621  CYS622 
 ASP623  PHE694  ASN695  SER759  ASP760  ASP761  ALA762  ILE779  LEU786  VAL792 
 PHE793  MET794  SER795  GLU796  ALA797  LYS798  CYS799  TRP800  GLU811  SER814 

> <Gold.Protein.RotatedAtoms>
  152.5168  134.3631  159.9291 H   0  0  0  0  0  0  0  0  0  0  0  0  # atno 6907 bound_to 6896
  151.3583  133.3892  159.2695 H   0  0  0  0  0  0  0  0  0  0  0  0  # atno 6908 bound_to 6896
  150.9672  134.9069  159.7824 H   0  0  0  0  0  0  0  0  0  0  0  0  # atno 6909 bound_to 6896
  145.6289  140.9343  143.1097 H   0  0  0  0  0  0  0  0  0  0  0  0  # atno 7974 bound_to 7965
  156.2965  140.2314  156.4570 H   0  0  0  0  0  0  0  0  0  0  0  0  # atno 8008 bound_to 7997
  154.8052  140.0446  157.1323 H   0  0  0  0  0  0  0  0  0  0  0  0  # atno 8009 bound_to 7997
  154.9487  140.3039  155.5089 H   0  0  0  0  0  0  0  0  0  0  0  0  # atno 8010 bound_to 7997
  140.4756  143.2415  151.8138 H   0  0  0  0  0  0  0  0  0  0  0  0  # atno 10167 bound_to 10162
  156.0015  130.5033  150.5800 H   0  0  0  0  0  0  0  0  0  0  0  0  # atno 10718 bound_to 10713
  154.6619  135.5318  153.8029 H   0  0  0  0  0  0  0  0  0  0  0  0  # atno 10763 bound_to 10752
  153.0447  135.6508  154.0858 H   0  0  0  0  0  0  0  0  0  0  0  0  # atno 10764 bound_to 10752
  154.0766  135.2950  155.3278 H   0  0  0  0  0  0  0  0  0  0  0  0  # atno 10765 bound_to 10752
  140.7559  134.3354  157.5114 H   0  0  0  0  0  0  0  0  0  0  0  0  # atno 11005 bound_to 11000
  144.7201  139.8059  143.7385 LP  0  0  0  0  0  0  0  0  0  0  0  0  # atno 17320 bound_to 7965
  146.1372  139.4421  143.0131 LP  0  0  0  0  0  0  0  0  0  0  0  0  # atno 17321 bound_to 7965
  139.4825  144.4838  151.9273 LP  0  0  0  0  0  0  0  0  0  0  0  0  # atno 17342 bound_to 10162
  140.3923  144.2600  150.5899 LP  0  0  0  0  0  0  0  0  0  0  0  0  # atno 17343 bound_to 10162
  157.3681  131.0761  151.1580 LP  0  0  0  0  0  0  0  0  0  0  0  0  # atno 17370 bound_to 10713
  157.2343  130.6539  149.5863 LP  0  0  0  0  0  0  0  0  0  0  0  0  # atno 17371 bound_to 10713
  139.8779  134.9171  156.3171 LP  0  0  0  0  0  0  0  0  0  0  0  0  # atno 17394 bound_to 11000
  140.9708  133.7328  156.0532 LP  0  0  0  0  0  0  0  0  0  0  0  0  # atno 17395 bound_to 11000

$$$$
