AV-unprocessed.smi:283|AV-procd|sdf|2125|dock3
  -GOLD-   2262021433D 1   1.00000     0.00000
 Structure written by MMmdl.
 48 51  0  0  0  0  0  0  0  0  1 V2000
  150.2043  142.0062  157.2070 C   0  0  0  0  0  0  0  0  0  0  0  0
  151.7183  141.7484  157.3182 C   0  0  2  0  0  0  0  0  0  0  0  0
  152.0548  140.3865  156.9041 N   0  0  0  0  0  0  0  0  0  0  0  0
  151.1924  139.6250  156.1944 C   0  0  0  0  0  0  0  0  0  0  0  0
  150.6962  140.0436  155.0010 N   0  0  0  0  0  0  0  0  0  0  0  0
  149.8444  139.2695  154.3224 C   0  0  0  0  0  0  0  0  0  0  0  0
  149.3686  138.0663  154.6501 N   0  0  0  0  0  0  0  0  0  0  0  0
  149.8680  137.6374  155.8455 C   0  0  0  0  0  0  0  0  0  0  0  0
  150.7804  138.3532  156.6700 C   0  0  0  0  0  0  0  0  0  0  0  0
  151.0705  137.6101  157.8067 N   0  0  0  0  0  0  0  0  0  0  0  0
  150.3670  136.5196  157.6589 C   0  0  0  0  0  0  0  0  0  0  0  0
  149.6094  136.4556  156.5104 N   0  0  0  0  0  0  0  0  0  0  0  0
  148.7052  135.3470  156.0781 C   0  0  2  0  0  0  0  0  0  0  0  0
  148.7813  134.3269  157.0261 O   0  0  0  0  0  0  0  0  0  0  0  0
  148.8183  133.0656  156.3681 C   0  0  2  0  0  0  0  0  0  0  0  0
  149.4693  132.0187  157.2851 C   0  0  0  0  0  0  0  0  0  0  0  0
  150.7214  132.4844  157.7412 O   0  0  0  0  0  0  0  0  0  0  0  0
  149.6395  133.3768  155.1159 C   0  0  1  0  0  0  0  0  0  0  0  0
  149.4776  132.4137  154.0903 O   0  0  0  0  0  0  0  0  0  0  0  0
  149.1524  134.7703  154.7247 C   0  0  1  0  0  0  0  0  0  0  0  0
  148.0656  134.7235  153.8176 O   0  0  0  0  0  0  0  0  0  0  0  0
  152.1955  142.0667  158.7345 C   0  0  0  0  0  0  0  0  0  0  0  0
  152.7804  141.0513  159.5278 C   0  0  0  0  0  0  0  0  0  0  0  0
  153.2144  141.3236  160.8387 C   0  0  0  0  0  0  0  0  0  0  0  0
  153.0626  142.6144  161.3754 C   0  0  0  0  0  0  0  0  0  0  0  0
  152.4719  143.6295  160.6008 C   0  0  0  0  0  0  0  0  0  0  0  0
  152.0347  143.3628  159.2877 C   0  0  0  0  0  0  0  0  0  0  0  0
  151.2975  144.6454  158.3921 Cl  0  0  0  0  0  0  0  0  0  0  0  0
  147.7075  135.7886  156.0610 H   0  0  0  0  0  0  0  0  0  0  0  0
  147.8056  132.7738  156.0825 H   0  0  0  0  0  0  0  0  0  0  0  0
  150.6967  133.4250  155.3771 H   0  0  0  0  0  0  0  0  0  0  0  0
  149.9526  135.3664  154.2835 H   0  0  0  0  0  0  0  0  0  0  0  0
  149.9636  143.0360  157.4722 H   0  0  0  0  0  0  0  0  0  0  0  0
  149.6423  141.3530  157.8752 H   0  0  0  0  0  0  0  0  0  0  0  0
  149.8349  141.8393  156.1956 H   0  0  0  0  0  0  0  0  0  0  0  0
  152.2386  142.4213  156.6378 H   0  0  0  0  0  0  0  0  0  0  0  0
  152.9271  140.0273  157.2642 H   0  0  0  0  0  0  0  0  0  0  0  0
  149.4930  139.6717  153.3838 H   0  0  0  0  0  0  0  0  0  0  0  0
  150.3771  135.7273  158.3933 H   0  0  0  0  0  0  0  0  0  0  0  0
  148.8457  131.8480  158.1629 H   0  0  0  0  0  0  0  0  0  0  0  0
  149.5810  131.0604  156.7765 H   0  0  0  0  0  0  0  0  0  0  0  0
  151.3807  132.2399  157.1099 H   0  0  0  0  0  0  0  0  0  0  0  0
  150.1660  131.7712  154.1709 H   0  0  0  0  0  0  0  0  0  0  0  0
  148.3812  134.9655  152.9605 H   0  0  0  0  0  0  0  0  0  0  0  0
  152.8965  140.0503  159.1394 H   0  0  0  0  0  0  0  0  0  0  0  0
  153.6609  140.5407  161.4338 H   0  0  0  0  0  0  0  0  0  0  0  0
  153.3937  142.8247  162.3816 H   0  0  0  0  0  0  0  0  0  0  0  0
  152.3501  144.6179  161.0190 H   0  0  0  0  0  0  0  0  0  0  0  0
  1  2  1  0  0  0  0
  1 33  1  0  0  0  0
  1 34  1  0  0  0  0
  1 35  1  0  0  0  0
  2  3  1  0  0  0  0
  2 22  1  0  0  0  0
  2 36  1  0  0  0  0
  3  4  1  0  0  0  0
  3 37  1  0  0  0  0
  4  9  1  0  0  0  0
  4  5  2  0  0  0  0
  5  6  1  0  0  0  0
  6  7  2  0  0  0  0
  6 38  1  0  0  0  0
  7  8  1  0  0  0  0
  8 12  1  0  0  0  0
  8  9  2  0  0  0  0
  9 10  1  0  0  0  0
 10 11  2  0  0  0  0
 11 12  1  0  0  0  0
 11 39  1  0  0  0  0
 12 13  1  0  0  0  0
 13 29  1  0  0  0  0
 13 20  1  0  0  0  0
 13 14  1  0  0  0  0
 14 15  1  0  0  0  0
 15 30  1  0  0  0  0
 15 16  1  0  0  0  0
 15 18  1  0  0  0  0
 16 17  1  0  0  0  0
 16 40  1  0  0  0  0
 16 41  1  0  0  0  0
 17 42  1  0  0  0  0
 18 31  1  0  0  0  0
 18 19  1  0  0  0  0
 18 20  1  0  0  0  0
 19 43  1  0  0  0  0
 20 32  1  0  0  0  0
 20 21  1  0  0  0  0
 21 44  1  0  0  0  0
 22 27  1  0  0  0  0
 22 23  2  0  0  0  0
 23 24  1  0  0  0  0
 23 45  1  0  0  0  0
 24 25  2  0  0  0  0
 24 46  1  0  0  0  0
 25 26  1  0  0  0  0
 25 47  1  0  0  0  0
 26 27  2  0  0  0  0
 26 48  1  0  0  0  0
 27 28  1  0  0  0  0
M  END
> <s_m_source_file>
AV-unprocessed.smi

> <i_m_source_file_index>
283

> <i_lp_mmshare_version>
43012

> <i_f3d_flags>
0

> <s_epik_input>
Q2xjMVtjSF1bY0hdW2NIXVtjSF1jMVtDQEhdKFtDSDNdKVtOSF1jKG5bY0hdbjIpYyhjMjMpbltjSF1uM1tDQEBIXTRPW0NASF0oW0NIMl1bT0hdKVtDQEBIXShbT0hdKVtDQEhdNFtPSF0=

> <s_epik_cmdline>
J2VwaWtfcHl0aG9uJywgJy1waCcsICc3LjAnLCAnLXRuJywgJzgnLCAnLW1hJywgJzIwMCcsICctbWV0YWxfYmluZGluZycsICctaW1hZScsICc8aW5maWxlLm1hZT4nLCAnLW9tYWUnLCAnPG91dGZpbGUubWFlPic=

> <r_lp_tautomer_probability>
1

> <r_epik_Ionization_Penalty>
0.000266407

> <r_epik_Ionization_Penalty_Charging>
0

> <r_epik_Ionization_Penalty_Neutral>
0.000266407

> <r_epik_State_Penalty>
-0

> <r_epik_Charging_Adjusted_Penalty>
0

> <i_epik_Tot_Q>
0

> <i_epik_Tot_abs_Q>
0

> <r_epik_Metal_State_Penalty>
-0

> <b_epik_Metal_Only>
0

> <s_epik_Chemistry_Notes>
This compound contains an acetal/aminal-like group ( X-CH(R)-Y where X, Y are N, S, or O) that may be acid/base labile, releasing an aldehyde.

> <s_lp_Force_Field>
OPLS_2005

> <r_lp_Energy>
47.4388

> <b_lp_Chiralities_Consistent>
1

> <s_lp_Variant>
AV-unprocessed.smi:283-1

> <Gold.Version>
5.8.1

> <Gold.Id.Protein>
6NUR|6NUR_protein|mol2

> <Gold.PLP.Fitness>
51.0918

> <Gold.PLP.PLP>
-40.5757

> <Gold.PLP.part.hbond>
-3.0000

> <Gold.PLP.part.metal>
0.0000

> <Gold.PLP.part.buried>
-6.2092

> <Gold.PLP.part.nonpolar>
-32.2060

> <Gold.PLP.part.repulsive>
0.3692

> <Gold.PLP.ligand.clash>
0.0000

> <Gold.PLP.ligand.torsion>
0.8129

> <Gold.PLP.Chemscore.Hbond>
3.0000

> <Gold.PLP.Chemscore.CHOScore>
1.0000

> <Gold.PLP.Chemscore.Metal>
0.0000

> <Gold.Chemscore.Hbonds>
donor molecule, donor type, donor heavy atom, donor atom, acceptor molecule, acceptor atom, score
      L1  H    21    44       P1  7948  1.00
      P1  H  6896  6907       L1    17  1.00
      P1  H  7989  7998       L1     5  0.95
      L1  C     6    38       P1  7957  1.00

> <Gold.PLP.Chemscore.Internal.Correction>
0.1419

> <Gold.Rescore>
     Score         DG    S(hbond)    S(metal)    S(lipo)     H(rot)  DE(clash)    DE(int)     intcor
     13.32     -15.40       2.25        0.00     110.14       4.10       0.10       1.98       ----

> <Gold.Chemscore.Fitness>
13.3215

> <Gold.Chemscore.DG>
-15.3988

> <Gold.Chemscore.ZeroCoef>
-5.4800

> <Gold.Chemscore.Hbond>
2.2514

> <Gold.Chemscore.Metal>
0.0000

> <Gold.Chemscore.Lipo>
110.1446

> <Gold.Chemscore.Internal_Hbond>
0.0000

> <Gold.Chemscore.DEClash>
0.0998

> <Gold.Chemscore.DEInternal>
1.9776

> <Gold.Chemscore.Rot>
4.0968

> <Gold.Chemscore.Internal.Correction>
   9.000000E+99

> <Gold.Chemscore.Hbonds>
donor molecule, donor type, donor heavy atom, donor atom, acceptor molecule, acceptor atom, score
      L1  H    21    44       P1  7948  0.70
      P1  H  6896  6907       L1    17  0.93
      P1  H  7989  7998       L1     5  0.21

> <Gold.Chemscore.Hbond.Weighted>
-7.5198

> <Gold.Chemscore.Metal.Weighted>
-0.0000

> <Gold.Chemscore.Lipo.Weighted>
-12.8869

> <Gold.Chemscore.Internal_Hbond.Weighted>
0.0000

> <Gold.Chemscore.DEClash.Weighted>
0.0998

> <Gold.Chemscore.DEInternal.Weighted>
1.9776

> <Gold.Chemscore.Rot.Weighted>
10.4879

> <Gold.Chemscore.Internal.Correction.Weighted>
   9.000000E+99

> <Gold.Protein.RotatedTorsions>
[ 6907 6896 6895 6894 ] final -160.19 input  -60.11 | X-H torsion
[ 7974 7965 7964 7962 ] final  172.69 input  175.53 | X-H torsion
[ 8008 7997 7996 7995 ] final -102.09 input   59.86 | X-H torsion
[ 10167 10162 10161 10158 ] final  145.53 input  -65.29 | X-H torsion
[ 10718 10713 10712 10709 ] final  -87.15 input   66.30 | X-H torsion
[ 10763 10752 10751 10750 ] final  -67.78 input  -60.55 | X-H torsion
[ 11005 11000 10999 10996 ] final -133.12 input  -57.11 | X-H torsion

> <Gold.Protein.ActiveResidues>
 VAL166  LYS551  ARG553  GLY616  TRP617  ASP618  TYR619  PRO620  LYS621  CYS622 
 ASP623  PHE694  ASN695  SER759  ASP760  ASP761  ALA762  ILE779  LEU786  VAL792 
 PHE793  MET794  SER795  GLU796  ALA797  LYS798  CYS799  TRP800  GLU811  SER814 

> <Gold.Protein.RotatedAtoms>
  151.3452  133.3947  159.2674 H   0  0  0  0  0  0  0  0  0  0  0  0  # atno 6907 bound_to 6896
  150.9846  134.9195  159.7874 H   0  0  0  0  0  0  0  0  0  0  0  0  # atno 6908 bound_to 6896
  152.5228  134.3416  159.9271 H   0  0  0  0  0  0  0  0  0  0  0  0  # atno 6909 bound_to 6896
  144.7262  139.9537  143.6433 H   0  0  0  0  0  0  0  0  0  0  0  0  # atno 7974 bound_to 7965
  154.8517  140.0430  157.1608 H   0  0  0  0  0  0  0  0  0  0  0  0  # atno 8008 bound_to 7997
  154.8936  140.2990  155.5336 H   0  0  0  0  0  0  0  0  0  0  0  0  # atno 8009 bound_to 7997
  156.2996  140.2389  156.3954 H   0  0  0  0  0  0  0  0  0  0  0  0  # atno 8010 bound_to 7997
  139.4924  144.5895  151.6710 H   0  0  0  0  0  0  0  0  0  0  0  0  # atno 10167 bound_to 10162
  155.9986  130.4790  150.4824 H   0  0  0  0  0  0  0  0  0  0  0  0  # atno 10718 bound_to 10713
  154.3795  135.6077  153.5783 H   0  0  0  0  0  0  0  0  0  0  0  0  # atno 10763 bound_to 10752
  152.9788  135.5857  154.4427 H   0  0  0  0  0  0  0  0  0  0  0  0  # atno 10764 bound_to 10752
  154.4194  135.2845  155.1963 H   0  0  0  0  0  0  0  0  0  0  0  0  # atno 10765 bound_to 10752
  140.9109  134.1569  157.4390 H   0  0  0  0  0  0  0  0  0  0  0  0  # atno 11005 bound_to 11000
  146.0691  139.3681  143.0534 LP  0  0  0  0  0  0  0  0  0  0  0  0  # atno 17320 bound_to 7965
  145.7991  140.9779  143.1008 LP  0  0  0  0  0  0  0  0  0  0  0  0  # atno 17321 bound_to 7965
  140.5519  144.0412  150.6130 LP  0  0  0  0  0  0  0  0  0  0  0  0  # atno 17342 bound_to 10162
  140.3469  143.2986  152.0529 LP  0  0  0  0  0  0  0  0  0  0  0  0  # atno 17343 bound_to 10162
  157.2828  131.0610  151.2186 LP  0  0  0  0  0  0  0  0  0  0  0  0  # atno 17370 bound_to 10713
  157.3227  130.6945  149.6278 LP  0  0  0  0  0  0  0  0  0  0  0  0  # atno 17371 bound_to 10713
  139.8757  134.9935  156.5648 LP  0  0  0  0  0  0  0  0  0  0  0  0  # atno 17394 bound_to 11000
  140.8111  133.8428  155.8811 LP  0  0  0  0  0  0  0  0  0  0  0  0  # atno 17395 bound_to 11000

$$$$
