AV-unprocessed.smi:2481|AV-procd|sdf|9771|dock5
  -GOLD-   2272013413D 1   1.00000     0.00000
 Structure written by MMmdl.
 37 38  0  0  0  0  0  0  0  0  1 V2000
  150.7062  136.3226  155.1413 C   0  0  0  0  0  0  0  0  0  0  0  0
  150.6751  134.8972  155.4061 N   0  0  0  0  0  0  0  0  0  0  0  0
  151.4981  134.3423  156.3268 N   0  0  0  0  0  0  0  0  0  0  0  0
  151.1710  133.0509  156.2723 C   0  0  0  0  0  0  0  0  0  0  0  0
  150.1920  132.7180  155.3800 N   0  0  0  0  0  0  0  0  0  0  0  0
  149.9315  133.9209  154.8773 C   0  0  0  0  0  0  0  0  0  0  0  0
  148.9690  134.2191  153.8756 N   0  0  0  0  0  0  0  0  0  0  0  0
  147.8652  133.5206  153.5603 C   0  0  0  0  0  0  0  0  0  0  0  0
  147.5081  132.4759  154.1053 O   0  0  0  0  0  0  0  0  0  0  0  0
  147.1860  134.1119  152.5661 N   0  0  0  0  0  0  0  0  0  0  0  0
  145.9488  133.6206  151.9589 C   0  0  2  0  0  0  0  0  0  0  0  0
  146.2128  132.2092  151.3963 C   0  0  0  0  0  0  0  0  0  0  0  0
  144.9816  131.6389  150.6798 C   0  0  0  0  0  0  0  0  0  0  0  0
  144.5105  132.5868  149.5706 C   0  0  0  0  0  0  0  0  0  0  0  0
  144.2204  133.9862  150.1320 C   0  0  0  0  0  0  0  0  0  0  0  0
  145.4454  134.5916  150.8562 C   0  0  1  0  0  0  0  0  0  0  0  0
  145.1199  135.9959  151.4136 C   0  0  0  0  0  0  0  0  0  0  0  0
  146.3017  136.6927  151.7501 O   0  0  0  0  0  0  0  0  0  0  0  0
  149.7064  136.7406  155.2595 H   0  0  0  0  0  0  0  0  0  0  0  0
  151.0488  136.4977  154.1213 H   0  0  0  0  0  0  0  0  0  0  0  0
  151.3823  136.8264  155.8333 H   0  0  0  0  0  0  0  0  0  0  0  0
  151.6570  132.3198  156.9014 H   0  0  0  0  0  0  0  0  0  0  0  0
  149.1413  135.0579  153.3416 H   0  0  0  0  0  0  0  0  0  0  0  0
  147.5581  134.9708  152.1882 H   0  0  0  0  0  0  0  0  0  0  0  0
  145.1667  133.5330  152.7156 H   0  0  0  0  0  0  0  0  0  0  0  0
  147.0510  132.2402  150.6985 H   0  0  0  0  0  0  0  0  0  0  0  0
  146.5083  131.5363  152.2022 H   0  0  0  0  0  0  0  0  0  0  0  0
  145.2148  130.6601  150.2596 H   0  0  0  0  0  0  0  0  0  0  0  0
  144.1759  131.4846  151.3986 H   0  0  0  0  0  0  0  0  0  0  0  0
  145.2732  132.6532  148.7936 H   0  0  0  0  0  0  0  0  0  0  0  0
  143.6162  132.1847  149.0933 H   0  0  0  0  0  0  0  0  0  0  0  0
  143.9043  134.6356  149.3153 H   0  0  0  0  0  0  0  0  0  0  0  0
  143.3774  133.9303  150.8220 H   0  0  0  0  0  0  0  0  0  0  0  0
  146.2458  134.7017  150.1222 H   0  0  0  0  0  0  0  0  0  0  0  0
  144.5505  136.5780  150.6883 H   0  0  0  0  0  0  0  0  0  0  0  0
  144.5145  135.9329  152.3173 H   0  0  0  0  0  0  0  0  0  0  0  0
  147.0374  136.1116  151.6302 H   0  0  0  0  0  0  0  0  0  0  0  0
  1  2  1  0  0  0  0
  1 19  1  0  0  0  0
  1 20  1  0  0  0  0
  1 21  1  0  0  0  0
  2  6  1  0  0  0  0
  2  3  1  0  0  0  0
  3  4  2  0  0  0  0
  4  5  1  0  0  0  0
  4 22  1  0  0  0  0
  5  6  2  0  0  0  0
  6  7  1  0  0  0  0
  7  8  1  0  0  0  0
  7 23  1  0  0  0  0
  8  9  2  0  0  0  0
  8 10  1  0  0  0  0
 10 11  1  0  0  0  0
 10 24  1  0  0  0  0
 11 16  1  0  0  0  0
 11 12  1  0  0  0  0
 11 25  1  0  0  0  0
 12 13  1  0  0  0  0
 12 26  1  0  0  0  0
 12 27  1  0  0  0  0
 13 14  1  0  0  0  0
 13 28  1  0  0  0  0
 13 29  1  0  0  0  0
 14 15  1  0  0  0  0
 14 30  1  0  0  0  0
 14 31  1  0  0  0  0
 15 16  1  0  0  0  0
 15 32  1  0  0  0  0
 15 33  1  0  0  0  0
 16 17  1  0  0  0  0
 16 34  1  0  0  0  0
 17 18  1  0  0  0  0
 17 35  1  0  0  0  0
 17 36  1  0  0  0  0
 18 37  1  0  0  0  0
M  END
> <s_m_source_file>
AV-unprocessed.smi

> <i_m_source_file_index>
2481

> <i_lp_mmshare_version>
43012

> <i_f3d_flags>
0

> <s_epik_input>
W0NIM11uMW5bY0hdbmMxW05IXUMoPU8pW05IXVtDQEBIXTJbQ0gyXVtDSDJdW0NIMl1bQ0gyXVtDQEhdMltDSDJdW09IXQ==

> <s_epik_cmdline>
J2VwaWtfcHl0aG9uJywgJy1waCcsICc3LjAnLCAnLXRuJywgJzgnLCAnLW1hJywgJzIwMCcsICctbWV0YWxfYmluZGluZycsICctaW1hZScsICc8aW5maWxlLm1hZT4nLCAnLW9tYWUnLCAnPG91dGZpbGUubWFlPic=

> <r_lp_tautomer_probability>
1

> <r_epik_Ionization_Penalty>
2.32704e-05

> <r_epik_Ionization_Penalty_Charging>
0

> <r_epik_Ionization_Penalty_Neutral>
2.32704e-05

> <r_epik_State_Penalty>
-0

> <r_epik_Charging_Adjusted_Penalty>
0

> <i_epik_Tot_Q>
0

> <i_epik_Tot_abs_Q>
0

> <r_epik_Metal_State_Penalty>
-0

> <b_epik_Metal_Only>
0

> <s_lp_Force_Field>
OPLS_2005

> <r_lp_Energy>
13.3573

> <b_lp_Chiralities_Consistent>
1

> <s_lp_Variant>
AV-unprocessed.smi:2481-1

> <Gold.Version>
5.8.1

> <Gold.Id.Protein>
6NUR|6NUR_protein|mol2

> <Gold.PLP.Fitness>
39.8005

> <Gold.PLP.PLP>
-31.9410

> <Gold.PLP.part.hbond>
-3.2975

> <Gold.PLP.part.metal>
0.0000

> <Gold.PLP.part.buried>
-4.8985

> <Gold.PLP.part.nonpolar>
-24.2590

> <Gold.PLP.part.repulsive>
0.0554

> <Gold.PLP.ligand.clash>
0.0000

> <Gold.PLP.ligand.torsion>
0.2265

> <Gold.PLP.Chemscore.Hbond>
2.7680

> <Gold.PLP.Chemscore.CHOScore>
0.0000

> <Gold.PLP.Chemscore.Metal>
0.0000

> <Gold.Chemscore.Hbonds>
donor molecule, donor type, donor heavy atom, donor atom, acceptor molecule, acceptor atom, score
      L1  H     7    23       P1  7948  0.90
      L1  H    10    24       P1  7948  1.00
      L1  H    18    37       P1  7948  0.74

> <Gold.PLP.Chemscore.Internal.Correction>
0.0084

> <Gold.Rescore>
     Score         DG    S(hbond)    S(metal)    S(lipo)     H(rot)  DE(clash)    DE(int)     intcor
     11.58     -14.17       2.10        0.00      57.85       1.99       0.03       2.56       ----

> <Gold.Chemscore.Fitness>
11.5803

> <Gold.Chemscore.DG>
-14.1709

> <Gold.Chemscore.ZeroCoef>
-5.4800

> <Gold.Chemscore.Hbond>
2.0991

> <Gold.Chemscore.Metal>
0.0000

> <Gold.Chemscore.Lipo>
57.8490

> <Gold.Chemscore.Internal_Hbond>
0.0000

> <Gold.Chemscore.DEClash>
0.0323

> <Gold.Chemscore.DEInternal>
2.5583

> <Gold.Chemscore.Rot>
1.9877

> <Gold.Chemscore.Internal.Correction>
   9.000000E+99

> <Gold.Chemscore.Hbonds>
donor molecule, donor type, donor heavy atom, donor atom, acceptor molecule, acceptor atom, score
      L1  H     7    23       P1  7948  0.18
      L1  H    10    24       P1  7948  0.90
      L1  H    18    37       P1  7948  0.74

> <Gold.Chemscore.Hbond.Weighted>
-7.0110

> <Gold.Chemscore.Metal.Weighted>
-0.0000

> <Gold.Chemscore.Lipo.Weighted>
-6.7683

> <Gold.Chemscore.Internal_Hbond.Weighted>
0.0000

> <Gold.Chemscore.DEClash.Weighted>
0.0323

> <Gold.Chemscore.DEInternal.Weighted>
2.5583

> <Gold.Chemscore.Rot.Weighted>
5.0885

> <Gold.Chemscore.Internal.Correction.Weighted>
   9.000000E+99

> <Gold.Protein.RotatedTorsions>
[ 6907 6896 6895 6894 ] final   34.52 input  -60.11 | X-H torsion
[ 7974 7965 7964 7962 ] final  106.22 input  175.53 | X-H torsion
[ 8008 7997 7996 7995 ] final  -58.50 input   59.86 | X-H torsion
[ 10167 10162 10161 10158 ] final   43.85 input  -65.29 | X-H torsion
[ 10718 10713 10712 10709 ] final  166.96 input   66.30 | X-H torsion
[ 10763 10752 10751 10750 ] final  160.23 input  -60.55 | X-H torsion
[ 11005 11000 10999 10996 ] final  105.50 input  -57.11 | X-H torsion

> <Gold.Protein.ActiveResidues>
 VAL166  LYS551  ARG553  GLY616  TRP617  ASP618  TYR619  PRO620  LYS621  CYS622 
 ASP623  PHE694  ASN695  SER759  ASP760  ASP761  ALA762  ILE779  LEU786  VAL792 
 PHE793  MET794  SER795  GLU796  ALA797  LYS798  CYS799  TRP800  GLU811  SER814 

> <Gold.Protein.RotatedAtoms>
  152.1035  134.9324  160.0568 H   0  0  0  0  0  0  0  0  0  0  0  0  # atno 6907 bound_to 6896
  152.0530  133.4022  159.4393 H   0  0  0  0  0  0  0  0  0  0  0  0  # atno 6908 bound_to 6896
  150.6840  134.3207  159.4829 H   0  0  0  0  0  0  0  0  0  0  0  0  # atno 6909 bound_to 6896
  145.3095  139.2545  143.3771 H   0  0  0  0  0  0  0  0  0  0  0  0  # atno 7974 bound_to 7965
  154.4311  140.1083  156.5967 H   0  0  0  0  0  0  0  0  0  0  0  0  # atno 8008 bound_to 7997
  155.5955  140.3492  155.4560 H   0  0  0  0  0  0  0  0  0  0  0  0  # atno 8009 bound_to 7997
  156.0214  140.1240  157.0343 H   0  0  0  0  0  0  0  0  0  0  0  0  # atno 8010 bound_to 7997
  140.3403  144.2479  150.6156 H   0  0  0  0  0  0  0  0  0  0  0  0  # atno 10167 bound_to 10162
  157.0584  131.0333  151.2656 H   0  0  0  0  0  0  0  0  0  0  0  0  # atno 10718 bound_to 10713
  154.2441  135.2774  155.2842 H   0  0  0  0  0  0  0  0  0  0  0  0  # atno 10763 bound_to 10752
  154.5520  135.5672  153.6934 H   0  0  0  0  0  0  0  0  0  0  0  0  # atno 10764 bound_to 10752
  152.9994  135.6277  154.2586 H   0  0  0  0  0  0  0  0  0  0  0  0  # atno 10765 bound_to 10752
  139.8803  134.9338  156.5524 H   0  0  0  0  0  0  0  0  0  0  0  0  # atno 11005 bound_to 11000
  146.3123  140.3628  142.8666 LP  0  0  0  0  0  0  0  0  0  0  0  0  # atno 17320 bound_to 7965
  144.9027  140.7663  143.5856 LP  0  0  0  0  0  0  0  0  0  0  0  0  # atno 17321 bound_to 7965
  140.5315  143.2242  151.8230 LP  0  0  0  0  0  0  0  0  0  0  0  0  # atno 17342 bound_to 10162
  139.4841  144.4714  151.9421 LP  0  0  0  0  0  0  0  0  0  0  0  0  # atno 17343 bound_to 10162
  157.4974  130.7859  149.7570 LP  0  0  0  0  0  0  0  0  0  0  0  0  # atno 17370 bound_to 10713
  155.9986  130.3893  150.2696 LP  0  0  0  0  0  0  0  0  0  0  0  0  # atno 17371 bound_to 10713
  140.8230  133.8339  155.8913 LP  0  0  0  0  0  0  0  0  0  0  0  0  # atno 17394 bound_to 11000
  140.9400  134.1912  157.4804 LP  0  0  0  0  0  0  0  0  0  0  0  0  # atno 17395 bound_to 11000

$$$$
