AV-unprocessed.smi:270|AV-procd|sdf|2046|dock7
  -GOLD-   2262021273D 1   1.00000     0.00000
 Structure written by MMmdl.
 54 57  0  0  0  0  0  0  0  0  1 V2000
  152.1415  143.9444  159.4316 C   0  0  0  0  0  0  0  0  0  0  0  0
  151.2891  142.7535  158.9598 C   0  0  1  0  0  0  0  0  0  0  0  0
  150.0220  142.7695  159.6154 O   0  0  0  0  0  0  0  0  0  0  0  0
  148.9856  142.9236  158.6586 C   0  0  0  0  0  0  0  0  0  0  0  0
  149.5396  142.2491  157.4115 C   0  0  0  0  0  0  0  0  0  0  0  0
  151.0059  142.6557  157.4378 C   0  0  1  0  0  0  0  0  0  0  0  0
  151.1210  143.9262  156.8168 O   0  0  0  0  0  0  0  0  0  0  0  0
  151.9075  141.6525  156.6788 C   0  0  0  0  0  0  0  0  0  0  0  0
  151.5525  140.2615  156.9115 N   0  0  0  0  0  0  0  0  0  0  0  0
  151.2066  139.6893  158.1144 C   0  0  0  0  0  0  0  0  0  0  0  0
  150.9372  138.4138  158.0661 N   0  0  0  0  0  0  0  0  0  0  0  0
  151.0988  138.0794  156.7264 C   0  0  0  0  0  0  0  0  0  0  0  0
  150.9626  136.8657  155.9914 C   0  0  0  0  0  0  0  0  0  0  0  0
  150.5820  135.6218  156.5740 N   0  0  0  0  0  0  0  0  0  0  0  0
  150.4695  134.4996  155.6535 C   0  0  0  0  0  0  0  0  0  0  0  0
  149.1706  134.1319  156.3772 C   0  0  0  0  0  0  0  0  0  0  0  0
  149.3092  133.0593  157.2963 O   0  0  0  0  0  0  0  0  0  0  0  0
  149.7051  131.8493  156.6694 C   0  0  0  0  0  0  0  0  0  0  0  0
  151.2360  131.7699  156.6647 C   0  0  0  0  0  0  0  0  0  0  0  0
  151.8569  132.4501  157.4827 O   0  0  0  0  0  0  0  0  0  0  0  0
  151.8541  130.9541  155.7786 N   0  0  0  0  0  0  0  0  0  0  0  0
  153.3073  130.7680  155.7365 C   0  0  0  0  0  0  0  0  0  0  0  0
  151.0780  130.1815  154.8052 C   0  0  0  0  0  0  0  0  0  0  0  0
  149.2157  135.4953  157.0682 C   0  0  0  0  0  0  0  0  0  0  0  0
  151.1729  136.9492  154.6500 N   0  0  0  0  0  0  0  0  0  0  0  0
  151.5196  138.1041  154.0745 C   0  0  0  0  0  0  0  0  0  0  0  0
  151.7009  139.2965  154.6425 N   0  0  0  0  0  0  0  0  0  0  0  0
  151.4734  139.2366  155.9847 C   0  0  0  0  0  0  0  0  0  0  0  0
  153.1110  143.9613  158.9338 H   0  0  0  0  0  0  0  0  0  0  0  0
  152.3227  143.8868  160.5049 H   0  0  0  0  0  0  0  0  0  0  0  0
  151.6460  144.8955  159.2356 H   0  0  0  0  0  0  0  0  0  0  0  0
  151.7720  141.8343  159.2923 H   0  0  0  0  0  0  0  0  0  0  0  0
  148.0528  142.4766  159.0027 H   0  0  0  0  0  0  0  0  0  0  0  0
  148.8131  143.9862  158.4811 H   0  0  0  0  0  0  0  0  0  0  0  0
  149.4437  141.1677  157.5199 H   0  0  0  0  0  0  0  0  0  0  0  0
  149.0181  142.5396  156.4986 H   0  0  0  0  0  0  0  0  0  0  0  0
  150.2548  144.2880  156.7082 H   0  0  0  0  0  0  0  0  0  0  0  0
  151.8541  141.8368  155.6051 H   0  0  0  0  0  0  0  0  0  0  0  0
  152.9522  141.7942  156.9591 H   0  0  0  0  0  0  0  0  0  0  0  0
  151.1674  140.2489  159.0377 H   0  0  0  0  0  0  0  0  0  0  0  0
  150.3076  134.7999  154.6172 H   0  0  0  0  0  0  0  0  0  0  0  0
  151.2762  133.7739  155.7590 H   0  0  0  0  0  0  0  0  0  0  0  0
  148.3100  134.0301  155.7140 H   0  0  0  0  0  0  0  0  0  0  0  0
  149.3002  131.0001  157.2229 H   0  0  0  0  0  0  0  0  0  0  0  0
  149.3186  131.7784  155.6521 H   0  0  0  0  0  0  0  0  0  0  0  0
  153.8028  131.6841  155.4136 H   0  0  0  0  0  0  0  0  0  0  0  0
  153.6047  129.9771  155.0476 H   0  0  0  0  0  0  0  0  0  0  0  0
  153.6990  130.4904  156.7154 H   0  0  0  0  0  0  0  0  0  0  0  0
  150.6177  129.3201  155.2899 H   0  0  0  0  0  0  0  0  0  0  0  0
  151.6914  129.8143  153.9821 H   0  0  0  0  0  0  0  0  0  0  0  0
  150.2851  130.7839  154.3588 H   0  0  0  0  0  0  0  0  0  0  0  0
  149.1494  135.4527  158.1556 H   0  0  0  0  0  0  0  0  0  0  0  0
  148.5104  136.2050  156.6331 H   0  0  0  0  0  0  0  0  0  0  0  0
  151.6728  138.0662  153.0060 H   0  0  0  0  0  0  0  0  0  0  0  0
  1  2  1  0  0  0  0
  1 29  1  0  0  0  0
  1 30  1  0  0  0  0
  1 31  1  0  0  0  0
  2  6  1  0  0  0  0
  2  3  1  0  0  0  0
  2 32  1  0  0  0  0
  3  4  1  0  0  0  0
  4  5  1  0  0  0  0
  4 33  1  0  0  0  0
  4 34  1  0  0  0  0
  5  6  1  0  0  0  0
  5 35  1  0  0  0  0
  5 36  1  0  0  0  0
  6  7  1  0  0  0  0
  6  8  1  0  0  0  0
  7 37  1  0  0  0  0
  8  9  1  0  0  0  0
  8 38  1  0  0  0  0
  8 39  1  0  0  0  0
  9 28  1  0  0  0  0
  9 10  1  0  0  0  0
 10 11  2  0  0  0  0
 10 40  1  0  0  0  0
 11 12  1  0  0  0  0
 12 28  2  0  0  0  0
 12 13  1  0  0  0  0
 13 14  1  0  0  0  0
 13 25  2  0  0  0  0
 14 24  1  0  0  0  0
 14 15  1  0  0  0  0
 15 16  1  0  0  0  0
 15 41  1  0  0  0  0
 15 42  1  0  0  0  0
 16 17  1  0  0  0  0
 16 24  1  0  0  0  0
 16 43  1  0  0  0  0
 17 18  1  0  0  0  0
 18 19  1  0  0  0  0
 18 44  1  0  0  0  0
 18 45  1  0  0  0  0
 19 20  2  0  0  0  0
 19 21  1  0  0  0  0
 21 22  1  0  0  0  0
 21 23  1  0  0  0  0
 22 46  1  0  0  0  0
 22 47  1  0  0  0  0
 22 48  1  0  0  0  0
 23 49  1  0  0  0  0
 23 50  1  0  0  0  0
 23 51  1  0  0  0  0
 24 52  1  0  0  0  0
 24 53  1  0  0  0  0
 25 26  1  0  0  0  0
 26 27  2  0  0  0  0
 26 54  1  0  0  0  0
 27 28  1  0  0  0  0
M  END
> <s_m_source_file>
AV-unprocessed.smi

> <i_m_source_file_index>
270

> <i_lp_mmshare_version>
43012

> <i_f3d_flags>
0

> <s_epik_input>
W0NIMl0xW0NIMl1PW0NAQEhdKFtDSDNdKVtDQEBdMShbT0hdKVtDSDJdbihbY0hdbjIpYyhjMjMpbltjSF1uYzNONFtDSDJdW0NIXShbQ0gyXTQpT1tDSDJdQyg9TylOKFtDSDNdKVtDSDNd

> <s_epik_cmdline>
J2VwaWtfcHl0aG9uJywgJy1waCcsICc3LjAnLCAnLXRuJywgJzgnLCAnLW1hJywgJzIwMCcsICctbWV0YWxfYmluZGluZycsICctaW1hZScsICc8aW5maWxlLm1hZT4nLCAnLW9tYWUnLCAnPG91dGZpbGUubWFlPic=

> <r_lp_tautomer_probability>
1

> <r_epik_Ionization_Penalty>
0.00375854

> <r_epik_Ionization_Penalty_Charging>
0

> <r_epik_Ionization_Penalty_Neutral>
0.00375854

> <r_epik_State_Penalty>
-0

> <r_epik_Charging_Adjusted_Penalty>
0

> <i_epik_Tot_Q>
0

> <i_epik_Tot_abs_Q>
0

> <r_epik_Metal_State_Penalty>
-0

> <b_epik_Metal_Only>
0

> <s_lp_Force_Field>
OPLS_2005

> <r_lp_Energy>
55.1289

> <b_lp_Chiralities_Consistent>
1

> <s_lp_Variant>
AV-unprocessed.smi:270-2

> <Gold.Version>
5.8.1

> <Gold.Id.Protein>
6NUR|6NUR_protein|mol2

> <Gold.PLP.Fitness>
50.8488

> <Gold.PLP.PLP>
-36.0808

> <Gold.PLP.part.hbond>
-5.6383

> <Gold.PLP.part.metal>
0.0000

> <Gold.PLP.part.buried>
-6.5796

> <Gold.PLP.part.nonpolar>
-24.5555

> <Gold.PLP.part.repulsive>
0.2828

> <Gold.PLP.ligand.clash>
0.0000

> <Gold.PLP.ligand.torsion>
1.1342

> <Gold.PLP.Chemscore.Hbond>
4.5680

> <Gold.PLP.Chemscore.CHOScore>
1.0000

> <Gold.PLP.Chemscore.Metal>
0.0000

> <Gold.Chemscore.Hbonds>
donor molecule, donor type, donor heavy atom, donor atom, acceptor molecule, acceptor atom, score
      L1  H     7    37       P1  8028  1.00
      P1  H  6896  6907       L1    20  0.02
      P1  H  7989  7998       L1    27  1.00
      P1  H 10752 10764       L1    25  0.55
      L1  C    26    54       P1  7949  0.72

> <Gold.PLP.Chemscore.Internal.Correction>
0.3323

> <Gold.Rescore>
     Score         DG    S(hbond)    S(metal)    S(lipo)     H(rot)  DE(clash)    DE(int)     intcor
     14.93     -17.69       3.37        0.00      76.61       3.12       1.62       1.14       ----

> <Gold.Chemscore.Fitness>
14.9287

> <Gold.Chemscore.DG>
-17.6893

> <Gold.Chemscore.ZeroCoef>
-5.4800

> <Gold.Chemscore.Hbond>
3.3659

> <Gold.Chemscore.Metal>
0.0000

> <Gold.Chemscore.Lipo>
76.6065

> <Gold.Chemscore.Internal_Hbond>
0.0000

> <Gold.Chemscore.DEClash>
1.6201

> <Gold.Chemscore.DEInternal>
1.1406

> <Gold.Chemscore.Rot>
3.1234

> <Gold.Chemscore.Internal.Correction>
   9.000000E+99

> <Gold.Chemscore.Hbonds>
donor molecule, donor type, donor heavy atom, donor atom, acceptor molecule, acceptor atom, score
      L1  H     7    37       P1  8028  0.93
      P1  H  6896  6907       L1    20  0.03
      P1  H  7989  7998       L1    27  0.91
      P1  H 10752 10764       L1    25  0.10

> <Gold.Chemscore.Hbond.Weighted>
-11.2422

> <Gold.Chemscore.Metal.Weighted>
-0.0000

> <Gold.Chemscore.Lipo.Weighted>
-8.9630

> <Gold.Chemscore.Internal_Hbond.Weighted>
0.0000

> <Gold.Chemscore.DEClash.Weighted>
1.6201

> <Gold.Chemscore.DEInternal.Weighted>
1.1406

> <Gold.Chemscore.Rot.Weighted>
7.9959

> <Gold.Chemscore.Internal.Correction.Weighted>
   9.000000E+99

> <Gold.Protein.RotatedTorsions>
[ 6907 6896 6895 6894 ] final  130.61 input  -60.11 | X-H torsion
[ 7974 7965 7964 7962 ] final  -86.19 input  175.53 | X-H torsion
[ 8008 7997 7996 7995 ] final  -71.48 input   59.86 | X-H torsion
[ 10167 10162 10161 10158 ] final   93.07 input  -65.29 | X-H torsion
[ 10718 10713 10712 10709 ] final -119.13 input   66.30 | X-H torsion
[ 10763 10752 10751 10750 ] final  -74.65 input  -60.55 | X-H torsion
[ 11005 11000 10999 10996 ] final   -0.90 input  -57.11 | X-H torsion

> <Gold.Protein.ActiveResidues>
 VAL166  LYS551  ARG553  GLY616  TRP617  ASP618  TYR619  PRO620  LYS621  CYS622 
 ASP623  PHE694  ASN695  SER759  ASP760  ASP761  ALA762  ILE779  LEU786  VAL792 
 PHE793  MET794  SER795  GLU796  ALA797  LYS798  CYS799  TRP800  GLU811  SER814 

> <Gold.Protein.RotatedAtoms>
  152.3509  133.6178  159.5943 H   0  0  0  0  0  0  0  0  0  0  0  0  # atno 6907 bound_to 6896
  150.7537  133.9576  159.3514 H   0  0  0  0  0  0  0  0  0  0  0  0  # atno 6908 bound_to 6896
  151.7428  135.0851  160.0369 H   0  0  0  0  0  0  0  0  0  0  0  0  # atno 6909 bound_to 6896
  145.4831  140.9556  143.1853 H   0  0  0  0  0  0  0  0  0  0  0  0  # atno 7974 bound_to 7965
  154.5091  140.0815  156.7953 H   0  0  0  0  0  0  0  0  0  0  0  0  # atno 8008 bound_to 7997
  155.3826  140.3428  155.4229 H   0  0  0  0  0  0  0  0  0  0  0  0  # atno 8009 bound_to 7997
  156.1551  140.1570  156.8693 H   0  0  0  0  0  0  0  0  0  0  0  0  # atno 8010 bound_to 7997
  139.8216  144.6729  150.9512 H   0  0  0  0  0  0  0  0  0  0  0  0  # atno 10167 bound_to 10162
  156.1158  130.6284  150.9378 H   0  0  0  0  0  0  0  0  0  0  0  0  # atno 10718 bound_to 10713
  154.4760  135.5857  153.6355 H   0  0  0  0  0  0  0  0  0  0  0  0  # atno 10763 bound_to 10752
  152.9841  135.6078  154.3306 H   0  0  0  0  0  0  0  0  0  0  0  0  # atno 10764 bound_to 10752
  154.3193  135.2844  155.2507 H   0  0  0  0  0  0  0  0  0  0  0  0  # atno 10765 bound_to 10752
  140.6413  133.9487  155.8328 H   0  0  0  0  0  0  0  0  0  0  0  0  # atno 11005 bound_to 11000
  144.7877  139.6393  143.7127 LP  0  0  0  0  0  0  0  0  0  0  0  0  # atno 17320 bound_to 7965
  146.2329  139.5848  142.9543 LP  0  0  0  0  0  0  0  0  0  0  0  0  # atno 17321 bound_to 7965
  140.7813  143.4086  151.1029 LP  0  0  0  0  0  0  0  0  0  0  0  0  # atno 17342 bound_to 10162
  139.7746  143.8443  152.3127 LP  0  0  0  0  0  0  0  0  0  0  0  0  # atno 17343 bound_to 10162
  157.6341  131.0918  150.8383 LP  0  0  0  0  0  0  0  0  0  0  0  0  # atno 17370 bound_to 10713
  156.8487  130.5073  149.5314 LP  0  0  0  0  0  0  0  0  0  0  0  0  # atno 17371 bound_to 10713
  141.0604  134.0354  157.3666 LP  0  0  0  0  0  0  0  0  0  0  0  0  # atno 17394 bound_to 11000
  139.9079  135.0184  156.7566 LP  0  0  0  0  0  0  0  0  0  0  0  0  # atno 17395 bound_to 11000

$$$$
