AV-unprocessed.smi:3169|AV-procd|sdf|12104|dock1
  -GOLD-   2272017543D 1   1.00000     0.00000
 Structure written by MMmdl.
 36 37  0  0  0  0  0  0  0  0  2 V2000
  144.9070  136.1792  154.0622 O   0  0  0  0  0  0  0  0  0  0  0  0
  146.0202  136.2519  153.5410 C   0  0  0  0  0  0  0  0  0  0  0  0
  146.6923  135.1964  153.0607 N   0  0  0  0  0  0  0  0  0  0  0  0
  146.2052  133.8224  153.0848 C   0  0  0  0  0  0  0  0  0  0  0  0
  146.7040  133.0264  151.8677 C   0  0  0  0  0  0  0  0  0  0  0  0
  145.6664  132.8998  150.8436 N   0  0  0  0  0  0  0  0  0  0  0  0
  145.7182  132.1560  149.6930 C   0  0  0  0  0  0  0  0  0  0  0  0
  144.5232  132.3505  149.0488 C   0  0  0  0  0  0  0  0  0  0  0  0
  143.7947  133.2053  149.8324 N   0  3  0  0  0  0  0  0  0  0  0  0
  144.4921  133.5387  150.9233 C   0  0  0  0  0  0  0  0  0  0  0  0
  146.7050  137.3927  153.3857 N   0  0  0  0  0  0  0  0  0  0  0  0
  146.2279  138.7124  153.7822 C   0  0  0  0  0  0  0  0  0  0  0  0
  147.2550  139.8049  153.4440 C   0  0  1  0  0  0  0  0  0  0  0  0
  146.8713  141.1906  153.9592 C   0  0  0  0  0  0  0  0  0  0  0  0
  148.2216  141.8634  154.0505 C   0  0  0  0  0  0  0  0  0  0  0  0
  149.1041  140.7224  154.5487 C   0  0  0  0  0  0  0  0  0  0  0  0
  148.5103  139.5223  154.0589 O   0  0  0  0  0  0  0  0  0  0  0  0
  147.5986  135.3559  152.6450 H   0  0  0  0  0  0  0  0  0  0  0  0
  146.5115  133.3366  154.0130 H   0  0  0  0  0  0  0  0  0  0  0  0
  145.1151  133.8467  153.0934 H   0  0  0  0  0  0  0  0  0  0  0  0
  147.5670  133.5150  151.4134 H   0  0  0  0  0  0  0  0  0  0  0  0
  147.0182  132.0219  152.1557 H   0  0  0  0  0  0  0  0  0  0  0  0
  146.5786  131.5599  149.4251 H   0  0  0  0  0  0  0  0  0  0  0  0
  144.1473  131.9559  148.1160 H   0  0  0  0  0  0  0  0  0  0  0  0
  144.1703  134.1951  151.7125 H   0  0  0  0  0  0  0  0  0  0  0  0
  147.6109  137.3519  152.9419 H   0  0  0  0  0  0  0  0  0  0  0  0
  145.2749  138.9259  153.2951 H   0  0  0  0  0  0  0  0  0  0  0  0
  146.0315  138.7014  154.8546 H   0  0  0  0  0  0  0  0  0  0  0  0
  147.4133  139.8619  152.3656 H   0  0  0  0  0  0  0  0  0  0  0  0
  146.1763  141.7119  153.3005 H   0  0  0  0  0  0  0  0  0  0  0  0
  146.4205  141.1245  154.9507 H   0  0  0  0  0  0  0  0  0  0  0  0
  148.5459  142.1861  153.0602 H   0  0  0  0  0  0  0  0  0  0  0  0
  148.2280  142.7293  154.7133 H   0  0  0  0  0  0  0  0  0  0  0  0
  150.1371  140.8213  154.2144 H   0  0  0  0  0  0  0  0  0  0  0  0
  149.1034  140.6879  155.6388 H   0  0  0  0  0  0  0  0  0  0  0  0
  142.8630  133.5394  149.6193 H   0  0  0  0  0  0  0  0  0  0  0  0
  1  2  2  0  0  0  0
  2  3  1  0  0  0  0
  2 11  1  0  0  0  0
  3  4  1  0  0  0  0
  3 18  1  0  0  0  0
  4  5  1  0  0  0  0
  4 19  1  0  0  0  0
  4 20  1  0  0  0  0
  5  6  1  0  0  0  0
  5 21  1  0  0  0  0
  5 22  1  0  0  0  0
  6 10  1  0  0  0  0
  6  7  1  0  0  0  0
  7  8  2  0  0  0  0
  7 23  1  0  0  0  0
  8  9  1  0  0  0  0
  8 24  1  0  0  0  0
  9 10  2  0  0  0  0
  9 36  1  0  0  0  0
 10 25  1  0  0  0  0
 11 12  1  0  0  0  0
 11 26  1  0  0  0  0
 12 13  1  0  0  0  0
 12 27  1  0  0  0  0
 12 28  1  0  0  0  0
 13 17  1  0  0  0  0
 13 14  1  0  0  0  0
 13 29  1  0  0  0  0
 14 15  1  0  0  0  0
 14 30  1  0  0  0  0
 14 31  1  0  0  0  0
 15 16  1  0  0  0  0
 15 32  1  0  0  0  0
 15 33  1  0  0  0  0
 16 17  1  0  0  0  0
 16 34  1  0  0  0  0
 16 35  1  0  0  0  0
M  CHG  1   9   1
M  END
> <s_m_source_file>
AV-unprocessed.smi

> <i_m_source_file_index>
3169

> <i_lp_mmshare_version>
43012

> <i_f3d_flags>
0

> <s_epik_input>
TzFbQ0gyXVtDSDJdW0NIMl1bQ0BIXTFbQ0gyXVtOSF1DKD1PKVtOSF1bQ0gyXVtDSDJdbjJbY0hdW2NIXW5bY0hdMg==

> <s_epik_cmdline>
J2VwaWtfcHl0aG9uJywgJy1waCcsICc3LjAnLCAnLXRuJywgJzgnLCAnLW1hJywgJzIwMCcsICctbWV0YWxfYmluZGluZycsICctaW1hZScsICc8aW5maWxlLm1hZT4nLCAnLW9tYWUnLCAnPG91dGZpbGUubWFlPic=

> <r_lp_tautomer_probability>
1

> <r_epik_Ionization_Penalty>
0.256136

> <r_epik_Ionization_Penalty_Charging>
0

> <r_epik_Ionization_Penalty_Neutral>
0.256136

> <r_epik_State_Penalty>
0.247629

> <r_epik_Charging_Adjusted_Penalty>
0.247629

> <i_epik_Tot_Q>
1

> <i_epik_Tot_abs_Q>
1

> <r_epik_Metal_State_Penalty>
0.537113

> <b_epik_Metal_Only>
0

> <s_lp_Force_Field>
OPLS_2005

> <r_lp_Energy>
16.1594

> <b_lp_Chiralities_Consistent>
1

> <s_lp_Variant>
AV-unprocessed.smi:3169-2

> <Gold.Version>
5.8.1

> <Gold.Id.Protein>
6NUR|6NUR_protein|mol2

> <Gold.PLP.Fitness>
43.1401

> <Gold.PLP.PLP>
-30.2186

> <Gold.PLP.part.hbond>
-2.9849

> <Gold.PLP.part.metal>
0.0000

> <Gold.PLP.part.buried>
-3.4120

> <Gold.PLP.part.nonpolar>
-24.3966

> <Gold.PLP.part.repulsive>
0.2716

> <Gold.PLP.ligand.clash>
0.0000

> <Gold.PLP.ligand.torsion>
0.5344

> <Gold.PLP.Chemscore.Hbond>
3.9425

> <Gold.PLP.Chemscore.CHOScore>
0.6949

> <Gold.PLP.Chemscore.Metal>
0.0000

> <Gold.Chemscore.Hbonds>
donor molecule, donor type, donor heavy atom, donor atom, acceptor molecule, acceptor atom, score
      L1  H     3    18       P1  7948  1.00
      L1  H     9    36       P1 10186  1.89
      L1  H    11    26       P1  7948  0.91
      L1  C     7    23       P1 10747  0.79

> <Gold.PLP.Chemscore.Internal.Correction>
0.0781

> <Gold.Rescore>
     Score         DG    S(hbond)    S(metal)    S(lipo)     H(rot)  DE(clash)    DE(int)     intcor
     16.39     -16.94       2.92        0.00      65.63       2.33       0.01       0.53       ----

> <Gold.Chemscore.Fitness>
16.3938

> <Gold.Chemscore.DG>
-16.9368

> <Gold.Chemscore.ZeroCoef>
-5.4800

> <Gold.Chemscore.Hbond>
2.9163

> <Gold.Chemscore.Metal>
0.0000

> <Gold.Chemscore.Lipo>
65.6250

> <Gold.Chemscore.Internal_Hbond>
0.0000

> <Gold.Chemscore.DEClash>
0.0106

> <Gold.Chemscore.DEInternal>
0.5324

> <Gold.Chemscore.Rot>
2.3288

> <Gold.Chemscore.Internal.Correction>
   9.000000E+99

> <Gold.Chemscore.Hbonds>
donor molecule, donor type, donor heavy atom, donor atom, acceptor molecule, acceptor atom, score
      L1  H     3    18       P1  7948  1.00
      L1  H     9    36       P1 10186  0.90
      L1  H    11    26       P1  7948  0.82

> <Gold.Chemscore.Hbond.Weighted>
-9.7404

> <Gold.Chemscore.Metal.Weighted>
-0.0000

> <Gold.Chemscore.Lipo.Weighted>
-7.6781

> <Gold.Chemscore.Internal_Hbond.Weighted>
0.0000

> <Gold.Chemscore.DEClash.Weighted>
0.0106

> <Gold.Chemscore.DEInternal.Weighted>
0.5324

> <Gold.Chemscore.Rot.Weighted>
5.9617

> <Gold.Chemscore.Internal.Correction.Weighted>
   9.000000E+99

> <Gold.Protein.RotatedTorsions>
[ 6907 6896 6895 6894 ] final  -82.43 input  -60.11 | X-H torsion
[ 7974 7965 7964 7962 ] final   91.78 input  175.53 | X-H torsion
[ 8008 7997 7996 7995 ] final -164.04 input   59.86 | X-H torsion
[ 10167 10162 10161 10158 ] final  150.98 input  -65.29 | X-H torsion
[ 10718 10713 10712 10709 ] final   52.73 input   66.30 | X-H torsion
[ 10763 10752 10751 10750 ] final  -98.17 input  -60.55 | X-H torsion
[ 11005 11000 10999 10996 ] final   91.14 input  -57.11 | X-H torsion

> <Gold.Protein.ActiveResidues>
 VAL166  LYS551  ARG553  GLY616  TRP617  ASP618  TYR619  PRO620  LYS621  CYS622 
 ASP623  PHE694  ASN695  SER759  ASP760  ASP761  ALA762  ILE779  LEU786  VAL792 
 PHE793  MET794  SER795  GLU796  ALA797  LYS798  CYS799  TRP800  GLU811  SER814 

> <Gold.Protein.RotatedAtoms>
  150.6897  134.3667  159.4973 H   0  0  0  0  0  0  0  0  0  0  0  0  # atno 6907 bound_to 6896
  152.1488  134.9002  160.0558 H   0  0  0  0  0  0  0  0  0  0  0  0  # atno 6908 bound_to 6896
  152.0107  133.3825  159.4255 H   0  0  0  0  0  0  0  0  0  0  0  0  # atno 6909 bound_to 6896
  145.5011  139.2276  143.2777 H   0  0  0  0  0  0  0  0  0  0  0  0  # atno 7974 bound_to 7965
  155.8299  140.0932  157.1799 H   0  0  0  0  0  0  0  0  0  0  0  0  # atno 8008 bound_to 7997
  154.3979  140.1421  156.3662 H   0  0  0  0  0  0  0  0  0  0  0  0  # atno 8009 bound_to 7997
  155.8177  140.3447  155.5498 H   0  0  0  0  0  0  0  0  0  0  0  0  # atno 8010 bound_to 7997
  139.4845  144.5478  151.7454 H   0  0  0  0  0  0  0  0  0  0  0  0  # atno 10167 bound_to 10162
  157.5102  130.8496  149.8426 H   0  0  0  0  0  0  0  0  0  0  0  0  # atno 10718 bound_to 10713
  154.7391  135.5019  153.9092 H   0  0  0  0  0  0  0  0  0  0  0  0  # atno 10763 bound_to 10752
  153.1025  135.6688  153.9655 H   0  0  0  0  0  0  0  0  0  0  0  0  # atno 10764 bound_to 10752
  153.9437  135.3065  155.3421 H   0  0  0  0  0  0  0  0  0  0  0  0  # atno 10765 bound_to 10752
  139.8844  134.8656  156.3385 H   0  0  0  0  0  0  0  0  0  0  0  0  # atno 11005 bound_to 11000
  146.2225  140.5812  142.9011 LP  0  0  0  0  0  0  0  0  0  0  0  0  # atno 17320 bound_to 7965
  144.7779  140.5779  143.6625 LP  0  0  0  0  0  0  0  0  0  0  0  0  # atno 17321 bound_to 7965
  140.5027  144.1145  150.5975 LP  0  0  0  0  0  0  0  0  0  0  0  0  # atno 17342 bound_to 10162
  140.4043  143.2688  151.9909 LP  0  0  0  0  0  0  0  0  0  0  0  0  # atno 17343 bound_to 10162
  156.0284  130.3772  150.1756 LP  0  0  0  0  0  0  0  0  0  0  0  0  # atno 17370 bound_to 10713
  156.9946  130.9904  151.3406 LP  0  0  0  0  0  0  0  0  0  0  0  0  # atno 17371 bound_to 10713
  140.9674  133.7349  156.0487 LP  0  0  0  0  0  0  0  0  0  0  0  0  # atno 17394 bound_to 11000
  140.7913  134.3614  157.5464 LP  0  0  0  0  0  0  0  0  0  0  0  0  # atno 17395 bound_to 11000

$$$$
