#       Name:                AV-unprocessed.smi:2521
#       Creating user name   scv26
#       Creation time:       Fri Mar 27 13:55:27 2020


#       File generated by GOLD software.
#

@<TRIPOS>MOLECULE
AV-unprocessed.smi:2521
    42    43     1
SMALL
NO_CHARGES


@<TRIPOS>ATOM
      1 ****        -6.1871  -1.0668   1.5124 C.3            1 S1                 0.0000
      2 ****        -5.5687  -0.4836   0.2334 C.3            1 S1                 0.0000
      3 ****        -6.1822  -1.0608  -1.0506 C.3            1 S1                 0.0000
      4 ****        -4.0745  -0.5748   0.2354 C.2            1 S1                 0.0000
      5 ****        -3.4129  -1.7342   0.2322 N.2            1 S1                 0.0000
      6 ****        -2.0391  -1.5518   0.2293 N.2            1 S1                 0.0000
      7 ****        -1.6661  -0.2585   0.2321 C.2            1 S1                 0.0000
      8 ****        -0.3980   0.2108   0.2264 N.pl3          1 S1                -1.0000
      9 ****         0.7245  -0.5529   0.2392 C.2            1 S1                 0.0000
     10 ****         0.7961  -1.7833   0.2542 O.2            1 S1                 0.0000
     11 ****         1.8534   0.1688   0.2344 N.am           1 S1                 0.0000
     12 ****         3.2035  -0.3810   0.2447 C.3            1 S1                 0.0000
     13 ****         4.2548   0.7402   0.2190 C.3            1 S1                 0.0000
     14 ****         4.2401   1.5942  -1.0336 C.3            1 S1                 0.0000
     15 ****         5.6229   2.2379  -0.9927 C.3            1 S1                 0.0000
     16 ****         6.4730   1.3003  -0.3373 O.3            1 S1                 0.0000
     17 ****         5.6983   0.2392   0.2135 C.3            1 S1                 0.0000
     18 ****        -3.0418   0.8444   0.2401 S.3            1 S1                 0.0000
     19 ****        -5.7901  -0.5725   2.3995 H              1 S1                 0.0000
     20 ****        -5.9787  -2.1334   1.6035 H              1 S1                 0.0000
     21 ****        -7.2697  -0.9384   1.5188 H              1 S1                 0.0000
     22 ****        -5.8099   0.5800   0.2354 H              1 S1                 0.0000
     23 ****        -5.7809  -0.5631  -1.9339 H              1 S1                 0.0000
     24 ****        -7.2648  -0.9313  -1.0613 H              1 S1                 0.0000
     25 ****        -5.9744  -2.1270  -1.1454 H              1 S1                 0.0000
     26 ****         1.7658   1.1744   0.2222 H              1 S1                 0.0000
     27 ****         3.3347  -0.9912   1.1395 H              1 S1                 0.0000
     28 ****         3.3322  -1.0404  -0.6153 H              1 S1                 0.0000
     29 ****         4.1166   1.3884   1.0863 H              1 S1                 0.0000
     30 ****         4.1457   0.9666  -1.9211 H              1 S1                 0.0000
     31 ****         3.4324   2.3265  -1.0462 H              1 S1                 0.0000
     32 ****         5.9946   2.4859  -1.9871 H              1 S1                 0.0000
     33 ****         5.5987   3.1544  -0.4020 H              1 S1                 0.0000
     34 ****         6.0489  -0.0344   1.2089 H              1 S1                 0.0000
     35 ****         5.8035  -0.6333  -0.4328 H              1 S1                 0.0000
     36 ****        -3.8570  -2.6302   0.2319 LP             1 S1                 0.0000
     37 ****        -1.3865  -2.3095   0.2255 LP             1 S1                 0.0000
     38 ****        -0.2768   1.2033   0.2115 LP             1 S1                 0.0000
     39 ****        -0.0394  -2.3327   0.2581 LP             1 S1                 0.0000
     40 ****         1.6897  -2.2321   0.2624 LP             1 S1                 0.0000
     41 ****         6.9708   1.7620   0.3968 LP             1 S1                 0.0000
     42 ****         7.1241   0.9263  -0.9977 LP             1 S1                 0.0000
@<TRIPOS>BOND
    1    1    2 1     
    2    1   19 1     
    3    1   20 1     
    4    1   21 1     
    5    2    3 1     
    6    2    4 1     
    7    2   22 1     
    8    3   23 1     
    9    3   24 1     
   10    3   25 1     
   11    4   18 1     
   12    4    5 2     
   13    5    6 1     
   14    6    7 2     
   15    7    8 1     
   16    7   18 1     
   17    8    9 1     
   18    9   10 2     
   19    9   11 am    
   20   11   12 1     
   21   11   26 1     
   22   12   13 1     
   23   12   27 1     
   24   12   28 1     
   25   13   17 1     
   26   13   14 1     
   27   13   29 1     
   28   14   15 1     
   29   14   30 1     
   30   14   31 1     
   31   15   16 1     
   32   15   32 1     
   33   15   33 1     
   34   16   17 1     
   35   17   34 1     
   36   17   35 1     
   37    5   36 1     
   38    6   37 1     
   39    8   38 1     
   40   10   39 1     
   41   10   40 1     
   42   16   41 1     
   43   16   42 1     
@<TRIPOS>SUBSTRUCTURE
      1 S1             1
@<TRIPOS>SET
LONE_PAIRS      STATIC     ATOMS    <user>   **** ""
7 36 37 38 39 40 41 42
DONOR_HYDROGENS      STATIC     ATOMS    <user>   **** ""
1 26
ATOM$BLUE        STATIC     ATOMS    COLORGROUP SYSTEM
7 36 37 38 39 40 41 42
ATOM$RED        STATIC     ATOMS    COLORGROUP SYSTEM
1 26
