AV-unprocessed.smi:2883|AV-procd|sdf|11076|dock1
  -GOLD-   2272015543D 1   1.00000     0.00000
 Structure written by MMmdl.
 40 42  0  0  0  0  0  0  0  0  2 V2000
  147.2980  140.2813  152.0684 C   0  0  0  0  0  0  0  0  0  0  0  0
  147.2020  140.7057  153.5523 C   0  0  0  0  0  0  0  0  0  0  0  0
  146.6466  142.1380  153.6494 C   0  0  0  0  0  0  0  0  0  0  0  0
  146.2162  139.7211  154.2219 C   0  0  0  0  0  0  0  0  0  0  0  0
  148.5792  140.6447  154.2281 C   0  0  0  0  0  0  0  0  0  0  0  0
  149.3448  139.5507  154.0647 N   0  3  0  0  0  0  0  0  0  0  0  0
  150.5149  139.4316  154.7378 C   0  0  0  0  0  0  0  0  0  0  0  0
  150.9233  140.4319  155.6383 C   0  0  0  0  0  0  0  0  0  0  0  0
  150.0599  141.5274  155.8026 C   0  0  0  0  0  0  0  0  0  0  0  0
  150.4007  142.5491  156.6994 N   0  0  0  0  0  0  0  0  0  0  0  0
  150.5627  142.2738  158.1243 C   0  0  1  0  0  0  0  0  0  0  0  0
  151.8438  141.5008  158.4454 C   0  0  0  0  0  0  0  0  0  0  0  0
  152.4868  142.3893  159.5198 C   0  0  1  0  0  0  0  0  0  0  0  0
  153.1057  143.6527  158.9085 C   0  0  0  0  0  0  0  0  0  0  0  0
  151.8625  144.4635  158.5485 C   0  0  0  0  0  0  0  0  0  0  0  0
  150.7286  143.5291  159.0047 C   0  0  2  0  0  0  0  0  0  0  0  0
  151.3371  142.9400  160.1410 O   0  0  0  0  0  0  0  0  0  0  0  0
  148.9011  141.6008  155.1130 N   0  0  0  0  0  0  0  0  0  0  0  0
  146.3170  140.2795  151.5918 H   0  0  0  0  0  0  0  0  0  0  0  0
  147.7122  139.2774  151.9675 H   0  0  0  0  0  0  0  0  0  0  0  0
  147.9280  140.9576  151.4891 H   0  0  0  0  0  0  0  0  0  0  0  0
  147.3060  142.8530  153.1560 H   0  0  0  0  0  0  0  0  0  0  0  0
  146.5404  142.4528  154.6882 H   0  0  0  0  0  0  0  0  0  0  0  0
  145.6656  142.2178  153.1797 H   0  0  0  0  0  0  0  0  0  0  0  0
  145.2482  139.7268  153.7193 H   0  0  0  0  0  0  0  0  0  0  0  0
  146.0295  139.9755  155.2659 H   0  0  0  0  0  0  0  0  0  0  0  0
  146.5934  138.6981  154.1917 H   0  0  0  0  0  0  0  0  0  0  0  0
  151.0825  138.5342  154.5396 H   0  0  0  0  0  0  0  0  0  0  0  0
  151.8526  140.3513  156.1834 H   0  0  0  0  0  0  0  0  0  0  0  0
  150.3189  143.5116  156.4058 H   0  0  0  0  0  0  0  0  0  0  0  0
  149.7108  141.6918  158.4793 H   0  0  0  0  0  0  0  0  0  0  0  0
  151.5998  140.5173  158.8486 H   0  0  0  0  0  0  0  0  0  0  0  0
  152.5014  141.3592  157.5864 H   0  0  0  0  0  0  0  0  0  0  0  0
  153.1529  141.8542  160.1972 H   0  0  0  0  0  0  0  0  0  0  0  0
  153.7097  144.1845  159.6445 H   0  0  0  0  0  0  0  0  0  0  0  0
  153.7342  143.4324  158.0450 H   0  0  0  0  0  0  0  0  0  0  0  0
  151.8422  145.3942  159.1164 H   0  0  0  0  0  0  0  0  0  0  0  0
  151.8103  144.7165  157.4895 H   0  0  0  0  0  0  0  0  0  0  0  0
  149.7935  144.0459  159.2225 H   0  0  0  0  0  0  0  0  0  0  0  0
  149.0538  138.8075  153.4291 H   0  0  0  0  0  0  0  0  0  0  0  0
  1  2  1  0  0  0  0
  1 19  1  0  0  0  0
  1 20  1  0  0  0  0
  1 21  1  0  0  0  0
  2  3  1  0  0  0  0
  2  4  1  0  0  0  0
  2  5  1  0  0  0  0
  3 22  1  0  0  0  0
  3 23  1  0  0  0  0
  3 24  1  0  0  0  0
  4 25  1  0  0  0  0
  4 26  1  0  0  0  0
  4 27  1  0  0  0  0
  5 18  1  0  0  0  0
  5  6  2  0  0  0  0
  6  7  1  0  0  0  0
  6 40  1  0  0  0  0
  7  8  2  0  0  0  0
  7 28  1  0  0  0  0
  8  9  1  0  0  0  0
  8 29  1  0  0  0  0
  9 10  1  0  0  0  0
  9 18  2  0  0  0  0
 10 11  1  0  0  0  0
 10 30  1  0  0  0  0
 11 16  1  0  0  0  0
 11 12  1  0  0  0  0
 11 31  1  0  0  0  0
 12 13  1  0  0  0  0
 12 32  1  0  0  0  0
 12 33  1  0  0  0  0
 13 17  1  0  0  0  0
 13 14  1  0  0  0  0
 13 34  1  0  0  0  0
 14 15  1  0  0  0  0
 14 35  1  0  0  0  0
 14 36  1  0  0  0  0
 15 16  1  0  0  0  0
 15 37  1  0  0  0  0
 15 38  1  0  0  0  0
 16 17  1  0  0  0  0
 16 39  1  0  0  0  0
M  CHG  1   6   1
M  END
> <s_m_source_file>
AV-unprocessed.smi

> <i_m_source_file_index>
2883

> <i_lp_mmshare_version>
43012

> <i_f3d_flags>
0

> <s_epik_input>
W0NIM11DKFtDSDNdKShbQ0gzXSljMW5bY0hdW2NIXWMobjEpW05IXVtDQEhdKFtDSDJdW0NAQEhdMjMpW0NAQEhdKE8zKVtDSDJdW0NIMl0y

> <s_epik_cmdline>
J2VwaWtfcHl0aG9uJywgJy1waCcsICc3LjAnLCAnLXRuJywgJzgnLCAnLW1hJywgJzIwMCcsICctbWV0YWxfYmluZGluZycsICctaW1hZScsICc8aW5maWxlLm1hZT4nLCAnLW9tYWUnLCAnPG91dGZpbGUubWFlPic=

> <r_lp_tautomer_probability>
0.999336

> <r_epik_Ionization_Penalty>
0.371831

> <r_epik_Ionization_Penalty_Charging>
0.371821

> <r_epik_Ionization_Penalty_Neutral>
1.06897e-05

> <r_epik_State_Penalty>
0.369311

> <r_epik_Charging_Adjusted_Penalty>
0.741132

> <i_epik_Tot_Q>
1

> <i_epik_Tot_abs_Q>
1

> <r_epik_Metal_State_Penalty>
0.621338

> <b_epik_Metal_Only>
0

> <s_lp_Force_Field>
OPLS_2005

> <r_lp_Energy>
39.2266

> <b_lp_Chiralities_Consistent>
1

> <s_lp_Variant>
AV-unprocessed.smi:2883-2

> <Gold.Version>
5.8.1

> <Gold.Id.Protein>
6NUR|6NUR_protein|mol2

> <Gold.PLP.Fitness>
39.5965

> <Gold.PLP.PLP>
-39.5006

> <Gold.PLP.part.hbond>
-2.6184

> <Gold.PLP.part.metal>
0.0000

> <Gold.PLP.part.buried>
-1.1657

> <Gold.PLP.part.nonpolar>
-35.9161

> <Gold.PLP.part.repulsive>
0.3207

> <Gold.PLP.ligand.clash>
0.0000

> <Gold.PLP.ligand.torsion>
1.2970

> <Gold.PLP.Chemscore.Hbond>
0.8480

> <Gold.PLP.Chemscore.CHOScore>
0.0000

> <Gold.PLP.Chemscore.Metal>
0.0000

> <Gold.Chemscore.Hbonds>
donor molecule, donor type, donor heavy atom, donor atom, acceptor molecule, acceptor atom, score
      L1  H    10    30       P1  8028  0.77

> <Gold.PLP.Chemscore.Internal.Correction>
0.1459

> <Gold.Rescore>
     Score         DG    S(hbond)    S(metal)    S(lipo)     H(rot)  DE(clash)    DE(int)     intcor
     16.55     -17.36       0.97        0.00      99.32       1.16       0.08       0.72       ----

> <Gold.Chemscore.Fitness>
16.5524

> <Gold.Chemscore.DG>
-17.3609

> <Gold.Chemscore.ZeroCoef>
-5.4800

> <Gold.Chemscore.Hbond>
0.9693

> <Gold.Chemscore.Metal>
0.0000

> <Gold.Chemscore.Lipo>
99.3153

> <Gold.Chemscore.Internal_Hbond>
0.0000

> <Gold.Chemscore.DEClash>
0.0846

> <Gold.Chemscore.DEInternal>
0.7239

> <Gold.Chemscore.Rot>
1.1626

> <Gold.Chemscore.Internal.Correction>
   9.000000E+99

> <Gold.Chemscore.Hbonds>
donor molecule, donor type, donor heavy atom, donor atom, acceptor molecule, acceptor atom, score
      L1  H    10    30       P1  8028  0.72

> <Gold.Chemscore.Hbond.Weighted>
-3.2373

> <Gold.Chemscore.Metal.Weighted>
-0.0000

> <Gold.Chemscore.Lipo.Weighted>
-11.6199

> <Gold.Chemscore.Internal_Hbond.Weighted>
0.0000

> <Gold.Chemscore.DEClash.Weighted>
0.0846

> <Gold.Chemscore.DEInternal.Weighted>
0.7239

> <Gold.Chemscore.Rot.Weighted>
2.9763

> <Gold.Chemscore.Internal.Correction.Weighted>
   9.000000E+99

> <Gold.Protein.RotatedTorsions>
[ 6907 6896 6895 6894 ] final  -87.84 input  -60.11 | X-H torsion
[ 7974 7965 7964 7962 ] final  -94.91 input  175.53 | X-H torsion
[ 8008 7997 7996 7995 ] final  111.78 input   59.86 | X-H torsion
[ 10167 10162 10161 10158 ] final   47.46 input  -65.29 | X-H torsion
[ 10718 10713 10712 10709 ] final -104.46 input   66.30 | X-H torsion
[ 10763 10752 10751 10750 ] final  116.32 input  -60.55 | X-H torsion
[ 11005 11000 10999 10996 ] final  104.00 input  -57.11 | X-H torsion

> <Gold.Protein.ActiveResidues>
 VAL166  LYS551  ARG553  GLY616  TRP617  ASP618  TYR619  PRO620  LYS621  CYS622 
 ASP623  PHE694  ASN695  SER759  ASP760  ASP761  ALA762  ILE779  LEU786  VAL792 
 PHE793  MET794  SER795  GLU796  ALA797  LYS798  CYS799  TRP800  GLU811  SER814 

> <Gold.Protein.RotatedAtoms>
  150.6867  134.2834  159.4636 H   0  0  0  0  0  0  0  0  0  0  0  0  # atno 6907 bound_to 6896
  152.0746  134.9509  160.0583 H   0  0  0  0  0  0  0  0  0  0  0  0  # atno 6908 bound_to 6896
  152.0885  133.4154  159.4570 H   0  0  0  0  0  0  0  0  0  0  0  0  # atno 6909 bound_to 6896
  145.3670  140.9500  143.2468 H   0  0  0  0  0  0  0  0  0  0  0  0  # atno 7974 bound_to 7965
  156.2147  140.3012  155.9813 H   0  0  0  0  0  0  0  0  0  0  0  0  # atno 8008 bound_to 7997
  155.2634  140.0430  157.3017 H   0  0  0  0  0  0  0  0  0  0  0  0  # atno 8009 bound_to 7997
  154.5751  140.2359  155.8143 H   0  0  0  0  0  0  0  0  0  0  0  0  # atno 8010 bound_to 7997
  140.3034  144.2907  150.6214 H   0  0  0  0  0  0  0  0  0  0  0  0  # atno 10167 bound_to 10162
  156.0305  130.5516  150.7400 H   0  0  0  0  0  0  0  0  0  0  0  0  # atno 10718 bound_to 10713
  153.5355  135.3569  155.2695 H   0  0  0  0  0  0  0  0  0  0  0  0  # atno 10763 bound_to 10752
  154.8723  135.4078  154.3103 H   0  0  0  0  0  0  0  0  0  0  0  0  # atno 10764 bound_to 10752
  153.3800  135.7068  153.6640 H   0  0  0  0  0  0  0  0  0  0  0  0  # atno 10765 bound_to 10752
  139.8788  134.9284  156.5295 H   0  0  0  0  0  0  0  0  0  0  0  0  # atno 11005 bound_to 11000
  144.8604  139.5186  143.6815 LP  0  0  0  0  0  0  0  0  0  0  0  0  # atno 17320 bound_to 7965
  146.2902  139.7117  142.9166 LP  0  0  0  0  0  0  0  0  0  0  0  0  # atno 17321 bound_to 7965
  140.5631  143.2189  151.7730 LP  0  0  0  0  0  0  0  0  0  0  0  0  # atno 17342 bound_to 10162
  139.4910  144.4321  151.9861 LP  0  0  0  0  0  0  0  0  0  0  0  0  # atno 17343 bound_to 10162
  157.4971  131.0915  151.0358 LP  0  0  0  0  0  0  0  0  0  0  0  0  # atno 17370 bound_to 10713
  157.0749  130.5879  149.5409 LP  0  0  0  0  0  0  0  0  0  0  0  0  # atno 17371 bound_to 10713
  140.8391  133.8219  155.9057 LP  0  0  0  0  0  0  0  0  0  0  0  0  # atno 17394 bound_to 11000
  140.9255  134.2088  157.4899 LP  0  0  0  0  0  0  0  0  0  0  0  0  # atno 17395 bound_to 11000

$$$$
