AV-unprocessed.smi:3303|AV-procd|sdf|12689|dock6
  -GOLD-   2272019 23D 1   1.00000     0.00000
 Structure written by MMmdl.
 44 45  0  0  0  0  0  0  0  0  2 V2000
  149.2928  140.8420  154.4528 C   0  0  0  0  0  0  0  0  0  0  0  0
  149.6363  139.3488  154.3206 C   0  0  2  0  0  0  0  0  0  0  0  0
  148.4675  138.4434  154.7513 C   0  0  0  0  0  0  0  0  0  0  0  0
  148.7663  137.0069  154.5177 N   0  3  2  0  0  0  0  0  0  0  0  0
  147.5695  136.1692  154.7744 C   0  0  0  0  0  0  0  0  0  0  0  0
  149.9891  136.5631  155.2513 C   0  0  1  0  0  0  0  0  0  0  0  0
  150.3274  135.0801  155.0014 C   0  0  0  0  0  0  0  0  0  0  0  0
  151.2037  137.4372  154.8650 C   0  0  0  0  0  0  0  0  0  0  0  0
  150.9508  138.9458  155.0265 C   0  0  2  0  0  0  0  0  0  0  0  0
  150.9517  139.2863  156.4475 N   0  0  0  0  0  0  0  0  0  0  0  0
  151.4058  140.6518  156.6673 C   0  0  0  0  0  0  0  0  0  0  0  0
  151.9871  140.7875  158.0806 C   0  0  0  0  0  0  0  0  0  0  0  0
  152.0377  142.2341  158.5340 C   0  0  0  0  0  0  0  0  0  0  0  0
  152.6420  142.5850  159.7602 C   0  0  0  0  0  0  0  0  0  0  0  0
  152.6488  143.9412  160.1404 C   0  0  0  0  0  0  0  0  0  0  0  0
  152.0540  144.8887  159.2851 C   0  0  0  0  0  0  0  0  0  0  0  0
  151.4751  144.4358  158.0829 C   0  0  0  0  0  0  0  0  0  0  0  0
  151.4615  143.1379  157.7095 N   0  0  0  0  0  0  0  0  0  0  0  0
  149.0716  141.1152  155.4850 H   0  0  0  0  0  0  0  0  0  0  0  0
  148.4187  141.0970  153.8531 H   0  0  0  0  0  0  0  0  0  0  0  0
  150.1181  141.4660  154.1092 H   0  0  0  0  0  0  0  0  0  0  0  0
  149.7916  139.1699  153.2554 H   0  0  0  0  0  0  0  0  0  0  0  0
  148.2292  138.6020  155.8045 H   0  0  0  0  0  0  0  0  0  0  0  0
  147.5775  138.7208  154.1844 H   0  0  0  0  0  0  0  0  0  0  0  0
  147.3457  136.1218  155.8409 H   0  0  0  0  0  0  0  0  0  0  0  0
  147.7035  135.1542  154.4013 H   0  0  0  0  0  0  0  0  0  0  0  0
  146.6958  136.5745  154.2629 H   0  0  0  0  0  0  0  0  0  0  0  0
  149.8009  136.6863  156.3192 H   0  0  0  0  0  0  0  0  0  0  0  0
  151.2748  134.8143  155.4713 H   0  0  0  0  0  0  0  0  0  0  0  0
  150.4178  134.8659  153.9360 H   0  0  0  0  0  0  0  0  0  0  0  0
  149.5767  134.4103  155.4204 H   0  0  0  0  0  0  0  0  0  0  0  0
  152.0814  137.1436  155.4431 H   0  0  0  0  0  0  0  0  0  0  0  0
  151.4585  137.2426  153.8222 H   0  0  0  0  0  0  0  0  0  0  0  0
  151.7786  139.4637  154.5384 H   0  0  0  0  0  0  0  0  0  0  0  0
  151.5697  138.6612  156.9457 H   0  0  0  0  0  0  0  0  0  0  0  0
  152.1649  140.9047  155.9257 H   0  0  0  0  0  0  0  0  0  0  0  0
  150.5782  141.3496  156.5393 H   0  0  0  0  0  0  0  0  0  0  0  0
  151.3904  140.2108  158.7888 H   0  0  0  0  0  0  0  0  0  0  0  0
  152.9947  140.3703  158.1164 H   0  0  0  0  0  0  0  0  0  0  0  0
  153.0868  141.8346  160.3971 H   0  0  0  0  0  0  0  0  0  0  0  0
  153.1003  144.2488  161.0720 H   0  0  0  0  0  0  0  0  0  0  0  0
  152.0402  145.9370  159.5443 H   0  0  0  0  0  0  0  0  0  0  0  0
  151.0089  145.1342  157.4038 H   0  0  0  0  0  0  0  0  0  0  0  0
  148.9708  136.9158  153.5328 H   0  0  0  0  0  0  0  0  0  0  0  0
  1  2  1  0  0  0  0
  1 19  1  0  0  0  0
  1 20  1  0  0  0  0
  1 21  1  0  0  0  0
  2  9  1  0  0  0  0
  2  3  1  0  0  0  0
  2 22  1  0  0  0  0
  3  4  1  0  0  0  0
  3 23  1  0  0  0  0
  3 24  1  0  0  0  0
  4  5  1  0  0  0  0
  4  6  1  0  0  0  0
  4 44  1  0  0  0  0
  5 25  1  0  0  0  0
  5 26  1  0  0  0  0
  5 27  1  0  0  0  0
  6  7  1  0  0  0  0
  6  8  1  0  0  0  0
  6 28  1  0  0  0  0
  7 29  1  0  0  0  0
  7 30  1  0  0  0  0
  7 31  1  0  0  0  0
  8  9  1  0  0  0  0
  8 32  1  0  0  0  0
  8 33  1  0  0  0  0
  9 10  1  0  0  0  0
  9 34  1  0  0  0  0
 10 11  1  0  0  0  0
 10 35  1  0  0  0  0
 11 12  1  0  0  0  0
 11 36  1  0  0  0  0
 11 37  1  0  0  0  0
 12 13  1  0  0  0  0
 12 38  1  0  0  0  0
 12 39  1  0  0  0  0
 13 18  1  0  0  0  0
 13 14  2  0  0  0  0
 14 15  1  0  0  0  0
 14 40  1  0  0  0  0
 15 16  2  0  0  0  0
 15 41  1  0  0  0  0
 16 17  1  0  0  0  0
 16 42  1  0  0  0  0
 17 18  2  0  0  0  0
 17 43  1  0  0  0  0
M  CHG  1   4   1
M  END
> <s_m_source_file>
AV-unprocessed.smi

> <i_m_source_file_index>
3303

> <i_lp_mmshare_version>
43012

> <i_f3d_flags>
0

> <s_epik_input>
W0NIM11bQ0BASF0xW0NIMl1OKFtDSDNdKVtDQEBIXShbQ0gzXSlbQ0gyXVtDQEhdMVtOSF1bQ0gyXVtDSDJdYzJbY0hdW2NIXVtjSF1bY0hdbjI=

> <s_epik_cmdline>
J2VwaWtfcHl0aG9uJywgJy1waCcsICc3LjAnLCAnLXRuJywgJzgnLCAnLW1hJywgJzIwMCcsICctbWV0YWxfYmluZGluZycsICctaW1hZScsICc8aW5maWxlLm1hZT4nLCAnLW9tYWUnLCAnPG91dGZpbGUubWFlPic=

> <r_epik_Ionization_Penalty>
2.31085

> <r_epik_Ionization_Penalty_Charging>
0.000313057

> <r_epik_Ionization_Penalty_Neutral>
2.31054

> <r_epik_State_Penalty>
2.4087

> <r_epik_Charging_Adjusted_Penalty>
2.40902

> <i_epik_Tot_Q>
1

> <i_epik_Tot_abs_Q>
1

> <r_epik_Metal_State_Penalty>
2.30979

> <b_epik_Metal_Only>
0

> <s_lp_Force_Field>
OPLS_2005

> <r_lp_Energy>
26.9633

> <b_lp_Chiralities_Consistent>
1

> <s_lp_Variant>
AV-unprocessed.smi:3303-33

> <Gold.Version>
5.8.1

> <Gold.Id.Protein>
6NUR|6NUR_protein|mol2

> <Gold.PLP.Fitness>
46.6343

> <Gold.PLP.PLP>
-38.8341

> <Gold.PLP.part.hbond>
-1.0000

> <Gold.PLP.part.metal>
0.0000

> <Gold.PLP.part.buried>
-4.3799

> <Gold.PLP.part.nonpolar>
-34.6577

> <Gold.PLP.part.repulsive>
0.1132

> <Gold.PLP.ligand.clash>
0.0000

> <Gold.PLP.ligand.torsion>
0.6006

> <Gold.PLP.Chemscore.Hbond>
2.0000

> <Gold.PLP.Chemscore.CHOScore>
0.9983

> <Gold.PLP.Chemscore.Metal>
0.0000

> <Gold.Chemscore.Hbonds>
donor molecule, donor type, donor heavy atom, donor atom, acceptor molecule, acceptor atom, score
      L1  H     4    44       P1  7948  2.00
      L1  C    17    43       P1  8028  0.51

> <Gold.PLP.Chemscore.Internal.Correction>
0.0065

> <Gold.Rescore>
     Score         DG    S(hbond)    S(metal)    S(lipo)     H(rot)  DE(clash)    DE(int)     intcor
     18.61     -19.44       1.00        0.00     119.89       1.33       0.10       0.73       ----

> <Gold.Chemscore.Fitness>
18.6141

> <Gold.Chemscore.DG>
-19.4433

> <Gold.Chemscore.ZeroCoef>
-5.4800

> <Gold.Chemscore.Hbond>
0.9980

> <Gold.Chemscore.Metal>
0.0000

> <Gold.Chemscore.Lipo>
119.8941

> <Gold.Chemscore.Internal_Hbond>
0.0000

> <Gold.Chemscore.DEClash>
0.0961

> <Gold.Chemscore.DEInternal>
0.7331

> <Gold.Chemscore.Rot>
1.3272

> <Gold.Chemscore.Internal.Correction>
   9.000000E+99

> <Gold.Chemscore.Hbonds>
donor molecule, donor type, donor heavy atom, donor atom, acceptor molecule, acceptor atom, score
      L1  H     4    44       P1  7948  1.00

> <Gold.Chemscore.Hbond.Weighted>
-3.3333

> <Gold.Chemscore.Metal.Weighted>
-0.0000

> <Gold.Chemscore.Lipo.Weighted>
-14.0276

> <Gold.Chemscore.Internal_Hbond.Weighted>
0.0000

> <Gold.Chemscore.DEClash.Weighted>
0.0961

> <Gold.Chemscore.DEInternal.Weighted>
0.7331

> <Gold.Chemscore.Rot.Weighted>
3.3976

> <Gold.Chemscore.Internal.Correction.Weighted>
   9.000000E+99

> <Gold.Protein.RotatedTorsions>
[ 6907 6896 6895 6894 ] final  -53.12 input  -60.11 | X-H torsion
[ 7974 7965 7964 7962 ] final  165.23 input  175.53 | X-H torsion
[ 8008 7997 7996 7995 ] final -170.74 input   59.86 | X-H torsion
[ 10167 10162 10161 10158 ] final  -60.51 input  -65.29 | X-H torsion
[ 10718 10713 10712 10709 ] final  134.56 input   66.30 | X-H torsion
[ 10763 10752 10751 10750 ] final  111.15 input  -60.55 | X-H torsion
[ 11005 11000 10999 10996 ] final   87.78 input  -57.11 | X-H torsion

> <Gold.Protein.ActiveResidues>
 VAL166  LYS551  ARG553  GLY616  TRP617  ASP618  TYR619  PRO620  LYS621  CYS622 
 ASP623  PHE694  ASN695  SER759  ASP760  ASP761  ALA762  ILE779  LEU786  VAL792 
 PHE793  MET794  SER795  GLU796  ALA797  LYS798  CYS799  TRP800  GLU811  SER814 

> <Gold.Protein.RotatedAtoms>
  150.8455  134.7763  159.6966 H   0  0  0  0  0  0  0  0  0  0  0  0  # atno 6907 bound_to 6896
  152.4533  134.5343  159.9830 H   0  0  0  0  0  0  0  0  0  0  0  0  # atno 6908 bound_to 6896
  151.5474  133.3385  159.2982 H   0  0  0  0  0  0  0  0  0  0  0  0  # atno 6909 bound_to 6896
  144.7511  139.8440  143.6366 H   0  0  0  0  0  0  0  0  0  0  0  0  # atno 7974 bound_to 7965
  155.9223  140.1076  157.1197 H   0  0  0  0  0  0  0  0  0  0  0  0  # atno 8008 bound_to 7997
  154.4056  140.1253  156.4760 H   0  0  0  0  0  0  0  0  0  0  0  0  # atno 8009 bound_to 7997
  155.7181  140.3470  155.5006 H   0  0  0  0  0  0  0  0  0  0  0  0  # atno 8010 bound_to 7997
  140.6066  143.2375  151.5806 H   0  0  0  0  0  0  0  0  0  0  0  0  # atno 10167 bound_to 10162
  157.4660  131.1077  150.9862 H   0  0  0  0  0  0  0  0  0  0  0  0  # atno 10718 bound_to 10713
  153.4591  135.3726  155.2328 H   0  0  0  0  0  0  0  0  0  0  0  0  # atno 10763 bound_to 10752
  154.8757  135.3904  154.3946 H   0  0  0  0  0  0  0  0  0  0  0  0  # atno 10764 bound_to 10752
  153.4517  135.7085  153.6169 H   0  0  0  0  0  0  0  0  0  0  0  0  # atno 10765 bound_to 10752
  139.8911  134.8445  156.2909 H   0  0  0  0  0  0  0  0  0  0  0  0  # atno 11005 bound_to 11000
  146.1462  139.4532  143.0077 LP  0  0  0  0  0  0  0  0  0  0  0  0  # atno 17320 bound_to 7965
  145.6941  141.0155  143.1540 LP  0  0  0  0  0  0  0  0  0  0  0  0  # atno 17321 bound_to 7965
  139.5330  144.2862  152.1189 LP  0  0  0  0  0  0  0  0  0  0  0  0  # atno 17342 bound_to 10162
  140.2053  144.4617  150.6412 LP  0  0  0  0  0  0  0  0  0  0  0  0  # atno 17343 bound_to 10162
  157.0643  130.5838  149.5391 LP  0  0  0  0  0  0  0  0  0  0  0  0  # atno 17370 bound_to 10713
  156.0050  130.5136  150.7800 LP  0  0  0  0  0  0  0  0  0  0  0  0  # atno 17371 bound_to 10713
  140.9977  133.7170  156.0911 LP  0  0  0  0  0  0  0  0  0  0  0  0  # atno 17394 bound_to 11000
  140.7540  134.4013  157.5537 LP  0  0  0  0  0  0  0  0  0  0  0  0  # atno 17395 bound_to 11000

$$$$
