AV-unprocessed.smi:2693|AV-procd|sdf|10399|dock9
  -GOLD-   2272014433D 1   1.00000     0.00000
 Structure written by MMmdl.
 45 47  0  0  0  0  0  0  0  0  1 V2000
  151.1026  141.8565  157.9405 C   0  0  0  0  0  0  0  0  0  0  0  0
  151.0980  141.6716  156.4922 N   0  0  0  0  0  0  0  0  0  0  0  0
  151.8091  142.6562  155.6813 C   0  0  0  0  0  0  0  0  0  0  0  0
  150.4179  140.6027  155.9008 C   0  0  0  0  0  0  0  0  0  0  0  0
  151.0252  139.9692  154.8893 N   0  0  0  0  0  0  0  0  0  0  0  0
  150.3759  138.9362  154.3116 C   0  0  0  0  0  0  0  0  0  0  0  0
  149.0959  138.5228  154.7531 C   0  0  0  0  0  0  0  0  0  0  0  0
  148.3351  137.4582  154.1980 N   0  0  0  0  0  0  0  0  0  0  0  0
  147.2870  136.8070  154.7303 C   0  0  0  0  0  0  0  0  0  0  0  0
  146.7833  137.0395  155.8285 O   0  0  0  0  0  0  0  0  0  0  0  0
  146.8314  135.8622  153.8973 N   0  0  0  0  0  0  0  0  0  0  0  0
  145.6983  134.9885  154.1849 C   0  0  2  0  0  0  0  0  0  0  0  0
  146.1351  133.5817  154.6222 C   0  0  1  0  0  0  0  0  0  0  0  0
  145.8383  133.1045  156.0179 C   0  0  0  0  0  0  0  0  0  0  0  0
  144.5317  132.3254  155.8422 C   0  0  0  0  0  0  0  0  0  0  0  0
  143.9642  132.8415  154.6402 O   0  0  0  0  0  0  0  0  0  0  0  0
  145.0314  133.0528  153.7190 C   0  0  1  0  0  0  0  0  0  0  0  0
  145.0151  134.3807  152.9329 C   0  0  0  0  0  0  0  0  0  0  0  0
  143.6336  134.9352  152.5816 C   0  0  0  0  0  0  0  0  0  0  0  0
  145.8233  134.3475  151.6279 C   0  0  0  0  0  0  0  0  0  0  0  0
  148.5481  139.2658  155.8179 C   0  0  0  0  0  0  0  0  0  0  0  0
  149.2081  140.2959  156.3873 N   0  0  0  0  0  0  0  0  0  0  0  0
  151.5079  140.9739  158.4367 H   0  0  0  0  0  0  0  0  0  0  0  0
  150.0878  142.0205  158.3048 H   0  0  0  0  0  0  0  0  0  0  0  0
  151.7072  142.7121  158.2410 H   0  0  0  0  0  0  0  0  0  0  0  0
  151.1240  143.1430  154.9865 H   0  0  0  0  0  0  0  0  0  0  0  0
  152.5993  142.1745  155.1045 H   0  0  0  0  0  0  0  0  0  0  0  0
  152.2689  143.4332  156.2919 H   0  0  0  0  0  0  0  0  0  0  0  0
  150.8952  138.4697  153.4901 H   0  0  0  0  0  0  0  0  0  0  0  0
  148.6006  137.1800  153.2646 H   0  0  0  0  0  0  0  0  0  0  0  0
  147.2954  135.7369  153.0096 H   0  0  0  0  0  0  0  0  0  0  0  0
  144.9759  135.4208  154.8812 H   0  0  0  0  0  0  0  0  0  0  0  0
  147.1237  133.3104  154.2468 H   0  0  0  0  0  0  0  0  0  0  0  0
  146.6297  132.4734  156.4230 H   0  0  0  0  0  0  0  0  0  0  0  0
  145.6996  133.9470  156.6963 H   0  0  0  0  0  0  0  0  0  0  0  0
  144.7352  131.2615  155.7104 H   0  0  0  0  0  0  0  0  0  0  0  0
  143.8543  132.4411  156.6884 H   0  0  0  0  0  0  0  0  0  0  0  0
  145.3057  132.1605  153.1544 H   0  0  0  0  0  0  0  0  0  0  0  0
  143.1101  134.2879  151.8775 H   0  0  0  0  0  0  0  0  0  0  0  0
  143.7031  135.9265  152.1325 H   0  0  0  0  0  0  0  0  0  0  0  0
  143.0014  135.0293  153.4651 H   0  0  0  0  0  0  0  0  0  0  0  0
  145.3539  133.6995  150.8871 H   0  0  0  0  0  0  0  0  0  0  0  0
  146.8336  133.9695  151.7867 H   0  0  0  0  0  0  0  0  0  0  0  0
  145.9138  135.3392  151.1835 H   0  0  0  0  0  0  0  0  0  0  0  0
  147.5730  139.0330  156.2203 H   0  0  0  0  0  0  0  0  0  0  0  0
  1  2  1  0  0  0  0
  1 23  1  0  0  0  0
  1 24  1  0  0  0  0
  1 25  1  0  0  0  0
  2  3  1  0  0  0  0
  2  4  1  0  0  0  0
  3 26  1  0  0  0  0
  3 27  1  0  0  0  0
  3 28  1  0  0  0  0
  4 22  1  0  0  0  0
  4  5  2  0  0  0  0
  5  6  1  0  0  0  0
  6  7  2  0  0  0  0
  6 29  1  0  0  0  0
  7  8  1  0  0  0  0
  7 21  1  0  0  0  0
  8  9  1  0  0  0  0
  8 30  1  0  0  0  0
  9 10  2  0  0  0  0
  9 11  1  0  0  0  0
 11 12  1  0  0  0  0
 11 31  1  0  0  0  0
 12 18  1  0  0  0  0
 12 13  1  0  0  0  0
 12 32  1  0  0  0  0
 13 17  1  0  0  0  0
 13 14  1  0  0  0  0
 13 33  1  0  0  0  0
 14 15  1  0  0  0  0
 14 34  1  0  0  0  0
 14 35  1  0  0  0  0
 15 16  1  0  0  0  0
 15 36  1  0  0  0  0
 15 37  1  0  0  0  0
 16 17  1  0  0  0  0
 17 18  1  0  0  0  0
 17 38  1  0  0  0  0
 18 19  1  0  0  0  0
 18 20  1  0  0  0  0
 19 39  1  0  0  0  0
 19 40  1  0  0  0  0
 19 41  1  0  0  0  0
 20 42  1  0  0  0  0
 20 43  1  0  0  0  0
 20 44  1  0  0  0  0
 21 22  2  0  0  0  0
 21 45  1  0  0  0  0
M  END
> <s_m_source_file>
AV-unprocessed.smi

> <i_m_source_file_index>
2693

> <i_lp_mmshare_version>
43012

> <i_f3d_flags>
0

> <s_epik_input>
W0NIM11OKFtDSDNdKWMxbltjSF1jKFtjSF1uMSlbTkhdQyg9TylbTkhdW0NASF0yQyhbQ0gzXSkoW0NIM10pW0NAQEhdKFtDQEhdMjMpT1tDSDJdW0NIMl0z

> <s_epik_cmdline>
J2VwaWtfcHl0aG9uJywgJy1waCcsICc3LjAnLCAnLXRuJywgJzgnLCAnLW1hJywgJzIwMCcsICctbWV0YWxfYmluZGluZycsICctaW1hZScsICc8aW5maWxlLm1hZT4nLCAnLW9tYWUnLCAnPG91dGZpbGUubWFlPic=

> <r_lp_tautomer_probability>
1

> <r_epik_Ionization_Penalty>
0.00031779

> <r_epik_Ionization_Penalty_Charging>
0

> <r_epik_Ionization_Penalty_Neutral>
0.00031779

> <r_epik_State_Penalty>
-0

> <r_epik_Charging_Adjusted_Penalty>
0

> <i_epik_Tot_Q>
0

> <i_epik_Tot_abs_Q>
0

> <r_epik_Metal_State_Penalty>
-0

> <b_epik_Metal_Only>
0

> <s_lp_Force_Field>
OPLS_2005

> <r_lp_Energy>
29.3552

> <b_lp_Chiralities_Consistent>
1

> <s_lp_Variant>
AV-unprocessed.smi:2693-3

> <Gold.Version>
5.8.1

> <Gold.Id.Protein>
6NUR|6NUR_protein|mol2

> <Gold.PLP.Fitness>
41.2540

> <Gold.PLP.PLP>
-31.8892

> <Gold.PLP.part.hbond>
-3.0000

> <Gold.PLP.part.metal>
0.0000

> <Gold.PLP.part.buried>
-3.9851

> <Gold.PLP.part.nonpolar>
-23.7429

> <Gold.PLP.part.repulsive>
0.1297

> <Gold.PLP.ligand.clash>
0.0000

> <Gold.PLP.ligand.torsion>
1.0306

> <Gold.PLP.Chemscore.Hbond>
2.7760

> <Gold.PLP.Chemscore.CHOScore>
0.9739

> <Gold.PLP.Chemscore.Metal>
0.0000

> <Gold.Chemscore.Hbonds>
donor molecule, donor type, donor heavy atom, donor atom, acceptor molecule, acceptor atom, score
      L1  H     8    30       P1  7948  1.00
      L1  H    11    31       P1  7948  0.84
      P1  H  7989  7998       L1     5  1.00

> <Gold.PLP.Chemscore.Internal.Correction>
0.1763

> <Gold.Rescore>
     Score         DG    S(hbond)    S(metal)    S(lipo)     H(rot)  DE(clash)    DE(int)     intcor
     14.29     -16.77       1.61        0.00      72.32       1.00       0.16       2.31       ----

> <Gold.Chemscore.Fitness>
14.2943

> <Gold.Chemscore.DG>
-16.7665

> <Gold.Chemscore.ZeroCoef>
-5.4800

> <Gold.Chemscore.Hbond>
1.6122

> <Gold.Chemscore.Metal>
0.0000

> <Gold.Chemscore.Lipo>
72.3238

> <Gold.Chemscore.Internal_Hbond>
0.0000

> <Gold.Chemscore.DEClash>
0.1610

> <Gold.Chemscore.DEInternal>
2.3112

> <Gold.Chemscore.Rot>
1.0000

> <Gold.Chemscore.Internal.Correction>
   9.000000E+99

> <Gold.Chemscore.Hbonds>
donor molecule, donor type, donor heavy atom, donor atom, acceptor molecule, acceptor atom, score
      L1  H     8    30       P1  7948  1.00
      L1  H    11    31       P1  7948  0.78
      P1  H  7989  7998       L1     5  0.39

> <Gold.Chemscore.Hbond.Weighted>
-5.3846

> <Gold.Chemscore.Metal.Weighted>
-0.0000

> <Gold.Chemscore.Lipo.Weighted>
-8.4619

> <Gold.Chemscore.Internal_Hbond.Weighted>
0.0000

> <Gold.Chemscore.DEClash.Weighted>
0.1610

> <Gold.Chemscore.DEInternal.Weighted>
2.3112

> <Gold.Chemscore.Rot.Weighted>
2.5600

> <Gold.Chemscore.Internal.Correction.Weighted>
   9.000000E+99

> <Gold.Protein.RotatedTorsions>
[ 6907 6896 6895 6894 ] final  -15.16 input  -60.11 | X-H torsion
[ 7974 7965 7964 7962 ] final -151.64 input  175.53 | X-H torsion
[ 8008 7997 7996 7995 ] final  -33.88 input   59.86 | X-H torsion
[ 10167 10162 10161 10158 ] final    1.88 input  -65.29 | X-H torsion
[ 10718 10713 10712 10709 ] final    3.21 input   66.30 | X-H torsion
[ 10763 10752 10751 10750 ] final  138.82 input  -60.55 | X-H torsion
[ 11005 11000 10999 10996 ] final  -28.60 input  -57.11 | X-H torsion

> <Gold.Protein.ActiveResidues>
 VAL166  LYS551  ARG553  GLY616  TRP617  ASP618  TYR619  PRO620  LYS621  CYS622 
 ASP623  PHE694  ASN695  SER759  ASP760  ASP761  ALA762  ILE779  LEU786  VAL792 
 PHE793  MET794  SER795  GLU796  ALA797  LYS798  CYS799  TRP800  GLU811  SER814 

> <Gold.Protein.RotatedAtoms>
  151.3282  135.0835  159.9329 H   0  0  0  0  0  0  0  0  0  0  0  0  # atno 6907 bound_to 6896
  152.5241  133.9570  159.7709 H   0  0  0  0  0  0  0  0  0  0  0  0  # atno 6908 bound_to 6896
  150.9903  133.6103  159.2739 H   0  0  0  0  0  0  0  0  0  0  0  0  # atno 6909 bound_to 6896
  144.7838  140.4770  143.5820 H   0  0  0  0  0  0  0  0  0  0  0  0  # atno 7974 bound_to 7965
  154.4136  140.1699  156.1959 H   0  0  0  0  0  0  0  0  0  0  0  0  # atno 8008 bound_to 7997
  155.9564  140.3397  155.6429 H   0  0  0  0  0  0  0  0  0  0  0  0  # atno 8009 bound_to 7997
  155.6804  140.0722  157.2477 H   0  0  0  0  0  0  0  0  0  0  0  0  # atno 8010 bound_to 7997
  140.6662  143.7174  150.7831 H   0  0  0  0  0  0  0  0  0  0  0  0  # atno 10167 bound_to 10162
  156.8744  130.5631  149.5656 H   0  0  0  0  0  0  0  0  0  0  0  0  # atno 10718 bound_to 10713
  153.8959  135.3027  155.3448 H   0  0  0  0  0  0  0  0  0  0  0  0  # atno 10763 bound_to 10752
  154.7694  135.4894  153.9621 H   0  0  0  0  0  0  0  0  0  0  0  0  # atno 10764 bound_to 10752
  153.1272  135.6795  153.9337 H   0  0  0  0  0  0  0  0  0  0  0  0  # atno 10765 bound_to 10752
  140.9223  133.7391  156.0818 H   0  0  0  0  0  0  0  0  0  0  0  0  # atno 11005 bound_to 11000
  145.5976  139.1501  143.3147 LP  0  0  0  0  0  0  0  0  0  0  0  0  # atno 17320 bound_to 7965
  146.2060  140.6099  142.9081 LP  0  0  0  0  0  0  0  0  0  0  0  0  # atno 17321 bound_to 7965
  140.0852  143.4931  152.2509 LP  0  0  0  0  0  0  0  0  0  0  0  0  # atno 17342 bound_to 10162
  139.5911  144.7550  151.3398 LP  0  0  0  0  0  0  0  0  0  0  0  0  # atno 17343 bound_to 10162
  156.0710  130.5743  150.9382 LP  0  0  0  0  0  0  0  0  0  0  0  0  # atno 17370 bound_to 10713
  157.6177  131.0932  150.8680 LP  0  0  0  0  0  0  0  0  0  0  0  0  # atno 17371 bound_to 10713
  140.7972  134.3550  157.5449 LP  0  0  0  0  0  0  0  0  0  0  0  0  # atno 17394 bound_to 11000
  139.8778  134.9176  156.3182 LP  0  0  0  0  0  0  0  0  0  0  0  0  # atno 17395 bound_to 11000

$$$$
