#       Name:                AV-unprocessed.smi:1562
#       Creating user name   scv26
#       Creation time:       Fri Mar 27 06:48:43 2020


#       File generated by GOLD software.
#

@<TRIPOS>MOLECULE
AV-unprocessed.smi:1562
    45    46     1
SMALL
NO_CHARGES


@<TRIPOS>ATOM
      1 ****        -6.4726  -0.4448   0.5950 N.am           1 S1                 0.0000
      2 ****        -5.1805  -0.4530   0.9318 C.2            1 S1                 0.0000
      3 ****        -4.7529  -1.1328   1.8630 O.2            1 S1                 0.0000
      4 ****        -4.2354   0.4274   0.1034 C.3            1 S1                 0.0000
      5 ****        -3.1308  -0.4220  -0.5702 C.3            1 S1                 0.0000
      6 ****        -2.0975   0.4716  -1.2800 C.3            1 S1                 0.0000
      7 ****        -1.5338   1.4113  -0.2964 N.am           1 S1                 0.0000
      8 ****        -0.3167   1.3141   0.2962 C.2            1 S1                 0.0000
      9 ****         0.0170   1.9896   1.2709 O.2            1 S1                 0.0000
     10 ****         0.5248   0.4452  -0.2870 N.am           1 S1                 0.0000
     11 ****         1.8802   0.1731   0.1708 C.3            1 S1                 0.0000
     12 ****         2.6408  -0.6745  -0.8581 C.3            1 S1                 0.0000
     13 ****         4.0517  -0.9958  -0.4042 C.ar           1 S1                 0.0000
     14 ****         4.4037  -2.2594   0.1181 C.ar           1 S1                 0.0000
     15 ****         5.7340  -2.4899   0.5267 C.ar           1 S1                 0.0000
     16 ****         6.6824  -1.4529   0.4066 C.ar           1 S1                 0.0000
     17 ****         6.2761  -0.2101  -0.1205 C.ar           1 S1                 0.0000
     18 ****         4.9926  -0.0287  -0.5024 N.pl3          1 S1                 1.0000
     19 ****        -2.5588   2.3422   0.1900 C.3            1 S1                 0.0000
     20 ****        -3.6181   1.5469   0.9748 C.3            1 S1                 0.0000
     21 ****        -7.1282  -1.0089   1.1163 H              1 S1                 0.0000
     22 ****        -6.7903   0.1245  -0.1756 H              1 S1                 0.0000
     23 ****        -4.8140   0.9055  -0.6894 H              1 S1                 0.0000
     24 ****        -2.6184  -1.0382   0.1708 H              1 S1                 0.0000
     25 ****        -3.5758  -1.1105  -1.2894 H              1 S1                 0.0000
     26 ****        -1.3523  -0.1488  -1.7775 H              1 S1                 0.0000
     27 ****        -2.5812   1.0354  -2.0789 H              1 S1                 0.0000
     28 ****         0.1953  -0.0680  -1.0917 H              1 S1                 0.0000
     29 ****         2.4069   1.1137   0.3414 H              1 S1                 0.0000
     30 ****         1.8326  -0.3490   1.1276 H              1 S1                 0.0000
     31 ****         2.1046  -1.6063  -1.0437 H              1 S1                 0.0000
     32 ****         2.6888  -0.1513  -1.8142 H              1 S1                 0.0000
     33 ****         3.6651  -3.0430   0.2067 H              1 S1                 0.0000
     34 ****         6.0230  -3.4501   0.9286 H              1 S1                 0.0000
     35 ****         7.7060  -1.6088   0.7147 H              1 S1                 0.0000
     36 ****         6.9330   0.6383  -0.2466 H              1 S1                 0.0000
     37 ****        -2.1441   3.1339   0.8155 H              1 S1                 0.0000
     38 ****        -3.0210   2.8493  -0.6580 H              1 S1                 0.0000
     39 ****        -4.3995   2.2231   1.3237 H              1 S1                 0.0000
     40 ****        -3.1562   1.1230   1.8684 H              1 S1                 0.0000
     41 ****         4.7205   0.8798  -0.8791 H              1 S1                 0.0000
     42 ****        -5.3793  -1.7029   2.3948 LP             1 S1                 0.0000
     43 ****        -3.7788  -1.1156   2.0886 LP             1 S1                 0.0000
     44 ****        -0.6227   2.6499   1.6643 LP             1 S1                 0.0000
     45 ****         0.9275   1.8775   1.6688 LP             1 S1                 0.0000
@<TRIPOS>BOND
    1    1    2 am    
    2    1   21 1     
    3    1   22 1     
    4    2    3 2     
    5    2    4 1     
    6    4   20 1     
    7    4    5 1     
    8    4   23 1     
    9    5    6 1     
   10    5   24 1     
   11    5   25 1     
   12    6    7 1     
   13    6   26 1     
   14    6   27 1     
   15    7    8 am    
   16    7   19 1     
   17    8    9 2     
   18    8   10 am    
   19   10   11 1     
   20   10   28 1     
   21   11   12 1     
   22   11   29 1     
   23   11   30 1     
   24   12   13 1     
   25   12   31 1     
   26   12   32 1     
   27   13   18 ar    
   28   13   14 ar    
   29   14   15 ar    
   30   14   33 1     
   31   15   16 ar    
   32   15   34 1     
   33   16   17 ar    
   34   16   35 1     
   35   17   18 ar    
   36   17   36 1     
   37   18   41 1     
   38   19   20 1     
   39   19   37 1     
   40   19   38 1     
   41   20   39 1     
   42   20   40 1     
   43    3   42 1     
   44    3   43 1     
   45    9   44 1     
   46    9   45 1     
@<TRIPOS>SUBSTRUCTURE
      1 S1             1
@<TRIPOS>SET
LONE_PAIRS      STATIC     ATOMS    <user>   **** ""
4 42 43 44 45
DONOR_HYDROGENS      STATIC     ATOMS    <user>   **** ""
4 21 22 28 41
ATOM$BLUE        STATIC     ATOMS    COLORGROUP SYSTEM
4 42 43 44 45
ATOM$RED        STATIC     ATOMS    COLORGROUP SYSTEM
4 21 22 28 41
