AV-unprocessed.smi:49|AV-procd|sdf|483|dock6
  -GOLD-   2262016343D 1   1.00000     0.00000
 Structure written by MMmdl.
 27 28  0  0  0  0  0  0  0  0  3 V2000
  151.8388  145.3084  159.3570 C   0  0  0  0  0  0  0  0  0  0  0  0
  152.4861  144.4654  158.2536 C   0  0  0  0  0  0  0  0  0  0  0  0
  151.7607  143.1554  158.0372 C   0  0  0  0  0  0  0  0  0  0  0  0
  150.5759  143.0082  157.4527 N   0  0  0  0  0  0  0  0  0  0  0  0
  150.3389  141.6899  157.4322 C   0  0  0  0  0  0  0  0  0  0  0  0
  149.0713  141.0609  156.8868 C   0  0  2  0  0  0  0  0  0  0  0  0
  149.3638  139.9757  155.8403 C   0  0  0  0  0  0  0  0  0  0  0  0
  149.1868  140.6991  154.5085 C   0  0  1  0  0  0  0  0  0  0  0  0
  148.8730  139.8105  153.4570 O   0  0  0  0  0  0  0  0  0  0  0  0
  148.0465  141.6717  154.8054 C   0  0  0  0  0  0  0  0  0  0  0  0
  148.2378  142.0778  156.2098 N   0  3  0  0  0  0  0  0  0  0  0  0
  151.3517  141.0171  158.0024 N   0  0  0  0  0  0  0  0  0  0  0  0
  152.2263  141.9349  158.3564 N   0  5  0  0  0  0  0  0  0  0  0  0
  148.5120  140.6371  157.7217 H   0  0  0  0  0  0  0  0  0  0  0  0
  150.0946  141.2524  154.2634 H   0  0  0  0  0  0  0  0  0  0  0  0
  152.3771  146.2459  159.4966 H   0  0  0  0  0  0  0  0  0  0  0  0
  151.8409  144.7767  160.3088 H   0  0  0  0  0  0  0  0  0  0  0  0
  150.8047  145.5503  159.1099 H   0  0  0  0  0  0  0  0  0  0  0  0
  152.4952  145.0221  157.3160 H   0  0  0  0  0  0  0  0  0  0  0  0
  153.5260  144.2560  158.5056 H   0  0  0  0  0  0  0  0  0  0  0  0
  150.3419  139.5068  155.9569 H   0  0  0  0  0  0  0  0  0  0  0  0
  148.6114  139.1898  155.9274 H   0  0  0  0  0  0  0  0  0  0  0  0
  149.4199  140.0181  152.7143 H   0  0  0  0  0  0  0  0  0  0  0  0
  148.0344  142.5300  154.1333 H   0  0  0  0  0  0  0  0  0  0  0  0
  147.0825  141.1665  154.7281 H   0  0  0  0  0  0  0  0  0  0  0  0
  147.3494  142.1873  156.6767 H   0  0  0  0  0  0  0  0  0  0  0  0
  148.7450  142.9514  156.2337 H   0  0  0  0  0  0  0  0  0  0  0  0
  1  2  1  0  0  0  0
  1 16  1  0  0  0  0
  1 17  1  0  0  0  0
  1 18  1  0  0  0  0
  2  3  1  0  0  0  0
  2 19  1  0  0  0  0
  2 20  1  0  0  0  0
  3 13  1  0  0  0  0
  3  4  2  0  0  0  0
  4  5  1  0  0  0  0
  5  6  1  0  0  0  0
  5 12  2  0  0  0  0
  6 14  1  0  0  0  0
  6 11  1  0  0  0  0
  6  7  1  0  0  0  0
  7  8  1  0  0  0  0
  7 21  1  0  0  0  0
  7 22  1  0  0  0  0
  8 15  1  0  0  0  0
  8  9  1  0  0  0  0
  8 10  1  0  0  0  0
  9 23  1  0  0  0  0
 10 11  1  0  0  0  0
 10 24  1  0  0  0  0
 10 25  1  0  0  0  0
 11 26  1  0  0  0  0
 11 27  1  0  0  0  0
 12 13  1  0  0  0  0
M  CHG  1  11   1
M  CHG  1  13  -1
M  END
> <s_m_source_file>
AV-unprocessed.smi

> <i_m_source_file_index>
49

> <i_lp_mmshare_version>
43012

> <i_f3d_flags>
0

> <s_epik_input>
W0NIM11bQ0gyXWMxbmMobltuSF0xKVtDQEBIXTJbQ0gyXVtDQEBIXShbT0hdKVtDSDJdW05IXTI=

> <s_epik_cmdline>
J2VwaWtfcHl0aG9uJywgJy1waCcsICc3LjAnLCAnLXRuJywgJzgnLCAnLW1hJywgJzIwMCcsICctbWV0YWxfYmluZGluZycsICctaW1hZScsICc8aW5maWxlLm1hZT4nLCAnLW9tYWUnLCAnPG91dGZpbGUubWFlPic=

> <r_lp_tautomer_probability>
0.948284

> <r_epik_Ionization_Penalty>
3.22013

> <r_epik_Ionization_Penalty_Charging>
3.22013

> <r_epik_Ionization_Penalty_Neutral>
3.9133e-08

> <r_epik_State_Penalty>
2.79459

> <r_epik_Charging_Adjusted_Penalty>
6.01472

> <i_epik_Tot_Q>
0

> <i_epik_Tot_abs_Q>
2

> <r_epik_Metal_State_Penalty>
0.589377

> <b_epik_Metal_Only>
1

> <s_lp_Force_Field>
OPLS_2005

> <r_lp_Energy>
10.361

> <b_lp_Chiralities_Consistent>
1

> <s_lp_Variant>
AV-unprocessed.smi:49-21

> <Gold.Version>
5.8.1

> <Gold.Id.Protein>
6NUR|6NUR_protein|mol2

> <Gold.PLP.Fitness>
33.2240

> <Gold.PLP.PLP>
-24.8651

> <Gold.PLP.part.hbond>
-1.6334

> <Gold.PLP.part.metal>
0.0000

> <Gold.PLP.part.buried>
-4.4419

> <Gold.PLP.part.nonpolar>
-19.8639

> <Gold.PLP.part.repulsive>
1.0310

> <Gold.PLP.ligand.clash>
0.0000

> <Gold.PLP.ligand.torsion>
0.2071

> <Gold.PLP.Chemscore.Hbond>
2.9200

> <Gold.PLP.Chemscore.CHOScore>
0.0000

> <Gold.PLP.Chemscore.Metal>
0.0000

> <Gold.Chemscore.Hbonds>
donor molecule, donor type, donor heavy atom, donor atom, acceptor molecule, acceptor atom, score
      L1  H     9    23       P1  7957  0.98
      L1  H    11    27       P1  8028  1.92

> <Gold.PLP.Chemscore.Internal.Correction>
0.0130

> <Gold.Rescore>
     Score         DG    S(hbond)    S(metal)    S(lipo)     H(rot)  DE(clash)    DE(int)     intcor
     12.21     -12.62       1.88        0.00      48.09       1.86       0.22       0.19       ----

> <Gold.Chemscore.Fitness>
12.2085

> <Gold.Chemscore.DG>
-12.6202

> <Gold.Chemscore.ZeroCoef>
-5.4800

> <Gold.Chemscore.Hbond>
1.8764

> <Gold.Chemscore.Metal>
0.0000

> <Gold.Chemscore.Lipo>
48.0855

> <Gold.Chemscore.Internal_Hbond>
0.0000

> <Gold.Chemscore.DEClash>
0.2220

> <Gold.Chemscore.DEInternal>
0.1898

> <Gold.Chemscore.Rot>
1.8567

> <Gold.Chemscore.Internal.Correction>
   9.000000E+99

> <Gold.Chemscore.Hbonds>
donor molecule, donor type, donor heavy atom, donor atom, acceptor molecule, acceptor atom, score
      L1  H     9    23       P1  7957  0.90
      L1  H    11    27       P1  8028  0.91

> <Gold.Chemscore.Hbond.Weighted>
-6.2673

> <Gold.Chemscore.Metal.Weighted>
-0.0000

> <Gold.Chemscore.Lipo.Weighted>
-5.6260

> <Gold.Chemscore.Internal_Hbond.Weighted>
0.0000

> <Gold.Chemscore.DEClash.Weighted>
0.2220

> <Gold.Chemscore.DEInternal.Weighted>
0.1898

> <Gold.Chemscore.Rot.Weighted>
4.7531

> <Gold.Chemscore.Internal.Correction.Weighted>
   9.000000E+99

> <Gold.Protein.RotatedTorsions>
[ 6907 6896 6895 6894 ] final   11.87 input  -60.11 | X-H torsion
[ 7974 7965 7964 7962 ] final  166.60 input  175.53 | X-H torsion
[ 8008 7997 7996 7995 ] final  -52.79 input   59.86 | X-H torsion
[ 10167 10162 10161 10158 ] final   -2.56 input  -65.29 | X-H torsion
[ 10718 10713 10712 10709 ] final   79.69 input   66.30 | X-H torsion
[ 10763 10752 10751 10750 ] final   17.27 input  -60.55 | X-H torsion
[ 11005 11000 10999 10996 ] final  149.67 input  -57.11 | X-H torsion

> <Gold.Protein.ActiveResidues>
 VAL166  LYS551  ARG553  GLY616  TRP617  ASP618  TYR619  PRO620  LYS621  CYS622 
 ASP623  PHE694  ASN695  SER759  ASP760  ASP761  ALA762  ILE779  LEU786  VAL792 
 PHE793  MET794  SER795  GLU796  ALA797  LYS798  CYS799  TRP800  GLU811  SER814 

> <Gold.Protein.RotatedAtoms>
  151.7612  135.0809  160.0345 H   0  0  0  0  0  0  0  0  0  0  0  0  # atno 6907 bound_to 6896
  152.3352  133.5999  159.5846 H   0  0  0  0  0  0  0  0  0  0  0  0  # atno 6908 bound_to 6896
  150.7446  133.9723  159.3591 H   0  0  0  0  0  0  0  0  0  0  0  0  # atno 6909 bound_to 6896
  144.7456  139.8639  143.6383 H   0  0  0  0  0  0  0  0  0  0  0  0  # atno 7974 bound_to 7965
  154.4116  140.1215  156.5048 H   0  0  0  0  0  0  0  0  0  0  0  0  # atno 8008 bound_to 7997
  155.6858  140.3496  155.4854 H   0  0  0  0  0  0  0  0  0  0  0  0  # atno 8009 bound_to 7997
  155.9511  140.1105  157.0965 H   0  0  0  0  0  0  0  0  0  0  0  0  # atno 8010 bound_to 7997
  140.6856  143.6643  150.8240 H   0  0  0  0  0  0  0  0  0  0  0  0  # atno 10167 bound_to 10162
  157.6784  130.9925  150.1969 H   0  0  0  0  0  0  0  0  0  0  0  0  # atno 10718 bound_to 10713
  153.1354  135.6749  153.9111 H   0  0  0  0  0  0  0  0  0  0  0  0  # atno 10763 bound_to 10752
  153.8585  135.3084  155.3438 H   0  0  0  0  0  0  0  0  0  0  0  0  # atno 10764 bound_to 10752
  154.7743  135.4923  153.9795 H   0  0  0  0  0  0  0  0  0  0  0  0  # atno 10765 bound_to 10752
  140.1064  134.8951  157.1872 H   0  0  0  0  0  0  0  0  0  0  0  0  # atno 11005 bound_to 11000
  146.1328  139.4367  143.0158 LP  0  0  0  0  0  0  0  0  0  0  0  0  # atno 17320 bound_to 7965
  145.7137  141.0098  143.1440 LP  0  0  0  0  0  0  0  0  0  0  0  0  # atno 17321 bound_to 7965
  140.0349  143.5405  152.2743 LP  0  0  0  0  0  0  0  0  0  0  0  0  # atno 17342 bound_to 10162
  139.6211  144.7629  151.2738 LP  0  0  0  0  0  0  0  0  0  0  0  0  # atno 17343 bound_to 10162
  156.2668  130.3717  149.8073 LP  0  0  0  0  0  0  0  0  0  0  0  0  # atno 17370 bound_to 10713
  156.5801  130.8462  151.3380 LP  0  0  0  0  0  0  0  0  0  0  0  0  # atno 17371 bound_to 10713
  140.3150  134.2981  155.7258 LP  0  0  0  0  0  0  0  0  0  0  0  0  # atno 17394 bound_to 11000
  141.2119  133.7674  156.9830 LP  0  0  0  0  0  0  0  0  0  0  0  0  # atno 17395 bound_to 11000

$$$$
