AV-unprocessed.smi:1052|AV-procd|sdf|4616|dock9
  -GOLD-   22720 3113D 1   1.00000     0.00000
 Structure written by MMmdl.
 40 41  0  0  0  0  0  0  0  0  1 V2000
  147.0950  140.6232  153.8115 C   0  0  0  0  0  0  0  0  0  0  0  0
  147.0877  141.8795  154.7004 C   0  0  0  0  0  0  0  0  0  0  0  0
  146.4595  143.0481  153.9130 C   0  0  0  0  0  0  0  0  0  0  0  0
  146.2725  141.5830  155.9772 C   0  0  0  0  0  0  0  0  0  0  0  0
  148.4867  142.1751  155.0314 N   0  0  0  0  0  0  0  0  0  0  0  0
  149.3695  141.4094  155.6972 C   0  0  0  0  0  0  0  0  0  0  0  0
  149.1050  140.2977  156.1564 O   0  0  0  0  0  0  0  0  0  0  0  0
  150.7662  142.0165  155.8916 C   0  0  0  0  0  0  0  0  0  0  0  0
  151.4067  141.6005  157.1480 N   0  0  0  0  0  0  0  0  0  0  0  0
  151.6842  142.6433  158.0108 N   0  0  0  0  0  0  0  0  0  0  0  0
  152.2363  142.4260  159.1570 C   0  0  0  0  0  0  0  0  0  0  0  0
  152.4972  143.6161  160.0359 C   0  0  0  0  0  0  0  0  0  0  0  0
  151.3702  144.4200  160.6413 C   0  0  0  0  0  0  0  0  0  0  0  0
  152.2446  145.0325  159.5717 C   0  0  0  0  0  0  0  0  0  0  0  0
  152.5751  141.0699  159.5400 C   0  0  0  0  0  0  0  0  0  0  0  0
  152.3090  140.0356  158.7053 C   0  0  0  0  0  0  0  0  0  0  0  0
  152.6619  138.5950  159.0666 C   0  0  0  0  0  0  0  0  0  0  0  0
  151.5567  137.8557  159.1619 F   0  0  0  0  0  0  0  0  0  0  0  0
  153.4477  138.0522  158.1358 F   0  0  0  0  0  0  0  0  0  0  0  0
  153.3051  138.5224  160.2329 F   0  0  0  0  0  0  0  0  0  0  0  0
  151.6759  140.2850  157.4015 C   0  0  0  0  0  0  0  0  0  0  0  0
  151.4015  139.3941  156.5962 O   0  0  0  0  0  0  0  0  0  0  0  0
  146.0836  140.3377  153.5197 H   0  0  0  0  0  0  0  0  0  0  0  0
  147.5387  139.7719  154.3295 H   0  0  0  0  0  0  0  0  0  0  0  0
  147.6659  140.7851  152.8961 H   0  0  0  0  0  0  0  0  0  0  0  0
  147.0420  143.2848  153.0217 H   0  0  0  0  0  0  0  0  0  0  0  0
  146.3901  143.9559  154.5122 H   0  0  0  0  0  0  0  0  0  0  0  0
  145.4482  142.8028  153.5871 H   0  0  0  0  0  0  0  0  0  0  0  0
  145.2588  141.2660  155.7301 H   0  0  0  0  0  0  0  0  0  0  0  0
  146.1829  142.4578  156.6211 H   0  0  0  0  0  0  0  0  0  0  0  0
  146.7305  140.7865  156.5649 H   0  0  0  0  0  0  0  0  0  0  0  0
  148.8249  143.0705  154.7096 H   0  0  0  0  0  0  0  0  0  0  0  0
  151.4054  141.7583  155.0449 H   0  0  0  0  0  0  0  0  0  0  0  0
  150.6664  143.1030  155.8597 H   0  0  0  0  0  0  0  0  0  0  0  0
  153.3769  143.4510  160.6553 H   0  0  0  0  0  0  0  0  0  0  0  0
  150.3503  144.1591  160.3646 H   0  0  0  0  0  0  0  0  0  0  0  0
  151.4998  144.7756  161.6614 H   0  0  0  0  0  0  0  0  0  0  0  0
  152.9556  145.7960  159.8812 H   0  0  0  0  0  0  0  0  0  0  0  0
  151.7968  145.1839  158.5913 H   0  0  0  0  0  0  0  0  0  0  0  0
  153.0406  140.9067  160.5004 H   0  0  0  0  0  0  0  0  0  0  0  0
  1  2  1  0  0  0  0
  1 23  1  0  0  0  0
  1 24  1  0  0  0  0
  1 25  1  0  0  0  0
  2  3  1  0  0  0  0
  2  4  1  0  0  0  0
  2  5  1  0  0  0  0
  3 26  1  0  0  0  0
  3 27  1  0  0  0  0
  3 28  1  0  0  0  0
  4 29  1  0  0  0  0
  4 30  1  0  0  0  0
  4 31  1  0  0  0  0
  5  6  1  0  0  0  0
  5 32  1  0  0  0  0
  6  7  2  0  0  0  0
  6  8  1  0  0  0  0
  8  9  1  0  0  0  0
  8 33  1  0  0  0  0
  8 34  1  0  0  0  0
  9 21  1  0  0  0  0
  9 10  1  0  0  0  0
 10 11  2  0  0  0  0
 11 12  1  0  0  0  0
 11 15  1  0  0  0  0
 12 14  1  0  0  0  0
 12 13  1  0  0  0  0
 12 35  1  0  0  0  0
 13 14  1  0  0  0  0
 13 36  1  0  0  0  0
 13 37  1  0  0  0  0
 14 38  1  0  0  0  0
 14 39  1  0  0  0  0
 15 16  2  0  0  0  0
 15 40  1  0  0  0  0
 16 17  1  0  0  0  0
 16 21  1  0  0  0  0
 17 18  1  0  0  0  0
 17 19  1  0  0  0  0
 17 20  1  0  0  0  0
 21 22  2  0  0  0  0
M  END
> <s_m_source_file>
AV-unprocessed.smi

> <i_m_source_file_index>
1052

> <i_lp_mmshare_version>
43012

> <i_f3d_flags>
0

> <s_epik_input>
W0NIM11DKFtDSDNdKShbQ0gzXSlbTkhdQyg9TylbQ0gyXW4xbmMoW0NIXTJbQ0gyXVtDSDJdMilbY0hdYyhDKEYpKEYpRiljMT1P

> <s_epik_cmdline>
J2VwaWtfcHl0aG9uJywgJy1waCcsICc3LjAnLCAnLXRuJywgJzgnLCAnLW1hJywgJzIwMCcsICctbWV0YWxfYmluZGluZycsICctaW1hZScsICc8aW5maWxlLm1hZT4nLCAnLW9tYWUnLCAnPG91dGZpbGUubWFlPic=

> <r_lp_tautomer_probability>
1

> <r_epik_Ionization_Penalty>
2.47799e-08

> <r_epik_Ionization_Penalty_Charging>
1.49243e-10

> <r_epik_Ionization_Penalty_Neutral>
2.46307e-08

> <r_epik_State_Penalty>
-0

> <r_epik_Charging_Adjusted_Penalty>
1.49243e-10

> <i_epik_Tot_Q>
0

> <i_epik_Tot_abs_Q>
0

> <r_epik_Metal_State_Penalty>
-0

> <b_epik_Metal_Only>
0

> <s_lp_Force_Field>
OPLS_2005

> <r_lp_Energy>
24.0208

> <b_lp_Chiralities_Consistent>
1

> <s_lp_Variant>
AV-unprocessed.smi:1052-1

> <Gold.Version>
5.8.1

> <Gold.Id.Protein>
6NUR|6NUR_protein|mol2

> <Gold.PLP.Fitness>
43.7124

> <Gold.PLP.PLP>
-42.4221

> <Gold.PLP.part.hbond>
-1.0000

> <Gold.PLP.part.metal>
0.0000

> <Gold.PLP.part.buried>
-7.5990

> <Gold.PLP.part.nonpolar>
-33.8223

> <Gold.PLP.part.repulsive>
0.2168

> <Gold.PLP.ligand.clash>
0.3925

> <Gold.PLP.ligand.torsion>
0.4952

> <Gold.PLP.Chemscore.Hbond>
0.6880

> <Gold.PLP.Chemscore.CHOScore>
0.0000

> <Gold.PLP.Chemscore.Metal>
0.0000

> <Gold.Chemscore.Hbonds>
donor molecule, donor type, donor heavy atom, donor atom, acceptor molecule, acceptor atom, score
      L1  H     5    32       P1  8028  0.59

> <Gold.PLP.Chemscore.Internal.Correction>
0.6091

> <Gold.Rescore>
     Score         DG    S(hbond)    S(metal)    S(lipo)     H(rot)  DE(clash)    DE(int)     intcor
      9.35     -14.80       0.91        0.00      90.58       1.69       0.01       5.44       ----

> <Gold.Chemscore.Fitness>
9.3508

> <Gold.Chemscore.DG>
-14.7965

> <Gold.Chemscore.ZeroCoef>
-5.4800

> <Gold.Chemscore.Hbond>
0.9119

> <Gold.Chemscore.Metal>
0.0000

> <Gold.Chemscore.Lipo>
90.5791

> <Gold.Chemscore.Internal_Hbond>
0.0000

> <Gold.Chemscore.DEClash>
0.0052

> <Gold.Chemscore.DEInternal>
5.4404

> <Gold.Chemscore.Rot>
1.6903

> <Gold.Chemscore.Internal.Correction>
   9.000000E+99

> <Gold.Chemscore.Hbonds>
donor molecule, donor type, donor heavy atom, donor atom, acceptor molecule, acceptor atom, score
      L1  H     5    32       P1  8028  0.58

> <Gold.Chemscore.Hbond.Weighted>
-3.0459

> <Gold.Chemscore.Metal.Weighted>
-0.0000

> <Gold.Chemscore.Lipo.Weighted>
-10.5978

> <Gold.Chemscore.Internal_Hbond.Weighted>
0.0000

> <Gold.Chemscore.DEClash.Weighted>
0.0052

> <Gold.Chemscore.DEInternal.Weighted>
5.4404

> <Gold.Chemscore.Rot.Weighted>
4.3272

> <Gold.Chemscore.Internal.Correction.Weighted>
   9.000000E+99

> <Gold.Protein.RotatedTorsions>
[ 6907 6896 6895 6894 ] final  100.04 input  -60.11 | X-H torsion
[ 7974 7965 7964 7962 ] final  -53.23 input  175.53 | X-H torsion
[ 8008 7997 7996 7995 ] final  173.77 input   59.86 | X-H torsion
[ 10167 10162 10161 10158 ] final  -57.66 input  -65.29 | X-H torsion
[ 10718 10713 10712 10709 ] final  -85.81 input   66.30 | X-H torsion
[ 10763 10752 10751 10750 ] final -126.79 input  -60.55 | X-H torsion
[ 11005 11000 10999 10996 ] final   24.71 input  -57.11 | X-H torsion

> <Gold.Protein.ActiveResidues>
 VAL166  LYS551  ARG553  GLY616  TRP617  ASP618  TYR619  PRO620  LYS621  CYS622 
 ASP623  PHE694  ASN695  SER759  ASP760  ASP761  ALA762  ILE779  LEU786  VAL792 
 PHE793  MET794  SER795  GLU796  ALA797  LYS798  CYS799  TRP800  GLU811  SER814 

> <Gold.Protein.RotatedAtoms>
  152.5380  134.0336  159.8035 H   0  0  0  0  0  0  0  0  0  0  0  0  # atno 6907 bound_to 6896
  151.0503  133.5622  159.2650 H   0  0  0  0  0  0  0  0  0  0  0  0  # atno 6908 bound_to 6896
  151.2558  135.0645  159.9133 H   0  0  0  0  0  0  0  0  0  0  0  0  # atno 6909 bound_to 6896
  145.8991  140.8008  142.9752 H   0  0  0  0  0  0  0  0  0  0  0  0  # atno 7974 bound_to 7965
  156.1042  140.1451  156.9426 H   0  0  0  0  0  0  0  0  0  0  0  0  # atno 8008 bound_to 7997
  154.4723  140.0906  156.7219 H   0  0  0  0  0  0  0  0  0  0  0  0  # atno 8009 bound_to 7997
  155.4708  140.3441  155.4327 H   0  0  0  0  0  0  0  0  0  0  0  0  # atno 8010 bound_to 7997
  140.6244  143.2432  151.5399 H   0  0  0  0  0  0  0  0  0  0  0  0  # atno 10167 bound_to 10162
  155.9994  130.4743  150.4619 H   0  0  0  0  0  0  0  0  0  0  0  0  # atno 10718 bound_to 10713
  154.8748  135.3984  154.3487 H   0  0  0  0  0  0  0  0  0  0  0  0  # atno 10763 bound_to 10752
  153.4276  135.7024  153.6257 H   0  0  0  0  0  0  0  0  0  0  0  0  # atno 10764 bound_to 10752
  153.4893  135.3752  155.2453 H   0  0  0  0  0  0  0  0  0  0  0  0  # atno 10765 bound_to 10752
  140.3557  134.2180  155.7676 H   0  0  0  0  0  0  0  0  0  0  0  0  # atno 11005 bound_to 11000
  144.6734  140.1649  143.7419 LP  0  0  0  0  0  0  0  0  0  0  0  0  # atno 17320 bound_to 7965
  145.8813  139.2324  143.1604 LP  0  0  0  0  0  0  0  0  0  0  0  0  # atno 17321 bound_to 7965
  139.5467  144.2502  152.1455 LP  0  0  0  0  0  0  0  0  0  0  0  0  # atno 17342 bound_to 10162
  140.1730  144.4917  150.6569 LP  0  0  0  0  0  0  0  0  0  0  0  0  # atno 17343 bound_to 10162
  157.2642  131.0573  151.2301 LP  0  0  0  0  0  0  0  0  0  0  0  0  # atno 17370 bound_to 10713
  157.3405  130.7031  149.6378 LP  0  0  0  0  0  0  0  0  0  0  0  0  # atno 17371 bound_to 10713
  141.1999  133.8000  157.0515 LP  0  0  0  0  0  0  0  0  0  0  0  0  # atno 17394 bound_to 11000
  140.0667  134.9725  157.1397 LP  0  0  0  0  0  0  0  0  0  0  0  0  # atno 17395 bound_to 11000

$$$$
