AV-unprocessed.smi:1572|AV-procd|sdf|6331|dock3
  -GOLD-   22720 6543D 1   1.00000     0.00000
 Structure written by MMmdl.
 42 43  0  0  0  0  0  0  0  0  3 V2000
  151.2872  139.8073  155.8927 C   0  0  0  0  0  0  0  0  0  0  0  0
  150.9317  139.3384  154.5577 N   0  0  0  0  0  0  0  0  0  0  0  0
  151.6595  138.1346  154.1574 C   0  0  0  0  0  0  0  0  0  0  0  0
  151.1876  136.8813  154.9245 C   0  0  0  0  0  0  0  0  0  0  0  0
  149.7252  136.6636  154.7302 N   0  3  0  0  0  0  0  0  0  0  0  0
  149.1808  135.3555  155.2444 C   0  0  0  0  0  0  0  0  0  0  0  0
  147.6438  135.3142  155.0520 C   0  0  0  0  0  0  0  0  0  0  0  0
  149.7481  134.1912  154.3932 C   0  0  0  0  0  0  0  0  0  0  0  0
  149.5254  135.1532  156.7509 C   0  0  0  0  0  0  0  0  0  0  0  0
  148.8114  136.0718  157.6365 N   0  0  0  0  0  0  0  0  0  0  0  0
  149.3181  136.7056  158.7037 C   0  0  0  0  0  0  0  0  0  0  0  0
  150.4990  136.5395  159.0175 O   0  0  0  0  0  0  0  0  0  0  0  0
  148.4200  137.4847  159.3466 N   0  5  0  0  0  0  0  0  0  0  0  0
  147.6914  136.9765  160.3542 C   0  0  0  0  0  0  0  0  0  0  0  0
  146.6227  137.6127  160.8597 N   0  0  0  0  0  0  0  0  0  0  0  0
  146.0119  136.9168  161.8940 N   0  0  0  0  0  0  0  0  0  0  0  0
  146.6324  135.7623  162.1356 C   0  0  0  0  0  0  0  0  0  0  0  0
  148.0189  135.4207  161.1224 S   0  0  0  0  0  0  0  0  0  0  0  0
  148.9897  137.8881  155.1567 C   0  0  0  0  0  0  0  0  0  0  0  0
  149.4954  139.1247  154.3850 C   0  0  0  0  0  0  0  0  0  0  0  0
  152.3568  140.0116  155.9472 H   0  0  0  0  0  0  0  0  0  0  0  0
  151.0427  139.0859  156.6715 H   0  0  0  0  0  0  0  0  0  0  0  0
  150.7625  140.7363  156.1177 H   0  0  0  0  0  0  0  0  0  0  0  0
  151.5148  137.9817  153.0871 H   0  0  0  0  0  0  0  0  0  0  0  0
  152.7292  138.2892  154.3040 H   0  0  0  0  0  0  0  0  0  0  0  0
  151.7646  136.0404  154.5460 H   0  0  0  0  0  0  0  0  0  0  0  0
  151.4281  136.9703  155.9834 H   0  0  0  0  0  0  0  0  0  0  0  0
  147.2430  134.3145  155.2237 H   0  0  0  0  0  0  0  0  0  0  0  0
  147.3610  135.6011  154.0385 H   0  0  0  0  0  0  0  0  0  0  0  0
  147.1197  135.9697  155.7472 H   0  0  0  0  0  0  0  0  0  0  0  0
  149.2223  133.2553  154.5848 H   0  0  0  0  0  0  0  0  0  0  0  0
  150.7984  133.9943  154.6066 H   0  0  0  0  0  0  0  0  0  0  0  0
  149.6530  134.3947  153.3260 H   0  0  0  0  0  0  0  0  0  0  0  0
  149.3433  134.1249  157.0633 H   0  0  0  0  0  0  0  0  0  0  0  0
  150.5860  135.3304  156.9250 H   0  0  0  0  0  0  0  0  0  0  0  0
  147.8396  136.2436  157.4234 H   0  0  0  0  0  0  0  0  0  0  0  0
  146.2715  135.1076  162.9145 H   0  0  0  0  0  0  0  0  0  0  0  0
  147.9254  137.7992  154.9506 H   0  0  0  0  0  0  0  0  0  0  0  0
  149.0865  138.0432  156.2310 H   0  0  0  0  0  0  0  0  0  0  0  0
  148.9529  140.0170  154.6994 H   0  0  0  0  0  0  0  0  0  0  0  0
  149.2890  138.9981  153.3212 H   0  0  0  0  0  0  0  0  0  0  0  0
  149.5981  136.6155  153.7298 H   0  0  0  0  0  0  0  0  0  0  0  0
  1  2  1  0  0  0  0
  1 21  1  0  0  0  0
  1 22  1  0  0  0  0
  1 23  1  0  0  0  0
  2 20  1  0  0  0  0
  2  3  1  0  0  0  0
  3  4  1  0  0  0  0
  3 24  1  0  0  0  0
  3 25  1  0  0  0  0
  4  5  1  0  0  0  0
  4 26  1  0  0  0  0
  4 27  1  0  0  0  0
  5  6  1  0  0  0  0
  5 19  1  0  0  0  0
  5 42  1  0  0  0  0
  6  7  1  0  0  0  0
  6  8  1  0  0  0  0
  6  9  1  0  0  0  0
  7 28  1  0  0  0  0
  7 29  1  0  0  0  0
  7 30  1  0  0  0  0
  8 31  1  0  0  0  0
  8 32  1  0  0  0  0
  8 33  1  0  0  0  0
  9 10  1  0  0  0  0
  9 34  1  0  0  0  0
  9 35  1  0  0  0  0
 10 11  1  0  0  0  0
 10 36  1  0  0  0  0
 11 12  2  0  0  0  0
 11 13  1  0  0  0  0
 13 14  1  0  0  0  0
 14 18  1  0  0  0  0
 14 15  2  0  0  0  0
 15 16  1  0  0  0  0
 16 17  2  0  0  0  0
 17 18  1  0  0  0  0
 17 37  1  0  0  0  0
 19 20  1  0  0  0  0
 19 38  1  0  0  0  0
 19 39  1  0  0  0  0
 20 40  1  0  0  0  0
 20 41  1  0  0  0  0
M  CHG  1   5   1
M  CHG  1  13  -1
M  END
> <s_m_source_file>
AV-unprocessed.smi

> <i_m_source_file_index>
1572

> <i_lp_mmshare_version>
43012

> <i_f3d_flags>
0

> <s_epik_input>
W0NIM11OMVtDSDJdW0NIMl1OKFtDSDJdW0NIMl0xKUMoW0NIM10pKFtDSDNdKVtDSDJdW05IXUMoPU8pW05IXWMybm5bY0hdczI=

> <s_epik_cmdline>
J2VwaWtfcHl0aG9uJywgJy1waCcsICc3LjAnLCAnLXRuJywgJzgnLCAnLW1hJywgJzIwMCcsICctbWV0YWxfYmluZGluZycsICctaW1hZScsICc8aW5maWxlLm1hZT4nLCAnLW9tYWUnLCAnPG91dGZpbGUubWFlPic=

> <r_epik_Ionization_Penalty>
3.12043

> <r_epik_Ionization_Penalty_Charging>
3.08547

> <r_epik_Ionization_Penalty_Neutral>
0.0349584

> <r_epik_State_Penalty>
4.04075

> <r_epik_Charging_Adjusted_Penalty>
7.12622

> <i_epik_Tot_Q>
0

> <i_epik_Tot_abs_Q>
2

> <r_epik_Metal_State_Penalty>
1.47091

> <b_epik_Metal_Only>
1

> <s_lp_Force_Field>
OPLS_2005

> <r_lp_Energy>
19.1563

> <b_lp_Chiralities_Consistent>
1

> <s_lp_Variant>
AV-unprocessed.smi:1572-5

> <Gold.Version>
5.8.1

> <Gold.Id.Protein>
6NUR|6NUR_protein|mol2

> <Gold.PLP.Fitness>
40.1099

> <Gold.PLP.PLP>
-27.3042

> <Gold.PLP.part.hbond>
-4.5186

> <Gold.PLP.part.metal>
0.0000

> <Gold.PLP.part.buried>
-3.7262

> <Gold.PLP.part.nonpolar>
-19.2481

> <Gold.PLP.part.repulsive>
0.1931

> <Gold.PLP.ligand.clash>
0.0000

> <Gold.PLP.ligand.torsion>
1.1723

> <Gold.PLP.Chemscore.Hbond>
5.0000

> <Gold.PLP.Chemscore.CHOScore>
0.0000

> <Gold.PLP.Chemscore.Metal>
0.0000

> <Gold.Chemscore.Hbonds>
donor molecule, donor type, donor heavy atom, donor atom, acceptor molecule, acceptor atom, score
      L1  H     5    42       P1  7948  2.00
      P1  H  6896  6907       L1    12  1.00
      P1  H  6934  6947       L1    15  0.96
      P1  H  7989  7998       L1     2  0.95

> <Gold.PLP.Chemscore.Internal.Correction>
0.1502

> <Gold.Rescore>
     Score         DG    S(hbond)    S(metal)    S(lipo)     H(rot)  DE(clash)    DE(int)     intcor
     15.90     -17.61       2.80        0.00      60.21       1.67       0.43       1.28       ----

> <Gold.Chemscore.Fitness>
15.8999

> <Gold.Chemscore.DG>
-17.6101

> <Gold.Chemscore.ZeroCoef>
-5.4800

> <Gold.Chemscore.Hbond>
2.8023

> <Gold.Chemscore.Metal>
0.0000

> <Gold.Chemscore.Lipo>
60.2078

> <Gold.Chemscore.Internal_Hbond>
0.0000

> <Gold.Chemscore.DEClash>
0.4289

> <Gold.Chemscore.DEInternal>
1.2813

> <Gold.Chemscore.Rot>
1.6694

> <Gold.Chemscore.Internal.Correction>
   9.000000E+99

> <Gold.Chemscore.Hbonds>
donor molecule, donor type, donor heavy atom, donor atom, acceptor molecule, acceptor atom, score
      L1  H     5    42       P1  7948  0.68
      P1  H  6896  6907       L1    12  0.87
      P1  H  6934  6947       L1    15  0.23
      P1  H  7989  7998       L1     2  0.12

> <Gold.Chemscore.Hbond.Weighted>
-9.3595

> <Gold.Chemscore.Metal.Weighted>
-0.0000

> <Gold.Chemscore.Lipo.Weighted>
-7.0443

> <Gold.Chemscore.Internal_Hbond.Weighted>
0.0000

> <Gold.Chemscore.DEClash.Weighted>
0.4289

> <Gold.Chemscore.DEInternal.Weighted>
1.2813

> <Gold.Chemscore.Rot.Weighted>
4.2738

> <Gold.Chemscore.Internal.Correction.Weighted>
   9.000000E+99

> <Gold.Protein.RotatedTorsions>
[ 6907 6896 6895 6894 ] final  -47.36 input  -60.11 | X-H torsion
[ 7974 7965 7964 7962 ] final  -32.02 input  175.53 | X-H torsion
[ 8008 7997 7996 7995 ] final  178.61 input   59.86 | X-H torsion
[ 10167 10162 10161 10158 ] final   41.34 input  -65.29 | X-H torsion
[ 10718 10713 10712 10709 ] final  112.06 input   66.30 | X-H torsion
[ 10763 10752 10751 10750 ] final -178.95 input  -60.55 | X-H torsion
[ 11005 11000 10999 10996 ] final  -59.41 input  -57.11 | X-H torsion

> <Gold.Protein.ActiveResidues>
 VAL166  LYS551  ARG553  GLY616  TRP617  ASP618  TYR619  PRO620  LYS621  CYS622 
 ASP623  PHE694  ASN695  SER759  ASP760  ASP761  ALA762  ILE779  LEU786  VAL792 
 PHE793  MET794  SER795  GLU796  ALA797  LYS798  CYS799  TRP800  GLU811  SER814 

> <Gold.Protein.RotatedAtoms>
  150.9016  134.8428  159.7363 H   0  0  0  0  0  0  0  0  0  0  0  0  # atno 6907 bound_to 6896
  152.4895  134.4494  159.9579 H   0  0  0  0  0  0  0  0  0  0  0  0  # atno 6908 bound_to 6896
  151.4546  133.3569  159.2835 H   0  0  0  0  0  0  0  0  0  0  0  0  # atno 6909 bound_to 6896
  146.1022  140.5741  142.8816 H   0  0  0  0  0  0  0  0  0  0  0  0  # atno 7974 bound_to 7965
  156.0527  140.1329  157.0032 H   0  0  0  0  0  0  0  0  0  0  0  0  # atno 8008 bound_to 7997
  154.4442  140.1007  156.6470 H   0  0  0  0  0  0  0  0  0  0  0  0  # atno 8009 bound_to 7997
  155.5499  140.3462  155.4468 H   0  0  0  0  0  0  0  0  0  0  0  0  # atno 8010 bound_to 7997
  140.3652  144.2176  150.6136 H   0  0  0  0  0  0  0  0  0  0  0  0  # atno 10167 bound_to 10162
  157.6412  131.0961  150.6839 H   0  0  0  0  0  0  0  0  0  0  0  0  # atno 10718 bound_to 10713
  154.5413  135.2806  155.1093 H   0  0  0  0  0  0  0  0  0  0  0  0  # atno 10763 bound_to 10752
  154.2574  135.6328  153.5266 H   0  0  0  0  0  0  0  0  0  0  0  0  # atno 10764 bound_to 10752
  152.9979  135.5597  154.5953 H   0  0  0  0  0  0  0  0  0  0  0  0  # atno 10765 bound_to 10752
  141.1247  133.6616  156.5067 H   0  0  0  0  0  0  0  0  0  0  0  0  # atno 11005 bound_to 11000
  144.7442  140.5023  143.6848 LP  0  0  0  0  0  0  0  0  0  0  0  0  # atno 17320 bound_to 7965
  145.5831  139.1490  143.3224 LP  0  0  0  0  0  0  0  0  0  0  0  0  # atno 17321 bound_to 7965
  140.5087  143.2296  151.8568 LP  0  0  0  0  0  0  0  0  0  0  0  0  # atno 17342 bound_to 10162
  139.4809  144.4975  151.9105 LP  0  0  0  0  0  0  0  0  0  0  0  0  # atno 17343 bound_to 10162
  156.7163  130.4667  149.5534 LP  0  0  0  0  0  0  0  0  0  0  0  0  # atno 17370 bound_to 10713
  156.1696  130.6428  151.0820 LP  0  0  0  0  0  0  0  0  0  0  0  0  # atno 17371 bound_to 10713
  140.4402  134.7022  157.4988 LP  0  0  0  0  0  0  0  0  0  0  0  0  # atno 17394 bound_to 11000
  140.0234  134.6513  155.9207 LP  0  0  0  0  0  0  0  0  0  0  0  0  # atno 17395 bound_to 11000

$$$$
