AV-unprocessed.smi:1724|AV-procd|sdf|6952|dock1
  -GOLD-   22720 8163D 1   1.00000     0.00000
 Structure written by MMmdl.
 37 38  0  0  0  0  0  0  0  0  2 V2000
  150.5305  139.8932  154.6084 O   0  0  0  0  0  0  0  0  0  0  0  0
  149.6655  139.6792  155.4571 C   0  0  0  0  0  0  0  0  0  0  0  0
  148.4782  139.1254  155.1711 N   0  0  0  0  0  0  0  0  0  0  0  0
  148.0358  138.6943  153.8480 C   0  0  0  0  0  0  0  0  0  0  0  0
  146.5463  138.2939  153.8275 C   0  0  1  0  0  0  0  0  0  0  0  0
  146.1156  137.6310  152.5051 C   0  0  0  0  0  0  0  0  0  0  0  0
  144.6550  137.1743  152.5907 C   0  0  0  0  0  0  0  0  0  0  0  0
  144.4387  136.2970  153.8325 C   0  0  0  0  0  0  0  0  0  0  0  0
  144.8337  137.0106  154.9983 O   0  0  0  0  0  0  0  0  0  0  0  0
  146.2167  137.3497  155.0015 C   0  0  0  0  0  0  0  0  0  0  0  0
  149.7566  139.9499  156.7721 N   0  0  0  0  0  0  0  0  0  0  0  0
  150.8061  140.5283  157.5086 C   0  0  0  0  0  0  0  0  0  0  0  0
  150.7595  141.7431  158.1237 C   0  0  0  0  0  0  0  0  0  0  0  0
  151.8883  142.2796  158.8747 C   0  0  0  0  0  0  0  0  0  0  0  0
  151.8886  143.6252  159.5767 C   0  0  0  0  0  0  0  0  0  0  0  0
  152.7681  144.4447  159.0018 F   0  0  0  0  0  0  0  0  0  0  0  0
  150.6840  144.1884  159.4918 F   0  0  0  0  0  0  0  0  0  0  0  0
  152.2064  143.5039  160.8657 F   0  0  0  0  0  0  0  0  0  0  0  0
  152.9692  141.4214  158.8853 C   0  0  0  0  0  0  0  0  0  0  0  0
  153.0963  140.2065  158.3089 N   0  5  0  0  0  0  0  0  0  0  0  0
  152.0367  139.7147  157.6069 C   0  0  0  0  0  0  0  0  0  0  0  0
  152.0854  138.6132  157.0579 O   0  0  0  0  0  0  0  0  0  0  0  0
  147.8294  138.9852  155.9319 H   0  0  0  0  0  0  0  0  0  0  0  0
  148.2338  139.4607  153.0967 H   0  0  0  0  0  0  0  0  0  0  0  0
  148.6468  137.8355  153.5688 H   0  0  0  0  0  0  0  0  0  0  0  0
  145.9533  139.2006  153.9585 H   0  0  0  0  0  0  0  0  0  0  0  0
  146.2318  138.3199  151.6681 H   0  0  0  0  0  0  0  0  0  0  0  0
  146.7563  136.7733  152.2955 H   0  0  0  0  0  0  0  0  0  0  0  0
  144.0010  138.0457  152.6426 H   0  0  0  0  0  0  0  0  0  0  0  0
  144.3774  136.6276  151.6893 H   0  0  0  0  0  0  0  0  0  0  0  0
  143.3864  136.0280  153.9238 H   0  0  0  0  0  0  0  0  0  0  0  0
  145.0004  135.3648  153.7543 H   0  0  0  0  0  0  0  0  0  0  0  0
  146.8222  136.4430  154.9564 H   0  0  0  0  0  0  0  0  0  0  0  0
  146.4469  137.8359  155.9499 H   0  0  0  0  0  0  0  0  0  0  0  0
  148.9598  139.6890  157.3344 H   0  0  0  0  0  0  0  0  0  0  0  0
  149.8742  142.3538  158.0819 H   0  0  0  0  0  0  0  0  0  0  0  0
  153.8671  141.7656  159.4421 H   0  0  0  0  0  0  0  0  0  0  0  0
  1  2  2  0  0  0  0
  2  3  1  0  0  0  0
  2 11  1  0  0  0  0
  3  4  1  0  0  0  0
  3 23  1  0  0  0  0
  4  5  1  0  0  0  0
  4 24  1  0  0  0  0
  4 25  1  0  0  0  0
  5 10  1  0  0  0  0
  5  6  1  0  0  0  0
  5 26  1  0  0  0  0
  6  7  1  0  0  0  0
  6 27  1  0  0  0  0
  6 28  1  0  0  0  0
  7  8  1  0  0  0  0
  7 29  1  0  0  0  0
  7 30  1  0  0  0  0
  8  9  1  0  0  0  0
  8 31  1  0  0  0  0
  8 32  1  0  0  0  0
  9 10  1  0  0  0  0
 10 33  1  0  0  0  0
 10 34  1  0  0  0  0
 11 12  1  0  0  0  0
 11 35  1  0  0  0  0
 12 21  1  0  0  0  0
 12 13  2  0  0  0  0
 13 14  1  0  0  0  0
 13 36  1  0  0  0  0
 14 15  1  0  0  0  0
 14 19  2  0  0  0  0
 15 16  1  0  0  0  0
 15 17  1  0  0  0  0
 15 18  1  0  0  0  0
 19 20  1  0  0  0  0
 19 37  1  0  0  0  0
 20 21  1  0  0  0  0
 21 22  2  0  0  0  0
M  CHG  1  20  -1
M  END
> <s_m_source_file>
AV-unprocessed.smi

> <i_m_source_file_index>
1724

> <i_lp_mmshare_version>
43012

> <i_f3d_flags>
0

> <s_epik_input>
Tz1jMVtuSF1bY0hdYyhDKEYpKEYpRilbY0hdYzFbTkhdQyg9TylbTkhdW0NIMl1bQ0BASF0yW0NIMl1bQ0gyXVtDSDJdT1tDSDJdMg==

> <s_epik_cmdline>
J2VwaWtfcHl0aG9uJywgJy1waCcsICc3LjAnLCAnLXRuJywgJzgnLCAnLW1hJywgJzIwMCcsICctbWV0YWxfYmluZGluZycsICctaW1hZScsICc8aW5maWxlLm1hZT4nLCAnLW9tYWUnLCAnPG91dGZpbGUubWFlPic=

> <r_lp_tautomer_probability>
1

> <r_epik_Ionization_Penalty>
3.16025

> <r_epik_Ionization_Penalty_Charging>
0.171172

> <r_epik_Ionization_Penalty_Neutral>
2.98908

> <r_epik_State_Penalty>
2.98521

> <r_epik_Charging_Adjusted_Penalty>
3.15638

> <i_epik_Tot_Q>
-1

> <i_epik_Tot_abs_Q>
1

> <r_epik_Metal_State_Penalty>
0.452642

> <b_epik_Metal_Only>
1

> <s_lp_Force_Field>
OPLS_2005

> <r_lp_Energy>
24.0618

> <b_lp_Chiralities_Consistent>
1

> <s_lp_Variant>
AV-unprocessed.smi:1724-4

> <Gold.Version>
5.8.1

> <Gold.Id.Protein>
6NUR|6NUR_protein|mol2

> <Gold.PLP.Fitness>
38.5569

> <Gold.PLP.PLP>
-31.2725

> <Gold.PLP.part.hbond>
-2.0000

> <Gold.PLP.part.metal>
0.0000

> <Gold.PLP.part.buried>
-3.9395

> <Gold.PLP.part.nonpolar>
-25.0741

> <Gold.PLP.part.repulsive>
0.1338

> <Gold.PLP.ligand.clash>
0.0000

> <Gold.PLP.ligand.torsion>
0.8093

> <Gold.PLP.Chemscore.Hbond>
2.9520

> <Gold.PLP.Chemscore.CHOScore>
0.0000

> <Gold.PLP.Chemscore.Metal>
0.0000

> <Gold.Chemscore.Hbonds>
donor molecule, donor type, donor heavy atom, donor atom, acceptor molecule, acceptor atom, score
      P1  H  7989  7998       L1     1  1.00
      P1  H  7997  8009       L1    20  1.92

> <Gold.PLP.Chemscore.Internal.Correction>
0.0469

> <Gold.Rescore>
     Score         DG    S(hbond)    S(metal)    S(lipo)     H(rot)  DE(clash)    DE(int)     intcor
     13.20     -14.71       1.62        0.00      61.56       1.32       0.07       1.44       ----

> <Gold.Chemscore.Fitness>
13.2003

> <Gold.Chemscore.DG>
-14.7059

> <Gold.Chemscore.ZeroCoef>
-5.4800

> <Gold.Chemscore.Hbond>
1.6212

> <Gold.Chemscore.Metal>
0.0000

> <Gold.Chemscore.Lipo>
61.5619

> <Gold.Chemscore.Internal_Hbond>
0.0000

> <Gold.Chemscore.DEClash>
0.0678

> <Gold.Chemscore.DEInternal>
1.4378

> <Gold.Chemscore.Rot>
1.3248

> <Gold.Chemscore.Internal.Correction>
   9.000000E+99

> <Gold.Chemscore.Hbonds>
donor molecule, donor type, donor heavy atom, donor atom, acceptor molecule, acceptor atom, score
      P1  H  7989  7998       L1     1  1.00
      P1  H  7997  8009       L1    20  0.36

> <Gold.Chemscore.Hbond.Weighted>
-5.4147

> <Gold.Chemscore.Metal.Weighted>
-0.0000

> <Gold.Chemscore.Lipo.Weighted>
-7.2027

> <Gold.Chemscore.Internal_Hbond.Weighted>
0.0000

> <Gold.Chemscore.DEClash.Weighted>
0.0678

> <Gold.Chemscore.DEInternal.Weighted>
1.4378

> <Gold.Chemscore.Rot.Weighted>
3.3915

> <Gold.Chemscore.Internal.Correction.Weighted>
   9.000000E+99

> <Gold.Protein.RotatedTorsions>
[ 6907 6896 6895 6894 ] final  -33.38 input  -60.11 | X-H torsion
[ 7974 7965 7964 7962 ] final   59.63 input  175.53 | X-H torsion
[ 8008 7997 7996 7995 ] final  153.10 input   59.86 | X-H torsion
[ 10167 10162 10161 10158 ] final  -58.62 input  -65.29 | X-H torsion
[ 10718 10713 10712 10709 ] final   70.89 input   66.30 | X-H torsion
[ 10763 10752 10751 10750 ] final   82.39 input  -60.55 | X-H torsion
[ 11005 11000 10999 10996 ] final  172.58 input  -57.11 | X-H torsion

> <Gold.Protein.ActiveResidues>
 VAL166  LYS551  ARG553  GLY616  TRP617  ASP618  TYR619  PRO620  LYS621  CYS622 
 ASP623  PHE694  ASN695  SER759  ASP760  ASP761  ALA762  ILE779  LEU786  VAL792 
 PHE793  MET794  SER795  GLU796  ALA797  LYS798  CYS799  TRP800  GLU811  SER814 

> <Gold.Protein.RotatedAtoms>
  151.0664  134.9770  159.8286 H   0  0  0  0  0  0  0  0  0  0  0  0  # atno 6907 bound_to 6896
  152.5402  134.2354  159.8851 H   0  0  0  0  0  0  0  0  0  0  0  0  # atno 6908 bound_to 6896
  151.2376  133.4373  159.2640 H   0  0  0  0  0  0  0  0  0  0  0  0  # atno 6909 bound_to 6896
  145.9050  139.3610  143.0569 H   0  0  0  0  0  0  0  0  0  0  0  0  # atno 7974 bound_to 7965
  156.2597  140.2003  156.6438 H   0  0  0  0  0  0  0  0  0  0  0  0  # atno 8008 bound_to 7997
  154.6589  140.0563  157.0065 H   0  0  0  0  0  0  0  0  0  0  0  0  # atno 8009 bound_to 7997
  155.1306  140.3233  155.4478 H   0  0  0  0  0  0  0  0  0  0  0  0  # atno 8010 bound_to 7997
  140.6186  143.2411  151.5536 H   0  0  0  0  0  0  0  0  0  0  0  0  # atno 10167 bound_to 10162
  157.6423  130.9500  150.0713 H   0  0  0  0  0  0  0  0  0  0  0  0  # atno 10718 bound_to 10713
  153.1198  135.4730  154.9177 H   0  0  0  0  0  0  0  0  0  0  0  0  # atno 10763 bound_to 10752
  154.7565  135.3120  154.8463 H   0  0  0  0  0  0  0  0  0  0  0  0  # atno 10764 bound_to 10752
  153.9030  135.6873  153.4808 H   0  0  0  0  0  0  0  0  0  0  0  0  # atno 10765 bound_to 10752
  140.3313  134.7355  157.4136 H   0  0  0  0  0  0  0  0  0  0  0  0  # atno 11005 bound_to 11000
  145.8743  140.9401  143.0634 LP  0  0  0  0  0  0  0  0  0  0  0  0  # atno 17320 bound_to 7965
  144.6738  140.0696  143.7473 LP  0  0  0  0  0  0  0  0  0  0  0  0  # atno 17321 bound_to 7965
  139.5419  144.2624  152.1368 LP  0  0  0  0  0  0  0  0  0  0  0  0  # atno 17342 bound_to 10162
  140.1839  144.4818  150.6514 LP  0  0  0  0  0  0  0  0  0  0  0  0  # atno 17343 bound_to 10162
  156.1716  130.3646  149.9157 LP  0  0  0  0  0  0  0  0  0  0  0  0  # atno 17370 bound_to 10713
  156.7131  130.8978  151.3611 LP  0  0  0  0  0  0  0  0  0  0  0  0  # atno 17371 bound_to 10713
  140.0858  134.5668  155.8493 LP  0  0  0  0  0  0  0  0  0  0  0  0  # atno 17394 bound_to 11000
  141.2062  133.6654  156.6231 LP  0  0  0  0  0  0  0  0  0  0  0  0  # atno 17395 bound_to 11000

$$$$
