AV-unprocessed.smi:884|AV-procd|sdf|4042|dock1
  -GOLD-   22720 1533D 1   1.00000     0.00000
 Structure written by MMmdl.
 47 49  0  0  0  0  0  0  0  0  1 V2000
  147.6458  138.4546  155.8361 O   0  0  0  0  0  0  0  0  0  0  0  0
  148.3848  138.1319  154.9049 C   0  0  0  0  0  0  0  0  0  0  0  0
  148.1927  137.0066  154.1942 N   0  0  0  0  0  0  0  0  0  0  0  0
  147.1652  135.9995  154.4486 C   0  0  0  0  0  0  0  0  0  0  0  0
  145.9774  136.1175  153.4746 C   0  0  0  0  0  0  0  0  0  0  0  0
  145.8972  134.9921  152.4554 C   0  0  0  0  0  0  0  0  0  0  0  0
  144.8962  134.9955  151.4610 C   0  0  0  0  0  0  0  0  0  0  0  0
  144.8517  133.9224  150.5500 C   0  0  0  0  0  0  0  0  0  0  0  0
  145.8067  132.8941  150.6655 C   0  0  0  0  0  0  0  0  0  0  0  0
  146.7653  132.9824  151.6943 C   0  0  0  0  0  0  0  0  0  0  0  0
  146.8120  134.0029  152.5777 N   0  0  0  0  0  0  0  0  0  0  0  0
  149.4610  138.8685  154.5255 N   0  0  0  0  0  0  0  0  0  0  0  0
  150.6561  138.3650  153.8313 C   0  0  0  0  0  0  0  0  0  0  0  0
  151.7899  138.1991  154.8515 C   0  0  0  0  0  0  0  0  0  0  0  0
  152.2396  139.8005  155.5891 S   0  0  0  0  0  0  0  0  0  0  0  0
  150.6017  140.4540  156.0933 C   0  0  0  0  0  0  0  0  0  0  0  0
  150.0904  139.7262  157.3655 C   0  0  0  0  0  0  0  0  0  0  0  0
  150.9245  140.0265  158.6229 C   0  0  0  0  0  0  0  0  0  0  0  0
  151.0116  141.5354  158.8851 C   0  0  0  0  0  0  0  0  0  0  0  0
  151.5639  142.2724  157.6579 C   0  0  0  0  0  0  0  0  0  0  0  0
  150.7293  141.9674  156.4002 C   0  0  0  0  0  0  0  0  0  0  0  0
  149.6128  140.2807  154.9077 C   0  0  0  0  0  0  0  0  0  0  0  0
  148.8410  136.8114  153.4454 H   0  0  0  0  0  0  0  0  0  0  0  0
  147.5810  134.9923  154.3905 H   0  0  0  0  0  0  0  0  0  0  0  0
  146.8119  136.1199  155.4727 H   0  0  0  0  0  0  0  0  0  0  0  0
  145.0444  136.1492  154.0382 H   0  0  0  0  0  0  0  0  0  0  0  0
  146.0382  137.0695  152.9446 H   0  0  0  0  0  0  0  0  0  0  0  0
  144.1750  135.7976  151.4012 H   0  0  0  0  0  0  0  0  0  0  0  0
  144.0983  133.8889  149.7767 H   0  0  0  0  0  0  0  0  0  0  0  0
  145.8023  132.0552  149.9854 H   0  0  0  0  0  0  0  0  0  0  0  0
  147.5075  132.2077  151.8178 H   0  0  0  0  0  0  0  0  0  0  0  0
  150.4881  137.4241  153.3072 H   0  0  0  0  0  0  0  0  0  0  0  0
  150.9566  139.0673  153.0526 H   0  0  0  0  0  0  0  0  0  0  0  0
  151.4988  137.5059  155.6403 H   0  0  0  0  0  0  0  0  0  0  0  0
  152.6732  137.7790  154.3705 H   0  0  0  0  0  0  0  0  0  0  0  0
  149.0576  140.0208  157.5572 H   0  0  0  0  0  0  0  0  0  0  0  0
  150.0666  138.6499  157.2085 H   0  0  0  0  0  0  0  0  0  0  0  0
  150.4814  139.5282  159.4852 H   0  0  0  0  0  0  0  0  0  0  0  0
  151.9271  139.6120  158.5139 H   0  0  0  0  0  0  0  0  0  0  0  0
  150.0217  141.9222  159.1296 H   0  0  0  0  0  0  0  0  0  0  0  0
  151.6435  141.7279  159.7525 H   0  0  0  0  0  0  0  0  0  0  0  0
  151.5677  143.3465  157.8452 H   0  0  0  0  0  0  0  0  0  0  0  0
  152.6043  141.9889  157.4960 H   0  0  0  0  0  0  0  0  0  0  0  0
  151.1603  142.4876  155.5437 H   0  0  0  0  0  0  0  0  0  0  0  0
  149.7341  142.3929  156.5386 H   0  0  0  0  0  0  0  0  0  0  0  0
  149.9660  140.8476  154.0449 H   0  0  0  0  0  0  0  0  0  0  0  0
  148.6500  140.7304  155.1559 H   0  0  0  0  0  0  0  0  0  0  0  0
  1  2  2  0  0  0  0
  2  3  1  0  0  0  0
  2 12  1  0  0  0  0
  3  4  1  0  0  0  0
  3 23  1  0  0  0  0
  4  5  1  0  0  0  0
  4 24  1  0  0  0  0
  4 25  1  0  0  0  0
  5  6  1  0  0  0  0
  5 26  1  0  0  0  0
  5 27  1  0  0  0  0
  6 11  1  0  0  0  0
  6  7  2  0  0  0  0
  7  8  1  0  0  0  0
  7 28  1  0  0  0  0
  8  9  2  0  0  0  0
  8 29  1  0  0  0  0
  9 10  1  0  0  0  0
  9 30  1  0  0  0  0
 10 11  2  0  0  0  0
 10 31  1  0  0  0  0
 12 22  1  0  0  0  0
 12 13  1  0  0  0  0
 13 14  1  0  0  0  0
 13 32  1  0  0  0  0
 13 33  1  0  0  0  0
 14 15  1  0  0  0  0
 14 34  1  0  0  0  0
 14 35  1  0  0  0  0
 15 16  1  0  0  0  0
 16 21  1  0  0  0  0
 16 17  1  0  0  0  0
 16 22  1  0  0  0  0
 17 18  1  0  0  0  0
 17 36  1  0  0  0  0
 17 37  1  0  0  0  0
 18 19  1  0  0  0  0
 18 38  1  0  0  0  0
 18 39  1  0  0  0  0
 19 20  1  0  0  0  0
 19 40  1  0  0  0  0
 19 41  1  0  0  0  0
 20 21  1  0  0  0  0
 20 42  1  0  0  0  0
 20 43  1  0  0  0  0
 21 44  1  0  0  0  0
 21 45  1  0  0  0  0
 22 46  1  0  0  0  0
 22 47  1  0  0  0  0
M  END
> <s_m_source_file>
AV-unprocessed.smi

> <i_m_source_file_index>
884

> <i_lp_mmshare_version>
43012

> <i_f3d_flags>
0

> <s_epik_input>
bjFbY0hdW2NIXVtjSF1bY0hdYzFbQ0gyXVtDSDJdW05IXUMoPU8pTihbQ0gyXTIpW0NIMl1bQ0gyXVNDMjNbQ0gyXVtDSDJdW0NIMl1bQ0gyXVtDSDJdMw==

> <s_epik_cmdline>
J2VwaWtfcHl0aG9uJywgJy1waCcsICc3LjAnLCAnLXRuJywgJzgnLCAnLW1hJywgJzIwMCcsICctbWV0YWxfYmluZGluZycsICctaW1hZScsICc8aW5maWxlLm1hZT4nLCAnLW9tYWUnLCAnPG91dGZpbGUubWFlPic=

> <r_epik_Ionization_Penalty>
0.0449137

> <r_epik_Ionization_Penalty_Charging>
0

> <r_epik_Ionization_Penalty_Neutral>
0.0449137

> <r_epik_State_Penalty>
0.0380475

> <r_epik_Charging_Adjusted_Penalty>
0.0380475

> <i_epik_Tot_Q>
0

> <i_epik_Tot_abs_Q>
0

> <r_epik_Metal_State_Penalty>
0.0353559

> <b_epik_Metal_Only>
0

> <s_lp_Force_Field>
OPLS_2005

> <r_lp_Energy>
30.1612

> <b_lp_Chiralities_Consistent>
1

> <s_lp_Variant>
AV-unprocessed.smi:884-1

> <Gold.Version>
5.8.1

> <Gold.Id.Protein>
6NUR|6NUR_protein|mol2

> <Gold.PLP.Fitness>
40.1634

> <Gold.PLP.PLP>
-35.7632

> <Gold.PLP.part.hbond>
-1.0000

> <Gold.PLP.part.metal>
0.0000

> <Gold.PLP.part.buried>
-2.9950

> <Gold.PLP.part.nonpolar>
-31.5838

> <Gold.PLP.part.repulsive>
0.3368

> <Gold.PLP.ligand.clash>
0.0000

> <Gold.PLP.ligand.torsion>
0.6811

> <Gold.PLP.Chemscore.Hbond>
0.9120

> <Gold.PLP.Chemscore.CHOScore>
1.0000

> <Gold.PLP.Chemscore.Metal>
0.0000

> <Gold.Chemscore.Hbonds>
donor molecule, donor type, donor heavy atom, donor atom, acceptor molecule, acceptor atom, score
      L1  H     3    23       P1  7948  0.90
      L1  C    10    31       P1 10747  1.00

> <Gold.PLP.Chemscore.Internal.Correction>
0.0264

> <Gold.Rescore>
     Score         DG    S(hbond)    S(metal)    S(lipo)     H(rot)  DE(clash)    DE(int)     intcor
     16.30     -17.01       0.93        0.00      98.99       1.23       0.09       0.63       ----

> <Gold.Chemscore.Fitness>
16.2972

> <Gold.Chemscore.DG>
-17.0118

> <Gold.Chemscore.ZeroCoef>
-5.4800

> <Gold.Chemscore.Hbond>
0.9260

> <Gold.Chemscore.Metal>
0.0000

> <Gold.Chemscore.Lipo>
98.9882

> <Gold.Chemscore.Internal_Hbond>
0.0000

> <Gold.Chemscore.DEClash>
0.0895

> <Gold.Chemscore.DEInternal>
0.6252

> <Gold.Chemscore.Rot>
1.2276

> <Gold.Chemscore.Internal.Correction>
   9.000000E+99

> <Gold.Chemscore.Hbonds>
donor molecule, donor type, donor heavy atom, donor atom, acceptor molecule, acceptor atom, score
      L1  H     3    23       P1  7948  0.88

> <Gold.Chemscore.Hbond.Weighted>
-3.0930

> <Gold.Chemscore.Metal.Weighted>
-0.0000

> <Gold.Chemscore.Lipo.Weighted>
-11.5816

> <Gold.Chemscore.Internal_Hbond.Weighted>
0.0000

> <Gold.Chemscore.DEClash.Weighted>
0.0895

> <Gold.Chemscore.DEInternal.Weighted>
0.6252

> <Gold.Chemscore.Rot.Weighted>
3.1427

> <Gold.Chemscore.Internal.Correction.Weighted>
   9.000000E+99

> <Gold.Protein.RotatedTorsions>
[ 6907 6896 6895 6894 ] final  -40.77 input  -60.11 | X-H torsion
[ 7974 7965 7964 7962 ] final -112.76 input  175.53 | X-H torsion
[ 8008 7997 7996 7995 ] final   69.82 input   59.86 | X-H torsion
[ 10167 10162 10161 10158 ] final  -51.55 input  -65.29 | X-H torsion
[ 10718 10713 10712 10709 ] final  -82.45 input   66.30 | X-H torsion
[ 10763 10752 10751 10750 ] final -154.91 input  -60.55 | X-H torsion
[ 11005 11000 10999 10996 ] final   64.73 input  -57.11 | X-H torsion

> <Gold.Protein.ActiveResidues>
 VAL166  LYS551  ARG553  GLY616  TRP617  ASP618  TYR619  PRO620  LYS621  CYS622 
 ASP623  PHE694  ASN695  SER759  ASP760  ASP761  ALA762  ILE779  LEU786  VAL792 
 PHE793  MET794  SER795  GLU796  ALA797  LYS798  CYS799  TRP800  GLU811  SER814 

> <Gold.Protein.RotatedAtoms>
  150.9746  134.9112  159.7807 H   0  0  0  0  0  0  0  0  0  0  0  0  # atno 6907 bound_to 6896
  152.5201  134.3494  159.9256 H   0  0  0  0  0  0  0  0  0  0  0  0  # atno 6908 bound_to 6896
  151.3503  133.3887  159.2714 H   0  0  0  0  0  0  0  0  0  0  0  0  # atno 6909 bound_to 6896
  145.1401  140.8773  143.3707 H   0  0  0  0  0  0  0  0  0  0  0  0  # atno 7974 bound_to 7965
  155.7295  140.3492  155.5053 H   0  0  0  0  0  0  0  0  0  0  0  0  # atno 8008 bound_to 7997
  155.9196  140.1065  157.1239 H   0  0  0  0  0  0  0  0  0  0  0  0  # atno 8009 bound_to 7997
  154.4067  140.1252  156.4648 H   0  0  0  0  0  0  0  0  0  0  0  0  # atno 8010 bound_to 7997
  140.6583  143.2616  151.4519 H   0  0  0  0  0  0  0  0  0  0  0  0  # atno 10167 bound_to 10162
  156.0033  130.4635  150.4107 H   0  0  0  0  0  0  0  0  0  0  0  0  # atno 10718 bound_to 10713
  154.7825  135.3179  154.7958 H   0  0  0  0  0  0  0  0  0  0  0  0  # atno 10763 bound_to 10752
  153.8666  135.6848  153.4782 H   0  0  0  0  0  0  0  0  0  0  0  0  # atno 10764 bound_to 10752
  153.1466  135.4717  154.9513 H   0  0  0  0  0  0  0  0  0  0  0  0  # atno 10765 bound_to 10752
  139.9940  134.6547  156.0042 H   0  0  0  0  0  0  0  0  0  0  0  0  # atno 11005 bound_to 11000
  145.0541  139.3157  143.5913 LP  0  0  0  0  0  0  0  0  0  0  0  0  # atno 17320 bound_to 7965
  146.3506  139.9960  142.8681 LP  0  0  0  0  0  0  0  0  0  0  0  0  # atno 17321 bound_to 7965
  139.5810  144.1710  152.1968 LP  0  0  0  0  0  0  0  0  0  0  0  0  # atno 17342 bound_to 10162
  140.1035  144.5519  150.6973 LP  0  0  0  0  0  0  0  0  0  0  0  0  # atno 17343 bound_to 10162
  157.2170  131.0473  151.2568 LP  0  0  0  0  0  0  0  0  0  0  0  0  # atno 17370 bound_to 10713
  157.3836  130.7244  149.6647 LP  0  0  0  0  0  0  0  0  0  0  0  0  # atno 17371 bound_to 10713
  141.1589  133.6540  156.4253 LP  0  0  0  0  0  0  0  0  0  0  0  0  # atno 17394 bound_to 11000
  140.4854  134.6625  157.5188 LP  0  0  0  0  0  0  0  0  0  0  0  0  # atno 17395 bound_to 11000

$$$$
