AV-unprocessed.smi:1361|AV-procd|sdf|5557|dock8
  -GOLD-   22720 5153D 1   1.00000     0.00000
 Structure written by MMmdl.
 45 46  0  0  0  0  0  0  0  0  2 V2000
  146.4671  138.5183  152.0097 C   0  0  0  0  0  0  0  0  0  0  0  0
  146.8019  139.3444  153.2331 C   0  0  0  0  0  0  0  0  0  0  0  0
  146.1031  139.2024  154.2941 N   0  0  0  0  0  0  0  0  0  0  0  0
  146.4129  139.9639  155.4335 C   0  0  0  0  0  0  0  0  0  0  0  0
  145.5330  139.7237  156.6483 C   0  0  0  0  0  0  0  0  0  0  0  0
  147.4447  140.8562  155.4272 C   0  0  0  0  0  0  0  0  0  0  0  0
  147.8269  141.7016  156.6412 C   0  0  0  0  0  0  0  0  0  0  0  0
  149.2716  141.5463  157.1185 C   0  0  0  0  0  0  0  0  0  0  0  0
  149.7181  140.4300  157.3814 O   0  0  0  0  0  0  0  0  0  0  0  0
  149.9902  142.6750  157.2245 N   0  0  0  0  0  0  0  0  0  0  0  0
  151.3833  142.7645  157.6550 C   0  0  0  0  0  0  0  0  0  0  0  0
  151.5957  141.8979  158.9172 C   0  0  0  0  0  0  0  0  0  0  0  0
  152.9422  142.1143  159.6326 C   0  0  0  0  0  0  0  0  0  0  0  0
  152.8271  142.7440  161.0334 C   0  0  0  0  0  0  0  0  0  0  0  0
  151.8576  143.9338  161.1925 C   0  0  0  0  0  0  0  0  0  0  0  0
  152.0522  145.1072  160.2164 C   0  0  0  0  0  0  0  0  0  0  0  0
  151.1889  145.0529  158.9372 C   0  0  0  0  0  0  0  0  0  0  0  0
  151.7932  144.2523  157.7680 C   0  0  0  0  0  0  0  0  0  0  0  0
  148.2206  140.9956  154.1815 C   0  0  0  0  0  0  0  0  0  0  0  0
  149.1520  141.7967  154.1152 O   0  0  0  0  0  0  0  0  0  0  0  0
  147.8638  140.2135  153.1229 N   0  5  0  0  0  0  0  0  0  0  0  0
  145.5085  138.0116  152.1280 H   0  0  0  0  0  0  0  0  0  0  0  0
  147.2369  137.7641  151.8439 H   0  0  0  0  0  0  0  0  0  0  0  0
  146.4091  139.1540  151.1256 H   0  0  0  0  0  0  0  0  0  0  0  0
  146.1278  139.3759  157.4929 H   0  0  0  0  0  0  0  0  0  0  0  0
  144.7743  138.9679  156.4421 H   0  0  0  0  0  0  0  0  0  0  0  0
  145.0192  140.6405  156.9366 H   0  0  0  0  0  0  0  0  0  0  0  0
  147.6356  142.7489  156.4054 H   0  0  0  0  0  0  0  0  0  0  0  0
  147.1676  141.4905  157.4835 H   0  0  0  0  0  0  0  0  0  0  0  0
  149.5360  143.5433  156.9822 H   0  0  0  0  0  0  0  0  0  0  0  0
  152.0068  142.3452  156.8626 H   0  0  0  0  0  0  0  0  0  0  0  0
  150.7650  142.0272  159.6097 H   0  0  0  0  0  0  0  0  0  0  0  0
  151.5337  140.8504  158.6191 H   0  0  0  0  0  0  0  0  0  0  0  0
  153.4395  141.1496  159.7411 H   0  0  0  0  0  0  0  0  0  0  0  0
  153.6245  142.6996  159.0184 H   0  0  0  0  0  0  0  0  0  0  0  0
  152.5194  141.9688  161.7361 H   0  0  0  0  0  0  0  0  0  0  0  0
  153.8231  143.0499  161.3555 H   0  0  0  0  0  0  0  0  0  0  0  0
  150.8209  143.5986  161.1707 H   0  0  0  0  0  0  0  0  0  0  0  0
  151.9969  144.3161  162.2046 H   0  0  0  0  0  0  0  0  0  0  0  0
  151.7594  146.0116  160.7510 H   0  0  0  0  0  0  0  0  0  0  0  0
  153.1072  145.2472  159.9786 H   0  0  0  0  0  0  0  0  0  0  0  0
  150.1734  144.7245  159.1591 H   0  0  0  0  0  0  0  0  0  0  0  0
  151.0839  146.0815  158.5900 H   0  0  0  0  0  0  0  0  0  0  0  0
  152.8780  144.3546  157.7745 H   0  0  0  0  0  0  0  0  0  0  0  0
  151.4906  144.7400  156.8398 H   0  0  0  0  0  0  0  0  0  0  0  0
  1  2  1  0  0  0  0
  1 22  1  0  0  0  0
  1 23  1  0  0  0  0
  1 24  1  0  0  0  0
  2 21  1  0  0  0  0
  2  3  2  0  0  0  0
  3  4  1  0  0  0  0
  4  5  1  0  0  0  0
  4  6  2  0  0  0  0
  5 25  1  0  0  0  0
  5 26  1  0  0  0  0
  5 27  1  0  0  0  0
  6  7  1  0  0  0  0
  6 19  1  0  0  0  0
  7  8  1  0  0  0  0
  7 28  1  0  0  0  0
  7 29  1  0  0  0  0
  8  9  2  0  0  0  0
  8 10  1  0  0  0  0
 10 11  1  0  0  0  0
 10 30  1  0  0  0  0
 11 18  1  0  0  0  0
 11 12  1  0  0  0  0
 11 31  1  0  0  0  0
 12 13  1  0  0  0  0
 12 32  1  0  0  0  0
 12 33  1  0  0  0  0
 13 14  1  0  0  0  0
 13 34  1  0  0  0  0
 13 35  1  0  0  0  0
 14 15  1  0  0  0  0
 14 36  1  0  0  0  0
 14 37  1  0  0  0  0
 15 16  1  0  0  0  0
 15 38  1  0  0  0  0
 15 39  1  0  0  0  0
 16 17  1  0  0  0  0
 16 40  1  0  0  0  0
 16 41  1  0  0  0  0
 17 18  1  0  0  0  0
 17 42  1  0  0  0  0
 17 43  1  0  0  0  0
 18 44  1  0  0  0  0
 18 45  1  0  0  0  0
 19 20  2  0  0  0  0
 19 21  1  0  0  0  0
M  CHG  1  21  -1
M  END
> <s_m_source_file>
AV-unprocessed.smi

> <i_m_source_file_index>
1361

> <i_lp_mmshare_version>
43012

> <i_f3d_flags>
0

> <s_epik_input>
W0NIM11jMW5jKFtDSDNdKWMoYyg9TylbbkhdMSlbQ0gyXUMoPU8pW05IXVtDSF0yW0NIMl1bQ0gyXVtDSDJdW0NIMl1bQ0gyXVtDSDJdW0NIMl0y

> <s_epik_cmdline>
J2VwaWtfcHl0aG9uJywgJy1waCcsICc3LjAnLCAnLXRuJywgJzgnLCAnLW1hJywgJzIwMCcsICctbWV0YWxfYmluZGluZycsICctaW1hZScsICc8aW5maWxlLm1hZT4nLCAnLW9tYWUnLCAnPG91dGZpbGUubWFlPic=

> <r_lp_tautomer_probability>
0.839158

> <r_epik_Ionization_Penalty>
6.62804

> <r_epik_Ionization_Penalty_Charging>
7.40585e-08

> <r_epik_Ionization_Penalty_Neutral>
6.62804

> <r_epik_State_Penalty>
4.44437

> <r_epik_Charging_Adjusted_Penalty>
4.44437

> <i_epik_Tot_Q>
-1

> <i_epik_Tot_abs_Q>
1

> <r_epik_Metal_State_Penalty>
0.804717

> <b_epik_Metal_Only>
1

> <s_lp_Force_Field>
OPLS_2005

> <r_lp_Energy>
26.9664

> <b_lp_Chiralities_Consistent>
1

> <s_lp_Variant>
AV-unprocessed.smi:1361-3

> <Gold.Version>
5.8.1

> <Gold.Id.Protein>
6NUR|6NUR_protein|mol2

> <Gold.PLP.Fitness>
46.3494

> <Gold.PLP.PLP>
-42.1017

> <Gold.PLP.part.hbond>
-2.7366

> <Gold.PLP.part.metal>
0.0000

> <Gold.PLP.part.buried>
-6.6494

> <Gold.PLP.part.nonpolar>
-36.1770

> <Gold.PLP.part.repulsive>
3.7581

> <Gold.PLP.ligand.clash>
0.0000

> <Gold.PLP.ligand.torsion>
0.1407

> <Gold.PLP.Chemscore.Hbond>
1.4960

> <Gold.PLP.Chemscore.CHOScore>
0.0000

> <Gold.PLP.Chemscore.Metal>
0.0000

> <Gold.Chemscore.Hbonds>
donor molecule, donor type, donor heavy atom, donor atom, acceptor molecule, acceptor atom, score
      L1  H    10    30       P1  8028  1.00
      P1  H  8011  8017       L1    20  0.51

> <Gold.PLP.Chemscore.Internal.Correction>
0.0412

> <Gold.Rescore>
     Score         DG    S(hbond)    S(metal)    S(lipo)     H(rot)  DE(clash)    DE(int)     intcor
     16.77     -20.06       1.63        0.00     109.36       1.43       1.68       1.61       ----

> <Gold.Chemscore.Fitness>
16.7691

> <Gold.Chemscore.DG>
-20.0583

> <Gold.Chemscore.ZeroCoef>
-5.4800

> <Gold.Chemscore.Hbond>
1.6328

> <Gold.Chemscore.Metal>
0.0000

> <Gold.Chemscore.Lipo>
109.3636

> <Gold.Chemscore.Internal_Hbond>
0.0000

> <Gold.Chemscore.DEClash>
1.6812

> <Gold.Chemscore.DEInternal>
1.6079

> <Gold.Chemscore.Rot>
1.4339

> <Gold.Chemscore.Internal.Correction>
   9.000000E+99

> <Gold.Chemscore.Hbonds>
donor molecule, donor type, donor heavy atom, donor atom, acceptor molecule, acceptor atom, score
      L1  H    10    30       P1  8028  0.89
      P1  H  8011  8017       L1    20  0.49

> <Gold.Chemscore.Hbond.Weighted>
-5.4535

> <Gold.Chemscore.Metal.Weighted>
-0.0000

> <Gold.Chemscore.Lipo.Weighted>
-12.7955

> <Gold.Chemscore.Internal_Hbond.Weighted>
0.0000

> <Gold.Chemscore.DEClash.Weighted>
1.6812

> <Gold.Chemscore.DEInternal.Weighted>
1.6079

> <Gold.Chemscore.Rot.Weighted>
3.6708

> <Gold.Chemscore.Internal.Correction.Weighted>
   9.000000E+99

> <Gold.Protein.RotatedTorsions>
[ 6907 6896 6895 6894 ] final   12.61 input  -60.11 | X-H torsion
[ 7974 7965 7964 7962 ] final   73.15 input  175.53 | X-H torsion
[ 8008 7997 7996 7995 ] final  -66.70 input   59.86 | X-H torsion
[ 10167 10162 10161 10158 ] final   10.59 input  -65.29 | X-H torsion
[ 10718 10713 10712 10709 ] final   47.15 input   66.30 | X-H torsion
[ 10763 10752 10751 10750 ] final  -22.44 input  -60.55 | X-H torsion
[ 11005 11000 10999 10996 ] final   84.94 input  -57.11 | X-H torsion

> <Gold.Protein.ActiveResidues>
 VAL166  LYS551  ARG553  GLY616  TRP617  ASP618  TYR619  PRO620  LYS621  CYS622 
 ASP623  PHE694  ASN695  SER759  ASP760  ASP761  ALA762  ILE779  LEU786  VAL792 
 PHE793  MET794  SER795  GLU796  ALA797  LYS798  CYS799  TRP800  GLU811  SER814 

> <Gold.Protein.RotatedAtoms>
  151.7731  135.0781  160.0362 H   0  0  0  0  0  0  0  0  0  0  0  0  # atno 6907 bound_to 6896
  152.3275  133.5917  159.5795 H   0  0  0  0  0  0  0  0  0  0  0  0  # atno 6908 bound_to 6896
  150.7404  133.9834  159.3625 H   0  0  0  0  0  0  0  0  0  0  0  0  # atno 6909 bound_to 6896
  145.7445  139.2734  143.1467 H   0  0  0  0  0  0  0  0  0  0  0  0  # atno 7974 bound_to 7965
  154.4752  140.0907  156.7243 H   0  0  0  0  0  0  0  0  0  0  0  0  # atno 8008 bound_to 7997
  155.4617  140.3461  155.4295 H   0  0  0  0  0  0  0  0  0  0  0  0  # atno 8009 bound_to 7997
  156.1104  140.1446  156.9334 H   0  0  0  0  0  0  0  0  0  0  0  0  # atno 8010 bound_to 7997
  140.6184  143.8257  150.7146 H   0  0  0  0  0  0  0  0  0  0  0  0  # atno 10167 bound_to 10162
  157.4555  130.8164  149.7832 H   0  0  0  0  0  0  0  0  0  0  0  0  # atno 10718 bound_to 10713
  153.6521  135.6980  153.5205 H   0  0  0  0  0  0  0  0  0  0  0  0  # atno 10763 bound_to 10752
  153.2699  135.4218  155.0976 H   0  0  0  0  0  0  0  0  0  0  0  0  # atno 10764 bound_to 10752
  154.8474  135.3576  154.6065 H   0  0  0  0  0  0  0  0  0  0  0  0  # atno 10765 bound_to 10752
  139.8985  134.8252  156.2514 H   0  0  0  0  0  0  0  0  0  0  0  0  # atno 11005 bound_to 11000
  146.0416  140.8159  142.9826 LP  0  0  0  0  0  0  0  0  0  0  0  0  # atno 17320 bound_to 7965
  144.6863  140.2919  143.7277 LP  0  0  0  0  0  0  0  0  0  0  0  0  # atno 17321 bound_to 7965
  140.1841  143.4090  152.1911 LP  0  0  0  0  0  0  0  0  0  0  0  0  # atno 17342 bound_to 10162
  139.5418  144.7263  151.4709 LP  0  0  0  0  0  0  0  0  0  0  0  0  # atno 17343 bound_to 10162
  156.0005  130.3883  150.2624 LP  0  0  0  0  0  0  0  0  0  0  0  0  # atno 17370 bound_to 10713
  157.0798  131.0140  151.3160 LP  0  0  0  0  0  0  0  0  0  0  0  0  # atno 17371 bound_to 10713
  141.0221  133.7035  156.1286 LP  0  0  0  0  0  0  0  0  0  0  0  0  # atno 17394 bound_to 11000
  140.7218  134.4350  157.5574 LP  0  0  0  0  0  0  0  0  0  0  0  0  # atno 17395 bound_to 11000

$$$$
