AV-unprocessed.smi:2061|AV-procd|sdf|8369|dock5
  -GOLD-   2272011 43D 1   1.00000     0.00000
 Structure written by MMmdl.
 46 47  0  0  0  0  0  0  0  0  2 V2000
  153.4048  137.2551  157.0196 C   0  0  0  0  0  0  0  0  0  0  0  0
  152.4878  137.9988  156.1104 C   0  0  0  0  0  0  0  0  0  0  0  0
  151.3663  137.6356  155.4192 C   0  0  0  0  0  0  0  0  0  0  0  0
  151.0004  138.8344  154.7514 C   0  0  0  0  0  0  0  0  0  0  0  0
  149.8641  138.8788  153.9038 N   0  0  0  0  0  0  0  0  0  0  0  0
  148.6143  138.4759  154.1906 C   0  0  0  0  0  0  0  0  0  0  0  0
  148.2560  137.9731  155.2561 O   0  0  0  0  0  0  0  0  0  0  0  0
  147.7810  138.6933  153.1629 N   0  0  0  0  0  0  0  0  0  0  0  0
  146.3558  138.3759  153.1682 C   0  0  0  0  0  0  0  0  0  0  0  0
  145.9168  137.5261  151.9464 C   0  0  1  0  0  0  0  0  0  0  0  0
  146.4886  138.1320  150.6416 C   0  0  0  0  0  0  0  0  0  0  0  0
  146.2906  136.0900  152.1611 N   0  3  1  0  0  0  0  0  0  0  0  0
  145.8113  135.5735  153.4715 C   0  0  0  0  0  0  0  0  0  0  0  0
  146.3072  134.1396  153.7361 C   0  0  2  0  0  0  0  0  0  0  0  0
  147.8069  134.0574  154.0723 C   0  0  0  0  0  0  0  0  0  0  0  0
  145.9438  133.2902  152.6505 O   0  0  0  0  0  0  0  0  0  0  0  0
  146.4124  133.7231  151.3782 C   0  0  1  0  0  0  0  0  0  0  0  0
  145.9342  132.7094  150.3324 C   0  0  0  0  0  0  0  0  0  0  0  0
  145.8932  135.1430  151.0843 C   0  0  0  0  0  0  0  0  0  0  0  0
  151.8225  139.8390  155.0129 N   0  0  0  0  0  0  0  0  0  0  0  0
  152.7798  139.3085  155.8856 O   0  0  0  0  0  0  0  0  0  0  0  0
  153.0729  136.2249  157.1506 H   0  0  0  0  0  0  0  0  0  0  0  0
  153.4418  137.7262  158.0018 H   0  0  0  0  0  0  0  0  0  0  0  0
  154.4168  137.2349  156.6149 H   0  0  0  0  0  0  0  0  0  0  0  0
  150.8896  136.6671  155.3960 H   0  0  0  0  0  0  0  0  0  0  0  0
  150.0180  139.2699  152.9863 H   0  0  0  0  0  0  0  0  0  0  0  0
  148.1554  139.1088  152.3224 H   0  0  0  0  0  0  0  0  0  0  0  0
  146.1388  137.8333  154.0889 H   0  0  0  0  0  0  0  0  0  0  0  0
  145.8006  139.3109  153.2354 H   0  0  0  0  0  0  0  0  0  0  0  0
  144.8300  137.5700  151.8571 H   0  0  0  0  0  0  0  0  0  0  0  0
  146.2145  139.1808  150.5306 H   0  0  0  0  0  0  0  0  0  0  0  0
  146.1002  137.6315  149.7544 H   0  0  0  0  0  0  0  0  0  0  0  0
  147.5773  138.0761  150.6187 H   0  0  0  0  0  0  0  0  0  0  0  0
  146.1247  136.2157  154.2928 H   0  0  0  0  0  0  0  0  0  0  0  0
  144.7201  135.5824  153.4752 H   0  0  0  0  0  0  0  0  0  0  0  0
  145.7700  133.7593  154.6055 H   0  0  0  0  0  0  0  0  0  0  0  0
  148.0274  134.6054  154.9886 H   0  0  0  0  0  0  0  0  0  0  0  0
  148.4330  134.4791  153.2865 H   0  0  0  0  0  0  0  0  0  0  0  0
  148.1142  133.0228  154.2267 H   0  0  0  0  0  0  0  0  0  0  0  0
  147.5026  133.7243  151.3691 H   0  0  0  0  0  0  0  0  0  0  0  0
  146.2732  132.9847  149.3335 H   0  0  0  0  0  0  0  0  0  0  0  0
  144.8458  132.6468  150.3109 H   0  0  0  0  0  0  0  0  0  0  0  0
  146.3200  131.7132  150.5500 H   0  0  0  0  0  0  0  0  0  0  0  0
  144.8066  135.1398  150.9835 H   0  0  0  0  0  0  0  0  0  0  0  0
  146.3115  135.4476  150.1255 H   0  0  0  0  0  0  0  0  0  0  0  0
  147.2999  136.0658  152.1861 H   0  0  0  0  0  0  0  0  0  0  0  0
  1  2  1  0  0  0  0
  1 22  1  0  0  0  0
  1 23  1  0  0  0  0
  1 24  1  0  0  0  0
  2 21  1  0  0  0  0
  2  3  2  0  0  0  0
  3  4  1  0  0  0  0
  3 25  1  0  0  0  0
  4  5  1  0  0  0  0
  4 20  2  0  0  0  0
  5  6  1  0  0  0  0
  5 26  1  0  0  0  0
  6  7  2  0  0  0  0
  6  8  1  0  0  0  0
  8  9  1  0  0  0  0
  8 27  1  0  0  0  0
  9 10  1  0  0  0  0
  9 28  1  0  0  0  0
  9 29  1  0  0  0  0
 10 11  1  0  0  0  0
 10 12  1  0  0  0  0
 10 30  1  0  0  0  0
 11 31  1  0  0  0  0
 11 32  1  0  0  0  0
 11 33  1  0  0  0  0
 12 19  1  0  0  0  0
 12 13  1  0  0  0  0
 12 46  1  0  0  0  0
 13 14  1  0  0  0  0
 13 34  1  0  0  0  0
 13 35  1  0  0  0  0
 14 15  1  0  0  0  0
 14 16  1  0  0  0  0
 14 36  1  0  0  0  0
 15 37  1  0  0  0  0
 15 38  1  0  0  0  0
 15 39  1  0  0  0  0
 16 17  1  0  0  0  0
 17 18  1  0  0  0  0
 17 19  1  0  0  0  0
 17 40  1  0  0  0  0
 18 41  1  0  0  0  0
 18 42  1  0  0  0  0
 18 43  1  0  0  0  0
 19 44  1  0  0  0  0
 19 45  1  0  0  0  0
 20 21  1  0  0  0  0
M  CHG  1  12   1
M  END
> <s_m_source_file>
AV-unprocessed.smi

> <i_m_source_file_index>
2061

> <i_lp_mmshare_version>
43012

> <i_f3d_flags>
0

> <s_epik_input>
W0NIM11jMVtjSF1jKG5vMSlbTkhdQyg9TylbTkhdW0NIMl1bQ0BIXShbQ0gzXSlOMltDSDJdW0NAQEhdKFtDSDNdKU9bQ0BASF0oW0NIM10pW0NIMl0y

> <s_epik_cmdline>
J2VwaWtfcHl0aG9uJywgJy1waCcsICc3LjAnLCAnLXRuJywgJzgnLCAnLW1hJywgJzIwMCcsICctbWV0YWxfYmluZGluZycsICctaW1hZScsICc8aW5maWxlLm1hZT4nLCAnLW9tYWUnLCAnPG91dGZpbGUubWFlPic=

> <r_epik_Ionization_Penalty>
0.707076

> <r_epik_Ionization_Penalty_Charging>
0.707039

> <r_epik_Ionization_Penalty_Neutral>
3.6548e-05

> <r_epik_State_Penalty>
0.730276

> <r_epik_Charging_Adjusted_Penalty>
1.43732

> <i_epik_Tot_Q>
1

> <i_epik_Tot_abs_Q>
1

> <r_epik_Metal_State_Penalty>
0.743132

> <b_epik_Metal_Only>
0

> <s_lp_Force_Field>
OPLS_2005

> <r_lp_Energy>
19.7872

> <b_lp_Chiralities_Consistent>
1

> <s_lp_Variant>
AV-unprocessed.smi:2061-10

> <Gold.Version>
5.8.1

> <Gold.Id.Protein>
6NUR|6NUR_protein|mol2

> <Gold.PLP.Fitness>
46.0503

> <Gold.PLP.PLP>
-29.3920

> <Gold.PLP.part.hbond>
-5.8375

> <Gold.PLP.part.metal>
0.0000

> <Gold.PLP.part.buried>
2.8789

> <Gold.PLP.part.nonpolar>
-27.2096

> <Gold.PLP.part.repulsive>
0.4102

> <Gold.PLP.ligand.clash>
0.0000

> <Gold.PLP.ligand.torsion>
0.6356

> <Gold.PLP.Chemscore.Hbond>
5.9600

> <Gold.PLP.Chemscore.CHOScore>
0.0000

> <Gold.PLP.Chemscore.Metal>
0.0000

> <Gold.Chemscore.Hbonds>
donor molecule, donor type, donor heavy atom, donor atom, acceptor molecule, acceptor atom, score
      L1  H     5    26       P1  7957  1.00
      L1  H     8    27       P1  7957  0.93
      L1  H    12    46       P1  7948  2.00
      P1  H  7989  7998       L1    20  0.98
      P1  H  7997  8008       L1    21  1.00

> <Gold.PLP.Chemscore.Internal.Correction>
0.0494

> <Gold.Rescore>
     Score         DG    S(hbond)    S(metal)    S(lipo)     H(rot)  DE(clash)    DE(int)     intcor
     20.59     -23.73       4.30        0.00      68.00       1.58       1.79       1.35       ----

> <Gold.Chemscore.Fitness>
20.5912

> <Gold.Chemscore.DG>
-23.7296

> <Gold.Chemscore.ZeroCoef>
-5.4800

> <Gold.Chemscore.Hbond>
4.2956

> <Gold.Chemscore.Metal>
0.0000

> <Gold.Chemscore.Lipo>
67.9967

> <Gold.Chemscore.Internal_Hbond>
0.0000

> <Gold.Chemscore.DEClash>
1.7932

> <Gold.Chemscore.DEInternal>
1.3452

> <Gold.Chemscore.Rot>
1.5834

> <Gold.Chemscore.Internal.Correction>
   9.000000E+99

> <Gold.Chemscore.Hbonds>
donor molecule, donor type, donor heavy atom, donor atom, acceptor molecule, acceptor atom, score
      L1  H     5    26       P1  7957  0.91
      L1  H     8    27       P1  7957  0.87
      L1  H    12    46       P1  7948  1.00
      P1  H  7989  7998       L1    20  0.32
      P1  H  7997  8008       L1    21  0.98

> <Gold.Chemscore.Hbond.Weighted>
-14.3475

> <Gold.Chemscore.Metal.Weighted>
-0.0000

> <Gold.Chemscore.Lipo.Weighted>
-7.9556

> <Gold.Chemscore.Internal_Hbond.Weighted>
0.0000

> <Gold.Chemscore.DEClash.Weighted>
1.7932

> <Gold.Chemscore.DEInternal.Weighted>
1.3452

> <Gold.Chemscore.Rot.Weighted>
4.0535

> <Gold.Chemscore.Internal.Correction.Weighted>
   9.000000E+99

> <Gold.Protein.RotatedTorsions>
[ 6907 6896 6895 6894 ] final -155.36 input  -60.11 | X-H torsion
[ 7974 7965 7964 7962 ] final  159.65 input  175.53 | X-H torsion
[ 8008 7997 7996 7995 ] final  -31.02 input   59.86 | X-H torsion
[ 10167 10162 10161 10158 ] final  132.68 input  -65.29 | X-H torsion
[ 10718 10713 10712 10709 ] final   17.42 input   66.30 | X-H torsion
[ 10763 10752 10751 10750 ] final  107.25 input  -60.55 | X-H torsion
[ 11005 11000 10999 10996 ] final  -51.95 input  -57.11 | X-H torsion

> <Gold.Protein.ActiveResidues>
 VAL166  LYS551  ARG553  GLY616  TRP617  ASP618  TYR619  PRO620  LYS621  CYS622 
 ASP623  PHE694  ASN695  SER759  ASP760  ASP761  ALA762  ILE779  LEU786  VAL792 
 PHE793  MET794  SER795  GLU796  ALA797  LYS798  CYS799  TRP800  GLU811  SER814 

> <Gold.Protein.RotatedAtoms>
  151.2713  133.4254  159.2621 H   0  0  0  0  0  0  0  0  0  0  0  0  # atno 6907 bound_to 6896
  151.0443  134.9629  159.8188 H   0  0  0  0  0  0  0  0  0  0  0  0  # atno 6908 bound_to 6896
  152.5371  134.2670  159.9009 H   0  0  0  0  0  0  0  0  0  0  0  0  # atno 6909 bound_to 6896
  144.7779  139.7646  143.6271 H   0  0  0  0  0  0  0  0  0  0  0  0  # atno 7974 bound_to 7965
  154.4229  140.1775  156.1500 H   0  0  0  0  0  0  0  0  0  0  0  0  # atno 8008 bound_to 7997
  155.9923  140.3368  155.6740 H   0  0  0  0  0  0  0  0  0  0  0  0  # atno 8009 bound_to 7997
  155.6356  140.0674  157.2626 H   0  0  0  0  0  0  0  0  0  0  0  0  # atno 8010 bound_to 7997
  139.5329  144.6651  151.4887 H   0  0  0  0  0  0  0  0  0  0  0  0  # atno 10167 bound_to 10162
  157.0819  130.6391  149.5828 H   0  0  0  0  0  0  0  0  0  0  0  0  # atno 10718 bound_to 10713
  153.4042  135.3850  155.2008 H   0  0  0  0  0  0  0  0  0  0  0  0  # atno 10763 bound_to 10752
  154.8732  135.3778  154.4581 H   0  0  0  0  0  0  0  0  0  0  0  0  # atno 10764 bound_to 10752
  153.5082  135.7087  153.5857 H   0  0  0  0  0  0  0  0  0  0  0  0  # atno 10765 bound_to 10752
  141.0898  133.6635  156.3952 H   0  0  0  0  0  0  0  0  0  0  0  0  # atno 11005 bound_to 11000
  146.1970  139.5242  142.9768 LP  0  0  0  0  0  0  0  0  0  0  0  0  # atno 17320 bound_to 7965
  145.6133  141.0335  143.1954 LP  0  0  0  0  0  0  0  0  0  0  0  0  # atno 17321 bound_to 7965
  140.6518  143.8680  150.6794 LP  0  0  0  0  0  0  0  0  0  0  0  0  # atno 17342 bound_to 10162
  140.2047  143.3931  152.1764 LP  0  0  0  0  0  0  0  0  0  0  0  0  # atno 17343 bound_to 10162
  155.9921  130.4978  150.7327 LP  0  0  0  0  0  0  0  0  0  0  0  0  # atno 17370 bound_to 10713
  157.4793  131.0901  151.0554 LP  0  0  0  0  0  0  0  0  0  0  0  0  # atno 17371 bound_to 10713
  140.5278  134.6242  157.5340 LP  0  0  0  0  0  0  0  0  0  0  0  0  # atno 17394 bound_to 11000
  139.9722  134.7274  156.0019 LP  0  0  0  0  0  0  0  0  0  0  0  0  # atno 17395 bound_to 11000

$$$$
