#       Name:                AV-unprocessed.smi:2816
#       Creating user name   scv26
#       Creation time:       Fri Mar 27 15:28:37 2020


#       File generated by GOLD software.
#

@<TRIPOS>MOLECULE
AV-unprocessed.smi:2816
    46    48     1
SMALL
NO_CHARGES


@<TRIPOS>ATOM
      1 ****        -5.7382   0.7205  -0.4429 C.3            1 S1                 0.0000
      2 ****        -4.2016   0.6420  -0.4491 C.3            1 S1                 0.0000
      3 ****        -3.6580   1.3582  -1.6991 C.3            1 S1                 0.0000
      4 ****        -3.6472   1.2970   0.8291 C.3            1 S1                 0.0000
      5 ****        -3.7261  -1.1577  -0.4845 S.o2           1 S1                 0.0000
      6 ****        -4.2269  -1.7787   0.7521 O.2            1 S1                 0.0000
      7 ****        -4.1300  -1.7196  -1.7833 O.2            1 S1                 0.0000
      8 ****        -1.9335  -1.1941  -0.4171 C.ar           1 S1                 0.0000
      9 ****        -1.2777  -1.3494   0.8208 C.ar           1 S1                 0.0000
     10 ****         0.1293  -1.3274   0.8338 C.ar           1 S1                 0.0000
     11 ****         0.8250  -1.1410  -0.3845 C.ar           1 S1                 0.0000
     12 ****         2.2238  -1.0965  -0.4768 N.pl3          1 S1                 0.0000
     13 ****         3.0638  -1.0045   0.7122 C.3            1 S1                 0.0000
     14 ****         2.9530   0.3299   1.4591 C.3            1 S1                 0.0000
     15 ****         4.4227   0.7638   1.5475 C.3            1 S1                 0.0000
     16 ****         4.9363   1.2841   0.1995 C.3            1 S1                 0.0000
     17 ****         5.0458  -0.0072  -0.6085 C.3            1 S1                 0.0000
     18 ****         4.5715  -1.0622   0.4068 C.3            1 S1                 0.0000
     19 ****         5.0752  -0.4942   1.6044 O.3            1 S1                 0.0000
     20 ****         0.0609  -0.9901  -1.5619 C.ar           1 S1                 0.0000
     21 ****        -1.2882  -1.0075  -1.5882 N.ar           1 S1                 0.0000
     22 ****        -6.0842   1.7545  -0.4250 H              1 S1                 0.0000
     23 ****        -6.1575   0.2187   0.4298 H              1 S1                 0.0000
     24 ****        -6.1620   0.2462  -1.3286 H              1 S1                 0.0000
     25 ****        -3.9941   0.8726  -2.6156 H              1 S1                 0.0000
     26 ****        -2.5689   1.3777  -1.7131 H              1 S1                 0.0000
     27 ****        -3.9964   2.3942  -1.7355 H              1 S1                 0.0000
     28 ****        -3.9579   2.3396   0.9037 H              1 S1                 0.0000
     29 ****        -2.5576   1.2826   0.8478 H              1 S1                 0.0000
     30 ****        -4.0000   0.7852   1.7249 H              1 S1                 0.0000
     31 ****        -1.8334  -1.4782   1.7376 H              1 S1                 0.0000
     32 ****         0.6485  -1.4492   1.7722 H              1 S1                 0.0000
     33 ****         2.6514  -0.9266  -1.3760 H              1 S1                 0.0000
     34 ****         2.8229  -1.8255   1.3885 H              1 S1                 0.0000
     35 ****         2.3398   1.0728   0.9466 H              1 S1                 0.0000
     36 ****         2.5323   0.1722   2.4529 H              1 S1                 0.0000
     37 ****         4.6399   1.4238   2.3876 H              1 S1                 0.0000
     38 ****         4.2601   2.0110  -0.2516 H              1 S1                 0.0000
     39 ****         5.9160   1.7503   0.3099 H              1 S1                 0.0000
     40 ****         4.4503   0.0103  -1.5212 H              1 S1                 0.0000
     41 ****         6.0838  -0.1881  -0.8900 H              1 S1                 0.0000
     42 ****         4.9400  -2.0675   0.2011 H              1 S1                 0.0000
     43 ****         0.5473  -0.8428  -2.5152 H              1 S1                 0.0000
     44 ****         4.8052  -1.0201   2.4109 LP             1 S1                 0.0000
     45 ****         6.0707  -0.4011   1.5851 LP             1 S1                 0.0000
     46 ****        -1.7915  -0.8866  -2.4438 LP             1 S1                 0.0000
@<TRIPOS>BOND
    1    1    2 1     
    2    1   22 1     
    3    1   23 1     
    4    1   24 1     
    5    2    3 1     
    6    2    4 1     
    7    2    5 1     
    8    3   25 1     
    9    3   26 1     
   10    3   27 1     
   11    4   28 1     
   12    4   29 1     
   13    4   30 1     
   14    5    6 2     
   15    5    7 2     
   16    5    8 1     
   17    8   21 ar    
   18    8    9 ar    
   19    9   10 ar    
   20    9   31 1     
   21   10   11 ar    
   22   10   32 1     
   23   11   12 1     
   24   11   20 ar    
   25   12   13 1     
   26   12   33 1     
   27   13   18 1     
   28   13   14 1     
   29   13   34 1     
   30   14   15 1     
   31   14   35 1     
   32   14   36 1     
   33   15   19 1     
   34   15   16 1     
   35   15   37 1     
   36   16   17 1     
   37   16   38 1     
   38   16   39 1     
   39   17   18 1     
   40   17   40 1     
   41   17   41 1     
   42   18   19 1     
   43   18   42 1     
   44   20   21 ar    
   45   20   43 1     
   46   19   44 1     
   47   19   45 1     
   48   21   46 1     
@<TRIPOS>SUBSTRUCTURE
      1 S1             1
@<TRIPOS>SET
LONE_PAIRS      STATIC     ATOMS    <user>   **** ""
5 6 7 44 45 46
DONOR_HYDROGENS      STATIC     ATOMS    <user>   **** ""
1 33
ATOM$BLUE        STATIC     ATOMS    COLORGROUP SYSTEM
5 6 7 44 45 46
ATOM$RED        STATIC     ATOMS    COLORGROUP SYSTEM
1 33
