AV-unprocessed.smi:1403|AV-procd|sdf|5702|dock10
  -GOLD-   22720 5333D 1   1.00000     0.00000
 Structure written by MMmdl.
 35 36  0  0  0  0  0  0  0  0  2 V2000
  149.7869  141.5987  155.6436 C   0  0  0  0  0  0  0  0  0  0  0  0
  149.1787  140.8974  154.4176 C   0  0  1  0  0  0  0  0  0  0  0  0
  149.4155  139.4583  154.4998 N   0  0  0  0  0  0  0  0  0  0  0  0
  150.6144  138.8722  154.6383 C   0  0  0  0  0  0  0  0  0  0  0  0
  151.6725  139.5001  154.6925 O   0  0  0  0  0  0  0  0  0  0  0  0
  150.6132  137.3392  154.6962 C   0  0  0  0  0  0  0  0  0  0  0  0
  150.0409  136.8189  155.9481 N   0  0  0  0  0  0  0  0  0  0  0  0
  148.6937  137.1116  156.2248 C   0  0  0  0  0  0  0  0  0  0  0  0
  148.0876  136.6746  157.3453 C   0  0  0  0  0  0  0  0  0  0  0  0
  148.8660  135.8781  158.2856 C   0  0  0  0  0  0  0  0  0  0  0  0
  148.3309  135.4764  159.3171 O   0  0  0  0  0  0  0  0  0  0  0  0
  150.1679  135.6154  157.9690 N   0  5  0  0  0  0  0  0  0  0  0  0
  150.7707  136.0646  156.8245 C   0  0  0  0  0  0  0  0  0  0  0  0
  151.9469  135.8150  156.5576 O   0  0  0  0  0  0  0  0  0  0  0  0
  147.6674  141.1700  154.2946 C   0  0  2  0  0  0  0  0  0  0  0  0
  147.3055  142.5827  153.8273 C   0  0  0  0  0  0  0  0  0  0  0  0
  145.9334  142.8310  154.4373 C   0  0  0  0  0  0  0  0  0  0  0  0
  145.7442  141.6733  155.4201 C   0  0  0  0  0  0  0  0  0  0  0  0
  147.0369  141.1046  155.5642 O   0  0  0  0  0  0  0  0  0  0  0  0
  149.6371  142.6776  155.5947 H   0  0  0  0  0  0  0  0  0  0  0  0
  150.8610  141.4221  155.7085 H   0  0  0  0  0  0  0  0  0  0  0  0
  149.3352  141.2418  156.5697 H   0  0  0  0  0  0  0  0  0  0  0  0
  149.6646  141.2847  153.5200 H   0  0  0  0  0  0  0  0  0  0  0  0
  148.6021  138.8614  154.4630 H   0  0  0  0  0  0  0  0  0  0  0  0
  150.0718  136.9323  153.8400 H   0  0  0  0  0  0  0  0  0  0  0  0
  151.6411  136.9954  154.5742 H   0  0  0  0  0  0  0  0  0  0  0  0
  148.1874  137.7010  155.4747 H   0  0  0  0  0  0  0  0  0  0  0  0
  147.0509  136.9054  157.5419 H   0  0  0  0  0  0  0  0  0  0  0  0
  147.2022  140.4353  153.6342 H   0  0  0  0  0  0  0  0  0  0  0  0
  148.0166  143.3075  154.2263 H   0  0  0  0  0  0  0  0  0  0  0  0
  147.3080  142.6759  152.7409 H   0  0  0  0  0  0  0  0  0  0  0  0
  145.9115  143.7940  154.9485 H   0  0  0  0  0  0  0  0  0  0  0  0
  145.1464  142.8333  153.6823 H   0  0  0  0  0  0  0  0  0  0  0  0
  145.3443  141.9984  156.3808 H   0  0  0  0  0  0  0  0  0  0  0  0
  145.0681  140.9241  155.0054 H   0  0  0  0  0  0  0  0  0  0  0  0
  1  2  1  0  0  0  0
  1 20  1  0  0  0  0
  1 21  1  0  0  0  0
  1 22  1  0  0  0  0
  2  3  1  0  0  0  0
  2 15  1  0  0  0  0
  2 23  1  0  0  0  0
  3  4  1  0  0  0  0
  3 24  1  0  0  0  0
  4  5  2  0  0  0  0
  4  6  1  0  0  0  0
  6  7  1  0  0  0  0
  6 25  1  0  0  0  0
  6 26  1  0  0  0  0
  7 13  1  0  0  0  0
  7  8  1  0  0  0  0
  8  9  2  0  0  0  0
  8 27  1  0  0  0  0
  9 10  1  0  0  0  0
  9 28  1  0  0  0  0
 10 11  2  0  0  0  0
 10 12  1  0  0  0  0
 12 13  1  0  0  0  0
 13 14  2  0  0  0  0
 15 19  1  0  0  0  0
 15 16  1  0  0  0  0
 15 29  1  0  0  0  0
 16 17  1  0  0  0  0
 16 30  1  0  0  0  0
 16 31  1  0  0  0  0
 17 18  1  0  0  0  0
 17 32  1  0  0  0  0
 17 33  1  0  0  0  0
 18 19  1  0  0  0  0
 18 34  1  0  0  0  0
 18 35  1  0  0  0  0
M  CHG  1  12  -1
M  END
> <s_m_source_file>
AV-unprocessed.smi

> <i_m_source_file_index>
1403

> <i_lp_mmshare_version>
43012

> <i_f3d_flags>
0

> <s_epik_input>
TzFbQ0gyXVtDSDJdW0NIMl1bQ0BIXTFbQ0BIXShbQ0gzXSlbTkhdQyg9TylbQ0gyXW4yW2NIXVtjSF1jKD1PKVtuSF1jMj1P

> <s_epik_cmdline>
J2VwaWtfcHl0aG9uJywgJy1waCcsICc3LjAnLCAnLXRuJywgJzgnLCAnLW1hJywgJzIwMCcsICctbWV0YWxfYmluZGluZycsICctaW1hZScsICc8aW5maWxlLm1hZT4nLCAnLW9tYWUnLCAnPG91dGZpbGUubWFlPic=

> <r_lp_tautomer_probability>
0.999537

> <r_epik_Ionization_Penalty>
3.07438

> <r_epik_Ionization_Penalty_Charging>
2.82466e-08

> <r_epik_Ionization_Penalty_Neutral>
3.07438

> <r_epik_State_Penalty>
3.07341

> <r_epik_Charging_Adjusted_Penalty>
3.07341

> <i_epik_Tot_Q>
-1

> <i_epik_Tot_abs_Q>
1

> <r_epik_Metal_State_Penalty>
0.45947

> <b_epik_Metal_Only>
1

> <s_lp_Force_Field>
OPLS_2005

> <r_lp_Energy>
26.8934

> <b_lp_Chiralities_Consistent>
1

> <s_lp_Variant>
AV-unprocessed.smi:1403-6

> <Gold.Version>
5.8.1

> <Gold.Id.Protein>
6NUR|6NUR_protein|mol2

> <Gold.PLP.Fitness>
36.7581

> <Gold.PLP.PLP>
-26.5208

> <Gold.PLP.part.hbond>
-3.0000

> <Gold.PLP.part.metal>
0.0000

> <Gold.PLP.part.buried>
-3.9690

> <Gold.PLP.part.nonpolar>
-19.7277

> <Gold.PLP.part.repulsive>
0.2220

> <Gold.PLP.ligand.clash>
0.0000

> <Gold.PLP.ligand.torsion>
0.3924

> <Gold.PLP.Chemscore.Hbond>
3.6640

> <Gold.PLP.Chemscore.CHOScore>
0.0000

> <Gold.PLP.Chemscore.Metal>
0.0000

> <Gold.Chemscore.Hbonds>
donor molecule, donor type, donor heavy atom, donor atom, acceptor molecule, acceptor atom, score
      P1  H  6896  6907       L1    12  1.63
      P1  H  7989  7998       L1     5  1.00
      P1  H 10752 10763       L1    14  1.00

> <Gold.PLP.Chemscore.Internal.Correction>
0.0302

> <Gold.Rescore>
     Score         DG    S(hbond)    S(metal)    S(lipo)     H(rot)  DE(clash)    DE(int)     intcor
     11.07     -13.44       2.33        0.00      45.22       1.99       0.14       2.22       ----

> <Gold.Chemscore.Fitness>
11.0742

> <Gold.Chemscore.DG>
-13.4423

> <Gold.Chemscore.ZeroCoef>
-5.4800

> <Gold.Chemscore.Hbond>
2.3282

> <Gold.Chemscore.Metal>
0.0000

> <Gold.Chemscore.Lipo>
45.2200

> <Gold.Chemscore.Internal_Hbond>
0.0000

> <Gold.Chemscore.DEClash>
0.1445

> <Gold.Chemscore.DEInternal>
2.2236

> <Gold.Chemscore.Rot>
1.9940

> <Gold.Chemscore.Internal.Correction>
   9.000000E+99

> <Gold.Chemscore.Hbonds>
donor molecule, donor type, donor heavy atom, donor atom, acceptor molecule, acceptor atom, score
      P1  H  6896  6907       L1    12  0.24
      P1  H  7989  7998       L1     5  0.73
      P1  H 10752 10763       L1    14  0.99

> <Gold.Chemscore.Hbond.Weighted>
-7.7762

> <Gold.Chemscore.Metal.Weighted>
-0.0000

> <Gold.Chemscore.Lipo.Weighted>
-5.2907

> <Gold.Chemscore.Internal_Hbond.Weighted>
0.0000

> <Gold.Chemscore.DEClash.Weighted>
0.1445

> <Gold.Chemscore.DEInternal.Weighted>
2.2236

> <Gold.Chemscore.Rot.Weighted>
5.1047

> <Gold.Chemscore.Internal.Correction.Weighted>
   9.000000E+99

> <Gold.Protein.RotatedTorsions>
[ 6907 6896 6895 6894 ] final  -67.68 input  -60.11 | X-H torsion
[ 7974 7965 7964 7962 ] final  100.61 input  175.53 | X-H torsion
[ 8008 7997 7996 7995 ] final  -68.18 input   59.86 | X-H torsion
[ 10167 10162 10161 10158 ] final  178.66 input  -65.29 | X-H torsion
[ 10718 10713 10712 10709 ] final  150.45 input   66.30 | X-H torsion
[ 10763 10752 10751 10750 ] final   94.71 input  -60.55 | X-H torsion
[ 11005 11000 10999 10996 ] final -153.27 input  -57.11 | X-H torsion

> <Gold.Protein.ActiveResidues>
 VAL166  LYS551  ARG553  GLY616  TRP617  ASP618  TYR619  PRO620  LYS621  CYS622 
 ASP623  PHE694  ASN695  SER759  ASP760  ASP761  ALA762  ILE779  LEU786  VAL792 
 PHE793  MET794  SER795  GLU796  ALA797  LYS798  CYS799  TRP800  GLU811  SER814 

> <Gold.Protein.RotatedAtoms>
  150.7396  134.5847  159.5956 H   0  0  0  0  0  0  0  0  0  0  0  0  # atno 6907 bound_to 6896
  152.3251  134.7328  160.0313 H   0  0  0  0  0  0  0  0  0  0  0  0  # atno 6908 bound_to 6896
  151.7831  133.3316  159.3514 H   0  0  0  0  0  0  0  0  0  0  0  0  # atno 6909 bound_to 6896
  145.3833  139.2376  143.3392 H   0  0  0  0  0  0  0  0  0  0  0  0  # atno 7974 bound_to 7965
  154.4850  140.0878  156.7466 H   0  0  0  0  0  0  0  0  0  0  0  0  # atno 8008 bound_to 7997
  155.4372  140.3452  155.4268 H   0  0  0  0  0  0  0  0  0  0  0  0  # atno 8009 bound_to 7997
  156.1248  140.1484  156.9140 H   0  0  0  0  0  0  0  0  0  0  0  0  # atno 8010 bound_to 7997
  139.5303  144.2653  152.0673 H   0  0  0  0  0  0  0  0  0  0  0  0  # atno 10167 bound_to 10162
  157.2833  131.0839  151.1516 H   0  0  0  0  0  0  0  0  0  0  0  0  # atno 10718 bound_to 10713
  153.2448  135.4280  155.0736 H   0  0  0  0  0  0  0  0  0  0  0  0  # atno 10763 bound_to 10752
  154.8356  135.3411  154.6597 H   0  0  0  0  0  0  0  0  0  0  0  0  # atno 10764 bound_to 10752
  153.7020  135.7028  153.5117 H   0  0  0  0  0  0  0  0  0  0  0  0  # atno 10765 bound_to 10752
  140.7099  134.3844  157.5199 H   0  0  0  0  0  0  0  0  0  0  0  0  # atno 11005 bound_to 11000
  146.2832  140.4504  142.8768 LP  0  0  0  0  0  0  0  0  0  0  0  0  # atno 17320 bound_to 7965
  144.8492  140.6975  143.6179 LP  0  0  0  0  0  0  0  0  0  0  0  0  # atno 17321 bound_to 7965
  140.2116  144.4557  150.6383 LP  0  0  0  0  0  0  0  0  0  0  0  0  # atno 17342 bound_to 10162
  140.6477  143.2217  151.6149 LP  0  0  0  0  0  0  0  0  0  0  0  0  # atno 17343 bound_to 10162
  157.2941  130.6811  149.6129 LP  0  0  0  0  0  0  0  0  0  0  0  0  # atno 17370 bound_to 10713
  155.9665  130.4412  150.5329 LP  0  0  0  0  0  0  0  0  0  0  0  0  # atno 17371 bound_to 10713
  139.8874  134.8883  156.2529 LP  0  0  0  0  0  0  0  0  0  0  0  0  # atno 17394 bound_to 11000
  141.0093  133.7105  156.1085 LP  0  0  0  0  0  0  0  0  0  0  0  0  # atno 17395 bound_to 11000

$$$$
