AV-unprocessed.smi:72|AV-procd|sdf|707|dock1
  -GOLD-   2262017 23D 1   1.00000     0.00000
 Structure written by MMmdl.
 30 31  0  0  0  0  0  0  0  0  2 V2000
  143.3415  138.6560  154.6109 N   0  0  0  0  0  0  0  0  0  0  0  0
  143.8114  137.6522  153.7900 C   0  0  0  0  0  0  0  0  0  0  0  0
  144.3411  138.0185  152.5656 N   0  3  0  0  0  0  0  0  0  0  0  0
  144.8367  137.1675  151.6576 C   0  0  0  0  0  0  0  0  0  0  0  0
  144.8329  135.8781  151.9182 N   0  0  0  0  0  0  0  0  0  0  0  0
  145.3833  134.9105  150.9048 C   0  0  2  0  0  0  0  0  0  0  0  0
  144.4081  133.9420  150.6785 O   0  0  0  0  0  0  0  0  0  0  0  0
  145.0549  132.6966  150.4529 C   0  0  2  0  0  0  0  0  0  0  0  0
  144.0683  131.5206  150.5641 C   0  0  0  0  0  0  0  0  0  0  0  0
  143.1110  131.5906  149.5291 O   0  0  0  0  0  0  0  0  0  0  0  0
  146.2299  132.7244  151.4422 C   0  0  2  0  0  0  0  0  0  0  0  0
  145.8205  132.3108  152.7352 O   0  0  0  0  0  0  0  0  0  0  0  0
  146.6563  134.1923  151.4005 C   0  0  2  0  0  0  0  0  0  0  0  0
  147.1815  134.6630  152.6316 O   0  0  0  0  0  0  0  0  0  0  0  0
  144.3082  135.4036  153.1478 C   0  0  0  0  0  0  0  0  0  0  0  0
  144.2850  134.2000  153.4008 O   0  0  0  0  0  0  0  0  0  0  0  0
  143.8163  136.3711  154.0364 N   0  0  0  0  0  0  0  0  0  0  0  0
  145.5461  135.4537  149.9736 H   0  0  0  0  0  0  0  0  0  0  0  0
  145.4527  132.7272  149.4364 H   0  0  0  0  0  0  0  0  0  0  0  0
  147.0370  132.0649  151.1212 H   0  0  0  0  0  0  0  0  0  0  0  0
  147.4178  134.3231  150.6303 H   0  0  0  0  0  0  0  0  0  0  0  0
  142.9390  138.4820  155.5212 H   0  0  0  0  0  0  0  0  0  0  0  0
  143.3575  139.6367  154.3708 H   0  0  0  0  0  0  0  0  0  0  0  0
  145.2342  137.5425  150.7234 H   0  0  0  0  0  0  0  0  0  0  0  0
  144.5781  130.5576  150.5322 H   0  0  0  0  0  0  0  0  0  0  0  0
  143.5423  131.5675  151.5180 H   0  0  0  0  0  0  0  0  0  0  0  0
  142.2713  131.8023  149.9082 H   0  0  0  0  0  0  0  0  0  0  0  0
  146.5127  132.5048  153.3470 H   0  0  0  0  0  0  0  0  0  0  0  0
  147.9346  135.2046  152.4475 H   0  0  0  0  0  0  0  0  0  0  0  0
  144.3529  139.0037  152.3432 H   0  0  0  0  0  0  0  0  0  0  0  0
  1  2  1  0  0  0  0
  1 22  1  0  0  0  0
  1 23  1  0  0  0  0
  2 17  2  0  0  0  0
  2  3  1  0  0  0  0
  3  4  2  0  0  0  0
  3 30  1  0  0  0  0
  4  5  1  0  0  0  0
  4 24  1  0  0  0  0
  5  6  1  0  0  0  0
  5 15  1  0  0  0  0
  6 18  1  0  0  0  0
  6 13  1  0  0  0  0
  6  7  1  0  0  0  0
  7  8  1  0  0  0  0
  8 19  1  0  0  0  0
  8  9  1  0  0  0  0
  8 11  1  0  0  0  0
  9 10  1  0  0  0  0
  9 25  1  0  0  0  0
  9 26  1  0  0  0  0
 10 27  1  0  0  0  0
 11 20  1  0  0  0  0
 11 12  1  0  0  0  0
 11 13  1  0  0  0  0
 12 28  1  0  0  0  0
 13 21  1  0  0  0  0
 13 14  1  0  0  0  0
 14 29  1  0  0  0  0
 15 16  2  0  0  0  0
 15 17  1  0  0  0  0
M  CHG  1   3   1
M  END
> <s_m_source_file>
AV-unprocessed.smi

> <i_m_source_file_index>
72

> <i_lp_mmshare_version>
43012

> <i_f3d_flags>
0

> <s_epik_input>
W05IMl1jMW5bY0hdbihjKD1PKW4xKVtDQEBIXTJPW0NASF0oW0NIMl1bT0hdKVtDQEBIXShbT0hdKVtDQEhdMltPSF0=

> <s_epik_cmdline>
J2VwaWtfcHl0aG9uJywgJy1waCcsICc3LjAnLCAnLXRuJywgJzgnLCAnLW1hJywgJzIwMCcsICctbWV0YWxfYmluZGluZycsICctaW1hZScsICc8aW5maWxlLm1hZT4nLCAnLW9tYWUnLCAnPG91dGZpbGUubWFlPic=

> <r_lp_tautomer_probability>
4.77166e-05

> <r_epik_Ionization_Penalty>
0.104979

> <r_epik_Ionization_Penalty_Charging>
0.0999619

> <r_epik_Ionization_Penalty_Neutral>
0.00501745

> <r_epik_State_Penalty>
2.51541

> <r_epik_Charging_Adjusted_Penalty>
2.61537

> <i_epik_Tot_Q>
1

> <i_epik_Tot_abs_Q>
1

> <r_epik_Metal_State_Penalty>
3.53763

> <b_epik_Metal_Only>
0

> <s_epik_Chemistry_Notes>
This compound contains an acetal/aminal-like group ( X-CH(R)-Y where X, Y are N, S, or O) that may be acid/base labile, releasing an aldehyde.

> <s_lp_Force_Field>
OPLS_2005

> <r_lp_Energy>
39.1051

> <b_lp_Chiralities_Consistent>
1

> <s_lp_Variant>
AV-unprocessed.smi:72-45

> <Gold.Version>
5.8.1

> <Gold.Id.Protein>
6NUR|6NUR_protein|mol2

> <Gold.PLP.Fitness>
36.8945

> <Gold.PLP.PLP>
-20.8296

> <Gold.PLP.part.hbond>
-5.9708

> <Gold.PLP.part.metal>
0.0000

> <Gold.PLP.part.buried>
1.5284

> <Gold.PLP.part.nonpolar>
-16.7728

> <Gold.PLP.part.repulsive>
0.3332

> <Gold.PLP.ligand.clash>
0.0000

> <Gold.PLP.ligand.torsion>
0.1019

> <Gold.PLP.Chemscore.Hbond>
4.8650

> <Gold.PLP.Chemscore.CHOScore>
0.5058

> <Gold.PLP.Chemscore.Metal>
0.0000

> <Gold.Chemscore.Hbonds>
donor molecule, donor type, donor heavy atom, donor atom, acceptor molecule, acceptor atom, score
      L1  H     1    23       P1 10175  0.52
      L1  H     3    30       P1 10175  1.95
      L1  H    10    27       P1 10952  0.25
      L1  H    14    29       P1  7948  0.99
      P1  H 10785 10796       L1    10  1.00
      L1  C     4    24       P1 10171  0.47

> <Gold.PLP.Chemscore.Internal.Correction>
0.1563

> <Gold.Rescore>
     Score         DG    S(hbond)    S(metal)    S(lipo)     H(rot)  DE(clash)    DE(int)     intcor
      5.28     -10.26       3.51        0.00      29.82       4.08       1.50       3.47       ----

> <Gold.Chemscore.Fitness>
5.2819

> <Gold.Chemscore.DG>
-10.2604

> <Gold.Chemscore.ZeroCoef>
-5.4800

> <Gold.Chemscore.Hbond>
3.5127

> <Gold.Chemscore.Metal>
0.0000

> <Gold.Chemscore.Lipo>
29.8158

> <Gold.Chemscore.Internal_Hbond>
0.0000

> <Gold.Chemscore.DEClash>
1.5046

> <Gold.Chemscore.DEInternal>
3.4740

> <Gold.Chemscore.Rot>
4.0783

> <Gold.Chemscore.Internal.Correction>
   9.000000E+99

> <Gold.Chemscore.Hbonds>
donor molecule, donor type, donor heavy atom, donor atom, acceptor molecule, acceptor atom, score
      L1  H     1    23       P1 10175  0.50
      L1  H     3    30       P1 10175  0.92
      L1  H    10    27       P1 10952  0.23
      L1  H    14    29       P1  7948  0.89
      P1  H 10785 10796       L1    10  0.51

> <Gold.Chemscore.Hbond.Weighted>
-11.7324

> <Gold.Chemscore.Metal.Weighted>
-0.0000

> <Gold.Chemscore.Lipo.Weighted>
-3.4884

> <Gold.Chemscore.Internal_Hbond.Weighted>
0.0000

> <Gold.Chemscore.DEClash.Weighted>
1.5046

> <Gold.Chemscore.DEInternal.Weighted>
3.4740

> <Gold.Chemscore.Rot.Weighted>
10.4404

> <Gold.Chemscore.Internal.Correction.Weighted>
   9.000000E+99

> <Gold.Protein.RotatedTorsions>
[ 6907 6896 6895 6894 ] final  111.08 input  -60.11 | X-H torsion
[ 7974 7965 7964 7962 ] final   94.97 input  175.53 | X-H torsion
[ 8008 7997 7996 7995 ] final  112.56 input   59.86 | X-H torsion
[ 10167 10162 10161 10158 ] final   33.85 input  -65.29 | X-H torsion
[ 10718 10713 10712 10709 ] final  127.91 input   66.30 | X-H torsion
[ 10763 10752 10751 10750 ] final -116.00 input  -60.55 | X-H torsion
[ 11005 11000 10999 10996 ] final  179.18 input  -57.11 | X-H torsion

> <Gold.Protein.ActiveResidues>
 VAL166  LYS551  ARG553  GLY616  TRP617  ASP618  TYR619  PRO620  LYS621  CYS622 
 ASP623  PHE694  ASN695  SER759  ASP760  ASP761  ALA762  ILE779  LEU786  VAL792 
 PHE793  MET794  SER795  GLU796  ALA797  LYS798  CYS799  TRP800  GLU811  SER814 

> <Gold.Protein.RotatedAtoms>
  152.4987  133.8708  159.7297 H   0  0  0  0  0  0  0  0  0  0  0  0  # atno 6907 bound_to 6896
  150.9195  133.6889  159.2842 H   0  0  0  0  0  0  0  0  0  0  0  0  # atno 6908 bound_to 6896
  151.4271  135.1009  159.9683 H   0  0  0  0  0  0  0  0  0  0  0  0  # atno 6909 bound_to 6896
  145.4584  139.2288  143.3001 H   0  0  0  0  0  0  0  0  0  0  0  0  # atno 7974 bound_to 7965
  156.2201  140.2997  155.9931 H   0  0  0  0  0  0  0  0  0  0  0  0  # atno 8008 bound_to 7997
  155.2505  140.0426  157.3003 H   0  0  0  0  0  0  0  0  0  0  0  0  # atno 8009 bound_to 7997
  154.5827  140.2379  155.8039 H   0  0  0  0  0  0  0  0  0  0  0  0  # atno 8010 bound_to 7997
  140.4369  144.1243  150.6168 H   0  0  0  0  0  0  0  0  0  0  0  0  # atno 10167 bound_to 10162
  157.5292  131.1098  150.9036 H   0  0  0  0  0  0  0  0  0  0  0  0  # atno 10718 bound_to 10713
  154.8503  135.4361  154.1751 H   0  0  0  0  0  0  0  0  0  0  0  0  # atno 10763 bound_to 10752
  153.2855  135.6957  153.7349 H   0  0  0  0  0  0  0  0  0  0  0  0  # atno 10764 bound_to 10752
  153.6536  135.3447  155.3082 H   0  0  0  0  0  0  0  0  0  0  0  0  # atno 10765 bound_to 10752
  140.4033  134.6758  157.4574 H   0  0  0  0  0  0  0  0  0  0  0  0  # atno 11005 bound_to 11000
  146.2465  140.5351  142.8912 LP  0  0  0  0  0  0  0  0  0  0  0  0  # atno 17320 bound_to 7965
  144.8018  140.6226  143.6473 LP  0  0  0  0  0  0  0  0  0  0  0  0  # atno 17321 bound_to 7965
  140.4363  143.2546  151.9531 LP  0  0  0  0  0  0  0  0  0  0  0  0  # atno 17342 bound_to 10162
  139.4787  144.5697  151.8108 LP  0  0  0  0  0  0  0  0  0  0  0  0  # atno 17343 bound_to 10162
  156.9622  130.5459  149.5286 LP  0  0  0  0  0  0  0  0  0  0  0  0  # atno 17370 bound_to 10713
  156.0409  130.5492  150.8769 LP  0  0  0  0  0  0  0  0  0  0  0  0  # atno 17371 bound_to 10713
  140.0321  134.6391  155.9093 LP  0  0  0  0  0  0  0  0  0  0  0  0  # atno 17394 bound_to 11000
  141.1849  133.6554  156.5174 LP  0  0  0  0  0  0  0  0  0  0  0  0  # atno 17395 bound_to 11000

$$$$
