AV-unprocessed.smi:2143|AV-procd|sdf|8724|dock9
  -GOLD-   2272011493D 1   1.00000     0.00000
 Structure written by MMmdl.
 44 45  0  0  0  0  0  0  0  0  1 V2000
  153.2807  141.7938  161.3197 C   0  0  0  0  0  0  0  0  0  0  0  0
  153.0540  142.1945  159.8499 C   0  0  2  0  0  0  0  0  0  0  0  0
  152.6529  143.6817  159.7790 C   0  0  0  0  0  0  0  0  0  0  0  0
  152.4483  144.1488  158.3342 C   0  0  0  0  0  0  0  0  0  0  0  0
  151.3910  143.2898  157.6354 C   0  0  0  0  0  0  0  0  0  0  0  0
  151.7661  141.7951  157.6728 C   0  0  2  0  0  0  0  0  0  0  0  0
  150.7063  141.0182  157.0320 N   0  0  0  0  0  0  0  0  0  0  0  0
  150.8425  140.2911  155.9128 C   0  0  0  0  0  0  0  0  0  0  0  0
  151.9074  140.1789  155.3040 O   0  0  0  0  0  0  0  0  0  0  0  0
  149.5815  139.5695  155.4195 C   0  0  0  0  0  0  0  0  0  0  0  0
  148.4955  140.4950  155.0725 N   0  0  0  0  0  0  0  0  0  0  0  0
  148.0931  140.6194  153.7551 C   0  0  0  0  0  0  0  0  0  0  0  0
  147.1170  141.4615  153.3509 C   0  0  0  0  0  0  0  0  0  0  0  0
  146.4133  142.3072  154.3077 C   0  0  0  0  0  0  0  0  0  0  0  0
  145.5328  143.1027  153.9786 O   0  0  0  0  0  0  0  0  0  0  0  0
  146.8337  142.1488  155.6502 N   0  0  0  0  0  0  0  0  0  0  0  0
  146.2072  142.9587  156.6745 C   0  0  0  0  0  0  0  0  0  0  0  0
  147.8652  141.2771  156.0643 C   0  0  0  0  0  0  0  0  0  0  0  0
  148.2169  141.1975  157.2442 O   0  0  0  0  0  0  0  0  0  0  0  0
  152.0110  141.2974  159.1236 C   0  0  1  0  0  0  0  0  0  0  0  0
  152.4209  139.8082  159.1369 C   0  0  0  0  0  0  0  0  0  0  0  0
  152.3448  141.7924  161.8794 H   0  0  0  0  0  0  0  0  0  0  0  0
  153.9599  142.4891  161.8138 H   0  0  0  0  0  0  0  0  0  0  0  0
  153.7291  140.8049  161.4079 H   0  0  0  0  0  0  0  0  0  0  0  0
  154.0089  142.0875  159.3325 H   0  0  0  0  0  0  0  0  0  0  0  0
  151.7358  143.8449  160.3470 H   0  0  0  0  0  0  0  0  0  0  0  0
  153.4191  144.2986  160.2496 H   0  0  0  0  0  0  0  0  0  0  0  0
  152.1446  145.1959  158.3209 H   0  0  0  0  0  0  0  0  0  0  0  0
  153.3913  144.0915  157.7890 H   0  0  0  0  0  0  0  0  0  0  0  0
  150.4237  143.4415  158.1169 H   0  0  0  0  0  0  0  0  0  0  0  0
  151.2774  143.6256  156.6040 H   0  0  0  0  0  0  0  0  0  0  0  0
  152.6933  141.6579  157.1127 H   0  0  0  0  0  0  0  0  0  0  0  0
  149.7960  141.0479  157.4681 H   0  0  0  0  0  0  0  0  0  0  0  0
  149.8522  138.9676  154.5510 H   0  0  0  0  0  0  0  0  0  0  0  0
  149.2376  138.8601  156.1748 H   0  0  0  0  0  0  0  0  0  0  0  0
  148.5876  140.0184  153.0059 H   0  0  0  0  0  0  0  0  0  0  0  0
  146.8561  141.5134  152.3041 H   0  0  0  0  0  0  0  0  0  0  0  0
  146.0310  142.3315  157.5500 H   0  0  0  0  0  0  0  0  0  0  0  0
  145.2463  143.3400  156.3290 H   0  0  0  0  0  0  0  0  0  0  0  0
  146.8964  143.7741  156.8985 H   0  0  0  0  0  0  0  0  0  0  0  0
  151.0675  141.3813  159.6657 H   0  0  0  0  0  0  0  0  0  0  0  0
  153.3869  139.6616  158.6528 H   0  0  0  0  0  0  0  0  0  0  0  0
  151.6952  139.1812  158.6192 H   0  0  0  0  0  0  0  0  0  0  0  0
  152.4909  139.4153  160.1503 H   0  0  0  0  0  0  0  0  0  0  0  0
  1  2  1  0  0  0  0
  1 22  1  0  0  0  0
  1 23  1  0  0  0  0
  1 24  1  0  0  0  0
  2 20  1  0  0  0  0
  2  3  1  0  0  0  0
  2 25  1  0  0  0  0
  3  4  1  0  0  0  0
  3 26  1  0  0  0  0
  3 27  1  0  0  0  0
  4  5  1  0  0  0  0
  4 28  1  0  0  0  0
  4 29  1  0  0  0  0
  5  6  1  0  0  0  0
  5 30  1  0  0  0  0
  5 31  1  0  0  0  0
  6  7  1  0  0  0  0
  6 20  1  0  0  0  0
  6 32  1  0  0  0  0
  7  8  1  0  0  0  0
  7 33  1  0  0  0  0
  8  9  2  0  0  0  0
  8 10  1  0  0  0  0
 10 11  1  0  0  0  0
 10 34  1  0  0  0  0
 10 35  1  0  0  0  0
 11 18  1  0  0  0  0
 11 12  1  0  0  0  0
 12 13  2  0  0  0  0
 12 36  1  0  0  0  0
 13 14  1  0  0  0  0
 13 37  1  0  0  0  0
 14 15  2  0  0  0  0
 14 16  1  0  0  0  0
 16 17  1  0  0  0  0
 16 18  1  0  0  0  0
 17 38  1  0  0  0  0
 17 39  1  0  0  0  0
 17 40  1  0  0  0  0
 18 19  2  0  0  0  0
 20 21  1  0  0  0  0
 20 41  1  0  0  0  0
 21 42  1  0  0  0  0
 21 43  1  0  0  0  0
 21 44  1  0  0  0  0
M  END
> <s_m_source_file>
AV-unprocessed.smi

> <i_m_source_file_index>
2143

> <i_lp_mmshare_version>
43012

> <i_f3d_flags>
0

> <s_epik_input>
W0NIM11bQ0BASF0xW0NIMl1bQ0gyXVtDSDJdW0NASF0oW0NASF0xW0NIM10pW05IXUMoPU8pW0NIMl1uMltjSF1bY0hdYyg9TyluKFtDSDNdKWMyPU8=

> <s_epik_cmdline>
J2VwaWtfcHl0aG9uJywgJy1waCcsICc3LjAnLCAnLXRuJywgJzgnLCAnLW1hJywgJzIwMCcsICctbWV0YWxfYmluZGluZycsICctaW1hZScsICc8aW5maWxlLm1hZT4nLCAnLW9tYWUnLCAnPG91dGZpbGUubWFlPic=

> <r_lp_tautomer_probability>
1

> <r_epik_Ionization_Penalty>
3.18445e-08

> <r_epik_Ionization_Penalty_Charging>
1.27977e-08

> <r_epik_Ionization_Penalty_Neutral>
1.90469e-08

> <r_epik_State_Penalty>
-0

> <r_epik_Charging_Adjusted_Penalty>
1.27977e-08

> <i_epik_Tot_Q>
0

> <i_epik_Tot_abs_Q>
0

> <r_epik_Metal_State_Penalty>
-0

> <b_epik_Metal_Only>
0

> <s_lp_Force_Field>
OPLS_2005

> <r_lp_Energy>
20.5946

> <b_lp_Chiralities_Consistent>
1

> <s_lp_Variant>
AV-unprocessed.smi:2143-3

> <Gold.Version>
5.8.1

> <Gold.Id.Protein>
6NUR|6NUR_protein|mol2

> <Gold.PLP.Fitness>
47.3309

> <Gold.PLP.PLP>
-41.9850

> <Gold.PLP.part.hbond>
-1.0000

> <Gold.PLP.part.metal>
0.0000

> <Gold.PLP.part.buried>
-6.7666

> <Gold.PLP.part.nonpolar>
-34.8980

> <Gold.PLP.part.repulsive>
0.3368

> <Gold.PLP.ligand.clash>
0.0000

> <Gold.PLP.ligand.torsion>
0.0550

> <Gold.PLP.Chemscore.Hbond>
0.8160

> <Gold.PLP.Chemscore.CHOScore>
1.0000

> <Gold.PLP.Chemscore.Metal>
0.0000

> <Gold.Chemscore.Hbonds>
donor molecule, donor type, donor heavy atom, donor atom, acceptor molecule, acceptor atom, score
      P1  H  7989  7998       L1     9  0.82
      L1  C    12    36       P1  7957  1.00

> <Gold.PLP.Chemscore.Internal.Correction>
0.0078

> <Gold.Rescore>
     Score         DG    S(hbond)    S(metal)    S(lipo)     H(rot)  DE(clash)    DE(int)     intcor
     16.26     -16.77       0.94        0.00     102.87       1.51       0.13       0.38       ----

> <Gold.Chemscore.Fitness>
16.2597

> <Gold.Chemscore.DG>
-16.7733

> <Gold.Chemscore.ZeroCoef>
-5.4800

> <Gold.Chemscore.Hbond>
0.9372

> <Gold.Chemscore.Metal>
0.0000

> <Gold.Chemscore.Lipo>
102.8745

> <Gold.Chemscore.Internal_Hbond>
0.0000

> <Gold.Chemscore.DEClash>
0.1299

> <Gold.Chemscore.DEInternal>
0.3836

> <Gold.Chemscore.Rot>
1.5131

> <Gold.Chemscore.Internal.Correction>
   9.000000E+99

> <Gold.Chemscore.Hbonds>
donor molecule, donor type, donor heavy atom, donor atom, acceptor molecule, acceptor atom, score
      P1  H  7989  7998       L1     9  0.56

> <Gold.Chemscore.Hbond.Weighted>
-3.1304

> <Gold.Chemscore.Metal.Weighted>
-0.0000

> <Gold.Chemscore.Lipo.Weighted>
-12.0363

> <Gold.Chemscore.Internal_Hbond.Weighted>
0.0000

> <Gold.Chemscore.DEClash.Weighted>
0.1299

> <Gold.Chemscore.DEInternal.Weighted>
0.3836

> <Gold.Chemscore.Rot.Weighted>
3.8734

> <Gold.Chemscore.Internal.Correction.Weighted>
   9.000000E+99

> <Gold.Protein.RotatedTorsions>
[ 6907 6896 6895 6894 ] final  131.52 input  -60.11 | X-H torsion
[ 7974 7965 7964 7962 ] final   65.84 input  175.53 | X-H torsion
[ 8008 7997 7996 7995 ] final -141.13 input   59.86 | X-H torsion
[ 10167 10162 10161 10158 ] final  148.37 input  -65.29 | X-H torsion
[ 10718 10713 10712 10709 ] final   24.33 input   66.30 | X-H torsion
[ 10763 10752 10751 10750 ] final  126.79 input  -60.55 | X-H torsion
[ 11005 11000 10999 10996 ] final -168.23 input  -57.11 | X-H torsion

> <Gold.Protein.ActiveResidues>
 VAL166  LYS551  ARG553  GLY616  TRP617  ASP618  TYR619  PRO620  LYS621  CYS622 
 ASP623  PHE694  ASN695  SER759  ASP760  ASP761  ALA762  ILE779  LEU786  VAL792 
 PHE793  MET794  SER795  GLU796  ALA797  LYS798  CYS799  TRP800  GLU811  SER814 

> <Gold.Protein.RotatedAtoms>
  152.3417  133.6075  159.5881 H   0  0  0  0  0  0  0  0  0  0  0  0  # atno 6907 bound_to 6896
  150.7483  133.9711  159.3555 H   0  0  0  0  0  0  0  0  0  0  0  0  # atno 6908 bound_to 6896
  151.7574  135.0819  160.0391 H   0  0  0  0  0  0  0  0  0  0  0  0  # atno 6909 bound_to 6896
  145.8337  139.3154  143.0972 H   0  0  0  0  0  0  0  0  0  0  0  0  # atno 7974 bound_to 7965
  155.4727  140.0554  157.2977 H   0  0  0  0  0  0  0  0  0  0  0  0  # atno 8008 bound_to 7997
  154.4692  140.2032  155.9993 H   0  0  0  0  0  0  0  0  0  0  0  0  # atno 8009 bound_to 7997
  156.1026  140.3216  155.7967 H   0  0  0  0  0  0  0  0  0  0  0  0  # atno 8010 bound_to 7997
  139.4876  144.5685  151.7100 H   0  0  0  0  0  0  0  0  0  0  0  0  # atno 10167 bound_to 10162
  157.1783  130.6791  149.6103 H   0  0  0  0  0  0  0  0  0  0  0  0  # atno 10718 bound_to 10713
  153.6990  135.3286  155.3220 H   0  0  0  0  0  0  0  0  0  0  0  0  # atno 10763 bound_to 10752
  154.8418  135.4450  154.1430 H   0  0  0  0  0  0  0  0  0  0  0  0  # atno 10764 bound_to 10752
  153.2492  135.6979  153.7776 H   0  0  0  0  0  0  0  0  0  0  0  0  # atno 10765 bound_to 10752
  140.5443  134.5491  157.5107 H   0  0  0  0  0  0  0  0  0  0  0  0  # atno 11005 bound_to 11000
  145.9542  140.8885  143.0243 LP  0  0  0  0  0  0  0  0  0  0  0  0  # atno 17320 bound_to 7965
  144.6738  140.1722  143.7413 LP  0  0  0  0  0  0  0  0  0  0  0  0  # atno 17321 bound_to 7965
  140.5267  144.0794  150.6040 LP  0  0  0  0  0  0  0  0  0  0  0  0  # atno 17342 bound_to 10162
  140.3770  143.2823  152.0213 LP  0  0  0  0  0  0  0  0  0  0  0  0  # atno 17343 bound_to 10162
  155.9728  130.4655  150.6257 LP  0  0  0  0  0  0  0  0  0  0  0  0  # atno 17370 bound_to 10713
  157.3977  131.0805  151.1336 LP  0  0  0  0  0  0  0  0  0  0  0  0  # atno 17371 bound_to 10713
  139.9487  134.7655  156.0499 LP  0  0  0  0  0  0  0  0  0  0  0  0  # atno 17394 bound_to 11000
  141.1209  133.6613  156.3212 LP  0  0  0  0  0  0  0  0  0  0  0  0  # atno 17395 bound_to 11000

$$$$
