AV-unprocessed.smi:3260|AV-procd|sdf|12476|dock5
  -GOLD-   2272018373D 1   1.00000     0.00000
 Structure written by MMmdl.
 38 39  0  0  0  0  0  0  0  0  1 V2000
  154.8487  140.5042  161.0113 C   0  0  0  0  0  0  0  0  0  0  0  0
  153.9292  141.6202  161.0697 N   0  0  0  0  0  0  0  0  0  0  0  0
  153.1389  142.1359  160.0660 C   0  0  0  0  0  0  0  0  0  0  0  0
  152.4508  143.1950  160.5879 C   0  0  0  0  0  0  0  0  0  0  0  0
  151.4736  144.1096  159.8947 C   0  0  0  0  0  0  0  0  0  0  0  0
  151.9172  144.5047  158.4692 C   0  0  0  0  0  0  0  0  0  0  0  0
  151.0712  143.9421  157.4196 N   0  0  0  0  0  0  0  0  0  0  0  0
  151.0206  142.6485  157.0749 C   0  0  0  0  0  0  0  0  0  0  0  0
  151.6397  141.7540  157.6511 O   0  0  0  0  0  0  0  0  0  0  0  0
  150.2518  142.4556  155.9951 N   0  0  0  0  0  0  0  0  0  0  0  0
  150.1290  141.1924  155.2770 C   0  0  0  0  0  0  0  0  0  0  0  0
  148.6648  140.8923  154.9093 C   0  0  2  0  0  0  0  0  0  0  0  0
  147.9675  141.9957  154.1154 C   0  0  0  0  0  0  0  0  0  0  0  0
  146.5139  141.6754  154.3760 C   0  0  0  0  0  0  0  0  0  0  0  0
  146.5427  141.2079  155.8309 C   0  0  0  0  0  0  0  0  0  0  0  0
  147.8704  140.7494  156.0813 O   0  0  0  0  0  0  0  0  0  0  0  0
  152.8903  143.2397  161.9414 C   0  0  0  0  0  0  0  0  0  0  0  0
  153.7768  142.2989  162.2255 N   0  0  0  0  0  0  0  0  0  0  0  0
  154.7316  139.9734  160.0663 H   0  0  0  0  0  0  0  0  0  0  0  0
  154.6491  139.8144  161.8319 H   0  0  0  0  0  0  0  0  0  0  0  0
  155.8735  140.8684  161.0890 H   0  0  0  0  0  0  0  0  0  0  0  0
  153.1394  141.7197  159.0691 H   0  0  0  0  0  0  0  0  0  0  0  0
  150.4937  143.6342  159.8385 H   0  0  0  0  0  0  0  0  0  0  0  0
  151.3157  145.0166  160.4787 H   0  0  0  0  0  0  0  0  0  0  0  0
  151.9700  145.5899  158.3707 H   0  0  0  0  0  0  0  0  0  0  0  0
  152.9258  144.1295  158.2935 H   0  0  0  0  0  0  0  0  0  0  0  0
  150.5268  144.5974  156.8782 H   0  0  0  0  0  0  0  0  0  0  0  0
  149.7798  143.2539  155.5964 H   0  0  0  0  0  0  0  0  0  0  0  0
  150.7506  141.2063  154.3804 H   0  0  0  0  0  0  0  0  0  0  0  0
  150.5222  140.4002  155.9144 H   0  0  0  0  0  0  0  0  0  0  0  0
  148.6007  139.9558  154.3522 H   0  0  0  0  0  0  0  0  0  0  0  0
  148.2140  142.9776  154.5217 H   0  0  0  0  0  0  0  0  0  0  0  0
  148.2249  141.9880  153.0565 H   0  0  0  0  0  0  0  0  0  0  0  0
  145.8506  142.5250  154.2123 H   0  0  0  0  0  0  0  0  0  0  0  0
  146.1919  140.8604  153.7261 H   0  0  0  0  0  0  0  0  0  0  0  0
  146.3301  142.0373  156.5064 H   0  0  0  0  0  0  0  0  0  0  0  0
  145.8118  140.4217  156.0208 H   0  0  0  0  0  0  0  0  0  0  0  0
  152.5986  143.9301  162.7191 H   0  0  0  0  0  0  0  0  0  0  0  0
  1  2  1  0  0  0  0
  1 19  1  0  0  0  0
  1 20  1  0  0  0  0
  1 21  1  0  0  0  0
  2 18  1  0  0  0  0
  2  3  1  0  0  0  0
  3  4  2  0  0  0  0
  3 22  1  0  0  0  0
  4  5  1  0  0  0  0
  4 17  1  0  0  0  0
  5  6  1  0  0  0  0
  5 23  1  0  0  0  0
  5 24  1  0  0  0  0
  6  7  1  0  0  0  0
  6 25  1  0  0  0  0
  6 26  1  0  0  0  0
  7  8  1  0  0  0  0
  7 27  1  0  0  0  0
  8  9  2  0  0  0  0
  8 10  1  0  0  0  0
 10 11  1  0  0  0  0
 10 28  1  0  0  0  0
 11 12  1  0  0  0  0
 11 29  1  0  0  0  0
 11 30  1  0  0  0  0
 12 16  1  0  0  0  0
 12 13  1  0  0  0  0
 12 31  1  0  0  0  0
 13 14  1  0  0  0  0
 13 32  1  0  0  0  0
 13 33  1  0  0  0  0
 14 15  1  0  0  0  0
 14 34  1  0  0  0  0
 14 35  1  0  0  0  0
 15 16  1  0  0  0  0
 15 36  1  0  0  0  0
 15 37  1  0  0  0  0
 17 18  2  0  0  0  0
 17 38  1  0  0  0  0
M  END
> <s_m_source_file>
AV-unprocessed.smi

> <i_m_source_file_index>
3260

> <i_lp_mmshare_version>
43012

> <i_f3d_flags>
0

> <s_epik_input>
W0NIM11uMVtjSF1jKFtjSF1uMSlbQ0gyXVtDSDJdW05IXUMoPU8pW05IXVtDSDJdW0NAQEhdMltDSDJdW0NIMl1bQ0gyXU8y

> <s_epik_cmdline>
J2VwaWtfcHl0aG9uJywgJy1waCcsICc3LjAnLCAnLXRuJywgJzgnLCAnLW1hJywgJzIwMCcsICctbWV0YWxfYmluZGluZycsICctaW1hZScsICc8aW5maWxlLm1hZT4nLCAnLW9tYWUnLCAnPG91dGZpbGUubWFlPic=

> <r_lp_tautomer_probability>
1

> <r_epik_Ionization_Penalty>
0.000550106

> <r_epik_Ionization_Penalty_Charging>
0

> <r_epik_Ionization_Penalty_Neutral>
0.000550106

> <r_epik_State_Penalty>
-0

> <r_epik_Charging_Adjusted_Penalty>
0

> <i_epik_Tot_Q>
0

> <i_epik_Tot_abs_Q>
0

> <r_epik_Metal_State_Penalty>
-0

> <b_epik_Metal_Only>
0

> <s_lp_Force_Field>
OPLS_2005

> <r_lp_Energy>
10.4749

> <b_lp_Chiralities_Consistent>
1

> <s_lp_Variant>
AV-unprocessed.smi:3260-1

> <Gold.Version>
5.8.1

> <Gold.Id.Protein>
6NUR|6NUR_protein|mol2

> <Gold.PLP.Fitness>
48.8865

> <Gold.PLP.PLP>
-44.8223

> <Gold.PLP.part.hbond>
-2.1794

> <Gold.PLP.part.metal>
0.0000

> <Gold.PLP.part.buried>
-4.7246

> <Gold.PLP.part.nonpolar>
-36.9548

> <Gold.PLP.part.repulsive>
0.2542

> <Gold.PLP.ligand.clash>
0.0000

> <Gold.PLP.ligand.torsion>
0.7832

> <Gold.PLP.Chemscore.Hbond>
1.8640

> <Gold.PLP.Chemscore.CHOScore>
0.0000

> <Gold.PLP.Chemscore.Metal>
0.0000

> <Gold.Chemscore.Hbonds>
donor molecule, donor type, donor heavy atom, donor atom, acceptor molecule, acceptor atom, score
      L1  H     7    27       P1  8028  0.88
      L1  H    10    28       P1  8028  1.00

> <Gold.PLP.Chemscore.Internal.Correction>
0.0386

> <Gold.Rescore>
     Score         DG    S(hbond)    S(metal)    S(lipo)     H(rot)  DE(clash)    DE(int)     intcor
     16.36     -18.24       1.82        0.00      97.68       1.85       0.07       1.82       ----

> <Gold.Chemscore.Fitness>
16.3579

> <Gold.Chemscore.DG>
-18.2391

> <Gold.Chemscore.ZeroCoef>
-5.4800

> <Gold.Chemscore.Hbond>
1.8185

> <Gold.Chemscore.Metal>
0.0000

> <Gold.Chemscore.Lipo>
97.6805

> <Gold.Chemscore.Internal_Hbond>
0.0000

> <Gold.Chemscore.DEClash>
0.0651

> <Gold.Chemscore.DEInternal>
1.8160

> <Gold.Chemscore.Rot>
1.8528

> <Gold.Chemscore.Internal.Correction>
   9.000000E+99

> <Gold.Chemscore.Hbonds>
donor molecule, donor type, donor heavy atom, donor atom, acceptor molecule, acceptor atom, score
      L1  H     7    27       P1  8028  0.70
      L1  H    10    28       P1  8028  0.98

> <Gold.Chemscore.Hbond.Weighted>
-6.0737

> <Gold.Chemscore.Metal.Weighted>
-0.0000

> <Gold.Chemscore.Lipo.Weighted>
-11.4286

> <Gold.Chemscore.Internal_Hbond.Weighted>
0.0000

> <Gold.Chemscore.DEClash.Weighted>
0.0651

> <Gold.Chemscore.DEInternal.Weighted>
1.8160

> <Gold.Chemscore.Rot.Weighted>
4.7433

> <Gold.Chemscore.Internal.Correction.Weighted>
   9.000000E+99

> <Gold.Protein.RotatedTorsions>
[ 6907 6896 6895 6894 ] final  108.55 input  -60.11 | X-H torsion
[ 7974 7965 7964 7962 ] final  -50.32 input  175.53 | X-H torsion
[ 8008 7997 7996 7995 ] final  -34.36 input   59.86 | X-H torsion
[ 10167 10162 10161 10158 ] final -129.45 input  -65.29 | X-H torsion
[ 10718 10713 10712 10709 ] final  147.52 input   66.30 | X-H torsion
[ 10763 10752 10751 10750 ] final -122.35 input  -60.55 | X-H torsion
[ 11005 11000 10999 10996 ] final -173.45 input  -57.11 | X-H torsion

> <Gold.Protein.ActiveResidues>
 VAL166  LYS551  ARG553  GLY616  TRP617  ASP618  TYR619  PRO620  LYS621  CYS622 
 ASP623  PHE694  ASN695  SER759  ASP760  ASP761  ALA762  ILE779  LEU786  VAL792 
 PHE793  MET794  SER795  GLU796  ALA797  LYS798  CYS799  TRP800  GLU811  SER814 

> <Gold.Protein.RotatedAtoms>
  152.5107  133.9072  159.7469 H   0  0  0  0  0  0  0  0  0  0  0  0  # atno 6907 bound_to 6896
  150.9474  133.6579  159.2785 H   0  0  0  0  0  0  0  0  0  0  0  0  # atno 6908 bound_to 6896
  151.3869  135.0954  159.9566 H   0  0  0  0  0  0  0  0  0  0  0  0  # atno 6909 bound_to 6896
  145.9311  140.7748  142.9599 H   0  0  0  0  0  0  0  0  0  0  0  0  # atno 7974 bound_to 7965
  154.4123  140.1686  156.2036 H   0  0  0  0  0  0  0  0  0  0  0  0  # atno 8008 bound_to 7997
  155.9503  140.3401  155.6378 H   0  0  0  0  0  0  0  0  0  0  0  0  # atno 8009 bound_to 7997
  155.6878  140.0730  157.2450 H   0  0  0  0  0  0  0  0  0  0  0  0  # atno 8010 bound_to 7997
  139.9397  143.6177  152.2507 H   0  0  0  0  0  0  0  0  0  0  0  0  # atno 10167 bound_to 10162
  157.3200  131.0902  151.1248 H   0  0  0  0  0  0  0  0  0  0  0  0  # atno 10718 bound_to 10713
  154.8687  135.4136  154.2768 H   0  0  0  0  0  0  0  0  0  0  0  0  # atno 10763 bound_to 10752
  153.3668  135.7006  153.6674 H   0  0  0  0  0  0  0  0  0  0  0  0  # atno 10764 bound_to 10752
  153.5553  135.3621  155.2748 H   0  0  0  0  0  0  0  0  0  0  0  0  # atno 10765 bound_to 10752
  140.4856  134.6034  157.4936 H   0  0  0  0  0  0  0  0  0  0  0  0  # atno 11005 bound_to 11000
  144.6765  140.2128  143.7375 LP  0  0  0  0  0  0  0  0  0  0  0  0  # atno 17320 bound_to 7965
  145.8425  139.2136  143.1819 LP  0  0  0  0  0  0  0  0  0  0  0  0  # atno 17321 bound_to 7965
  139.6715  144.7660  151.1775 LP  0  0  0  0  0  0  0  0  0  0  0  0  # atno 17342 bound_to 10162
  140.7614  143.5859  150.8847 LP  0  0  0  0  0  0  0  0  0  0  0  0  # atno 17343 bound_to 10162
  157.2537  130.6626  149.5943 LP  0  0  0  0  0  0  0  0  0  0  0  0  # atno 17370 bound_to 10713
  155.9685  130.4530  150.5796 LP  0  0  0  0  0  0  0  0  0  0  0  0  # atno 17371 bound_to 10713
  139.9800  134.7153  155.9878 LP  0  0  0  0  0  0  0  0  0  0  0  0  # atno 17394 bound_to 11000
  141.1509  133.6548  156.4012 LP  0  0  0  0  0  0  0  0  0  0  0  0  # atno 17395 bound_to 11000

$$$$
