AV-unprocessed.smi:1817|AV-procd|sdf|7371|dock9
  -GOLD-   22720 9 33D 1   1.00000     0.00000
 Structure written by MMmdl.
 43 44  0  0  0  0  0  0  0  0  2 V2000
  145.5577  130.5636  152.4459 C   0  0  0  0  0  0  0  0  0  0  0  0
  146.1684  131.5676  153.4341 C   0  0  0  0  0  0  0  0  0  0  0  0
  147.2715  132.3236  152.8363 N   0  0  0  0  0  0  0  0  0  0  0  0
  146.9044  133.1681  151.6981 C   0  0  0  0  0  0  0  0  0  0  0  0
  146.0311  134.3712  152.1119 C   0  0  0  0  0  0  0  0  0  0  0  0
  146.7061  135.2129  153.1406 N   0  3  0  0  0  0  0  0  0  0  0  0
  145.9353  136.4276  153.5729 C   0  0  1  0  0  0  0  0  0  0  0  0
  146.7538  137.2607  154.5884 C   0  0  0  0  0  0  0  0  0  0  0  0
  145.4786  137.3157  152.3803 C   0  0  0  0  0  0  0  0  0  0  0  0
  144.2400  138.0457  152.6438 N   0  0  0  0  0  0  0  0  0  0  0  0
  143.1090  137.5143  153.1313 C   0  0  0  0  0  0  0  0  0  0  0  0
  142.9768  136.3175  153.3855 O   0  0  0  0  0  0  0  0  0  0  0  0
  142.1628  138.4532  153.2931 N   0  0  0  0  0  0  0  0  0  0  0  0
  140.8383  138.2846  153.7686 C   0  0  0  0  0  0  0  0  0  0  0  0
  140.0490  139.3636  153.8220 N   0  0  0  0  0  0  0  0  0  0  0  0
  138.7817  139.0583  154.3031 N   0  0  0  0  0  0  0  0  0  0  0  0
  138.6646  137.7589  154.5926 C   0  0  0  0  0  0  0  0  0  0  0  0
  140.0910  136.7776  154.3064 S   0  0  0  0  0  0  0  0  0  0  0  0
  147.1187  134.3489  154.2828 C   0  0  0  0  0  0  0  0  0  0  0  0
  147.9751  133.1556  153.8109 C   0  0  0  0  0  0  0  0  0  0  0  0
  144.8358  129.9227  152.9526 H   0  0  0  0  0  0  0  0  0  0  0  0
  146.3224  129.9183  152.0126 H   0  0  0  0  0  0  0  0  0  0  0  0
  145.0300  131.0595  151.6318 H   0  0  0  0  0  0  0  0  0  0  0  0
  145.3939  132.2250  153.8276 H   0  0  0  0  0  0  0  0  0  0  0  0
  146.5585  131.0068  154.2844 H   0  0  0  0  0  0  0  0  0  0  0  0
  147.8210  133.5325  151.2319 H   0  0  0  0  0  0  0  0  0  0  0  0
  146.3988  132.5787  150.9340 H   0  0  0  0  0  0  0  0  0  0  0  0
  145.8595  134.9473  151.2038 H   0  0  0  0  0  0  0  0  0  0  0  0
  145.0544  134.0458  152.4722 H   0  0  0  0  0  0  0  0  0  0  0  0
  145.0311  136.0779  154.0743 H   0  0  0  0  0  0  0  0  0  0  0  0
  146.2026  138.1336  154.9358 H   0  0  0  0  0  0  0  0  0  0  0  0
  147.6851  137.6157  154.1459 H   0  0  0  0  0  0  0  0  0  0  0  0
  147.0026  136.7075  155.4915 H   0  0  0  0  0  0  0  0  0  0  0  0
  146.2793  137.9959  152.0845 H   0  0  0  0  0  0  0  0  0  0  0  0
  145.2539  136.7039  151.5076 H   0  0  0  0  0  0  0  0  0  0  0  0
  144.2534  139.0391  152.4634 H   0  0  0  0  0  0  0  0  0  0  0  0
  142.4163  139.3991  153.0483 H   0  0  0  0  0  0  0  0  0  0  0  0
  137.7310  137.3760  154.9773 H   0  0  0  0  0  0  0  0  0  0  0  0
  147.7220  134.9083  154.9939 H   0  0  0  0  0  0  0  0  0  0  0  0
  146.2393  134.0066  154.8296 H   0  0  0  0  0  0  0  0  0  0  0  0
  148.2749  132.5451  154.6635 H   0  0  0  0  0  0  0  0  0  0  0  0
  148.8977  133.5226  153.3590 H   0  0  0  0  0  0  0  0  0  0  0  0
  147.5543  135.5503  152.7083 H   0  0  0  0  0  0  0  0  0  0  0  0
  1  2  1  0  0  0  0
  1 21  1  0  0  0  0
  1 22  1  0  0  0  0
  1 23  1  0  0  0  0
  2  3  1  0  0  0  0
  2 24  1  0  0  0  0
  2 25  1  0  0  0  0
  3 20  1  0  0  0  0
  3  4  1  0  0  0  0
  4  5  1  0  0  0  0
  4 26  1  0  0  0  0
  4 27  1  0  0  0  0
  5  6  1  0  0  0  0
  5 28  1  0  0  0  0
  5 29  1  0  0  0  0
  6  7  1  0  0  0  0
  6 19  1  0  0  0  0
  6 43  1  0  0  0  0
  7  8  1  0  0  0  0
  7  9  1  0  0  0  0
  7 30  1  0  0  0  0
  8 31  1  0  0  0  0
  8 32  1  0  0  0  0
  8 33  1  0  0  0  0
  9 10  1  0  0  0  0
  9 34  1  0  0  0  0
  9 35  1  0  0  0  0
 10 11  1  0  0  0  0
 10 36  1  0  0  0  0
 11 12  2  0  0  0  0
 11 13  1  0  0  0  0
 13 14  1  0  0  0  0
 13 37  1  0  0  0  0
 14 18  1  0  0  0  0
 14 15  2  0  0  0  0
 15 16  1  0  0  0  0
 16 17  2  0  0  0  0
 17 18  1  0  0  0  0
 17 38  1  0  0  0  0
 19 20  1  0  0  0  0
 19 39  1  0  0  0  0
 19 40  1  0  0  0  0
 20 41  1  0  0  0  0
 20 42  1  0  0  0  0
M  CHG  1   6   1
M  END
> <s_m_source_file>
AV-unprocessed.smi

> <i_m_source_file_index>
1817

> <i_lp_mmshare_version>
43012

> <i_f3d_flags>
0

> <s_epik_input>
W0NIM11bQ0gyXU4xW0NIMl1bQ0gyXU4oW0NIMl1bQ0gyXTEpW0NASF0oW0NIM10pW0NIMl1bTkhdQyg9TylbTkhdYzJubltjSF1zMg==

> <s_epik_cmdline>
J2VwaWtfcHl0aG9uJywgJy1waCcsICc3LjAnLCAnLXRuJywgJzgnLCAnLW1hJywgJzIwMCcsICctbWV0YWxfYmluZGluZycsICctaW1hZScsICc8aW5maWxlLm1hZT4nLCAnLW9tYWUnLCAnPG91dGZpbGUubWFlPic=

> <r_epik_Ionization_Penalty>
0.153808

> <r_epik_Ionization_Penalty_Charging>
0.148467

> <r_epik_Ionization_Penalty_Neutral>
0.00534086

> <r_epik_State_Penalty>
0.974087

> <r_epik_Charging_Adjusted_Penalty>
1.12255

> <i_epik_Tot_Q>
1

> <i_epik_Tot_abs_Q>
1

> <r_epik_Metal_State_Penalty>
1.30894

> <b_epik_Metal_Only>
0

> <s_lp_Force_Field>
OPLS_2005

> <r_lp_Energy>
21.4774

> <b_lp_Chiralities_Consistent>
1

> <s_lp_Variant>
AV-unprocessed.smi:1817-4

> <Gold.Version>
5.8.1

> <Gold.Id.Protein>
6NUR|6NUR_protein|mol2

> <Gold.PLP.Fitness>
42.3802

> <Gold.PLP.PLP>
-31.2106

> <Gold.PLP.part.hbond>
-4.0000

> <Gold.PLP.part.metal>
0.0000

> <Gold.PLP.part.buried>
-6.2331

> <Gold.PLP.part.nonpolar>
-22.5961

> <Gold.PLP.part.repulsive>
1.1817

> <Gold.PLP.ligand.clash>
0.0000

> <Gold.PLP.ligand.torsion>
0.4086

> <Gold.PLP.Chemscore.Hbond>
3.9760

> <Gold.PLP.Chemscore.CHOScore>
0.0000

> <Gold.PLP.Chemscore.Metal>
0.0000

> <Gold.Chemscore.Hbonds>
donor molecule, donor type, donor heavy atom, donor atom, acceptor molecule, acceptor atom, score
      L1  H     6    43       P1  7948  2.00
      L1  H    10    36       P1 10175  0.98
      L1  H    13    37       P1 10175  0.96

> <Gold.PLP.Chemscore.Internal.Correction>
0.0587

> <Gold.Rescore>
     Score         DG    S(hbond)    S(metal)    S(lipo)     H(rot)  DE(clash)    DE(int)     intcor
     14.80     -17.13       2.93        0.00      58.01       1.92       0.06       2.27       ----

> <Gold.Chemscore.Fitness>
14.7992

> <Gold.Chemscore.DG>
-17.1297

> <Gold.Chemscore.ZeroCoef>
-5.4800

> <Gold.Chemscore.Hbond>
2.9271

> <Gold.Chemscore.Metal>
0.0000

> <Gold.Chemscore.Lipo>
58.0121

> <Gold.Chemscore.Internal_Hbond>
0.0000

> <Gold.Chemscore.DEClash>
0.0559

> <Gold.Chemscore.DEInternal>
2.2746

> <Gold.Chemscore.Rot>
1.9196

> <Gold.Chemscore.Internal.Correction>
   9.000000E+99

> <Gold.Chemscore.Hbonds>
donor molecule, donor type, donor heavy atom, donor atom, acceptor molecule, acceptor atom, score
      L1  H     6    43       P1  7948  1.00
      L1  H    10    36       P1 10175  0.90
      L1  H    13    37       P1 10175  0.91

> <Gold.Chemscore.Hbond.Weighted>
-9.7764

> <Gold.Chemscore.Metal.Weighted>
-0.0000

> <Gold.Chemscore.Lipo.Weighted>
-6.7874

> <Gold.Chemscore.Internal_Hbond.Weighted>
0.0000

> <Gold.Chemscore.DEClash.Weighted>
0.0559

> <Gold.Chemscore.DEInternal.Weighted>
2.2746

> <Gold.Chemscore.Rot.Weighted>
4.9141

> <Gold.Chemscore.Internal.Correction.Weighted>
   9.000000E+99

> <Gold.Protein.RotatedTorsions>
[ 6907 6896 6895 6894 ] final  176.20 input  -60.11 | X-H torsion
[ 7974 7965 7964 7962 ] final   -3.73 input  175.53 | X-H torsion
[ 8008 7997 7996 7995 ] final -116.10 input   59.86 | X-H torsion
[ 10167 10162 10161 10158 ] final   81.81 input  -65.29 | X-H torsion
[ 10718 10713 10712 10709 ] final  -30.67 input   66.30 | X-H torsion
[ 10763 10752 10751 10750 ] final -101.31 input  -60.55 | X-H torsion
[ 11005 11000 10999 10996 ] final  -63.73 input  -57.11 | X-H torsion

> <Gold.Protein.ActiveResidues>
 VAL166  LYS551  ARG553  GLY616  TRP617  ASP618  TYR619  PRO620  LYS621  CYS622 
 ASP623  PHE694  ASN695  SER759  ASP760  ASP761  ALA762  ILE779  LEU786  VAL792 
 PHE793  MET794  SER795  GLU796  ALA797  LYS798  CYS799  TRP800  GLU811  SER814 

> <Gold.Protein.RotatedAtoms>
  151.7239  133.3315  159.3322 H   0  0  0  0  0  0  0  0  0  0  0  0  # atno 6907 bound_to 6896
  150.7641  134.6423  159.6253 H   0  0  0  0  0  0  0  0  0  0  0  0  # atno 6908 bound_to 6896
  152.3634  134.6841  160.0251 H   0  0  0  0  0  0  0  0  0  0  0  0  # atno 6909 bound_to 6896
  146.2385  140.1765  142.8332 H   0  0  0  0  0  0  0  0  0  0  0  0  # atno 7974 bound_to 7965
  155.0625  140.0393  157.2581 H   0  0  0  0  0  0  0  0  0  0  0  0  # atno 8008 bound_to 7997
  154.7048  140.2680  155.6661 H   0  0  0  0  0  0  0  0  0  0  0  0  # atno 8009 bound_to 7997
  156.2771  140.2733  156.1670 H   0  0  0  0  0  0  0  0  0  0  0  0  # atno 8010 bound_to 7997
  139.9353  144.6125  150.8305 H   0  0  0  0  0  0  0  0  0  0  0  0  # atno 10167 bound_to 10162
  156.3968  130.4383  149.7352 H   0  0  0  0  0  0  0  0  0  0  0  0  # atno 10718 bound_to 10713
  154.7648  135.4902  153.9532 H   0  0  0  0  0  0  0  0  0  0  0  0  # atno 10763 bound_to 10752
  153.1294  135.6749  153.9211 H   0  0  0  0  0  0  0  0  0  0  0  0  # atno 10764 bound_to 10752
  153.8919  135.3120  155.3426 H   0  0  0  0  0  0  0  0  0  0  0  0  # atno 10765 bound_to 10752
  141.1402  133.6656  156.5725 H   0  0  0  0  0  0  0  0  0  0  0  0  # atno 11005 bound_to 11000
  144.9969  140.8597  143.5305 LP  0  0  0  0  0  0  0  0  0  0  0  0  # atno 17320 bound_to 7965
  145.1778  139.2368  143.5308 LP  0  0  0  0  0  0  0  0  0  0  0  0  # atno 17321 bound_to 7965
  140.7626  143.3202  151.2639 LP  0  0  0  0  0  0  0  0  0  0  0  0  # atno 17342 bound_to 10162
  139.6749  143.9956  152.2775 LP  0  0  0  0  0  0  0  0  0  0  0  0  # atno 17343 bound_to 10162
  156.4384  130.7849  151.2870 LP  0  0  0  0  0  0  0  0  0  0  0  0  # atno 17370 bound_to 10713
  157.7502  131.0132  150.3416 LP  0  0  0  0  0  0  0  0  0  0  0  0  # atno 17371 bound_to 10713
  140.3901  134.7447  157.4716 LP  0  0  0  0  0  0  0  0  0  0  0  0  # atno 17394 bound_to 11000
  140.0572  134.6046  155.8791 LP  0  0  0  0  0  0  0  0  0  0  0  0  # atno 17395 bound_to 11000

$$$$
