AV-unprocessed.smi:4|AV-procd|sdf|35|dock8
  -GOLD-   2262015153D 1   1.00000     0.00000
 Structure written by MMmdl.
 43 44  0  0  0  0  0  0  0  0  3 V2000
  149.7382  139.7003  156.1195 C   0  0  0  0  0  0  0  0  0  0  0  0
  150.7044  138.6982  155.4323 C   0  0  0  0  0  0  0  0  0  0  0  0
  150.3332  138.7251  153.9286 C   0  0  0  0  0  0  0  0  0  0  0  0
  152.1229  139.2839  155.6516 C   0  0  0  0  0  0  0  0  0  0  0  0
  150.6205  137.2906  155.9710 N   0  0  0  0  0  0  0  0  0  0  0  0
  150.3153  136.2145  155.0973 C   0  0  0  0  0  0  0  0  0  0  0  0
  150.2115  134.9310  155.4986 C   0  0  0  0  0  0  0  0  0  0  0  0
  149.8704  133.8002  154.5401 C   0  0  0  0  0  0  0  0  0  0  0  0
  148.6419  134.1091  153.7811 N   0  3  0  0  0  0  0  0  0  0  0  0
  148.2884  133.0940  152.7688 C   0  0  0  0  0  0  0  0  0  0  0  0
  146.9113  133.3634  152.1574 C   0  0  0  0  0  0  0  0  0  0  0  0
  146.8856  134.7453  151.8561 O   0  0  0  0  0  0  0  0  0  0  0  0
  146.4392  132.4425  151.0174 C   0  0  0  0  0  0  0  0  0  0  0  0
  145.0544  132.3782  151.6626 C   0  0  0  0  0  0  0  0  0  0  0  0
  145.6887  132.8828  152.9592 C   0  0  0  0  0  0  0  0  0  0  0  0
  150.4197  134.6508  156.9167 C   0  0  0  0  0  0  0  0  0  0  0  0
  150.3245  133.4959  157.3311 O   0  0  0  0  0  0  0  0  0  0  0  0
  150.7235  135.6972  157.7291 N   0  5  0  0  0  0  0  0  0  0  0  0
  150.8335  136.9906  157.2996 C   0  0  0  0  0  0  0  0  0  0  0  0
  151.1214  137.8832  158.0943 O   0  0  0  0  0  0  0  0  0  0  0  0
  149.8472  140.7028  155.7031 H   0  0  0  0  0  0  0  0  0  0  0  0
  149.9350  139.7895  157.1889 H   0  0  0  0  0  0  0  0  0  0  0  0
  148.6922  139.4253  155.9779 H   0  0  0  0  0  0  0  0  0  0  0  0
  149.3539  138.2768  153.7578 H   0  0  0  0  0  0  0  0  0  0  0  0
  151.0484  138.1990  153.2985 H   0  0  0  0  0  0  0  0  0  0  0  0
  150.2920  139.7472  153.5509 H   0  0  0  0  0  0  0  0  0  0  0  0
  152.1620  140.3386  155.3773 H   0  0  0  0  0  0  0  0  0  0  0  0
  152.8914  138.7933  155.0570 H   0  0  0  0  0  0  0  0  0  0  0  0
  152.4204  139.2107  156.6982 H   0  0  0  0  0  0  0  0  0  0  0  0
  150.1603  136.4492  154.0602 H   0  0  0  0  0  0  0  0  0  0  0  0
  150.7043  133.6453  153.8540 H   0  0  0  0  0  0  0  0  0  0  0  0
  149.7304  132.8701  155.0925 H   0  0  0  0  0  0  0  0  0  0  0  0
  147.8706  134.2034  154.4264 H   0  0  0  0  0  0  0  0  0  0  0  0
  149.0524  133.1051  151.9901 H   0  0  0  0  0  0  0  0  0  0  0  0
  148.3247  132.1030  153.2241 H   0  0  0  0  0  0  0  0  0  0  0  0
  147.7699  135.0663  151.9518 H   0  0  0  0  0  0  0  0  0  0  0  0
  146.4492  132.8980  150.0265 H   0  0  0  0  0  0  0  0  0  0  0  0
  146.9459  131.4759  151.0140 H   0  0  0  0  0  0  0  0  0  0  0  0
  144.3533  133.0930  151.2296 H   0  0  0  0  0  0  0  0  0  0  0  0
  144.6274  131.3767  151.7248 H   0  0  0  0  0  0  0  0  0  0  0  0
  145.9237  132.0736  153.6523 H   0  0  0  0  0  0  0  0  0  0  0  0
  145.1236  133.6743  153.4532 H   0  0  0  0  0  0  0  0  0  0  0  0
  148.7794  134.9944  153.3128 H   0  0  0  0  0  0  0  0  0  0  0  0
  1  2  1  0  0  0  0
  1 21  1  0  0  0  0
  1 22  1  0  0  0  0
  1 23  1  0  0  0  0
  2  3  1  0  0  0  0
  2  4  1  0  0  0  0
  2  5  1  0  0  0  0
  3 24  1  0  0  0  0
  3 25  1  0  0  0  0
  3 26  1  0  0  0  0
  4 27  1  0  0  0  0
  4 28  1  0  0  0  0
  4 29  1  0  0  0  0
  5 19  1  0  0  0  0
  5  6  1  0  0  0  0
  6  7  2  0  0  0  0
  6 30  1  0  0  0  0
  7  8  1  0  0  0  0
  7 16  1  0  0  0  0
  8  9  1  0  0  0  0
  8 31  1  0  0  0  0
  8 32  1  0  0  0  0
  9 10  1  0  0  0  0
  9 33  1  0  0  0  0
  9 43  1  0  0  0  0
 10 11  1  0  0  0  0
 10 34  1  0  0  0  0
 10 35  1  0  0  0  0
 11 15  1  0  0  0  0
 11 12  1  0  0  0  0
 11 13  1  0  0  0  0
 12 36  1  0  0  0  0
 13 14  1  0  0  0  0
 13 37  1  0  0  0  0
 13 38  1  0  0  0  0
 14 15  1  0  0  0  0
 14 39  1  0  0  0  0
 14 40  1  0  0  0  0
 15 41  1  0  0  0  0
 15 42  1  0  0  0  0
 16 17  2  0  0  0  0
 16 18  1  0  0  0  0
 18 19  1  0  0  0  0
 19 20  2  0  0  0  0
M  CHG  1   9   1
M  CHG  1  18  -1
M  END
> <s_m_source_file>
AV-unprocessed.smi

> <i_m_source_file_index>
4

> <i_lp_mmshare_version>
43012

> <i_f3d_flags>
0

> <s_epik_input>
W0NIM11DKFtDSDNdKShbQ0gzXSluMVtjSF1jKGMoPU8pW25IXWMxPU8pW0NIMl1bTkhdW0NIMl1DMihbT0hdKVtDSDJdW0NIMl1bQ0gyXTI=

> <s_epik_cmdline>
J2VwaWtfcHl0aG9uJywgJy1waCcsICc3LjAnLCAnLXRuJywgJzgnLCAnLW1hJywgJzIwMCcsICctbWV0YWxfYmluZGluZycsICctaW1hZScsICc8aW5maWxlLm1hZT4nLCAnLW9tYWUnLCAnPG91dGZpbGUubWFlPic=

> <r_lp_tautomer_probability>
0.999537

> <r_epik_Ionization_Penalty>
3.42736

> <r_epik_Ionization_Penalty_Charging>
0.0116785

> <r_epik_Ionization_Penalty_Neutral>
3.41568

> <r_epik_State_Penalty>
3.42726

> <r_epik_Charging_Adjusted_Penalty>
3.43893

> <i_epik_Tot_Q>
0

> <i_epik_Tot_abs_Q>
2

> <r_epik_Metal_State_Penalty>
0.176979

> <b_epik_Metal_Only>
1

> <s_lp_Force_Field>
OPLS_2005

> <r_lp_Energy>
29.0009

> <b_lp_Chiralities_Consistent>
1

> <s_lp_Variant>
AV-unprocessed.smi:4-3

> <Gold.Version>
5.8.1

> <Gold.Id.Protein>
6NUR|6NUR_protein|mol2

> <Gold.PLP.Fitness>
44.8784

> <Gold.PLP.PLP>
-29.3617

> <Gold.PLP.part.hbond>
-3.8964

> <Gold.PLP.part.metal>
0.0000

> <Gold.PLP.part.buried>
-3.5238

> <Gold.PLP.part.nonpolar>
-22.2645

> <Gold.PLP.part.repulsive>
0.0000

> <Gold.PLP.ligand.clash>
0.0000

> <Gold.PLP.ligand.torsion>
0.2492

> <Gold.PLP.Chemscore.Hbond>
4.2893

> <Gold.PLP.Chemscore.CHOScore>
1.0077

> <Gold.PLP.Chemscore.Metal>
0.0000

> <Gold.Chemscore.Hbonds>
donor molecule, donor type, donor heavy atom, donor atom, acceptor molecule, acceptor atom, score
      L1  H     9    43       P1  7948  2.00
      L1  H    12    36       P1  7948  1.00
      P1  H  6896  6908       L1    17  0.81
      P1  H  6896  6909       L1    18  0.36
      L1  C     6    30       P1  7948  0.90
      L1  C     6    30       P1  7949  0.06

> <Gold.PLP.Chemscore.Internal.Correction>
0.1241

> <Gold.Rescore>
     Score         DG    S(hbond)    S(metal)    S(lipo)     H(rot)  DE(clash)    DE(int)     intcor
     13.82     -15.39       2.45        0.00      68.72       2.47       0.05       1.53       ----

> <Gold.Chemscore.Fitness>
13.8189

> <Gold.Chemscore.DG>
-15.3947

> <Gold.Chemscore.ZeroCoef>
-5.4800

> <Gold.Chemscore.Hbond>
2.4541

> <Gold.Chemscore.Metal>
0.0000

> <Gold.Chemscore.Lipo>
68.7151

> <Gold.Chemscore.Internal_Hbond>
0.0000

> <Gold.Chemscore.DEClash>
0.0460

> <Gold.Chemscore.DEInternal>
1.5298

> <Gold.Chemscore.Rot>
2.4694

> <Gold.Chemscore.Internal.Correction>
   9.000000E+99

> <Gold.Chemscore.Hbonds>
donor molecule, donor type, donor heavy atom, donor atom, acceptor molecule, acceptor atom, score
      L1  H     9    43       P1  7948  0.49
      L1  H    12    36       P1  7948  0.76
      P1  H  6896  6908       L1    17  0.45
      P1  H  6896  6909       L1    18  0.15

> <Gold.Chemscore.Hbond.Weighted>
-8.1966

> <Gold.Chemscore.Metal.Weighted>
-0.0000

> <Gold.Chemscore.Lipo.Weighted>
-8.0397

> <Gold.Chemscore.Internal_Hbond.Weighted>
0.0000

> <Gold.Chemscore.DEClash.Weighted>
0.0460

> <Gold.Chemscore.DEInternal.Weighted>
1.5298

> <Gold.Chemscore.Rot.Weighted>
6.3216

> <Gold.Chemscore.Internal.Correction.Weighted>
   9.000000E+99

> <Gold.Protein.RotatedTorsions>
[ 6907 6896 6895 6894 ] final   90.84 input  -60.11 | X-H torsion
[ 7974 7965 7964 7962 ] final  -21.79 input  175.53 | X-H torsion
[ 8008 7997 7996 7995 ] final  109.54 input   59.86 | X-H torsion
[ 10167 10162 10161 10158 ] final  131.88 input  -65.29 | X-H torsion
[ 10718 10713 10712 10709 ] final  172.39 input   66.30 | X-H torsion
[ 10763 10752 10751 10750 ] final  -56.85 input  -60.55 | X-H torsion
[ 11005 11000 10999 10996 ] final -177.72 input  -57.11 | X-H torsion

> <Gold.Protein.ActiveResidues>
 VAL166  LYS551  ARG553  GLY616  TRP617  ASP618  TYR619  PRO620  LYS621  CYS622 
 ASP623  PHE694  ASN695  SER759  ASP760  ASP761  ALA762  ILE779  LEU786  VAL792 
 PHE793  MET794  SER795  GLU796  ALA797  LYS798  CYS799  TRP800  GLU811  SER814 

> <Gold.Protein.RotatedAtoms>
  152.5447  134.1749  159.8611 H   0  0  0  0  0  0  0  0  0  0  0  0  # atno 6907 bound_to 6896
  151.1756  133.4750  159.2601 H   0  0  0  0  0  0  0  0  0  0  0  0  # atno 6908 bound_to 6896
  151.1230  135.0101  159.8602 H   0  0  0  0  0  0  0  0  0  0  0  0  # atno 6909 bound_to 6896
  146.1713  140.4389  142.8531 H   0  0  0  0  0  0  0  0  0  0  0  0  # atno 7974 bound_to 7965
  156.1987  140.3055  155.9481 H   0  0  0  0  0  0  0  0  0  0  0  0  # atno 8008 bound_to 7997
  155.3005  140.0446  157.3046 H   0  0  0  0  0  0  0  0  0  0  0  0  # atno 8009 bound_to 7997
  154.5542  140.2301  155.8445 H   0  0  0  0  0  0  0  0  0  0  0  0  # atno 8010 bound_to 7997
  139.5364  144.6687  151.4771 H   0  0  0  0  0  0  0  0  0  0  0  0  # atno 10167 bound_to 10162
  156.9797  131.0115  151.2885 H   0  0  0  0  0  0  0  0  0  0  0  0  # atno 10718 bound_to 10713
  154.2132  135.6391  153.5121 H   0  0  0  0  0  0  0  0  0  0  0  0  # atno 10763 bound_to 10752
  152.9985  135.5479  154.6193 H   0  0  0  0  0  0  0  0  0  0  0  0  # atno 10764 bound_to 10752
  154.5635  135.2911  155.0870 H   0  0  0  0  0  0  0  0  0  0  0  0  # atno 10765 bound_to 10752
  140.4378  134.6460  157.4743 H   0  0  0  0  0  0  0  0  0  0  0  0  # atno 11005 bound_to 11000
  144.8167  140.6480  143.6379 LP  0  0  0  0  0  0  0  0  0  0  0  0  # atno 17320 bound_to 7965
  145.4332  139.1546  143.4010 LP  0  0  0  0  0  0  0  0  0  0  0  0  # atno 17321 bound_to 7965
  140.6573  143.8573  150.6849 LP  0  0  0  0  0  0  0  0  0  0  0  0  # atno 17342 bound_to 10162
  140.1956  143.4001  152.1830 LP  0  0  0  0  0  0  0  0  0  0  0  0  # atno 17343 bound_to 10162
  157.5535  130.8198  149.8175 LP  0  0  0  0  0  0  0  0  0  0  0  0  # atno 17370 bound_to 10713
  156.0249  130.3783  150.1851 LP  0  0  0  0  0  0  0  0  0  0  0  0  # atno 17371 bound_to 10713
  140.0090  134.6719  155.9409 LP  0  0  0  0  0  0  0  0  0  0  0  0  # atno 17394 bound_to 11000
  141.1718  133.6538  156.4681 LP  0  0  0  0  0  0  0  0  0  0  0  0  # atno 17395 bound_to 11000

$$$$
