#       Name:                AV-unprocessed.smi:1217
#       Creating user name   scv26
#       Creation time:       Fri Mar 27 04:15:48 2020


#       File generated by GOLD software.
#

@<TRIPOS>MOLECULE
AV-unprocessed.smi:1217
    39    40     1
SMALL
NO_CHARGES


@<TRIPOS>ATOM
      1 ****        -2.2837  -1.5358   2.0412 C.3            1 S1                 0.0000
      2 ****        -1.7841  -0.7280   0.8343 C.3            1 S1                 0.0000
      3 ****        -0.3290  -0.6083   0.9190 N.am           1 S1                 0.0000
      4 ****         0.3798   0.5163   0.7372 C.2            1 S1                 0.0000
      5 ****        -0.1272   1.6051   0.4658 O.2            1 S1                 0.0000
      6 ****         1.6966   0.2878   0.8851 N.am           1 S1                 0.0000
      7 ****         2.7682   1.2120   0.7611 C.ar           1 S1                 0.0000
      8 ****         4.0562   0.6668   0.9654 C.ar           1 S1                 0.0000
      9 ****         5.1861   1.5016   0.8646 C.ar           1 S1                 0.0000
     10 ****         4.9990   2.8618   0.5611 C.ar           1 S1                 0.0000
     11 ****         3.6835   3.3239   0.3717 C.ar           1 S1                 0.0000
     12 ****         2.5994   2.5259   0.4683 N.ar           1 S1                 0.0000
     13 ****        -2.1963  -1.3788  -0.5025 C.3            1 S1                 0.0000
     14 ****        -1.7357  -0.6319  -1.7568 C.3            1 S1                 0.0000
     15 ****        -2.7390  -1.1066  -2.7817 C.3            1 S1                 0.0000
     16 ****        -4.0212  -1.1567  -1.9573 C.3            1 S1                 0.0000
     17 ****        -3.6171  -1.4292  -0.6177 O.3            1 S1                 0.0000
     18 ****        -3.3710  -1.6155   2.0398 H              1 S1                 0.0000
     19 ****        -1.9930  -1.0603   2.9785 H              1 S1                 0.0000
     20 ****        -1.8768  -2.5476   2.0398 H              1 S1                 0.0000
     21 ****        -2.2419   0.2612   0.8911 H              1 S1                 0.0000
     22 ****         0.1775  -1.4543   1.1346 H              1 S1                 0.0000
     23 ****         1.9641  -0.6594   1.1081 H              1 S1                 0.0000
     24 ****         4.1824  -0.3808   1.1971 H              1 S1                 0.0000
     25 ****         6.1786   1.1041   1.0173 H              1 S1                 0.0000
     26 ****         5.8406   3.5330   0.4752 H              1 S1                 0.0000
     27 ****         3.4963   4.3611   0.1367 H              1 S1                 0.0000
     28 ****        -1.8265  -2.4047  -0.5490 H              1 S1                 0.0000
     29 ****        -1.8276   0.4466  -1.6193 H              1 S1                 0.0000
     30 ****        -0.7048  -0.8555  -2.0326 H              1 S1                 0.0000
     31 ****        -2.8140  -0.4495  -3.6485 H              1 S1                 0.0000
     32 ****        -2.4741  -2.1061  -3.1296 H              1 S1                 0.0000
     33 ****        -4.5237  -0.1890  -1.9753 H              1 S1                 0.0000
     34 ****        -4.7210  -1.9083  -2.3232 H              1 S1                 0.0000
     35 ****        -1.1194   1.6845   0.3696 LP             1 S1                 0.0000
     36 ****         0.4532   2.4098   0.3416 LP             1 S1                 0.0000
     37 ****         1.6825   2.8987   0.3257 LP             1 S1                 0.0000
     38 ****        -4.0208  -0.7476  -0.0074 LP             1 S1                 0.0000
     39 ****        -3.9360  -2.3405  -0.3570 LP             1 S1                 0.0000
@<TRIPOS>BOND
    1    1    2 1     
    2    1   18 1     
    3    1   19 1     
    4    1   20 1     
    5    2    3 1     
    6    2   13 1     
    7    2   21 1     
    8    3    4 am    
    9    3   22 1     
   10    4    5 2     
   11    4    6 am    
   12    6    7 1     
   13    6   23 1     
   14    7   12 ar    
   15    7    8 ar    
   16    8    9 ar    
   17    8   24 1     
   18    9   10 ar    
   19    9   25 1     
   20   10   11 ar    
   21   10   26 1     
   22   11   12 ar    
   23   11   27 1     
   24   13   17 1     
   25   13   14 1     
   26   13   28 1     
   27   14   15 1     
   28   14   29 1     
   29   14   30 1     
   30   15   16 1     
   31   15   31 1     
   32   15   32 1     
   33   16   17 1     
   34   16   33 1     
   35   16   34 1     
   36    5   35 1     
   37    5   36 1     
   38   12   37 1     
   39   17   38 1     
   40   17   39 1     
@<TRIPOS>SUBSTRUCTURE
      1 S1             1
@<TRIPOS>SET
LONE_PAIRS      STATIC     ATOMS    <user>   **** ""
5 35 36 37 38 39
DONOR_HYDROGENS      STATIC     ATOMS    <user>   **** ""
2 22 23
ATOM$BLUE        STATIC     ATOMS    COLORGROUP SYSTEM
5 35 36 37 38 39
ATOM$RED        STATIC     ATOMS    COLORGROUP SYSTEM
2 22 23
