AV-unprocessed.smi:1893|AV-procd|sdf|7677|dock5
  -GOLD-   22720 9413D 1   1.00000     0.00000
 Structure written by MMmdl.
 43 44  0  0  0  0  0  0  0  0  2 V2000
  146.2079  134.4121  152.1260 C   0  0  0  0  0  0  0  0  0  0  0  0
  145.4033  133.2514  152.7511 C   0  0  2  0  0  0  0  0  0  0  0  0
  145.8286  131.8758  152.1954 C   0  0  0  0  0  0  0  0  0  0  0  0
  145.3354  131.6556  150.7577 C   0  0  0  0  0  0  0  0  0  0  0  0
  143.8192  131.8718  150.6840 C   0  0  0  0  0  0  0  0  0  0  0  0
  143.4253  133.2487  151.2434 C   0  0  0  0  0  0  0  0  0  0  0  0
  143.9239  133.4246  152.6350 N   0  3  2  0  0  0  0  0  0  0  0  0
  143.4139  134.6512  153.2998 C   0  0  0  0  0  0  0  0  0  0  0  0
  141.8775  134.7524  153.2424 C   0  0  0  0  0  0  0  0  0  0  0  0
  141.3746  135.7122  154.2172 N   0  0  0  0  0  0  0  0  0  0  0  0
  141.5550  137.0413  154.1516 C   0  0  0  0  0  0  0  0  0  0  0  0
  142.2105  137.5819  153.2599 O   0  0  0  0  0  0  0  0  0  0  0  0
  140.8849  137.8754  155.2564 C   0  0  1  0  0  0  0  0  0  0  0  0
  141.4097  139.3241  155.3214 C   0  0  0  0  0  0  0  0  0  0  0  0
  139.4342  137.8317  155.1157 N   0  0  0  0  0  0  0  0  0  0  0  0
  138.6041  136.7867  155.1003 C   0  0  0  0  0  0  0  0  0  0  0  0
  137.3331  137.1110  154.9096 N   0  0  0  0  0  0  0  0  0  0  0  0
  137.4570  138.4674  154.8047 C   0  0  0  0  0  0  0  0  0  0  0  0
  138.6949  138.9503  154.9094 N   0  0  0  0  0  0  0  0  0  0  0  0
  147.2784  134.2472  152.2508 H   0  0  0  0  0  0  0  0  0  0  0  0
  145.9781  135.3658  152.6011 H   0  0  0  0  0  0  0  0  0  0  0  0
  146.0207  134.5215  151.0584 H   0  0  0  0  0  0  0  0  0  0  0  0
  145.6395  133.2418  153.8163 H   0  0  0  0  0  0  0  0  0  0  0  0
  146.9127  131.7669  152.2401 H   0  0  0  0  0  0  0  0  0  0  0  0
  145.4202  131.0909  152.8337 H   0  0  0  0  0  0  0  0  0  0  0  0
  145.8422  132.3396  150.0765 H   0  0  0  0  0  0  0  0  0  0  0  0
  145.5868  130.6478  150.4258 H   0  0  0  0  0  0  0  0  0  0  0  0
  143.4794  131.7774  149.6522 H   0  0  0  0  0  0  0  0  0  0  0  0
  143.3106  131.0897  151.2493 H   0  0  0  0  0  0  0  0  0  0  0  0
  143.8099  134.0430  150.6030 H   0  0  0  0  0  0  0  0  0  0  0  0
  142.3398  133.3345  151.2192 H   0  0  0  0  0  0  0  0  0  0  0  0
  143.7174  134.6377  154.3476 H   0  0  0  0  0  0  0  0  0  0  0  0
  143.8749  135.5353  152.8565 H   0  0  0  0  0  0  0  0  0  0  0  0
  141.5448  135.0840  152.2594 H   0  0  0  0  0  0  0  0  0  0  0  0
  141.4220  133.7751  153.4117 H   0  0  0  0  0  0  0  0  0  0  0  0
  140.8301  135.3442  154.9839 H   0  0  0  0  0  0  0  0  0  0  0  0
  141.1299  137.3995  156.2073 H   0  0  0  0  0  0  0  0  0  0  0  0
  142.4849  139.3461  155.5023 H   0  0  0  0  0  0  0  0  0  0  0  0
  140.9321  139.8732  156.1334 H   0  0  0  0  0  0  0  0  0  0  0  0
  141.2182  139.8708  154.3970 H   0  0  0  0  0  0  0  0  0  0  0  0
  138.9369  135.7665  155.2253 H   0  0  0  0  0  0  0  0  0  0  0  0
  136.6105  139.1176  154.6385 H   0  0  0  0  0  0  0  0  0  0  0  0
  143.5348  132.6568  153.1636 H   0  0  0  0  0  0  0  0  0  0  0  0
  1  2  1  0  0  0  0
  1 20  1  0  0  0  0
  1 21  1  0  0  0  0
  1 22  1  0  0  0  0
  2  7  1  0  0  0  0
  2  3  1  0  0  0  0
  2 23  1  0  0  0  0
  3  4  1  0  0  0  0
  3 24  1  0  0  0  0
  3 25  1  0  0  0  0
  4  5  1  0  0  0  0
  4 26  1  0  0  0  0
  4 27  1  0  0  0  0
  5  6  1  0  0  0  0
  5 28  1  0  0  0  0
  5 29  1  0  0  0  0
  6  7  1  0  0  0  0
  6 30  1  0  0  0  0
  6 31  1  0  0  0  0
  7  8  1  0  0  0  0
  7 43  1  0  0  0  0
  8  9  1  0  0  0  0
  8 32  1  0  0  0  0
  8 33  1  0  0  0  0
  9 10  1  0  0  0  0
  9 34  1  0  0  0  0
  9 35  1  0  0  0  0
 10 11  1  0  0  0  0
 10 36  1  0  0  0  0
 11 12  2  0  0  0  0
 11 13  1  0  0  0  0
 13 14  1  0  0  0  0
 13 15  1  0  0  0  0
 13 37  1  0  0  0  0
 14 38  1  0  0  0  0
 14 39  1  0  0  0  0
 14 40  1  0  0  0  0
 15 19  1  0  0  0  0
 15 16  1  0  0  0  0
 16 17  2  0  0  0  0
 16 41  1  0  0  0  0
 17 18  1  0  0  0  0
 18 19  2  0  0  0  0
 18 42  1  0  0  0  0
M  CHG  1   7   1
M  END
> <s_m_source_file>
AV-unprocessed.smi

> <i_m_source_file_index>
1893

> <i_lp_mmshare_version>
43012

> <i_f3d_flags>
0

> <s_epik_input>
W0NIM11bQ0BASF0xW0NIMl1bQ0gyXVtDSDJdW0NIMl1OMVtDSDJdW0NIMl1bTkhdQyg9TylbQ0BIXShbQ0gzXSluMltjSF1uW2NIXW4y

> <s_epik_cmdline>
J2VwaWtfcHl0aG9uJywgJy1waCcsICc3LjAnLCAnLXRuJywgJzgnLCAnLW1hJywgJzIwMCcsICctbWV0YWxfYmluZGluZycsICctaW1hZScsICc8aW5maWxlLm1hZT4nLCAnLW9tYWUnLCAnPG91dGZpbGUubWFlPic=

> <r_lp_tautomer_probability>
1

> <r_epik_Ionization_Penalty>
0.00266409

> <r_epik_Ionization_Penalty_Charging>
0.00265606

> <r_epik_Ionization_Penalty_Neutral>
8.02794e-06

> <r_epik_State_Penalty>
0.00184955

> <r_epik_Charging_Adjusted_Penalty>
0.00450561

> <i_epik_Tot_Q>
1

> <i_epik_Tot_abs_Q>
1

> <r_epik_Metal_State_Penalty>
-0

> <b_epik_Metal_Only>
0

> <s_lp_Force_Field>
OPLS_2005

> <r_lp_Energy>
24.5349

> <b_lp_Chiralities_Consistent>
1

> <s_lp_Variant>
AV-unprocessed.smi:1893-7

> <Gold.Version>
5.8.1

> <Gold.Id.Protein>
6NUR|6NUR_protein|mol2

> <Gold.PLP.Fitness>
38.0437

> <Gold.PLP.PLP>
-27.1670

> <Gold.PLP.part.hbond>
-1.8721

> <Gold.PLP.part.metal>
0.0000

> <Gold.PLP.part.buried>
-5.8066

> <Gold.PLP.part.nonpolar>
-21.3307

> <Gold.PLP.part.repulsive>
0.3567

> <Gold.PLP.ligand.clash>
0.0000

> <Gold.PLP.ligand.torsion>
0.4048

> <Gold.PLP.Chemscore.Hbond>
2.8288

> <Gold.PLP.Chemscore.CHOScore>
1.0000

> <Gold.PLP.Chemscore.Metal>
0.0000

> <Gold.Chemscore.Hbonds>
donor molecule, donor type, donor heavy atom, donor atom, acceptor molecule, acceptor atom, score
      L1  H     7    43       P1 10957  2.00
      L1  H    10    36       P1 11000  0.78
      L1  C    16    41       P1 11000  0.96

> <Gold.PLP.Chemscore.Internal.Correction>
0.2000

> <Gold.Rescore>
     Score         DG    S(hbond)    S(metal)    S(lipo)     H(rot)  DE(clash)    DE(int)     intcor
      9.90     -10.45       1.61        0.00      51.99       2.54       0.02       0.52       ----

> <Gold.Chemscore.Fitness>
9.8972

> <Gold.Chemscore.DG>
-10.4454

> <Gold.Chemscore.ZeroCoef>
-5.4800

> <Gold.Chemscore.Hbond>
1.6106

> <Gold.Chemscore.Metal>
0.0000

> <Gold.Chemscore.Lipo>
51.9884

> <Gold.Chemscore.Internal_Hbond>
0.0000

> <Gold.Chemscore.DEClash>
0.0245

> <Gold.Chemscore.DEInternal>
0.5237

> <Gold.Chemscore.Rot>
2.5377

> <Gold.Chemscore.Internal.Correction>
   9.000000E+99

> <Gold.Chemscore.Hbonds>
donor molecule, donor type, donor heavy atom, donor atom, acceptor molecule, acceptor atom, score
      L1  H     7    43       P1 10957  0.24
      L1  H    10    36       P1 11000  0.67

> <Gold.Chemscore.Hbond.Weighted>
-5.3793

> <Gold.Chemscore.Metal.Weighted>
-0.0000

> <Gold.Chemscore.Lipo.Weighted>
-6.0826

> <Gold.Chemscore.Internal_Hbond.Weighted>
0.0000

> <Gold.Chemscore.DEClash.Weighted>
0.0245

> <Gold.Chemscore.DEInternal.Weighted>
0.5237

> <Gold.Chemscore.Rot.Weighted>
6.4966

> <Gold.Chemscore.Internal.Correction.Weighted>
   9.000000E+99

> <Gold.Protein.RotatedTorsions>
[ 6907 6896 6895 6894 ] final  122.93 input  -60.11 | X-H torsion
[ 7974 7965 7964 7962 ] final  -13.17 input  175.53 | X-H torsion
[ 8008 7997 7996 7995 ] final  176.42 input   59.86 | X-H torsion
[ 10167 10162 10161 10158 ] final -168.68 input  -65.29 | X-H torsion
[ 10718 10713 10712 10709 ] final   62.62 input   66.30 | X-H torsion
[ 10763 10752 10751 10750 ] final  111.71 input  -60.55 | X-H torsion
[ 11005 11000 10999 10996 ] final -158.08 input  -57.11 | X-H torsion

> <Gold.Protein.ActiveResidues>
 VAL166  LYS551  ARG553  GLY616  TRP617  ASP618  TYR619  PRO620  LYS621  CYS622 
 ASP623  PHE694  ASN695  SER759  ASP760  ASP761  ALA762  ILE779  LEU786  VAL792 
 PHE793  MET794  SER795  GLU796  ALA797  LYS798  CYS799  TRP800  GLU811  SER814 

> <Gold.Protein.RotatedAtoms>
  152.4203  133.7106  159.6476 H   0  0  0  0  0  0  0  0  0  0  0  0  # atno 6907 bound_to 6896
  150.8079  133.8464  159.3202 H   0  0  0  0  0  0  0  0  0  0  0  0  # atno 6908 bound_to 6896
  151.6182  135.1036  160.0147 H   0  0  0  0  0  0  0  0  0  0  0  0  # atno 6909 bound_to 6896
  146.2124  140.3164  142.8387 H   0  0  0  0  0  0  0  0  0  0  0  0  # atno 7974 bound_to 7965
  156.0766  140.1384  156.9764 H   0  0  0  0  0  0  0  0  0  0  0  0  # atno 8008 bound_to 7997
  154.4561  140.0961  156.6811 H   0  0  0  0  0  0  0  0  0  0  0  0  # atno 8009 bound_to 7997
  155.5143  140.3454  155.4396 H   0  0  0  0  0  0  0  0  0  0  0  0  # atno 8010 bound_to 7997
  139.5970  144.1091  152.1700 H   0  0  0  0  0  0  0  0  0  0  0  0  # atno 10167 bound_to 10162
  157.5914  130.9060  149.9611 H   0  0  0  0  0  0  0  0  0  0  0  0  # atno 10718 bound_to 10713
  153.4673  135.3708  155.2371 H   0  0  0  0  0  0  0  0  0  0  0  0  # atno 10763 bound_to 10752
  154.8757  135.3923  154.3854 H   0  0  0  0  0  0  0  0  0  0  0  0  # atno 10764 bound_to 10752
  153.4436  135.7084  153.6217 H   0  0  0  0  0  0  0  0  0  0  0  0  # atno 10765 bound_to 10752
  140.6576  134.4384  157.5235 H   0  0  0  0  0  0  0  0  0  0  0  0  # atno 11005 bound_to 11000
  144.8951  140.7573  143.5902 LP  0  0  0  0  0  0  0  0  0  0  0  0  # atno 17320 bound_to 7965
  145.3088  139.1825  143.4650 LP  0  0  0  0  0  0  0  0  0  0  0  0  # atno 17321 bound_to 7965
  140.0678  144.5804  150.7214 LP  0  0  0  0  0  0  0  0  0  0  0  0  # atno 17342 bound_to 10162
  140.7220  143.2598  151.4248 LP  0  0  0  0  0  0  0  0  0  0  0  0  # atno 17343 bound_to 10162
  156.0969  130.3658  150.0290 LP  0  0  0  0  0  0  0  0  0  0  0  0  # atno 17370 bound_to 10713
  156.8412  130.9426  151.3632 LP  0  0  0  0  0  0  0  0  0  0  0  0  # atno 17371 bound_to 10713
  139.9024  134.8526  156.1841 LP  0  0  0  0  0  0  0  0  0  0  0  0  # atno 17394 bound_to 11000
  141.0490  133.6898  156.1736 LP  0  0  0  0  0  0  0  0  0  0  0  0  # atno 17395 bound_to 11000

$$$$
