AV-unprocessed.smi:3006|AV-procd|sdf|11444|dock5
  -GOLD-   2272016373D 1   1.00000     0.00000
 Structure written by MMmdl.
 45 46  0  0  0  0  0  0  0  0  2 V2000
  152.5071  143.7188  162.0298 C   0  0  0  0  0  0  0  0  0  0  0  0
  152.1063  144.0516  160.6335 C   0  0  0  0  0  0  0  0  0  0  0  0
  151.8075  143.1332  159.7110 N   0  0  0  0  0  0  0  0  0  0  0  0
  151.4545  143.6996  158.4820 C   0  0  0  0  0  0  0  0  0  0  0  0
  151.0777  142.8163  157.3317 C   0  0  0  0  0  0  0  0  0  0  0  0
  151.3430  141.3320  157.6311 C   0  0  0  0  0  0  0  0  0  0  0  0
  150.9570  140.4817  156.5109 N   0  0  0  0  0  0  0  0  0  0  0  0
  151.7887  139.6787  155.8258 C   0  0  0  0  0  0  0  0  0  0  0  0
  152.9831  139.5777  156.1083 O   0  0  0  0  0  0  0  0  0  0  0  0
  151.2016  138.9697  154.8291 N   0  0  0  0  0  0  0  0  0  0  0  0
  151.7121  137.7413  154.2116 C   0  0  0  0  0  0  0  0  0  0  0  0
  150.8928  136.5443  154.7283 C   0  0  0  0  0  0  0  0  0  0  0  0
  149.4236  136.7151  154.5073 N   0  3  0  0  0  0  0  0  0  0  0  0
  148.6082  135.5815  155.0526 C   0  0  0  0  0  0  0  0  0  0  0  0
  149.1087  134.2077  154.5605 C   0  0  0  0  0  0  0  0  0  0  0  0
  147.1094  135.7107  154.7077 C   0  0  0  0  0  0  0  0  0  0  0  0
  148.9376  138.0588  154.9467 C   0  0  0  0  0  0  0  0  0  0  0  0
  149.8187  139.2038  154.4162 C   0  0  0  0  0  0  0  0  0  0  0  0
  151.4961  145.0717  158.4866 C   0  0  0  0  0  0  0  0  0  0  0  0
  151.9770  145.7021  160.0380 S   0  0  0  0  0  0  0  0  0  0  0  0
  152.5724  142.6386  162.1644 H   0  0  0  0  0  0  0  0  0  0  0  0
  151.7732  144.1145  162.7317 H   0  0  0  0  0  0  0  0  0  0  0  0
  153.4794  144.1581  162.2529 H   0  0  0  0  0  0  0  0  0  0  0  0
  150.0238  142.9588  157.0891 H   0  0  0  0  0  0  0  0  0  0  0  0
  151.6313  143.1134  156.4400 H   0  0  0  0  0  0  0  0  0  0  0  0
  152.4048  141.1748  157.8227 H   0  0  0  0  0  0  0  0  0  0  0  0
  150.8171  141.0247  158.5369 H   0  0  0  0  0  0  0  0  0  0  0  0
  149.9851  140.5032  156.2383 H   0  0  0  0  0  0  0  0  0  0  0  0
  151.6126  137.8185  153.1278 H   0  0  0  0  0  0  0  0  0  0  0  0
  152.7731  137.5659  154.3895 H   0  0  0  0  0  0  0  0  0  0  0  0
  151.2553  135.6547  154.2155 H   0  0  0  0  0  0  0  0  0  0  0  0
  151.0835  136.4014  155.7934 H   0  0  0  0  0  0  0  0  0  0  0  0
  148.6994  135.5976  156.1398 H   0  0  0  0  0  0  0  0  0  0  0  0
  148.4381  133.4087  154.8790 H   0  0  0  0  0  0  0  0  0  0  0  0
  150.0889  133.9551  154.9639 H   0  0  0  0  0  0  0  0  0  0  0  0
  149.1671  134.1720  153.4722 H   0  0  0  0  0  0  0  0  0  0  0  0
  146.5580  134.8226  155.0178 H   0  0  0  0  0  0  0  0  0  0  0  0
  146.9561  135.8337  153.6351 H   0  0  0  0  0  0  0  0  0  0  0  0
  146.6382  136.5499  155.2191 H   0  0  0  0  0  0  0  0  0  0  0  0
  147.9235  138.2351  154.5911 H   0  0  0  0  0  0  0  0  0  0  0  0
  148.9072  138.0920  156.0372 H   0  0  0  0  0  0  0  0  0  0  0  0
  149.4325  140.1636  154.7627 H   0  0  0  0  0  0  0  0  0  0  0  0
  149.7668  139.2440  153.3270 H   0  0  0  0  0  0  0  0  0  0  0  0
  151.2713  145.7476  157.6747 H   0  0  0  0  0  0  0  0  0  0  0  0
  149.2960  136.6969  153.5055 H   0  0  0  0  0  0  0  0  0  0  0  0
  1  2  1  0  0  0  0
  1 21  1  0  0  0  0
  1 22  1  0  0  0  0
  1 23  1  0  0  0  0
  2 20  1  0  0  0  0
  2  3  2  0  0  0  0
  3  4  1  0  0  0  0
  4  5  1  0  0  0  0
  4 19  2  0  0  0  0
  5  6  1  0  0  0  0
  5 24  1  0  0  0  0
  5 25  1  0  0  0  0
  6  7  1  0  0  0  0
  6 26  1  0  0  0  0
  6 27  1  0  0  0  0
  7  8  1  0  0  0  0
  7 28  1  0  0  0  0
  8  9  2  0  0  0  0
  8 10  1  0  0  0  0
 10 18  1  0  0  0  0
 10 11  1  0  0  0  0
 11 12  1  0  0  0  0
 11 29  1  0  0  0  0
 11 30  1  0  0  0  0
 12 13  1  0  0  0  0
 12 31  1  0  0  0  0
 12 32  1  0  0  0  0
 13 14  1  0  0  0  0
 13 17  1  0  0  0  0
 13 45  1  0  0  0  0
 14 15  1  0  0  0  0
 14 16  1  0  0  0  0
 14 33  1  0  0  0  0
 15 34  1  0  0  0  0
 15 35  1  0  0  0  0
 15 36  1  0  0  0  0
 16 37  1  0  0  0  0
 16 38  1  0  0  0  0
 16 39  1  0  0  0  0
 17 18  1  0  0  0  0
 17 40  1  0  0  0  0
 17 41  1  0  0  0  0
 18 42  1  0  0  0  0
 18 43  1  0  0  0  0
 19 20  1  0  0  0  0
 19 44  1  0  0  0  0
M  CHG  1  13   1
M  END
> <s_m_source_file>
AV-unprocessed.smi

> <i_m_source_file_index>
3006

> <i_lp_mmshare_version>
43012

> <i_f3d_flags>
0

> <s_epik_input>
W0NIM11jMW5jKFtjSF1zMSlbQ0gyXVtDSDJdW05IXUMoPU8pTjJbQ0gyXVtDSDJdTihbQ0hdKFtDSDNdKVtDSDNdKVtDSDJdW0NIMl0y

> <s_epik_cmdline>
J2VwaWtfcHl0aG9uJywgJy1waCcsICc3LjAnLCAnLXRuJywgJzgnLCAnLW1hJywgJzIwMCcsICctbWV0YWxfYmluZGluZycsICctaW1hZScsICc8aW5maWxlLm1hZT4nLCAnLW9tYWUnLCAnPG91dGZpbGUubWFlPic=

> <r_epik_Ionization_Penalty>
0.155723

> <r_epik_Ionization_Penalty_Charging>
0.153999

> <r_epik_Ionization_Penalty_Neutral>
0.00172372

> <r_epik_State_Penalty>
0.139716

> <r_epik_Charging_Adjusted_Penalty>
0.293715

> <i_epik_Tot_Q>
1

> <i_epik_Tot_abs_Q>
1

> <r_epik_Metal_State_Penalty>
0.138566

> <b_epik_Metal_Only>
0

> <s_lp_Force_Field>
OPLS_2005

> <r_lp_Energy>
45.5874

> <b_lp_Chiralities_Consistent>
1

> <s_lp_Variant>
AV-unprocessed.smi:3006-1

> <Gold.Version>
5.8.1

> <Gold.Id.Protein>
6NUR|6NUR_protein|mol2

> <Gold.PLP.Fitness>
51.2610

> <Gold.PLP.PLP>
-44.1849

> <Gold.PLP.part.hbond>
-1.8198

> <Gold.PLP.part.metal>
0.0000

> <Gold.PLP.part.buried>
-4.1626

> <Gold.PLP.part.nonpolar>
-38.3064

> <Gold.PLP.part.repulsive>
0.1049

> <Gold.PLP.ligand.clash>
1.6268

> <Gold.PLP.ligand.torsion>
0.1989

> <Gold.PLP.Chemscore.Hbond>
3.0000

> <Gold.PLP.Chemscore.CHOScore>
0.0000

> <Gold.PLP.Chemscore.Metal>
0.0000

> <Gold.Chemscore.Hbonds>
donor molecule, donor type, donor heavy atom, donor atom, acceptor molecule, acceptor atom, score
      L1  H    13    45       P1  7948  2.00
      P1  H  7997  8009       L1     9  1.00

> <Gold.PLP.Chemscore.Internal.Correction>
0.1006

> <Gold.Rescore>
     Score         DG    S(hbond)    S(metal)    S(lipo)     H(rot)  DE(clash)    DE(int)     intcor
     21.14     -21.41       1.95        0.00     111.61       1.42       0.06       0.20       ----

> <Gold.Chemscore.Fitness>
21.1433

> <Gold.Chemscore.DG>
-21.4087

> <Gold.Chemscore.ZeroCoef>
-5.4800

> <Gold.Chemscore.Hbond>
1.9500

> <Gold.Chemscore.Metal>
0.0000

> <Gold.Chemscore.Lipo>
111.6131

> <Gold.Chemscore.Internal_Hbond>
0.0000

> <Gold.Chemscore.DEClash>
0.0605

> <Gold.Chemscore.DEInternal>
0.2049

> <Gold.Chemscore.Rot>
1.4230

> <Gold.Chemscore.Internal.Correction>
   9.000000E+99

> <Gold.Chemscore.Hbonds>
donor molecule, donor type, donor heavy atom, donor atom, acceptor molecule, acceptor atom, score
      L1  H    13    45       P1  7948  0.94
      P1  H  7997  8009       L1     9  0.92

> <Gold.Chemscore.Hbond.Weighted>
-6.5129

> <Gold.Chemscore.Metal.Weighted>
-0.0000

> <Gold.Chemscore.Lipo.Weighted>
-13.0587

> <Gold.Chemscore.Internal_Hbond.Weighted>
0.0000

> <Gold.Chemscore.DEClash.Weighted>
0.0605

> <Gold.Chemscore.DEInternal.Weighted>
0.2049

> <Gold.Chemscore.Rot.Weighted>
3.6430

> <Gold.Chemscore.Internal.Correction.Weighted>
   9.000000E+99

> <Gold.Protein.RotatedTorsions>
[ 6907 6896 6895 6894 ] final  -45.27 input  -60.11 | X-H torsion
[ 7974 7965 7964 7962 ] final -130.91 input  175.53 | X-H torsion
[ 8008 7997 7996 7995 ] final -178.33 input   59.86 | X-H torsion
[ 10167 10162 10161 10158 ] final  -57.93 input  -65.29 | X-H torsion
[ 10718 10713 10712 10709 ] final -166.31 input   66.30 | X-H torsion
[ 10763 10752 10751 10750 ] final   18.23 input  -60.55 | X-H torsion
[ 11005 11000 10999 10996 ] final   40.00 input  -57.11 | X-H torsion

> <Gold.Protein.ActiveResidues>
 VAL166  LYS551  ARG553  GLY616  TRP617  ASP618  TYR619  PRO620  LYS621  CYS622 
 ASP623  PHE694  ASN695  SER759  ASP760  ASP761  ALA762  ILE779  LEU786  VAL792 
 PHE793  MET794  SER795  GLU796  ALA797  LYS798  CYS799  TRP800  GLU811  SER814 

> <Gold.Protein.RotatedAtoms>
  150.9238  134.8655  159.7506 H   0  0  0  0  0  0  0  0  0  0  0  0  # atno 6907 bound_to 6896
  152.5005  134.4179  159.9480 H   0  0  0  0  0  0  0  0  0  0  0  0  # atno 6908 bound_to 6896
  151.4211  133.3658  159.2791 H   0  0  0  0  0  0  0  0  0  0  0  0  # atno 6909 bound_to 6896
  144.9429  140.7259  143.4835 H   0  0  0  0  0  0  0  0  0  0  0  0  # atno 7974 bound_to 7965
  156.0176  140.1254  157.0391 H   0  0  0  0  0  0  0  0  0  0  0  0  # atno 8008 bound_to 7997
  154.4299  140.1075  156.5987 H   0  0  0  0  0  0  0  0  0  0  0  0  # atno 8009 bound_to 7997
  155.5991  140.3470  155.4591 H   0  0  0  0  0  0  0  0  0  0  0  0  # atno 8010 bound_to 7997
  140.6228  143.2426  151.5438 H   0  0  0  0  0  0  0  0  0  0  0  0  # atno 10167 bound_to 10162
  156.6660  130.9065  151.3036 H   0  0  0  0  0  0  0  0  0  0  0  0  # atno 10718 bound_to 10713
  153.1267  135.6731  153.9245 H   0  0  0  0  0  0  0  0  0  0  0  0  # atno 10763 bound_to 10752
  153.8744  135.3066  155.3444 H   0  0  0  0  0  0  0  0  0  0  0  0  # atno 10764 bound_to 10752
  154.7671  135.4958  153.9656 H   0  0  0  0  0  0  0  0  0  0  0  0  # atno 10765 bound_to 10752
  140.1973  134.3913  155.8114 H   0  0  0  0  0  0  0  0  0  0  0  0  # atno 11005 bound_to 11000
  145.2962  139.1866  143.4714 LP  0  0  0  0  0  0  0  0  0  0  0  0  # atno 17320 bound_to 7965
  146.3293  140.2946  142.8617 LP  0  0  0  0  0  0  0  0  0  0  0  0  # atno 17321 bound_to 7965
  139.5453  144.2537  152.1431 LP  0  0  0  0  0  0  0  0  0  0  0  0  # atno 17342 bound_to 10162
  140.1761  144.4889  150.6553 LP  0  0  0  0  0  0  0  0  0  0  0  0  # atno 17343 bound_to 10162
  157.7093  130.9422  150.1036 LP  0  0  0  0  0  0  0  0  0  0  0  0  # atno 17370 bound_to 10713
  156.1974  130.3658  149.8831 LP  0  0  0  0  0  0  0  0  0  0  0  0  # atno 17371 bound_to 10713
  141.2227  133.7076  156.8198 LP  0  0  0  0  0  0  0  0  0  0  0  0  # atno 17394 bound_to 11000
  140.2093  134.8839  157.3256 LP  0  0  0  0  0  0  0  0  0  0  0  0  # atno 17395 bound_to 11000

$$$$
