AV-unprocessed.smi:221|AV-procd|sdf|1693|dock2
  -GOLD-   2262020143D 1   1.00000     0.00000
 Structure written by MMmdl.
 50 53  0  0  0  0  0  0  0  0  1 V2000
  142.2423  134.4175  154.2798 N   0  0  0  0  0  0  0  0  0  0  0  0
  142.9095  135.2457  153.4730 C   0  0  0  0  0  0  0  0  0  0  0  0
  142.5764  136.4200  153.3212 O   0  0  0  0  0  0  0  0  0  0  0  0
  144.1136  134.6581  152.7197 C   0  0  1  0  0  0  0  0  0  0  0  0
  143.6807  133.5311  151.7674 C   0  0  0  0  0  0  0  0  0  0  0  0
  144.7357  133.5587  150.6659 C   0  0  2  0  0  0  0  0  0  0  0  0
  145.8198  132.8958  151.0721 F   0  0  0  0  0  0  0  0  0  0  0  0
  145.0671  135.0450  150.5340 C   0  0  0  0  0  0  0  0  0  0  0  0
  144.7556  135.6328  151.8317 N   0  0  0  0  0  0  0  0  0  0  0  0
  145.5141  136.6611  152.2974 C   0  0  0  0  0  0  0  0  0  0  0  0
  145.9500  137.6159  151.4328 N   0  0  0  0  0  0  0  0  0  0  0  0
  146.6971  138.6349  151.8662 C   0  0  0  0  0  0  0  0  0  0  0  0
  147.1238  138.8886  153.1039 N   0  0  0  0  0  0  0  0  0  0  0  0
  146.6995  137.9312  153.9770 C   0  0  0  0  0  0  0  0  0  0  0  0
  145.8983  136.7960  153.6633 C   0  0  0  0  0  0  0  0  0  0  0  0
  145.6827  136.0429  154.8127 N   0  0  0  0  0  0  0  0  0  0  0  0
  146.3191  136.6930  155.7481 C   0  0  0  0  0  0  0  0  0  0  0  0
  146.9619  137.8357  155.3323 N   0  0  0  0  0  0  0  0  0  0  0  0
  147.7479  138.7353  156.1577 C   0  0  0  0  0  0  0  0  0  0  0  0
  149.0666  139.2117  155.4915 C   0  0  1  0  0  0  0  0  0  0  0  0
  148.9269  140.6130  154.8423 C   0  0  0  0  0  0  0  0  0  0  0  0
  149.7304  140.7391  153.6868 O   0  0  0  0  0  0  0  0  0  0  0  0
  150.2269  139.1800  156.5211 C   0  0  2  0  0  0  0  0  0  0  0  0
  150.2049  140.2922  157.5579 C   0  0  0  0  0  0  0  0  0  0  0  0
  151.6389  140.2881  158.0757 C   0  0  0  0  0  0  0  0  0  0  0  0
  152.4447  139.8857  156.9751 O   0  0  0  0  0  0  0  0  0  0  0  0
  151.6203  139.4027  155.9201 C   0  0  0  0  0  0  0  0  0  0  0  0
  144.8517  134.2691  153.4241 H   0  0  0  0  0  0  0  0  0  0  0  0
  144.4026  133.1058  149.7319 H   0  0  0  0  0  0  0  0  0  0  0  0
  141.4477  134.7591  154.8005 H   0  0  0  0  0  0  0  0  0  0  0  0
  142.5371  133.4564  154.3712 H   0  0  0  0  0  0  0  0  0  0  0  0
  143.6172  132.5617  152.2633 H   0  0  0  0  0  0  0  0  0  0  0  0
  142.7035  133.7434  151.3298 H   0  0  0  0  0  0  0  0  0  0  0  0
  146.1059  135.1942  150.2346 H   0  0  0  0  0  0  0  0  0  0  0  0
  144.4275  135.5114  149.7838 H   0  0  0  0  0  0  0  0  0  0  0  0
  146.9969  139.3483  151.1129 H   0  0  0  0  0  0  0  0  0  0  0  0
  146.3448  136.3507  156.7724 H   0  0  0  0  0  0  0  0  0  0  0  0
  147.1292  139.5947  156.4190 H   0  0  0  0  0  0  0  0  0  0  0  0
  147.9553  138.2140  157.0922 H   0  0  0  0  0  0  0  0  0  0  0  0
  149.3203  138.5024  154.7019 H   0  0  0  0  0  0  0  0  0  0  0  0
  147.8867  140.8229  154.5917 H   0  0  0  0  0  0  0  0  0  0  0  0
  149.2489  141.4022  155.5192 H   0  0  0  0  0  0  0  0  0  0  0  0
  149.4945  140.0540  153.0799 H   0  0  0  0  0  0  0  0  0  0  0  0
  150.2235  138.2213  157.0428 H   0  0  0  0  0  0  0  0  0  0  0  0
  149.9809  141.2498  157.0857 H   0  0  0  0  0  0  0  0  0  0  0  0
  149.4846  140.1290  158.3593 H   0  0  0  0  0  0  0  0  0  0  0  0
  151.9455  141.2605  158.4616 H   0  0  0  0  0  0  0  0  0  0  0  0
  151.7524  139.5548  158.8750 H   0  0  0  0  0  0  0  0  0  0  0  0
  152.0396  138.4942  155.4872 H   0  0  0  0  0  0  0  0  0  0  0  0
  151.5878  140.1640  155.1395 H   0  0  0  0  0  0  0  0  0  0  0  0
  1  2  1  0  0  0  0
  1 30  1  0  0  0  0
  1 31  1  0  0  0  0
  2  3  2  0  0  0  0
  2  4  1  0  0  0  0
  4 28  1  0  0  0  0
  4  9  1  0  0  0  0
  4  5  1  0  0  0  0
  5  6  1  0  0  0  0
  5 32  1  0  0  0  0
  5 33  1  0  0  0  0
  6 29  1  0  0  0  0
  6  7  1  0  0  0  0
  6  8  1  0  0  0  0
  8  9  1  0  0  0  0
  8 34  1  0  0  0  0
  8 35  1  0  0  0  0
  9 10  1  0  0  0  0
 10 15  1  0  0  0  0
 10 11  2  0  0  0  0
 11 12  1  0  0  0  0
 12 13  2  0  0  0  0
 12 36  1  0  0  0  0
 13 14  1  0  0  0  0
 14 18  1  0  0  0  0
 14 15  2  0  0  0  0
 15 16  1  0  0  0  0
 16 17  2  0  0  0  0
 17 18  1  0  0  0  0
 17 37  1  0  0  0  0
 18 19  1  0  0  0  0
 19 20  1  0  0  0  0
 19 38  1  0  0  0  0
 19 39  1  0  0  0  0
 20 21  1  0  0  0  0
 20 23  1  0  0  0  0
 20 40  1  0  0  0  0
 21 22  1  0  0  0  0
 21 41  1  0  0  0  0
 21 42  1  0  0  0  0
 22 43  1  0  0  0  0
 23 27  1  0  0  0  0
 23 24  1  0  0  0  0
 23 44  1  0  0  0  0
 24 25  1  0  0  0  0
 24 45  1  0  0  0  0
 24 46  1  0  0  0  0
 25 26  1  0  0  0  0
 25 47  1  0  0  0  0
 25 48  1  0  0  0  0
 26 27  1  0  0  0  0
 27 49  1  0  0  0  0
 27 50  1  0  0  0  0
M  END
> <s_m_source_file>
AV-unprocessed.smi

> <i_m_source_file_index>
221

> <i_lp_mmshare_version>
43012

> <i_f3d_flags>
0

> <s_epik_input>
W05IMl1DKD1PKVtDQEBIXTFbQ0gyXVtDQEBIXShGKVtDSDJdTjFjKG5bY0hdbjIpYyhjMjMpbltjSF1uM1tDSDJdW0NASF0oW0NIMl1bT0hdKVtDQEBIXTRbQ0gyXVtDSDJdT1tDSDJdNA==

> <s_epik_cmdline>
J2VwaWtfcHl0aG9uJywgJy1waCcsICc3LjAnLCAnLXRuJywgJzgnLCAnLW1hJywgJzIwMCcsICctbWV0YWxfYmluZGluZycsICctaW1hZScsICc8aW5maWxlLm1hZT4nLCAnLW9tYWUnLCAnPG91dGZpbGUubWFlPic=

> <r_lp_tautomer_probability>
1

> <r_epik_Ionization_Penalty>
0.000818822

> <r_epik_Ionization_Penalty_Charging>
0

> <r_epik_Ionization_Penalty_Neutral>
0.000818822

> <r_epik_State_Penalty>
0.000440551

> <r_epik_Charging_Adjusted_Penalty>
0.000440551

> <i_epik_Tot_Q>
0

> <i_epik_Tot_abs_Q>
0

> <r_epik_Metal_State_Penalty>
-0

> <b_epik_Metal_Only>
0

> <s_lp_Force_Field>
OPLS_2005

> <r_lp_Energy>
48.2465

> <b_lp_Chiralities_Consistent>
1

> <s_lp_Variant>
AV-unprocessed.smi:221-8

> <Gold.Version>
5.8.1

> <Gold.Id.Protein>
6NUR|6NUR_protein|mol2

> <Gold.PLP.Fitness>
48.3227

> <Gold.PLP.PLP>
-35.8585

> <Gold.PLP.part.hbond>
-5.7012

> <Gold.PLP.part.metal>
0.0000

> <Gold.PLP.part.buried>
-4.7417

> <Gold.PLP.part.nonpolar>
-27.6198

> <Gold.PLP.part.repulsive>
2.6852

> <Gold.PLP.ligand.clash>
0.0000

> <Gold.PLP.ligand.torsion>
1.6181

> <Gold.PLP.Chemscore.Hbond>
4.7853

> <Gold.PLP.Chemscore.CHOScore>
0.3187

> <Gold.PLP.Chemscore.Metal>
0.0000

> <Gold.Chemscore.Hbonds>
donor molecule, donor type, donor heavy atom, donor atom, acceptor molecule, acceptor atom, score
      L1  H     1    30       P1 11000  0.34
      L1  H     1    31       P1 10957  1.00
      L1  H    22    43       P1  7957  0.58
      P1  H  7989  7998       L1    22  0.45
      P1  H  7997  8009       L1    26  1.00
      P1  H  8011  8017       L1    22  0.70
      L1  C    12    36       P1  7957  0.51

> <Gold.PLP.Chemscore.Internal.Correction>
0.3884

> <Gold.Rescore>
     Score         DG    S(hbond)    S(metal)    S(lipo)     H(rot)  DE(clash)    DE(int)     intcor
     12.33     -15.77       3.68        0.00      55.45       3.31       0.67       2.77       ----

> <Gold.Chemscore.Fitness>
12.3340

> <Gold.Chemscore.DG>
-15.7735

> <Gold.Chemscore.ZeroCoef>
-5.4800

> <Gold.Chemscore.Hbond>
3.6756

> <Gold.Chemscore.Metal>
0.0000

> <Gold.Chemscore.Lipo>
55.4529

> <Gold.Chemscore.Internal_Hbond>
0.0000

> <Gold.Chemscore.DEClash>
0.6722

> <Gold.Chemscore.DEInternal>
2.7673

> <Gold.Chemscore.Rot>
3.3089

> <Gold.Chemscore.Internal.Correction>
   9.000000E+99

> <Gold.Chemscore.Hbonds>
donor molecule, donor type, donor heavy atom, donor atom, acceptor molecule, acceptor atom, score
      L1  H     1    30       P1 11000  0.30
      L1  H     1    31       P1 10957  1.00
      L1  H    22    43       P1  7957  0.58
      P1  H  7989  7998       L1    22  0.17
      P1  H  7997  8009       L1    26  0.94
      P1  H  8011  8017       L1    22  0.17

> <Gold.Chemscore.Hbond.Weighted>
-12.2764

> <Gold.Chemscore.Metal.Weighted>
-0.0000

> <Gold.Chemscore.Lipo.Weighted>
-6.4880

> <Gold.Chemscore.Internal_Hbond.Weighted>
0.0000

> <Gold.Chemscore.DEClash.Weighted>
0.6722

> <Gold.Chemscore.DEInternal.Weighted>
2.7673

> <Gold.Chemscore.Rot.Weighted>
8.4709

> <Gold.Chemscore.Internal.Correction.Weighted>
   9.000000E+99

> <Gold.Protein.RotatedTorsions>
[ 6907 6896 6895 6894 ] final  -54.66 input  -60.11 | X-H torsion
[ 7974 7965 7964 7962 ] final  -14.29 input  175.53 | X-H torsion
[ 8008 7997 7996 7995 ] final -179.27 input   59.86 | X-H torsion
[ 10167 10162 10161 10158 ] final  -88.88 input  -65.29 | X-H torsion
[ 10718 10713 10712 10709 ] final  110.29 input   66.30 | X-H torsion
[ 10763 10752 10751 10750 ] final  -45.68 input  -60.55 | X-H torsion
[ 11005 11000 10999 10996 ] final -161.49 input  -57.11 | X-H torsion

> <Gold.Protein.ActiveResidues>
 VAL166  LYS551  ARG553  GLY616  TRP617  ASP618  TYR619  PRO620  LYS621  CYS622 
 ASP623  PHE694  ASN695  SER759  ASP760  ASP761  ALA762  ILE779  LEU786  VAL792 
 PHE793  MET794  SER795  GLU796  ALA797  LYS798  CYS799  TRP800  GLU811  SER814 

> <Gold.Protein.RotatedAtoms>
  150.8318  134.7575  159.6859 H   0  0  0  0  0  0  0  0  0  0  0  0  # atno 6907 bound_to 6896
  152.4421  134.5565  159.9892 H   0  0  0  0  0  0  0  0  0  0  0  0  # atno 6908 bound_to 6896
  151.5724  133.3350  159.3028 H   0  0  0  0  0  0  0  0  0  0  0  0  # atno 6909 bound_to 6896
  146.2080  140.3327  142.8400 H   0  0  0  0  0  0  0  0  0  0  0  0  # atno 7974 bound_to 7965
  156.0286  140.1277  157.0282 H   0  0  0  0  0  0  0  0  0  0  0  0  # atno 8008 bound_to 7997
  154.4340  140.1054  156.6136 H   0  0  0  0  0  0  0  0  0  0  0  0  # atno 8009 bound_to 7997
  155.5841  140.3468  155.4550 H   0  0  0  0  0  0  0  0  0  0  0  0  # atno 8010 bound_to 7997
  140.3703  143.2798  151.9509 H   0  0  0  0  0  0  0  0  0  0  0  0  # atno 10167 bound_to 10162
  157.6501  131.0930  150.6579 H   0  0  0  0  0  0  0  0  0  0  0  0  # atno 10718 bound_to 10713
  154.0325  135.6655  153.4782 H   0  0  0  0  0  0  0  0  0  0  0  0  # atno 10763 bound_to 10752
  153.0534  135.5070  154.7919 H   0  0  0  0  0  0  0  0  0  0  0  0  # atno 10764 bound_to 10752
  154.6869  135.3054  154.9500 H   0  0  0  0  0  0  0  0  0  0  0  0  # atno 10765 bound_to 10752
  140.6198  134.4762  157.5222 H   0  0  0  0  0  0  0  0  0  0  0  0  # atno 11005 bound_to 11000
  144.8841  140.7438  143.5968 LP  0  0  0  0  0  0  0  0  0  0  0  0  # atno 17320 bound_to 7965
  145.3248  139.1777  143.4568 LP  0  0  0  0  0  0  0  0  0  0  0  0  # atno 17321 bound_to 7965
  139.4804  144.5913  151.7767 LP  0  0  0  0  0  0  0  0  0  0  0  0  # atno 17342 bound_to 10162
  140.5040  144.1126  150.5978 LP  0  0  0  0  0  0  0  0  0  0  0  0  # atno 17343 bound_to 10162
  156.6891  130.4590  149.5605 LP  0  0  0  0  0  0  0  0  0  0  0  0  # atno 17370 bound_to 10713
  156.1874  130.6538  151.1022 LP  0  0  0  0  0  0  0  0  0  0  0  0  # atno 17371 bound_to 10713
  139.9158  134.8250  156.1372 LP  0  0  0  0  0  0  0  0  0  0  0  0  # atno 17394 bound_to 11000
  141.0750  133.6779  156.2218 LP  0  0  0  0  0  0  0  0  0  0  0  0  # atno 17395 bound_to 11000

$$$$
