AV-unprocessed.smi:50|AV-procd|sdf|492|dock8
  -GOLD-   2262016353D 1   1.00000     0.00000
 Structure written by MMmdl.
 44 45  0  0  0  0  0  0  0  0  2 V2000
  146.8067  140.0194  155.0948 C   0  0  0  0  0  0  0  0  0  0  0  0
  147.7337  139.6783  153.9115 C   0  0  0  0  0  0  0  0  0  0  0  0
  146.9793  138.7752  152.9176 C   0  0  0  0  0  0  0  0  0  0  0  0
  149.0719  139.0398  154.3750 C   0  0  1  0  0  0  0  0  0  0  0  0
  149.7488  138.3293  153.2739 N   0  3  0  0  0  0  0  0  0  0  0  0
  150.0982  140.0520  154.9088 C   0  0  0  0  0  0  0  0  0  0  0  0
  151.3083  139.8389  154.9979 O   0  0  0  0  0  0  0  0  0  0  0  0
  149.4801  141.1800  155.2988 O   0  0  0  0  0  0  0  0  0  0  0  0
  150.1149  142.0433  156.2290 C   0  0  0  0  0  0  0  0  0  0  0  0
  150.1687  141.3678  157.6020 C   0  0  0  0  0  0  0  0  0  0  0  0
  151.2480  141.9199  158.3386 O   0  0  0  0  0  0  0  0  0  0  0  0
  152.3993  141.1422  158.2939 C   0  0  0  0  0  0  0  0  0  0  0  0
  153.0743  141.2530  159.5753 N   0  0  0  0  0  0  0  0  0  0  0  0
  154.1076  140.5007  160.0800 C   0  0  0  0  0  0  0  0  0  0  0  0
  154.4863  140.8546  161.2765 N   0  0  0  0  0  0  0  0  0  0  0  0
  153.6409  141.9105  161.6034 C   0  0  0  0  0  0  0  0  0  0  0  0
  153.5725  142.7057  162.7968 C   0  0  0  0  0  0  0  0  0  0  0  0
  154.2680  142.6253  163.8071 O   0  0  0  0  0  0  0  0  0  0  0  0
  152.5622  143.6736  162.7287 N   0  0  0  0  0  0  0  0  0  0  0  0
  151.7198  143.8494  161.6335 C   0  0  0  0  0  0  0  0  0  0  0  0
  150.8010  144.8192  161.7294 N   0  0  0  0  0  0  0  0  0  0  0  0
  151.7865  143.1192  160.5339 N   0  0  0  0  0  0  0  0  0  0  0  0
  152.7649  142.1616  160.5650 C   0  0  0  0  0  0  0  0  0  0  0  0
  148.8570  138.3081  155.1547 H   0  0  0  0  0  0  0  0  0  0  0  0
  152.4500  144.2728  163.5332 H   0  0  0  0  0  0  0  0  0  0  0  0
  146.5672  139.1294  155.6777 H   0  0  0  0  0  0  0  0  0  0  0  0
  145.8667  140.4475  154.7452 H   0  0  0  0  0  0  0  0  0  0  0  0
  147.2530  140.7480  155.7711 H   0  0  0  0  0  0  0  0  0  0  0  0
  147.9563  140.6112  153.3903 H   0  0  0  0  0  0  0  0  0  0  0  0
  146.7539  137.8034  153.3585 H   0  0  0  0  0  0  0  0  0  0  0  0
  147.5520  138.6045  152.0061 H   0  0  0  0  0  0  0  0  0  0  0  0
  146.0336  139.2279  152.6172 H   0  0  0  0  0  0  0  0  0  0  0  0
  149.8811  138.9630  152.4987 H   0  0  0  0  0  0  0  0  0  0  0  0
  149.1782  137.5500  152.9780 H   0  0  0  0  0  0  0  0  0  0  0  0
  151.1271  142.2541  155.8814 H   0  0  0  0  0  0  0  0  0  0  0  0
  149.5862  142.9954  156.2970 H   0  0  0  0  0  0  0  0  0  0  0  0
  149.2239  141.4940  158.1332 H   0  0  0  0  0  0  0  0  0  0  0  0
  150.3307  140.2973  157.4688 H   0  0  0  0  0  0  0  0  0  0  0  0
  152.1415  140.0963  158.1162 H   0  0  0  0  0  0  0  0  0  0  0  0
  153.0785  141.4940  157.5158 H   0  0  0  0  0  0  0  0  0  0  0  0
  154.5713  139.6885  159.5392 H   0  0  0  0  0  0  0  0  0  0  0  0
  150.7487  145.3777  162.5693 H   0  0  0  0  0  0  0  0  0  0  0  0
  150.1634  144.9952  160.9665 H   0  0  0  0  0  0  0  0  0  0  0  0
  150.6457  137.9902  153.5912 H   0  0  0  0  0  0  0  0  0  0  0  0
  1  2  1  0  0  0  0
  1 26  1  0  0  0  0
  1 27  1  0  0  0  0
  1 28  1  0  0  0  0
  2  3  1  0  0  0  0
  2  4  1  0  0  0  0
  2 29  1  0  0  0  0
  3 30  1  0  0  0  0
  3 31  1  0  0  0  0
  3 32  1  0  0  0  0
  4 24  1  0  0  0  0
  4  5  1  0  0  0  0
  4  6  1  0  0  0  0
  5 33  1  0  0  0  0
  5 34  1  0  0  0  0
  5 44  1  0  0  0  0
  6  7  2  0  0  0  0
  6  8  1  0  0  0  0
  8  9  1  0  0  0  0
  9 10  1  0  0  0  0
  9 35  1  0  0  0  0
  9 36  1  0  0  0  0
 10 11  1  0  0  0  0
 10 37  1  0  0  0  0
 10 38  1  0  0  0  0
 11 12  1  0  0  0  0
 12 13  1  0  0  0  0
 12 39  1  0  0  0  0
 12 40  1  0  0  0  0
 13 23  1  0  0  0  0
 13 14  1  0  0  0  0
 14 15  2  0  0  0  0
 14 41  1  0  0  0  0
 15 16  1  0  0  0  0
 16 23  2  0  0  0  0
 16 17  1  0  0  0  0
 17 18  2  0  0  0  0
 17 19  1  0  0  0  0
 19 25  1  0  0  0  0
 19 20  1  0  0  0  0
 20 21  1  0  0  0  0
 20 22  2  0  0  0  0
 21 42  1  0  0  0  0
 21 43  1  0  0  0  0
 22 23  1  0  0  0  0
M  CHG  1   5   1
M  END
> <s_m_source_file>
AV-unprocessed.smi

> <i_m_source_file_index>
50

> <i_lp_mmshare_version>
43012

> <i_f3d_flags>
0

> <s_epik_input>
W0NIM11bQ0hdKFtDSDNdKVtDQEhdKFtOSDJdKUMoPU8pT1tDSDJdW0NIMl1PW0NIMl1uKFtjSF1uMSljKGMxMiluYyhbTkgyXSlbbkhdYzI9Tw==

> <s_epik_cmdline>
J2VwaWtfcHl0aG9uJywgJy1waCcsICc3LjAnLCAnLXRuJywgJzgnLCAnLW1hJywgJzIwMCcsICctbWV0YWxfYmluZGluZycsICctaW1hZScsICc8aW5maWxlLm1hZT4nLCAnLW9tYWUnLCAnPG91dGZpbGUubWFlPic=

> <r_lp_tautomer_probability>
0.99994

> <r_epik_Ionization_Penalty>
0.217551

> <r_epik_Ionization_Penalty_Charging>
0.217477

> <r_epik_Ionization_Penalty_Neutral>
7.42487e-05

> <r_epik_State_Penalty>
0.206211

> <r_epik_Charging_Adjusted_Penalty>
0.423688

> <i_epik_Tot_Q>
1

> <i_epik_Tot_abs_Q>
1

> <r_epik_Metal_State_Penalty>
0.526339

> <b_epik_Metal_Only>
0

> <s_epik_Chemistry_Notes>
This compound has an ester and may undergo hydrolysis at high or low pH. This compound contains an acetal/aminal-like group ( X-CH(R)-Y where X, Y are N, S, or O) that may be acid/base labile, releasing an aldehyde.

> <s_lp_Force_Field>
OPLS_2005

> <r_lp_Energy>
7.49642

> <b_lp_Chiralities_Consistent>
1

> <s_lp_Variant>
AV-unprocessed.smi:50-2

> <Gold.Version>
5.8.1

> <Gold.Id.Protein>
6NUR|6NUR_protein|mol2

> <Gold.PLP.Fitness>
50.0933

> <Gold.PLP.PLP>
-43.1078

> <Gold.PLP.part.hbond>
-7.0864

> <Gold.PLP.part.metal>
0.0000

> <Gold.PLP.part.buried>
-5.2351

> <Gold.PLP.part.nonpolar>
-31.4647

> <Gold.PLP.part.repulsive>
0.6020

> <Gold.PLP.ligand.clash>
0.0000

> <Gold.PLP.ligand.torsion>
2.0914

> <Gold.PLP.Chemscore.Hbond>
3.6500

> <Gold.PLP.Chemscore.CHOScore>
0.0000

> <Gold.PLP.Chemscore.Metal>
0.0000

> <Gold.Chemscore.Hbonds>
donor molecule, donor type, donor heavy atom, donor atom, acceptor molecule, acceptor atom, score
      L1  H     5    33       P1  7957  1.00
      L1  H     5    34       P1  7948  1.82
      P1  H  7989  7998       L1     7  0.60

> <Gold.PLP.Chemscore.Internal.Correction>
0.2183

> <Gold.Rescore>
     Score         DG    S(hbond)    S(metal)    S(lipo)     H(rot)  DE(clash)    DE(int)     intcor
     -1.92      -5.45       2.28        0.00      41.01       4.86       3.07       4.29       ----

> <Gold.Chemscore.Fitness>
-1.9151

> <Gold.Chemscore.DG>
-5.4465

> <Gold.Chemscore.ZeroCoef>
-5.4800

> <Gold.Chemscore.Hbond>
2.2761

> <Gold.Chemscore.Metal>
0.0000

> <Gold.Chemscore.Lipo>
41.0139

> <Gold.Chemscore.Internal_Hbond>
0.0000

> <Gold.Chemscore.DEClash>
3.0683

> <Gold.Chemscore.DEInternal>
4.2933

> <Gold.Chemscore.Rot>
4.8571

> <Gold.Chemscore.Internal.Correction>
   9.000000E+99

> <Gold.Chemscore.Hbonds>
donor molecule, donor type, donor heavy atom, donor atom, acceptor molecule, acceptor atom, score
      L1  H     5    33       P1  7957  0.65
      L1  H     5    34       P1  7948  0.89
      P1  H  7989  7998       L1     7  0.04

> <Gold.Chemscore.Hbond.Weighted>
-7.6021

> <Gold.Chemscore.Metal.Weighted>
-0.0000

> <Gold.Chemscore.Lipo.Weighted>
-4.7986

> <Gold.Chemscore.Internal_Hbond.Weighted>
0.0000

> <Gold.Chemscore.DEClash.Weighted>
3.0683

> <Gold.Chemscore.DEInternal.Weighted>
4.2933

> <Gold.Chemscore.Rot.Weighted>
12.4343

> <Gold.Chemscore.Internal.Correction.Weighted>
   9.000000E+99

> <Gold.Protein.RotatedTorsions>
[ 6907 6896 6895 6894 ] final  -18.32 input  -60.11 | X-H torsion
[ 7974 7965 7964 7962 ] final  127.91 input  175.53 | X-H torsion
[ 8008 7997 7996 7995 ] final   47.08 input   59.86 | X-H torsion
[ 10167 10162 10161 10158 ] final   11.17 input  -65.29 | X-H torsion
[ 10718 10713 10712 10709 ] final   32.69 input   66.30 | X-H torsion
[ 10763 10752 10751 10750 ] final   70.23 input  -60.55 | X-H torsion
[ 11005 11000 10999 10996 ] final  152.30 input  -57.11 | X-H torsion

> <Gold.Protein.ActiveResidues>
 VAL166  LYS551  ARG553  GLY616  TRP617  ASP618  TYR619  PRO620  LYS621  CYS622 
 ASP623  PHE694  ASN695  SER759  ASP760  ASP761  ALA762  ILE779  LEU786  VAL792 
 PHE793  MET794  SER795  GLU796  ALA797  LYS798  CYS799  TRP800  GLU811  SER814 

> <Gold.Protein.RotatedAtoms>
  151.2800  135.0711  159.9165 H   0  0  0  0  0  0  0  0  0  0  0  0  # atno 6907 bound_to 6896
  152.5336  134.0041  159.7918 H   0  0  0  0  0  0  0  0  0  0  0  0  # atno 6908 bound_to 6896
  151.0293  133.5754  159.2693 H   0  0  0  0  0  0  0  0  0  0  0  0  # atno 6909 bound_to 6896
  145.0454  139.3928  143.5081 H   0  0  0  0  0  0  0  0  0  0  0  0  # atno 7974 bound_to 7965
  155.3631  140.3420  155.4241 H   0  0  0  0  0  0  0  0  0  0  0  0  # atno 8008 bound_to 7997
  156.1703  140.1629  156.8494 H   0  0  0  0  0  0  0  0  0  0  0  0  # atno 8009 bound_to 7997
  154.5226  140.0763  156.8182 H   0  0  0  0  0  0  0  0  0  0  0  0  # atno 8010 bound_to 7997
  140.6149  143.8330  150.7107 H   0  0  0  0  0  0  0  0  0  0  0  0  # atno 10167 bound_to 10162
  157.2884  130.7290  149.6596 H   0  0  0  0  0  0  0  0  0  0  0  0  # atno 10718 bound_to 10713
  153.0330  135.5181  154.7410 H   0  0  0  0  0  0  0  0  0  0  0  0  # atno 10763 bound_to 10752
  154.6409  135.2912  155.0106 H   0  0  0  0  0  0  0  0  0  0  0  0  # atno 10764 bound_to 10752
  154.1024  135.6634  153.4923 H   0  0  0  0  0  0  0  0  0  0  0  0  # atno 10765 bound_to 10752
  140.1296  134.8811  157.2185 H   0  0  0  0  0  0  0  0  0  0  0  0  # atno 11005 bound_to 11000
  146.3513  140.0076  142.8670 LP  0  0  0  0  0  0  0  0  0  0  0  0  # atno 17320 bound_to 7965
  145.1595  140.9665  143.4385 LP  0  0  0  0  0  0  0  0  0  0  0  0  # atno 17321 bound_to 7965
  140.1907  143.4039  152.1865 LP  0  0  0  0  0  0  0  0  0  0  0  0  # atno 17342 bound_to 10162
  139.5390  144.7238  151.4796 LP  0  0  0  0  0  0  0  0  0  0  0  0  # atno 17343 bound_to 10162
  155.9666  130.4316  150.4929 LP  0  0  0  0  0  0  0  0  0  0  0  0  # atno 17370 bound_to 10713
  157.2887  131.0621  151.2149 LP  0  0  0  0  0  0  0  0  0  0  0  0  # atno 17371 bound_to 10713
  140.2859  134.3296  155.7329 LP  0  0  0  0  0  0  0  0  0  0  0  0  # atno 17394 bound_to 11000
  141.2167  133.7506  156.9433 LP  0  0  0  0  0  0  0  0  0  0  0  0  # atno 17395 bound_to 11000

$$$$
