#       Name:                AV-unprocessed.smi:2032
#       Creating user name   scv26
#       Creation time:       Fri Mar 27 10:52:55 2020


#       File generated by GOLD software.
#

@<TRIPOS>MOLECULE
AV-unprocessed.smi:2032
    48    49     1
SMALL
NO_CHARGES


@<TRIPOS>ATOM
      1 ****        -4.1193  -2.1341  -1.9191 C.3            1 S1                 0.0000
      2 ****        -3.4314  -1.3568  -0.7916 C.3            1 S1                 0.0000
      3 ****        -1.8972  -1.3926  -0.9122 C.3            1 S1                 0.0000
      4 ****        -1.2541  -0.6726   0.2205 N.4            1 S1                 1.0000
      5 ****         0.2376  -0.5836   0.0839 C.3            1 S1                 0.0000
      6 ****         0.9527  -0.2355   1.4133 C.3            1 S1                 0.0000
      7 ****         0.6085   0.4365  -1.0246 C.3            1 S1                 0.0000
      8 ****         2.0495   0.5554  -1.2344 N.am           1 S1                 0.0000
      9 ****         2.8173   1.6013  -0.8951 C.2            1 S1                 0.0000
     10 ****         2.3178   2.5776  -0.3315 O.2            1 S1                 0.0000
     11 ****         4.1186   1.4469  -1.2261 N.pl3          1 S1                -1.0000
     12 ****         4.9977   2.4278  -0.9636 C.2            1 S1                 0.0000
     13 ****         5.4145   3.2989  -1.8896 N.2            1 S1                 0.0000
     14 ****         6.3293   4.2334  -1.4009 C.2            1 S1                 0.0000
     15 ****         6.6217   4.0651  -0.0735 C.2            1 S1                 0.0000
     16 ****         5.7531   2.7184   0.6060 S.3            1 S1                 0.0000
     17 ****        -1.7524  -1.2341   1.5066 C.3            1 S1                 0.0000
     18 ****        -3.2926  -1.2262   1.5588 C.3            1 S1                 0.0000
     19 ****        -3.8303  -1.8785   2.8375 C.3            1 S1                 0.0000
     20 ****        -3.8082  -1.9445   0.4460 O.3            1 S1                 0.0000
     21 ****        -3.8689  -1.7153  -2.8942 H              1 S1                 0.0000
     22 ****        -5.2037  -2.0974  -1.8119 H              1 S1                 0.0000
     23 ****        -3.8199  -3.1827  -1.9180 H              1 S1                 0.0000
     24 ****        -3.7797  -0.3228  -0.8234 H              1 S1                 0.0000
     25 ****        -1.5472  -2.4261  -0.9298 H              1 S1                 0.0000
     26 ****        -1.6215  -0.9513  -1.8675 H              1 S1                 0.0000
     27 ****         0.6021  -1.5672  -0.2169 H              1 S1                 0.0000
     28 ****         2.0325  -0.1664   1.2871 H              1 S1                 0.0000
     29 ****         0.8034  -1.0014   2.1740 H              1 S1                 0.0000
     30 ****         0.6088   0.7191   1.8127 H              1 S1                 0.0000
     31 ****         0.2031   0.1366  -1.9886 H              1 S1                 0.0000
     32 ****         0.1590   1.4057  -0.8030 H              1 S1                 0.0000
     33 ****         2.5089  -0.2195  -1.6905 H              1 S1                 0.0000
     34 ****         6.7219   4.9845  -2.0701 H              1 S1                 0.0000
     35 ****         7.2917   4.6455   0.5426 H              1 S1                 0.0000
     36 ****        -1.3715  -2.2490   1.6331 H              1 S1                 0.0000
     37 ****        -1.3986  -0.6418   2.3499 H              1 S1                 0.0000
     38 ****        -3.6546  -0.1970   1.5192 H              1 S1                 0.0000
     39 ****        -3.4710  -1.3580   3.7257 H              1 S1                 0.0000
     40 ****        -3.5182  -2.9208   2.9112 H              1 S1                 0.0000
     41 ****        -4.9202  -1.8554   2.8584 H              1 S1                 0.0000
     42 ****        -1.5903   0.2795   0.1904 H              1 S1                 0.0000
     43 ****         1.3391   2.5901  -0.1269 LP             1 S1                 0.0000
     44 ****         2.8915   3.3568  -0.0791 LP             1 S1                 0.0000
     45 ****         4.4265   0.6032  -1.6660 LP             1 S1                 0.0000
     46 ****         5.1013   3.2822  -2.8392 LP             1 S1                 0.0000
     47 ****        -3.4595  -2.8812   0.4774 LP             1 S1                 0.0000
     48 ****        -4.8063  -1.9583   0.5056 LP             1 S1                 0.0000
@<TRIPOS>BOND
    1    1    2 1     
    2    1   21 1     
    3    1   22 1     
    4    1   23 1     
    5    2   20 1     
    6    2    3 1     
    7    2   24 1     
    8    3    4 1     
    9    3   25 1     
   10    3   26 1     
   11    4    5 1     
   12    4   17 1     
   13    4   42 1     
   14    5    6 1     
   15    5    7 1     
   16    5   27 1     
   17    6   28 1     
   18    6   29 1     
   19    6   30 1     
   20    7    8 1     
   21    7   31 1     
   22    7   32 1     
   23    8    9 am    
   24    8   33 1     
   25    9   10 2     
   26    9   11 1     
   27   11   12 1     
   28   12   16 1     
   29   12   13 2     
   30   13   14 1     
   31   14   15 2     
   32   14   34 1     
   33   15   16 1     
   34   15   35 1     
   35   17   18 1     
   36   17   36 1     
   37   17   37 1     
   38   18   19 1     
   39   18   20 1     
   40   18   38 1     
   41   19   39 1     
   42   19   40 1     
   43   19   41 1     
   44   10   43 1     
   45   10   44 1     
   46   11   45 1     
   47   13   46 1     
   48   20   47 1     
   49   20   48 1     
@<TRIPOS>SUBSTRUCTURE
      1 S1             1
@<TRIPOS>SET
LONE_PAIRS      STATIC     ATOMS    <user>   **** ""
6 43 44 45 46 47 48
DONOR_HYDROGENS      STATIC     ATOMS    <user>   **** ""
2 42 33
ATOM$BLUE        STATIC     ATOMS    COLORGROUP SYSTEM
6 43 44 45 46 47 48
ATOM$RED        STATIC     ATOMS    COLORGROUP SYSTEM
2 42 33
