#       Name:                AV-unprocessed.smi:161
#       Creating user name   scv26
#       Creation time:       Thu Mar 26 19:09:44 2020


#       File generated by GOLD software.
#

@<TRIPOS>MOLECULE
AV-unprocessed.smi:161
    60    63     1
SMALL
NO_CHARGES


@<TRIPOS>ATOM
      1 ****        -3.3916  -2.1043   0.9941 C.3            1 S1                 0.0000
      2 ****        -3.0739  -0.7392   1.6082 C.3            1 S1                 0.0000
      3 ****        -1.6727  -0.6338   1.7997 O.3            1 S1                 0.0000
      4 ****        -1.1095   0.5597   2.0551 C.2            1 S1                 0.0000
      5 ****        -1.7517   1.6056   2.1599 O.2            1 S1                 0.0000
      6 ****         0.3884   0.4294   2.2029 C.3            1 S1                 0.0000
      7 ****         0.9212  -0.4167   3.3645 C.3            1 S1                 0.0000
      8 ****         2.1393   0.4463   2.9877 C.3            1 S1                 0.0000
      9 ****         3.3804   0.5281   3.8619 C.3            1 S1                 0.0000
     10 ****         1.1076   1.5798   2.9230 C.3            1 S1                 0.0000
     11 ****         2.4389   0.1390   1.6156 O.3            1 S1                 0.0000
     12 ****         1.1791   0.0840   0.9424 C.3            1 S1                 0.0000
     13 ****         1.1179   1.1592  -0.1809 C.3            1 S1                 0.0000
     14 ****         1.9456   0.7567  -1.4138 C.3            1 S1                 0.0000
     15 ****         1.4911  -0.5617  -1.8698 N.am           1 S1                 0.0000
     16 ****         0.6023  -0.8012  -2.8667 C.2            1 S1                 0.0000
     17 ****         0.0983  -1.9102  -3.0473 O.2            1 S1                 0.0000
     18 ****         0.1776   0.3228  -3.7327 C.2            1 S1                 0.0000
     19 ****         0.8392   1.2335  -4.5093 C.2            1 S1                 0.0000
     20 ****        -0.0916   2.0582  -5.1340 N.2            1 S1                 0.0000
     21 ****        -1.2840   1.6908  -4.7889 N.2            1 S1                 0.0000
     22 ****        -1.1591   0.6353  -3.9472 N.pl3          1 S1                 0.0000
     23 ****        -2.3692   0.0318  -3.4035 C.3            1 S1                 0.0000
     24 ****        -2.5907   0.4066  -1.9322 C.3            1 S1                 0.0000
     25 ****         1.8381  -1.5890  -0.8847 C.3            1 S1                 0.0000
     26 ****         0.9794  -1.3517   0.3697 C.3            1 S1                 0.0000
     27 ****        -4.4650  -2.2232   0.8472 H              1 S1                 0.0000
     28 ****        -3.0502  -2.9140   1.6392 H              1 S1                 0.0000
     29 ****        -2.9066  -2.2191   0.0244 H              1 S1                 0.0000
     30 ****        -3.4300   0.0518   0.9467 H              1 S1                 0.0000
     31 ****        -3.5833  -0.6233   2.5652 H              1 S1                 0.0000
     32 ****         0.4836  -0.2317   4.3501 H              1 S1                 0.0000
     33 ****         1.0349  -1.4833   3.1786 H              1 S1                 0.0000
     34 ****         3.1218   0.7635   4.8945 H              1 S1                 0.0000
     35 ****         4.0618   1.3014   3.5072 H              1 S1                 0.0000
     36 ****         3.9236  -0.4169   3.8642 H              1 S1                 0.0000
     37 ****         1.4003   2.4340   2.3149 H              1 S1                 0.0000
     38 ****         0.6865   1.9034   3.8797 H              1 S1                 0.0000
     39 ****         0.0829   1.3078  -0.4891 H              1 S1                 0.0000
     40 ****         1.4669   2.1280   0.1715 H              1 S1                 0.0000
     41 ****         1.8787   1.5338  -2.1708 H              1 S1                 0.0000
     42 ****         3.0031   0.7070  -1.1507 H              1 S1                 0.0000
     43 ****         1.8998   1.3621  -4.6674 H              1 S1                 0.0000
     44 ****        -3.2258   0.3565  -3.9960 H              1 S1                 0.0000
     45 ****        -2.3139  -1.0502  -3.5198 H              1 S1                 0.0000
     46 ****        -3.5331  -0.0025  -1.5683 H              1 S1                 0.0000
     47 ****        -2.6245   1.4882  -1.7996 H              1 S1                 0.0000
     48 ****        -1.7975   0.0145  -1.2963 H              1 S1                 0.0000
     49 ****         1.6855  -2.6008  -1.2633 H              1 S1                 0.0000
     50 ****         2.8983  -1.5263  -0.6356 H              1 S1                 0.0000
     51 ****         1.2146  -2.1162   1.1078 H              1 S1                 0.0000
     52 ****        -0.0626  -1.5059   0.0923 H              1 S1                 0.0000
     53 ****        -2.7460   1.5946   2.0539 LP             1 S1                 0.0000
     54 ****        -1.2788   2.4658   2.3510 LP             1 S1                 0.0000
     55 ****         2.9067  -0.7424   1.5507 LP             1 S1                 0.0000
     56 ****         3.0153   0.8525   1.2172 LP             1 S1                 0.0000
     57 ****         0.3407  -2.6731  -2.4480 LP             1 S1                 0.0000
     58 ****        -0.5534  -2.0477  -3.7932 LP             1 S1                 0.0000
     59 ****         0.1260   2.8143  -5.7512 LP             1 S1                 0.0000
     60 ****        -2.1413   2.1094  -5.0886 LP             1 S1                 0.0000
@<TRIPOS>BOND
    1    1    2 1     
    2    1   27 1     
    3    1   28 1     
    4    1   29 1     
    5    2    3 1     
    6    2   30 1     
    7    2   31 1     
    8    3    4 1     
    9    4    5 2     
   10    4    6 1     
   11    6   10 1     
   12    6   12 1     
   13    6    7 1     
   14    7    8 1     
   15    7   32 1     
   16    7   33 1     
   17    8    9 1     
   18    8   10 1     
   19    8   11 1     
   20    9   34 1     
   21    9   35 1     
   22    9   36 1     
   23   10   37 1     
   24   10   38 1     
   25   11   12 1     
   26   12   26 1     
   27   12   13 1     
   28   13   14 1     
   29   13   39 1     
   30   13   40 1     
   31   14   15 1     
   32   14   41 1     
   33   14   42 1     
   34   15   16 am    
   35   15   25 1     
   36   16   17 2     
   37   16   18 1     
   38   18   22 1     
   39   18   19 2     
   40   19   20 1     
   41   19   43 1     
   42   20   21 2     
   43   21   22 1     
   44   22   23 1     
   45   23   24 1     
   46   23   44 1     
   47   23   45 1     
   48   24   46 1     
   49   24   47 1     
   50   24   48 1     
   51   25   26 1     
   52   25   49 1     
   53   25   50 1     
   54   26   51 1     
   55   26   52 1     
   56    5   53 1     
   57    5   54 1     
   58   11   55 1     
   59   11   56 1     
   60   17   57 1     
   61   17   58 1     
   62   20   59 1     
   63   21   60 1     
@<TRIPOS>SUBSTRUCTURE
      1 S1             1
@<TRIPOS>SET
LONE_PAIRS      STATIC     ATOMS    <user>   **** ""
8 53 54 55 56 57 58 59 60
ATOM$BLUE        STATIC     ATOMS    COLORGROUP SYSTEM
8 53 54 55 56 57 58 59 60
