#       Name:                AV-unprocessed.smi:652
#       Creating user name   scv26
#       Creation time:       Fri Mar 27 00:12:44 2020


#       File generated by GOLD software.
#

@<TRIPOS>MOLECULE
AV-unprocessed.smi:652
    54    55     1
SMALL
NO_CHARGES


@<TRIPOS>ATOM
      1 ****        -6.4104  -0.8796  -0.1498 C.3            1 S1                 0.0000
      2 ****        -5.0574  -0.4982  -0.7700 C.3            1 S1                 0.0000
      3 ****        -5.0863  -0.5919  -2.3014 C.3            1 S1                 0.0000
      4 ****        -3.9977  -1.3588  -0.2530 N.am           1 S1                 0.0000
      5 ****        -3.3091  -1.1518   0.8804 C.2            1 S1                 0.0000
      6 ****        -3.5215  -0.2075   1.6413 O.2            1 S1                 0.0000
      7 ****        -2.2074  -2.1661   1.2049 C.3            1 S1                 0.0000
      8 ****        -0.8297  -1.5096   1.4366 C.3            1 S1                 0.0000
      9 ****        -0.3291  -0.6760   0.3414 N.3            1 S1                 0.0000
     10 ****        -0.0198  -1.4493  -0.8584 C.3            1 S1                 0.0000
     11 ****         0.5081  -0.5556  -1.9939 C.3            1 S1                 0.0000
     12 ****         1.6507   0.1684  -1.5488 O.3            1 S1                 0.0000
     13 ****         1.3903   0.9622  -0.3935 C.3            1 S1                 0.0000
     14 ****         2.6578   1.7476  -0.0213 C.3            1 S1                 0.0000
     15 ****         3.7710   0.8756   0.3268 N.pl3          1 S1                 0.0000
     16 ****         5.0244   1.4066   0.6556 C.ar           1 S1                 0.0000
     17 ****         5.2475   2.7905   0.8413 C.ar           1 S1                 0.0000
     18 ****         6.5510   3.2005   1.1705 C.ar           1 S1                 0.0000
     19 ****         7.5326   2.2004   1.2890 C.ar           1 S1                 0.0000
     20 ****         7.2623   0.8896   1.0994 N.ar           1 S1                 0.0000
     21 ****         6.0211   0.5001   0.7862 N.ar           1 S1                 0.0000
     22 ****         0.8574   0.0683   0.7461 C.3            1 S1                 0.0000
     23 ****        -7.2068  -0.2355  -0.5237 H              1 S1                 0.0000
     24 ****        -6.3910  -0.7786   0.9358 H              1 S1                 0.0000
     25 ****        -6.6787  -1.9103  -0.3838 H              1 S1                 0.0000
     26 ****        -4.8354   0.5377  -0.5071 H              1 S1                 0.0000
     27 ****        -5.8487   0.0659  -2.7195 H              1 S1                 0.0000
     28 ****        -5.3042  -1.6073  -2.6344 H              1 S1                 0.0000
     29 ****        -4.1277  -0.2983  -2.7309 H              1 S1                 0.0000
     30 ****        -3.7545  -2.1640  -0.8115 H              1 S1                 0.0000
     31 ****        -2.5025  -2.7066   2.1046 H              1 S1                 0.0000
     32 ****        -2.1436  -2.9164   0.4159 H              1 S1                 0.0000
     33 ****        -0.9021  -0.8998   2.3385 H              1 S1                 0.0000
     34 ****        -0.0990  -2.2859   1.6676 H              1 S1                 0.0000
     35 ****         0.7222  -2.2144  -0.6253 H              1 S1                 0.0000
     36 ****        -0.9086  -1.9712  -1.2114 H              1 S1                 0.0000
     37 ****         0.7843  -1.1621  -2.8566 H              1 S1                 0.0000
     38 ****        -0.2642   0.1398  -2.3259 H              1 S1                 0.0000
     39 ****         0.6184   1.6890  -0.6532 H              1 S1                 0.0000
     40 ****         2.9511   2.3858  -0.8557 H              1 S1                 0.0000
     41 ****         2.4393   2.4021   0.8233 H              1 S1                 0.0000
     42 ****         3.6863  -0.1140   0.1434 H              1 S1                 0.0000
     43 ****         4.4605   3.5225   0.7413 H              1 S1                 0.0000
     44 ****         6.7896   4.2421   1.3264 H              1 S1                 0.0000
     45 ****         8.5519   2.4542   1.5395 H              1 S1                 0.0000
     46 ****         0.6243   0.6899   1.6115 H              1 S1                 0.0000
     47 ****         1.6340  -0.6290   1.0639 H              1 S1                 0.0000
     48 ****        -4.2393   0.4552   1.4275 LP             1 S1                 0.0000
     49 ****        -2.9763  -0.1032   2.4730 LP             1 S1                 0.0000
     50 ****        -1.0686  -0.0400   0.1208 LP             1 S1                 0.0000
     51 ****         1.9545   0.7702  -2.2874 LP             1 S1                 0.0000
     52 ****         2.3765  -0.4840  -1.3306 LP             1 S1                 0.0000
     53 ****         7.9904   0.2106   1.1932 LP             1 S1                 0.0000
     54 ****         5.8277  -0.4711   0.6471 LP             1 S1                 0.0000
@<TRIPOS>BOND
    1    1    2 1     
    2    1   23 1     
    3    1   24 1     
    4    1   25 1     
    5    2    3 1     
    6    2    4 1     
    7    2   26 1     
    8    3   27 1     
    9    3   28 1     
   10    3   29 1     
   11    4    5 am    
   12    4   30 1     
   13    5    6 2     
   14    5    7 1     
   15    7    8 1     
   16    7   31 1     
   17    7   32 1     
   18    8    9 1     
   19    8   33 1     
   20    8   34 1     
   21    9   22 1     
   22    9   10 1     
   23   10   11 1     
   24   10   35 1     
   25   10   36 1     
   26   11   12 1     
   27   11   37 1     
   28   11   38 1     
   29   12   13 1     
   30   13   14 1     
   31   13   22 1     
   32   13   39 1     
   33   14   15 1     
   34   14   40 1     
   35   14   41 1     
   36   15   16 1     
   37   15   42 1     
   38   16   21 ar    
   39   16   17 ar    
   40   17   18 ar    
   41   17   43 1     
   42   18   19 ar    
   43   18   44 1     
   44   19   20 ar    
   45   19   45 1     
   46   20   21 ar    
   47   22   46 1     
   48   22   47 1     
   49    6   48 1     
   50    6   49 1     
   51    9   50 1     
   52   12   51 1     
   53   12   52 1     
   54   20   53 1     
   55   21   54 1     
@<TRIPOS>SUBSTRUCTURE
      1 S1             1
@<TRIPOS>SET
LONE_PAIRS      STATIC     ATOMS    <user>   **** ""
7 48 49 50 51 52 53 54
DONOR_HYDROGENS      STATIC     ATOMS    <user>   **** ""
2 30 42
ATOM$BLUE        STATIC     ATOMS    COLORGROUP SYSTEM
7 48 49 50 51 52 53 54
ATOM$RED        STATIC     ATOMS    COLORGROUP SYSTEM
2 30 42
