AV-unprocessed.smi:1157|AV-procd|sdf|4906|dock7
  -GOLD-   22720 3483D 1   1.00000     0.00000
 Structure written by MMmdl.
 54 56  0  0  0  0  0  0  0  0  1 V2000
  147.0252  132.7893  154.8184 C   0  0  0  0  0  0  0  0  0  0  0  0
  147.9439  132.4120  153.6281 C   0  0  0  0  0  0  0  0  0  0  0  0
  147.4861  133.2514  152.4110 C   0  0  0  0  0  0  0  0  0  0  0  0
  149.3716  132.8961  154.0112 C   0  0  0  0  0  0  0  0  0  0  0  0
  149.5210  134.3407  153.8658 N   0  0  0  0  0  0  0  0  0  0  0  0
  149.9845  135.1572  154.8197 C   0  0  0  0  0  0  0  0  0  0  0  0
  150.3454  134.7659  155.9296 O   0  0  0  0  0  0  0  0  0  0  0  0
  149.9786  136.4364  154.4086 N   0  0  0  0  0  0  0  0  0  0  0  0
  150.3966  137.5930  155.1198 C   0  0  0  0  0  0  0  0  0  0  0  0
  150.8705  137.5794  156.4520 C   0  0  0  0  0  0  0  0  0  0  0  0
  151.2731  138.7914  157.0451 C   0  0  0  0  0  0  0  0  0  0  0  0
  151.1969  139.9872  156.2925 C   0  0  0  0  0  0  0  0  0  0  0  0
  151.5911  141.2198  156.8498 N   0  0  0  0  0  0  0  0  0  0  0  0
  150.9930  142.4773  156.4285 C   0  0  0  0  0  0  0  0  0  0  0  0
  151.5879  143.5226  157.3705 C   0  0  0  0  0  0  0  0  0  0  0  0
  151.7845  142.7444  158.6714 C   0  0  0  0  0  0  0  0  0  0  0  0
  152.1010  141.3167  158.2108 C   0  0  0  0  0  0  0  0  0  0  0  0
  150.7627  139.9940  155.0096 N   0  0  0  0  0  0  0  0  0  0  0  0
  150.3790  138.8299  154.4454 C   0  0  0  0  0  0  0  0  0  0  0  0
  147.9122  130.9445  153.3708 N   0  0  0  0  0  0  0  0  0  0  0  0
  146.5729  130.3865  153.1482 C   0  0  0  0  0  0  0  0  0  0  0  0
  146.6231  128.8977  152.7658 C   0  0  0  0  0  0  0  0  0  0  0  0
  147.3055  128.1667  153.7772 O   0  0  0  0  0  0  0  0  0  0  0  0
  148.6316  128.6373  153.9853 C   0  0  0  0  0  0  0  0  0  0  0  0
  148.5998  130.1249  154.3754 C   0  0  0  0  0  0  0  0  0  0  0  0
  147.1699  133.8268  155.1222 H   0  0  0  0  0  0  0  0  0  0  0  0
  147.2193  132.1656  155.6917 H   0  0  0  0  0  0  0  0  0  0  0  0
  145.9680  132.6922  154.5717 H   0  0  0  0  0  0  0  0  0  0  0  0
  147.5130  134.3175  152.6398 H   0  0  0  0  0  0  0  0  0  0  0  0
  146.4636  133.0215  152.1122 H   0  0  0  0  0  0  0  0  0  0  0  0
  148.1272  133.1018  151.5424 H   0  0  0  0  0  0  0  0  0  0  0  0
  149.6254  132.6138  155.0335 H   0  0  0  0  0  0  0  0  0  0  0  0
  150.1155  132.4002  153.3847 H   0  0  0  0  0  0  0  0  0  0  0  0
  149.2378  134.7402  152.9829 H   0  0  0  0  0  0  0  0  0  0  0  0
  149.5695  136.6097  153.5019 H   0  0  0  0  0  0  0  0  0  0  0  0
  150.9484  136.6678  157.0234 H   0  0  0  0  0  0  0  0  0  0  0  0
  151.6424  138.7841  158.0597 H   0  0  0  0  0  0  0  0  0  0  0  0
  151.2166  142.7009  155.3848 H   0  0  0  0  0  0  0  0  0  0  0  0
  149.9098  142.4239  156.5474 H   0  0  0  0  0  0  0  0  0  0  0  0
  152.5550  143.8549  156.9903 H   0  0  0  0  0  0  0  0  0  0  0  0
  150.9510  144.3995  157.4878 H   0  0  0  0  0  0  0  0  0  0  0  0
  152.5639  143.1664  159.3063 H   0  0  0  0  0  0  0  0  0  0  0  0
  150.8532  142.7462  159.2393 H   0  0  0  0  0  0  0  0  0  0  0  0
  151.6437  140.5834  158.8761 H   0  0  0  0  0  0  0  0  0  0  0  0
  153.1776  141.1443  158.1963 H   0  0  0  0  0  0  0  0  0  0  0  0
  150.0408  138.8915  153.4211 H   0  0  0  0  0  0  0  0  0  0  0  0
  145.9644  130.4976  154.0458 H   0  0  0  0  0  0  0  0  0  0  0  0
  146.0576  130.9161  152.3490 H   0  0  0  0  0  0  0  0  0  0  0  0
  145.6138  128.5001  152.6589 H   0  0  0  0  0  0  0  0  0  0  0  0
  147.1242  128.7622  151.8060 H   0  0  0  0  0  0  0  0  0  0  0  0
  149.0981  128.0486  154.7754 H   0  0  0  0  0  0  0  0  0  0  0  0
  149.2246  128.4875  153.0815 H   0  0  0  0  0  0  0  0  0  0  0  0
  149.6293  130.4531  154.5069 H   0  0  0  0  0  0  0  0  0  0  0  0
  148.1088  130.2235  155.3436 H   0  0  0  0  0  0  0  0  0  0  0  0
  1  2  1  0  0  0  0
  1 26  1  0  0  0  0
  1 27  1  0  0  0  0
  1 28  1  0  0  0  0
  2  3  1  0  0  0  0
  2  4  1  0  0  0  0
  2 20  1  0  0  0  0
  3 29  1  0  0  0  0
  3 30  1  0  0  0  0
  3 31  1  0  0  0  0
  4  5  1  0  0  0  0
  4 32  1  0  0  0  0
  4 33  1  0  0  0  0
  5  6  1  0  0  0  0
  5 34  1  0  0  0  0
  6  7  2  0  0  0  0
  6  8  1  0  0  0  0
  8  9  1  0  0  0  0
  8 35  1  0  0  0  0
  9 19  1  0  0  0  0
  9 10  2  0  0  0  0
 10 11  1  0  0  0  0
 10 36  1  0  0  0  0
 11 12  2  0  0  0  0
 11 37  1  0  0  0  0
 12 13  1  0  0  0  0
 12 18  1  0  0  0  0
 13 17  1  0  0  0  0
 13 14  1  0  0  0  0
 14 15  1  0  0  0  0
 14 38  1  0  0  0  0
 14 39  1  0  0  0  0
 15 16  1  0  0  0  0
 15 40  1  0  0  0  0
 15 41  1  0  0  0  0
 16 17  1  0  0  0  0
 16 42  1  0  0  0  0
 16 43  1  0  0  0  0
 17 44  1  0  0  0  0
 17 45  1  0  0  0  0
 18 19  2  0  0  0  0
 19 46  1  0  0  0  0
 20 25  1  0  0  0  0
 20 21  1  0  0  0  0
 21 22  1  0  0  0  0
 21 47  1  0  0  0  0
 21 48  1  0  0  0  0
 22 23  1  0  0  0  0
 22 49  1  0  0  0  0
 22 50  1  0  0  0  0
 23 24  1  0  0  0  0
 24 25  1  0  0  0  0
 24 51  1  0  0  0  0
 24 52  1  0  0  0  0
 25 53  1  0  0  0  0
 25 54  1  0  0  0  0
M  END
> <s_m_source_file>
AV-unprocessed.smi

> <i_m_source_file_index>
1157

> <i_lp_mmshare_version>
43012

> <i_f3d_flags>
0

> <s_epik_input>
W0NIMl0xW0NIMl1PW0NIMl1bQ0gyXU4xQyhbQ0gzXSkoW0NIM10pW0NIMl1bTkhdQyg9TylbTkhdYzJbY0hdW2NIXWMobltjSF0yKU4zW0NIMl1bQ0gyXVtDSDJdW0NIMl0z

> <s_epik_cmdline>
J2VwaWtfcHl0aG9uJywgJy1waCcsICc3LjAnLCAnLXRuJywgJzgnLCAnLW1hJywgJzIwMCcsICctbWV0YWxfYmluZGluZycsICctaW1hZScsICc8aW5maWxlLm1hZT4nLCAnLW9tYWUnLCAnPG91dGZpbGUubWFlPic=

> <r_lp_tautomer_probability>
1

> <r_epik_Ionization_Penalty>
0.366523

> <r_epik_Ionization_Penalty_Charging>
0

> <r_epik_Ionization_Penalty_Neutral>
0.366523

> <r_epik_State_Penalty>
0.351681

> <r_epik_Charging_Adjusted_Penalty>
0.351681

> <i_epik_Tot_Q>
0

> <i_epik_Tot_abs_Q>
0

> <r_epik_Metal_State_Penalty>
0.334658

> <b_epik_Metal_Only>
0

> <s_lp_Force_Field>
OPLS_2005

> <r_lp_Energy>
67.3279

> <b_lp_Chiralities_Consistent>
1

> <s_lp_Variant>
AV-unprocessed.smi:1157-1

> <Gold.Version>
5.8.1

> <Gold.Id.Protein>
6NUR|6NUR_protein|mol2

> <Gold.PLP.Fitness>
46.3255

> <Gold.PLP.PLP>
-38.4167

> <Gold.PLP.part.hbond>
-4.3081

> <Gold.PLP.part.metal>
0.0000

> <Gold.PLP.part.buried>
-2.7803

> <Gold.PLP.part.nonpolar>
-30.4538

> <Gold.PLP.part.repulsive>
0.7522

> <Gold.PLP.ligand.clash>
0.7831

> <Gold.PLP.ligand.torsion>
0.6111

> <Gold.PLP.Chemscore.Hbond>
2.2500

> <Gold.PLP.Chemscore.CHOScore>
0.9726

> <Gold.PLP.Chemscore.Metal>
0.0000

> <Gold.Chemscore.Hbonds>
donor molecule, donor type, donor heavy atom, donor atom, acceptor molecule, acceptor atom, score
      L1  H     5    34       P1  7948  0.35
      L1  H     8    35       P1  7948  1.00
      P1  H  7989  7998       L1    18  1.00
      L1  C    19    46       P1  7957  0.92

> <Gold.PLP.Chemscore.Internal.Correction>
0.2464

> <Gold.Rescore>
     Score         DG    S(hbond)    S(metal)    S(lipo)     H(rot)  DE(clash)    DE(int)     intcor
     16.26     -18.16       1.58        0.00      93.52       1.38       0.17       1.73       ----

> <Gold.Chemscore.Fitness>
16.2632

> <Gold.Chemscore.DG>
-18.1643

> <Gold.Chemscore.ZeroCoef>
-5.4800

> <Gold.Chemscore.Hbond>
1.5804

> <Gold.Chemscore.Metal>
0.0000

> <Gold.Chemscore.Lipo>
93.5188

> <Gold.Chemscore.Internal_Hbond>
0.0000

> <Gold.Chemscore.DEClash>
0.1720

> <Gold.Chemscore.DEInternal>
1.7290

> <Gold.Chemscore.Rot>
1.3812

> <Gold.Chemscore.Internal.Correction>
   9.000000E+99

> <Gold.Chemscore.Hbonds>
donor molecule, donor type, donor heavy atom, donor atom, acceptor molecule, acceptor atom, score
      L1  H     5    34       P1  7948  0.01
      L1  H     8    35       P1  7948  0.65
      P1  H  7989  7998       L1    18  0.30

> <Gold.Chemscore.Hbond.Weighted>
-5.2784

> <Gold.Chemscore.Metal.Weighted>
-0.0000

> <Gold.Chemscore.Lipo.Weighted>
-10.9417

> <Gold.Chemscore.Internal_Hbond.Weighted>
0.0000

> <Gold.Chemscore.DEClash.Weighted>
0.1720

> <Gold.Chemscore.DEInternal.Weighted>
1.7290

> <Gold.Chemscore.Rot.Weighted>
3.5358

> <Gold.Chemscore.Internal.Correction.Weighted>
   9.000000E+99

> <Gold.Protein.RotatedTorsions>
[ 6907 6896 6895 6894 ] final -115.13 input  -60.11 | X-H torsion
[ 7974 7965 7964 7962 ] final  176.17 input  175.53 | X-H torsion
[ 8008 7997 7996 7995 ] final   37.20 input   59.86 | X-H torsion
[ 10167 10162 10161 10158 ] final   98.41 input  -65.29 | X-H torsion
[ 10718 10713 10712 10709 ] final   48.98 input   66.30 | X-H torsion
[ 10763 10752 10751 10750 ] final  116.75 input  -60.55 | X-H torsion
[ 11005 11000 10999 10996 ] final  147.41 input  -57.11 | X-H torsion

> <Gold.Protein.ActiveResidues>
 VAL166  LYS551  ARG553  GLY616  TRP617  ASP618  TYR619  PRO620  LYS621  CYS622 
 ASP623  PHE694  ASN695  SER759  ASP760  ASP761  ALA762  ILE779  LEU786  VAL792 
 PHE793  MET794  SER795  GLU796  ALA797  LYS798  CYS799  TRP800  GLU811  SER814 

> <Gold.Protein.RotatedAtoms>
  150.7954  133.8703  159.3256 H   0  0  0  0  0  0  0  0  0  0  0  0  # atno 6907 bound_to 6896
  151.6529  135.0997  160.0174 H   0  0  0  0  0  0  0  0  0  0  0  0  # atno 6908 bound_to 6896
  152.4035  133.6814  159.6371 H   0  0  0  0  0  0  0  0  0  0  0  0  # atno 6909 bound_to 6896
  144.7189  140.0056  143.6440 H   0  0  0  0  0  0  0  0  0  0  0  0  # atno 7974 bound_to 7965
  155.1998  140.3315  155.4345 H   0  0  0  0  0  0  0  0  0  0  0  0  # atno 8008 bound_to 7997
  156.2411  140.1895  156.7035 H   0  0  0  0  0  0  0  0  0  0  0  0  # atno 8009 bound_to 7997
  154.6149  140.0603  156.9527 H   0  0  0  0  0  0  0  0  0  0  0  0  # atno 8010 bound_to 7997
  139.7711  144.6922  151.0155 H   0  0  0  0  0  0  0  0  0  0  0  0  # atno 10167 bound_to 10162
  157.4741  130.8274  149.8020 H   0  0  0  0  0  0  0  0  0  0  0  0  # atno 10718 bound_to 10713
  153.5420  135.3557  155.2722 H   0  0  0  0  0  0  0  0  0  0  0  0  # atno 10763 bound_to 10752
  154.8716  135.4093  154.3033 H   0  0  0  0  0  0  0  0  0  0  0  0  # atno 10764 bound_to 10752
  153.3742  135.7065  153.6682 H   0  0  0  0  0  0  0  0  0  0  0  0  # atno 10765 bound_to 10752
  140.0873  134.9061  157.1596 H   0  0  0  0  0  0  0  0  0  0  0  0  # atno 11005 bound_to 11000
  146.0300  139.3326  143.0761 LP  0  0  0  0  0  0  0  0  0  0  0  0  # atno 17320 bound_to 7965
  145.8464  140.9552  143.0772 LP  0  0  0  0  0  0  0  0  0  0  0  0  # atno 17321 bound_to 7965
  140.7814  143.4588  151.0308 LP  0  0  0  0  0  0  0  0  0  0  0  0  # atno 17342 bound_to 10162
  139.8271  143.7741  152.3179 LP  0  0  0  0  0  0  0  0  0  0  0  0  # atno 17343 bound_to 10162
  156.0088  130.3843  150.2336 LP  0  0  0  0  0  0  0  0  0  0  0  0  # atno 17370 bound_to 10713
  157.0520  131.0065  151.3250 LP  0  0  0  0  0  0  0  0  0  0  0  0  # atno 17371 bound_to 10713
  140.3401  134.2713  155.7213 LP  0  0  0  0  0  0  0  0  0  0  0  0  # atno 17394 bound_to 11000
  141.2067  133.7827  157.0163 LP  0  0  0  0  0  0  0  0  0  0  0  0  # atno 17395 bound_to 11000

$$$$
