AV-unprocessed.smi:613|AV-procd|sdf|3065|dock8
  -GOLD-   2262023593D 1   1.00000     0.00000
 Structure written by MMmdl.
 38 39  0  0  0  0  0  0  0  0  1 V2000
  148.7948  135.7305  158.2111 C   0  0  0  0  0  0  0  0  0  0  0  0
  148.5669  136.7219  159.2561 N   0  0  0  0  0  0  0  0  0  0  0  0
  148.6562  138.1410  158.9017 C   0  0  0  0  0  0  0  0  0  0  0  0
  150.0666  138.5645  158.4458 C   0  0  1  0  0  0  0  0  0  0  0  0
  150.2439  138.5651  156.9117 C   0  0  0  0  0  0  0  0  0  0  0  0
  151.5563  139.0740  156.5045 N   0  0  0  0  0  0  0  0  0  0  0  0
  151.7637  139.0869  155.0498 C   0  0  0  0  0  0  0  0  0  0  0  0
  151.0700  137.9456  154.2963 C   0  0  0  0  0  0  0  0  0  0  0  0
  150.1872  138.2887  153.3548 N   0  0  0  0  0  0  0  0  0  0  0  0
  151.3269  136.7737  154.5622 O   0  0  0  0  0  0  0  0  0  0  0  0
  151.7701  140.3950  157.0872 C   0  0  0  0  0  0  0  0  0  0  0  0
  151.5881  140.3838  158.6137 C   0  0  0  0  0  0  0  0  0  0  0  0
  150.2947  139.8837  158.9347 O   0  0  0  0  0  0  0  0  0  0  0  0
  147.9939  136.3134  160.4849 C   0  0  0  0  0  0  0  0  0  0  0  0
  147.8027  134.9447  160.7973 C   0  0  0  0  0  0  0  0  0  0  0  0
  147.2162  134.6219  162.0330 C   0  0  0  0  0  0  0  0  0  0  0  0
  146.8598  135.6864  162.8775 C   0  0  0  0  0  0  0  0  0  0  0  0
  147.0654  136.9777  162.5415 N   0  0  0  0  0  0  0  0  0  0  0  0
  147.6256  137.2800  161.3661 N   0  0  0  0  0  0  0  0  0  0  0  0
  149.5071  134.9755  158.5450 H   0  0  0  0  0  0  0  0  0  0  0  0
  149.2027  136.1961  157.3136 H   0  0  0  0  0  0  0  0  0  0  0  0
  147.8616  135.2382  157.9356 H   0  0  0  0  0  0  0  0  0  0  0  0
  147.9129  138.4255  158.1571 H   0  0  0  0  0  0  0  0  0  0  0  0
  148.3930  138.7119  159.7929 H   0  0  0  0  0  0  0  0  0  0  0  0
  150.8053  137.9011  158.8991 H   0  0  0  0  0  0  0  0  0  0  0  0
  150.1067  137.5463  156.5517 H   0  0  0  0  0  0  0  0  0  0  0  0
  149.4567  139.1665  156.4535 H   0  0  0  0  0  0  0  0  0  0  0  0
  151.4233  140.0372  154.6344 H   0  0  0  0  0  0  0  0  0  0  0  0
  152.8304  139.0242  154.8293 H   0  0  0  0  0  0  0  0  0  0  0  0
  149.7032  137.5710  152.8354 H   0  0  0  0  0  0  0  0  0  0  0  0
  150.0050  139.2642  153.1692 H   0  0  0  0  0  0  0  0  0  0  0  0
  152.7742  140.7489  156.8500 H   0  0  0  0  0  0  0  0  0  0  0  0
  151.0753  141.1131  156.6482 H   0  0  0  0  0  0  0  0  0  0  0  0
  152.3534  139.7700  159.0912 H   0  0  0  0  0  0  0  0  0  0  0  0
  151.6897  141.3922  159.0152 H   0  0  0  0  0  0  0  0  0  0  0  0
  148.0863  134.1496  160.1249 H   0  0  0  0  0  0  0  0  0  0  0  0
  147.0449  133.5957  162.3221 H   0  0  0  0  0  0  0  0  0  0  0  0
  146.4047  135.5012  163.8391 H   0  0  0  0  0  0  0  0  0  0  0  0
  1  2  1  0  0  0  0
  1 20  1  0  0  0  0
  1 21  1  0  0  0  0
  1 22  1  0  0  0  0
  2  3  1  0  0  0  0
  2 14  1  0  0  0  0
  3  4  1  0  0  0  0
  3 23  1  0  0  0  0
  3 24  1  0  0  0  0
  4 13  1  0  0  0  0
  4  5  1  0  0  0  0
  4 25  1  0  0  0  0
  5  6  1  0  0  0  0
  5 26  1  0  0  0  0
  5 27  1  0  0  0  0
  6  7  1  0  0  0  0
  6 11  1  0  0  0  0
  7  8  1  0  0  0  0
  7 28  1  0  0  0  0
  7 29  1  0  0  0  0
  8  9  1  0  0  0  0
  8 10  2  0  0  0  0
  9 30  1  0  0  0  0
  9 31  1  0  0  0  0
 11 12  1  0  0  0  0
 11 32  1  0  0  0  0
 11 33  1  0  0  0  0
 12 13  1  0  0  0  0
 12 34  1  0  0  0  0
 12 35  1  0  0  0  0
 14 19  1  0  0  0  0
 14 15  2  0  0  0  0
 15 16  1  0  0  0  0
 15 36  1  0  0  0  0
 16 17  2  0  0  0  0
 16 37  1  0  0  0  0
 17 18  1  0  0  0  0
 17 38  1  0  0  0  0
 18 19  2  0  0  0  0
M  END
> <s_m_source_file>
AV-unprocessed.smi

> <i_m_source_file_index>
613

> <i_lp_mmshare_version>
43012

> <i_f3d_flags>
0

> <s_epik_input>
bjFuW2NIXVtjSF1bY0hdYzFOKFtDSDNdKVtDSDJdW0NAQEhdMltDSDJdTihbQ0gyXVtDSDJdTzIpW0NIMl1DKD1PKVtOSDJd

> <s_epik_cmdline>
J2VwaWtfcHl0aG9uJywgJy1waCcsICc3LjAnLCAnLXRuJywgJzgnLCAnLW1hJywgJzIwMCcsICctbWV0YWxfYmluZGluZycsICctaW1hZScsICc8aW5maWxlLm1hZT4nLCAnLW9tYWUnLCAnPG91dGZpbGUubWFlPic=

> <r_lp_tautomer_probability>
1

> <r_epik_Ionization_Penalty>
0.0398875

> <r_epik_Ionization_Penalty_Charging>
0

> <r_epik_Ionization_Penalty_Neutral>
0.0398875

> <r_epik_State_Penalty>
0.0543012

> <r_epik_Charging_Adjusted_Penalty>
0.0543012

> <i_epik_Tot_Q>
0

> <i_epik_Tot_abs_Q>
0

> <r_epik_Metal_State_Penalty>
0.0489294

> <b_epik_Metal_Only>
0

> <s_lp_Force_Field>
OPLS_2005

> <r_lp_Energy>
25.1321

> <b_lp_Chiralities_Consistent>
1

> <s_lp_Variant>
AV-unprocessed.smi:613-2

> <Gold.Version>
5.8.1

> <Gold.Id.Protein>
6NUR|6NUR_protein|mol2

> <Gold.PLP.Fitness>
41.6137

> <Gold.PLP.PLP>
-30.7325

> <Gold.PLP.part.hbond>
-6.3028

> <Gold.PLP.part.metal>
0.0000

> <Gold.PLP.part.buried>
-1.6151

> <Gold.PLP.part.nonpolar>
-23.5893

> <Gold.PLP.part.repulsive>
0.3091

> <Gold.PLP.ligand.clash>
0.0000

> <Gold.PLP.ligand.torsion>
0.8421

> <Gold.PLP.Chemscore.Hbond>
4.1305

> <Gold.PLP.Chemscore.CHOScore>
0.0000

> <Gold.PLP.Chemscore.Metal>
0.0000

> <Gold.Chemscore.Hbonds>
donor molecule, donor type, donor heavy atom, donor atom, acceptor molecule, acceptor atom, score
      L1  H     9    30       P1  7948  1.00
      L1  H     9    31       P1  7957  0.28
      P1  H  6931  6943       L1    19  0.91
      P1  H  6934  6947       L1    19  0.83
      P1  H 10752 10765       L1    10  1.00

> <Gold.PLP.Chemscore.Internal.Correction>
0.1739

> <Gold.Rescore>
     Score         DG    S(hbond)    S(metal)    S(lipo)     H(rot)  DE(clash)    DE(int)     intcor
     14.74     -16.02       2.86        0.00      56.20       2.18       0.30       0.98       ----

> <Gold.Chemscore.Fitness>
14.7411

> <Gold.Chemscore.DG>
-16.0228

> <Gold.Chemscore.ZeroCoef>
-5.4800

> <Gold.Chemscore.Hbond>
2.8604

> <Gold.Chemscore.Metal>
0.0000

> <Gold.Chemscore.Lipo>
56.2038

> <Gold.Chemscore.Internal_Hbond>
0.0000

> <Gold.Chemscore.DEClash>
0.2985

> <Gold.Chemscore.DEInternal>
0.9833

> <Gold.Chemscore.Rot>
2.1823

> <Gold.Chemscore.Internal.Correction>
   9.000000E+99

> <Gold.Chemscore.Hbonds>
donor molecule, donor type, donor heavy atom, donor atom, acceptor molecule, acceptor atom, score
      L1  H     9    30       P1  7948  0.50
      L1  H     9    31       P1  7957  0.27
      P1  H  6931  6943       L1    19  0.22
      P1  H  6934  6947       L1    19  0.53
      P1  H 10752 10765       L1    10  0.97

> <Gold.Chemscore.Hbond.Weighted>
-9.5537

> <Gold.Chemscore.Metal.Weighted>
-0.0000

> <Gold.Chemscore.Lipo.Weighted>
-6.5758

> <Gold.Chemscore.Internal_Hbond.Weighted>
0.0000

> <Gold.Chemscore.DEClash.Weighted>
0.2985

> <Gold.Chemscore.DEInternal.Weighted>
0.9833

> <Gold.Chemscore.Rot.Weighted>
5.5867

> <Gold.Chemscore.Internal.Correction.Weighted>
   9.000000E+99

> <Gold.Protein.RotatedTorsions>
[ 6907 6896 6895 6894 ] final   94.80 input  -60.11 | X-H torsion
[ 7974 7965 7964 7962 ] final  174.07 input  175.53 | X-H torsion
[ 8008 7997 7996 7995 ] final  141.76 input   59.86 | X-H torsion
[ 10167 10162 10161 10158 ] final -118.71 input  -65.29 | X-H torsion
[ 10718 10713 10712 10709 ] final  -66.20 input   66.30 | X-H torsion
[ 10763 10752 10751 10750 ] final  160.16 input  -60.55 | X-H torsion
[ 11005 11000 10999 10996 ] final -159.20 input  -57.11 | X-H torsion

> <Gold.Protein.ActiveResidues>
 VAL166  LYS551  ARG553  GLY616  TRP617  ASP618  TYR619  PRO620  LYS621  CYS622 
 ASP623  PHE694  ASN695  SER759  ASP760  ASP761  ALA762  ILE779  LEU786  VAL792 
 PHE793  MET794  SER795  GLU796  ALA797  LYS798  CYS799  TRP800  GLU811  SER814 

> <Gold.Protein.RotatedAtoms>
  152.5447  134.1138  159.8369 H   0  0  0  0  0  0  0  0  0  0  0  0  # atno 6907 bound_to 6896
  151.1202  133.5102  159.2610 H   0  0  0  0  0  0  0  0  0  0  0  0  # atno 6908 bound_to 6896
  151.1788  135.0361  159.8838 H   0  0  0  0  0  0  0  0  0  0  0  0  # atno 6909 bound_to 6896
  144.7229  139.9742  143.6437 H   0  0  0  0  0  0  0  0  0  0  0  0  # atno 7974 bound_to 7965
  156.2960  140.2306  156.4618 H   0  0  0  0  0  0  0  0  0  0  0  0  # atno 8008 bound_to 7997
  154.8012  140.0448  157.1295 H   0  0  0  0  0  0  0  0  0  0  0  0  # atno 8009 bound_to 7997
  154.9531  140.3044  155.5069 H   0  0  0  0  0  0  0  0  0  0  0  0  # atno 8010 bound_to 7997
  140.0546  143.5027  152.2064 H   0  0  0  0  0  0  0  0  0  0  0  0  # atno 10167 bound_to 10162
  156.0626  130.4258  150.1674 H   0  0  0  0  0  0  0  0  0  0  0  0  # atno 10718 bound_to 10713
  154.2431  135.2774  155.2846 H   0  0  0  0  0  0  0  0  0  0  0  0  # atno 10763 bound_to 10752
  154.5528  135.5670  153.6941 H   0  0  0  0  0  0  0  0  0  0  0  0  # atno 10764 bound_to 10752
  152.9995  135.6278  154.2576 H   0  0  0  0  0  0  0  0  0  0  0  0  # atno 10765 bound_to 10752
  140.6452  134.4509  157.5234 H   0  0  0  0  0  0  0  0  0  0  0  0  # atno 11005 bound_to 11000
  146.0539  139.3537  143.0623 LP  0  0  0  0  0  0  0  0  0  0  0  0  # atno 17320 bound_to 7965
  145.8180  140.9693  143.0914 LP  0  0  0  0  0  0  0  0  0  0  0  0  # atno 17321 bound_to 7965
  139.5932  144.7557  151.3350 LP  0  0  0  0  0  0  0  0  0  0  0  0  # atno 17342 bound_to 10162
  140.7201  143.7160  150.7733 LP  0  0  0  0  0  0  0  0  0  0  0  0  # atno 17343 bound_to 10162
  156.9739  130.9843  151.3452 LP  0  0  0  0  0  0  0  0  0  0  0  0  # atno 17370 bound_to 10713
  157.5645  130.8268  149.8310 LP  0  0  0  0  0  0  0  0  0  0  0  0  # atno 17371 bound_to 10713
  139.9065  134.8437  156.1685 LP  0  0  0  0  0  0  0  0  0  0  0  0  # atno 17394 bound_to 11000
  141.0577  133.6857  156.1893 LP  0  0  0  0  0  0  0  0  0  0  0  0  # atno 17395 bound_to 11000

$$$$
