AV-unprocessed.smi:1835|AV-procd|sdf|7476|dock9
  -GOLD-   22720 9173D 1   1.00000     0.00000
 Structure written by MMmdl.
 42 43  0  0  0  0  0  0  0  0  2 V2000
  147.2337  139.7776  153.4388 C   0  0  0  0  0  0  0  0  0  0  0  0
  146.3705  140.1078  154.6788 C   0  0  1  0  0  0  0  0  0  0  0  0
  147.2365  140.1092  155.9703 C   0  0  0  0  0  0  0  0  0  0  0  0
  148.4387  140.9295  155.8450 N   0  0  0  0  0  0  0  0  0  0  0  0
  149.6316  140.6538  156.3945 C   0  0  0  0  0  0  0  0  0  0  0  0
  149.8534  139.6386  157.0551 O   0  0  0  0  0  0  0  0  0  0  0  0
  150.7408  141.6869  156.1546 C   0  0  0  0  0  0  0  0  0  0  0  0
  151.3845  142.1348  157.4008 N   0  0  0  0  0  0  0  0  0  0  0  0
  151.0423  143.4157  157.8786 C   0  0  0  0  0  0  0  0  0  0  0  0
  151.5717  143.9176  159.0055 C   0  0  0  0  0  0  0  0  0  0  0  0
  152.5176  143.1075  159.7357 C   0  0  0  0  0  0  0  0  0  0  0  0
  152.8541  141.8820  159.2863 C   0  0  0  0  0  0  0  0  0  0  0  0
  152.2789  141.3297  158.0543 C   0  0  0  0  0  0  0  0  0  0  0  0
  152.5823  140.2121  157.6346 O   0  0  0  0  0  0  0  0  0  0  0  0
  145.6231  141.3896  154.4549 N   0  3  0  0  0  0  0  0  0  0  0  0
  144.8023  141.7870  155.6319 C   0  0  0  0  0  0  0  0  0  0  0  0
  143.9736  143.0453  155.3293 C   0  0  0  0  0  0  0  0  0  0  0  0
  144.8427  144.1044  154.9576 O   0  0  0  0  0  0  0  0  0  0  0  0
  145.5673  143.7929  153.7772 C   0  0  0  0  0  0  0  0  0  0  0  0
  146.4442  142.5504  154.0113 C   0  0  0  0  0  0  0  0  0  0  0  0
  147.7184  138.8062  153.5302 H   0  0  0  0  0  0  0  0  0  0  0  0
  148.0163  140.5234  153.2963 H   0  0  0  0  0  0  0  0  0  0  0  0
  146.6544  139.7294  152.5190 H   0  0  0  0  0  0  0  0  0  0  0  0
  145.6306  139.3145  154.7983 H   0  0  0  0  0  0  0  0  0  0  0  0
  146.6392  140.4212  156.8290 H   0  0  0  0  0  0  0  0  0  0  0  0
  147.5973  139.1047  156.1911 H   0  0  0  0  0  0  0  0  0  0  0  0
  148.3526  141.7837  155.3130 H   0  0  0  0  0  0  0  0  0  0  0  0
  151.4719  141.2463  155.4757 H   0  0  0  0  0  0  0  0  0  0  0  0
  150.3357  142.5485  155.6201 H   0  0  0  0  0  0  0  0  0  0  0  0
  150.3328  143.9607  157.2731 H   0  0  0  0  0  0  0  0  0  0  0  0
  151.2990  144.9026  159.3552 H   0  0  0  0  0  0  0  0  0  0  0  0
  152.9585  143.4865  160.6460 H   0  0  0  0  0  0  0  0  0  0  0  0
  153.5642  141.2908  159.8455 H   0  0  0  0  0  0  0  0  0  0  0  0
  144.1211  140.9913  155.9271 H   0  0  0  0  0  0  0  0  0  0  0  0
  145.4557  141.9743  156.4856 H   0  0  0  0  0  0  0  0  0  0  0  0
  143.2458  142.8546  154.5387 H   0  0  0  0  0  0  0  0  0  0  0  0
  143.4113  143.3455  156.2135 H   0  0  0  0  0  0  0  0  0  0  0  0
  144.8794  143.6330  152.9452 H   0  0  0  0  0  0  0  0  0  0  0  0
  146.1913  144.6467  153.5125 H   0  0  0  0  0  0  0  0  0  0  0  0
  147.2087  142.7666  154.7593 H   0  0  0  0  0  0  0  0  0  0  0  0
  146.9536  142.3330  153.0731 H   0  0  0  0  0  0  0  0  0  0  0  0
  144.9799  141.2074  153.6977 H   0  0  0  0  0  0  0  0  0  0  0  0
  1  2  1  0  0  0  0
  1 21  1  0  0  0  0
  1 22  1  0  0  0  0
  1 23  1  0  0  0  0
  2  3  1  0  0  0  0
  2 15  1  0  0  0  0
  2 24  1  0  0  0  0
  3  4  1  0  0  0  0
  3 25  1  0  0  0  0
  3 26  1  0  0  0  0
  4  5  1  0  0  0  0
  4 27  1  0  0  0  0
  5  6  2  0  0  0  0
  5  7  1  0  0  0  0
  7  8  1  0  0  0  0
  7 28  1  0  0  0  0
  7 29  1  0  0  0  0
  8 13  1  0  0  0  0
  8  9  1  0  0  0  0
  9 10  2  0  0  0  0
  9 30  1  0  0  0  0
 10 11  1  0  0  0  0
 10 31  1  0  0  0  0
 11 12  2  0  0  0  0
 11 32  1  0  0  0  0
 12 13  1  0  0  0  0
 12 33  1  0  0  0  0
 13 14  2  0  0  0  0
 15 20  1  0  0  0  0
 15 16  1  0  0  0  0
 15 42  1  0  0  0  0
 16 17  1  0  0  0  0
 16 34  1  0  0  0  0
 16 35  1  0  0  0  0
 17 18  1  0  0  0  0
 17 36  1  0  0  0  0
 17 37  1  0  0  0  0
 18 19  1  0  0  0  0
 19 20  1  0  0  0  0
 19 38  1  0  0  0  0
 19 39  1  0  0  0  0
 20 40  1  0  0  0  0
 20 41  1  0  0  0  0
M  CHG  1  15   1
M  END
> <s_m_source_file>
AV-unprocessed.smi

> <i_m_source_file_index>
1835

> <i_lp_mmshare_version>
43012

> <i_f3d_flags>
0

> <s_epik_input>
W0NIMl0xW0NIMl1PW0NIMl1bQ0gyXU4xW0NASF0oW0NIM10pW0NIMl1bTkhdQyg9TylbQ0gyXW4yW2NIXVtjSF1bY0hdW2NIXWMyPU8=

> <s_epik_cmdline>
J2VwaWtfcHl0aG9uJywgJy1waCcsICc3LjAnLCAnLXRuJywgJzgnLCAnLW1hJywgJzIwMCcsICctbWV0YWxfYmluZGluZycsICctaW1hZScsICc8aW5maWxlLm1hZT4nLCAnLW9tYWUnLCAnPG91dGZpbGUubWFlPic=

> <r_lp_tautomer_probability>
1

> <r_epik_Ionization_Penalty>
0.656654

> <r_epik_Ionization_Penalty_Charging>
0.656654

> <r_epik_Ionization_Penalty_Neutral>
9.12373e-08

> <r_epik_State_Penalty>
0.675641

> <r_epik_Charging_Adjusted_Penalty>
1.33229

> <i_epik_Tot_Q>
1

> <i_epik_Tot_abs_Q>
1

> <r_epik_Metal_State_Penalty>
0.675692

> <b_epik_Metal_Only>
0

> <s_lp_Force_Field>
OPLS_2005

> <r_lp_Energy>
28.3698

> <b_lp_Chiralities_Consistent>
1

> <s_lp_Variant>
AV-unprocessed.smi:1835-4

> <Gold.Version>
5.8.1

> <Gold.Id.Protein>
6NUR|6NUR_protein|mol2

> <Gold.PLP.Fitness>
44.9832

> <Gold.PLP.PLP>
-34.0755

> <Gold.PLP.part.hbond>
-2.0000

> <Gold.PLP.part.metal>
0.0000

> <Gold.PLP.part.buried>
-4.9254

> <Gold.PLP.part.nonpolar>
-27.1215

> <Gold.PLP.part.repulsive>
0.1947

> <Gold.PLP.ligand.clash>
0.0000

> <Gold.PLP.ligand.torsion>
0.5623

> <Gold.PLP.Chemscore.Hbond>
2.9913

> <Gold.PLP.Chemscore.CHOScore>
1.0000

> <Gold.PLP.Chemscore.Metal>
0.0000

> <Gold.Chemscore.Hbonds>
donor molecule, donor type, donor heavy atom, donor atom, acceptor molecule, acceptor atom, score
      L1  H    15    42       P1 10175  2.00
      P1  H  7997  8008       L1    14  0.99
      L1  C     9    30       P1  8028  1.00

> <Gold.PLP.Chemscore.Internal.Correction>
0.0586

> <Gold.Rescore>
     Score         DG    S(hbond)    S(metal)    S(lipo)     H(rot)  DE(clash)    DE(int)     intcor
     13.95     -15.92       1.85        0.00      79.48       1.96       0.05       1.92       ----

> <Gold.Chemscore.Fitness>
13.9511

> <Gold.Chemscore.DG>
-15.9192

> <Gold.Chemscore.ZeroCoef>
-5.4800

> <Gold.Chemscore.Hbond>
1.8474

> <Gold.Chemscore.Metal>
0.0000

> <Gold.Chemscore.Lipo>
79.4770

> <Gold.Chemscore.Internal_Hbond>
0.0000

> <Gold.Chemscore.DEClash>
0.0455

> <Gold.Chemscore.DEInternal>
1.9226

> <Gold.Chemscore.Rot>
1.9649

> <Gold.Chemscore.Internal.Correction>
   9.000000E+99

> <Gold.Chemscore.Hbonds>
donor molecule, donor type, donor heavy atom, donor atom, acceptor molecule, acceptor atom, score
      L1  H    15    42       P1 10175  0.50
      P1  H  7997  8008       L1    14  0.80

> <Gold.Chemscore.Hbond.Weighted>
-6.1704

> <Gold.Chemscore.Metal.Weighted>
-0.0000

> <Gold.Chemscore.Lipo.Weighted>
-9.2988

> <Gold.Chemscore.Internal_Hbond.Weighted>
0.0000

> <Gold.Chemscore.DEClash.Weighted>
0.0455

> <Gold.Chemscore.DEInternal.Weighted>
1.9226

> <Gold.Chemscore.Rot.Weighted>
5.0300

> <Gold.Chemscore.Internal.Correction.Weighted>
   9.000000E+99

> <Gold.Protein.RotatedTorsions>
[ 6907 6896 6895 6894 ] final  163.04 input  -60.11 | X-H torsion
[ 7974 7965 7964 7962 ] final -169.85 input  175.53 | X-H torsion
[ 8008 7997 7996 7995 ] final  -70.10 input   59.86 | X-H torsion
[ 10167 10162 10161 10158 ] final -138.45 input  -65.29 | X-H torsion
[ 10718 10713 10712 10709 ] final  -52.30 input   66.30 | X-H torsion
[ 10763 10752 10751 10750 ] final   18.80 input  -60.55 | X-H torsion
[ 11005 11000 10999 10996 ] final -102.02 input  -57.11 | X-H torsion

> <Gold.Protein.ActiveResidues>
 VAL166  LYS551  ARG553  GLY616  TRP617  ASP618  TYR619  PRO620  LYS621  CYS622 
 ASP623  PHE694  ASN695  SER759  ASP760  ASP761  ALA762  ILE779  LEU786  VAL792 
 PHE793  MET794  SER795  GLU796  ALA797  LYS798  CYS799  TRP800  GLU811  SER814 

> <Gold.Protein.RotatedAtoms>
  151.9312  133.3611  159.3931 H   0  0  0  0  0  0  0  0  0  0  0  0  # atno 6907 bound_to 6896
  150.7017  134.4535  159.5357 H   0  0  0  0  0  0  0  0  0  0  0  0  # atno 6908 bound_to 6896
  152.2176  134.8443  160.0540 H   0  0  0  0  0  0  0  0  0  0  0  0  # atno 6909 bound_to 6896
  144.7179  140.2160  143.6322 H   0  0  0  0  0  0  0  0  0  0  0  0  # atno 7974 bound_to 7965
  154.4987  140.0841  156.7751 H   0  0  0  0  0  0  0  0  0  0  0  0  # atno 8008 bound_to 7997
  155.4055  140.3439  155.4242 H   0  0  0  0  0  0  0  0  0  0  0  0  # atno 8009 bound_to 7997
  156.1427  140.1534  156.8882 H   0  0  0  0  0  0  0  0  0  0  0  0  # atno 8010 bound_to 7997
  139.8477  143.7240  152.2660 H   0  0  0  0  0  0  0  0  0  0  0  0  # atno 10167 bound_to 10162
  156.1633  130.4149  149.9759 H   0  0  0  0  0  0  0  0  0  0  0  0  # atno 10718 bound_to 10713
  153.1217  135.6720  153.9324 H   0  0  0  0  0  0  0  0  0  0  0  0  # atno 10763 bound_to 10752
  153.8838  135.3055  155.3447 H   0  0  0  0  0  0  0  0  0  0  0  0  # atno 10764 bound_to 10752
  154.7628  135.4979  153.9575 H   0  0  0  0  0  0  0  0  0  0  0  0  # atno 10765 bound_to 10752
  141.1207  133.8525  157.1306 H   0  0  0  0  0  0  0  0  0  0  0  0  # atno 11005 bound_to 11000
  145.8546  139.2192  143.1752 LP  0  0  0  0  0  0  0  0  0  0  0  0  # atno 17320 bound_to 7965
  146.0229  140.8331  142.9914 LP  0  0  0  0  0  0  0  0  0  0  0  0  # atno 17321 bound_to 7965
  139.7496  144.7537  151.0526 LP  0  0  0  0  0  0  0  0  0  0  0  0  # atno 17342 bound_to 10162
  140.7791  143.4875  150.9937 LP  0  0  0  0  0  0  0  0  0  0  0  0  # atno 17343 bound_to 10162
  156.7581  130.9141  151.3640 LP  0  0  0  0  0  0  0  0  0  0  0  0  # atno 17370 bound_to 10713
  157.6749  130.9085  150.0127 LP  0  0  0  0  0  0  0  0  0  0  0  0  # atno 17371 bound_to 10713
  140.0162  134.9966  157.0497 LP  0  0  0  0  0  0  0  0  0  0  0  0  # atno 17394 bound_to 11000
  140.4516  134.1576  155.7182 LP  0  0  0  0  0  0  0  0  0  0  0  0  # atno 17395 bound_to 11000

$$$$
