AV-unprocessed.smi:868|AV-procd|sdf|4002|dock9
  -GOLD-   22720 1483D 1   1.00000     0.00000
 Structure written by MMmdl.
 47 49  0  0  0  0  0  0  0  0  1 V2000
  148.9916  141.0572  154.0656 C   0  0  0  0  0  0  0  0  0  0  0  0
  149.6904  140.4185  155.2771 C   0  0  0  0  0  0  0  0  0  0  0  0
  150.6664  141.4172  155.9173 C   0  0  0  0  0  0  0  0  0  0  0  0
  150.4215  139.0920  154.9404 C   0  0  0  0  0  0  0  0  0  0  0  0
  150.8963  138.2196  156.1240 C   0  0  0  0  0  0  0  0  0  0  0  0
  152.0674  138.9102  156.8669 C   0  0  0  0  0  0  0  0  0  0  0  0
  153.1046  139.2138  156.2766 O   0  0  0  0  0  0  0  0  0  0  0  0
  151.8893  139.1353  158.1788 N   0  0  0  0  0  0  0  0  0  0  0  0
  152.8867  139.7058  159.0752 C   0  0  0  0  0  0  0  0  0  0  0  0
  152.9192  141.2388  158.9693 C   0  0  0  0  0  0  0  0  0  0  0  0
  152.7527  141.9080  160.2976 C   0  0  0  0  0  0  0  0  0  0  0  0
  153.3256  141.4646  161.4232 N   0  0  0  0  0  0  0  0  0  0  0  0
  152.9799  142.3761  162.4004 N   0  0  0  0  0  0  0  0  0  0  0  0
  152.2403  143.2836  161.7648 C   0  0  0  0  0  0  0  0  0  0  0  0
  152.0446  143.0454  160.4580 N   0  0  0  0  0  0  0  0  0  0  0  0
  151.3404  143.8545  159.4772 C   0  0  0  0  0  0  0  0  0  0  0  0
  151.9873  145.1840  159.1578 C   0  0  0  0  0  0  0  0  0  0  0  0
  150.7528  145.1326  160.0297 C   0  0  0  0  0  0  0  0  0  0  0  0
  149.8098  137.6529  157.0764 C   0  0  0  0  0  0  0  0  0  0  0  0
  150.4866  136.2835  157.0458 C   0  0  0  0  0  0  0  0  0  0  0  0
  151.2494  136.7465  155.8049 C   0  0  0  0  0  0  0  0  0  0  0  0
  149.6906  141.2228  153.2451 H   0  0  0  0  0  0  0  0  0  0  0  0
  148.5552  142.0212  154.3287 H   0  0  0  0  0  0  0  0  0  0  0  0
  148.1782  140.4337  153.6968 H   0  0  0  0  0  0  0  0  0  0  0  0
  148.9243  140.2165  156.0261 H   0  0  0  0  0  0  0  0  0  0  0  0
  151.4657  141.6888  155.2269 H   0  0  0  0  0  0  0  0  0  0  0  0
  151.1270  140.9993  156.8129 H   0  0  0  0  0  0  0  0  0  0  0  0
  150.1551  142.3343  156.2116 H   0  0  0  0  0  0  0  0  0  0  0  0
  149.7612  138.4963  154.3088 H   0  0  0  0  0  0  0  0  0  0  0  0
  151.2756  139.3199  154.3009 H   0  0  0  0  0  0  0  0  0  0  0  0
  151.0079  138.8633  158.5897 H   0  0  0  0  0  0  0  0  0  0  0  0
  152.6938  139.3948  160.1034 H   0  0  0  0  0  0  0  0  0  0  0  0
  153.8587  139.2941  158.8025 H   0  0  0  0  0  0  0  0  0  0  0  0
  153.8514  141.5654  158.5091 H   0  0  0  0  0  0  0  0  0  0  0  0
  152.1210  141.5840  158.3106 H   0  0  0  0  0  0  0  0  0  0  0  0
  151.8341  144.1491  162.2675 H   0  0  0  0  0  0  0  0  0  0  0  0
  150.8215  143.2769  158.7148 H   0  0  0  0  0  0  0  0  0  0  0  0
  152.9254  145.4438  159.6446 H   0  0  0  0  0  0  0  0  0  0  0  0
  151.8682  145.5681  158.1469 H   0  0  0  0  0  0  0  0  0  0  0  0
  149.8184  145.4827  159.5961 H   0  0  0  0  0  0  0  0  0  0  0  0
  150.8802  145.3412  161.0905 H   0  0  0  0  0  0  0  0  0  0  0  0
  149.7511  138.0880  158.0744 H   0  0  0  0  0  0  0  0  0  0  0  0
  148.8212  137.6330  156.6154 H   0  0  0  0  0  0  0  0  0  0  0  0
  151.1386  136.1154  157.9042 H   0  0  0  0  0  0  0  0  0  0  0  0
  149.8099  135.4452  156.8782 H   0  0  0  0  0  0  0  0  0  0  0  0
  150.7894  136.3975  154.8790 H   0  0  0  0  0  0  0  0  0  0  0  0
  152.3099  136.4912  155.8259 H   0  0  0  0  0  0  0  0  0  0  0  0
  1  2  1  0  0  0  0
  1 22  1  0  0  0  0
  1 23  1  0  0  0  0
  1 24  1  0  0  0  0
  2  3  1  0  0  0  0
  2  4  1  0  0  0  0
  2 25  1  0  0  0  0
  3 26  1  0  0  0  0
  3 27  1  0  0  0  0
  3 28  1  0  0  0  0
  4  5  1  0  0  0  0
  4 29  1  0  0  0  0
  4 30  1  0  0  0  0
  5 21  1  0  0  0  0
  5  6  1  0  0  0  0
  5 19  1  0  0  0  0
  6  7  2  0  0  0  0
  6  8  1  0  0  0  0
  8  9  1  0  0  0  0
  8 31  1  0  0  0  0
  9 10  1  0  0  0  0
  9 32  1  0  0  0  0
  9 33  1  0  0  0  0
 10 11  1  0  0  0  0
 10 34  1  0  0  0  0
 10 35  1  0  0  0  0
 11 15  1  0  0  0  0
 11 12  2  0  0  0  0
 12 13  1  0  0  0  0
 13 14  2  0  0  0  0
 14 15  1  0  0  0  0
 14 36  1  0  0  0  0
 15 16  1  0  0  0  0
 16 18  1  0  0  0  0
 16 17  1  0  0  0  0
 16 37  1  0  0  0  0
 17 18  1  0  0  0  0
 17 38  1  0  0  0  0
 17 39  1  0  0  0  0
 18 40  1  0  0  0  0
 18 41  1  0  0  0  0
 19 20  1  0  0  0  0
 19 42  1  0  0  0  0
 19 43  1  0  0  0  0
 20 21  1  0  0  0  0
 20 44  1  0  0  0  0
 20 45  1  0  0  0  0
 21 46  1  0  0  0  0
 21 47  1  0  0  0  0
M  END
> <s_m_source_file>
AV-unprocessed.smi

> <i_m_source_file_index>
868

> <i_lp_mmshare_version>
43012

> <i_f3d_flags>
0

> <s_epik_input>
W0NIM11bQ0hdKFtDSDNdKVtDSDJdQzEoW0NIMl1bQ0gyXVtDSDJdMSlDKD1PKVtOSF1bQ0gyXVtDSDJdYzJubltjSF1uMltDSF0zW0NIMl1bQ0gyXTM=

> <s_epik_cmdline>
J2VwaWtfcHl0aG9uJywgJy1waCcsICc3LjAnLCAnLXRuJywgJzgnLCAnLW1hJywgJzIwMCcsICctbWV0YWxfYmluZGluZycsICctaW1hZScsICc8aW5maWxlLm1hZT4nLCAnLW9tYWUnLCAnPG91dGZpbGUubWFlPic=

> <r_lp_tautomer_probability>
1

> <r_epik_Ionization_Penalty>
0.000232087

> <r_epik_Ionization_Penalty_Charging>
0

> <r_epik_Ionization_Penalty_Neutral>
0.000232087

> <r_epik_State_Penalty>
-0

> <r_epik_Charging_Adjusted_Penalty>
0

> <i_epik_Tot_Q>
0

> <i_epik_Tot_abs_Q>
0

> <r_epik_Metal_State_Penalty>
-0

> <b_epik_Metal_Only>
0

> <s_lp_Force_Field>
OPLS_2005

> <r_lp_Energy>
30.4352

> <b_lp_Chiralities_Consistent>
1

> <s_lp_Variant>
AV-unprocessed.smi:868-1

> <Gold.Version>
5.8.1

> <Gold.Id.Protein>
6NUR|6NUR_protein|mol2

> <Gold.PLP.Fitness>
45.6239

> <Gold.PLP.PLP>
-44.4440

> <Gold.PLP.part.hbond>
-0.9881

> <Gold.PLP.part.metal>
0.0000

> <Gold.PLP.part.buried>
-7.2939

> <Gold.PLP.part.nonpolar>
-35.5068

> <Gold.PLP.part.repulsive>
0.1412

> <Gold.PLP.ligand.clash>
0.0000

> <Gold.PLP.ligand.torsion>
1.3434

> <Gold.PLP.Chemscore.Hbond>
1.0000

> <Gold.PLP.Chemscore.CHOScore>
0.0000

> <Gold.PLP.Chemscore.Metal>
0.0000

> <Gold.Chemscore.Hbonds>
donor molecule, donor type, donor heavy atom, donor atom, acceptor molecule, acceptor atom, score
      P1  H  7997  8010       L1     7  0.99

> <Gold.PLP.Chemscore.Internal.Correction>
0.8666

> <Gold.Rescore>
     Score         DG    S(hbond)    S(metal)    S(lipo)     H(rot)  DE(clash)    DE(int)     intcor
     11.84     -13.82       1.00        0.00      90.21       2.17       0.11       1.87       ----

> <Gold.Chemscore.Fitness>
11.8372

> <Gold.Chemscore.DG>
-13.8165

> <Gold.Chemscore.ZeroCoef>
-5.4800

> <Gold.Chemscore.Hbond>
0.9964

> <Gold.Chemscore.Metal>
0.0000

> <Gold.Chemscore.Lipo>
90.2100

> <Gold.Chemscore.Internal_Hbond>
0.0000

> <Gold.Chemscore.DEClash>
0.1126

> <Gold.Chemscore.DEInternal>
1.8667

> <Gold.Chemscore.Rot>
2.1664

> <Gold.Chemscore.Internal.Correction>
   9.000000E+99

> <Gold.Chemscore.Hbonds>
donor molecule, donor type, donor heavy atom, donor atom, acceptor molecule, acceptor atom, score
      P1  H  7997  8010       L1     7  0.92

> <Gold.Chemscore.Hbond.Weighted>
-3.3280

> <Gold.Chemscore.Metal.Weighted>
-0.0000

> <Gold.Chemscore.Lipo.Weighted>
-10.5546

> <Gold.Chemscore.Internal_Hbond.Weighted>
0.0000

> <Gold.Chemscore.DEClash.Weighted>
0.1126

> <Gold.Chemscore.DEInternal.Weighted>
1.8667

> <Gold.Chemscore.Rot.Weighted>
5.5461

> <Gold.Chemscore.Internal.Correction.Weighted>
   9.000000E+99

> <Gold.Protein.RotatedTorsions>
[ 6907 6896 6895 6894 ] final  131.55 input  -60.11 | X-H torsion
[ 7974 7965 7964 7962 ] final  -77.27 input  175.53 | X-H torsion
[ 8008 7997 7996 7995 ] final   76.27 input   59.86 | X-H torsion
[ 10167 10162 10161 10158 ] final   25.97 input  -65.29 | X-H torsion
[ 10718 10713 10712 10709 ] final -161.70 input   66.30 | X-H torsion
[ 10763 10752 10751 10750 ] final  -32.11 input  -60.55 | X-H torsion
[ 11005 11000 10999 10996 ] final -129.73 input  -57.11 | X-H torsion

> <Gold.Protein.ActiveResidues>
 VAL166  LYS551  ARG553  GLY616  TRP617  ASP618  TYR619  PRO620  LYS621  CYS622 
 ASP623  PHE694  ASN695  SER759  ASP760  ASP761  ALA762  ILE779  LEU786  VAL792 
 PHE793  MET794  SER795  GLU796  ALA797  LYS798  CYS799  TRP800  GLU811  SER814 

> <Gold.Protein.RotatedAtoms>
  152.3415  133.6072  159.5879 H   0  0  0  0  0  0  0  0  0  0  0  0  # atno 6907 bound_to 6896
  150.7481  133.9715  159.3556 H   0  0  0  0  0  0  0  0  0  0  0  0  # atno 6908 bound_to 6896
  151.7578  135.0818  160.0392 H   0  0  0  0  0  0  0  0  0  0  0  0  # atno 6909 bound_to 6896
  145.6019  140.9407  143.1236 H   0  0  0  0  0  0  0  0  0  0  0  0  # atno 7974 bound_to 7965
  155.8250  140.3468  155.5537 H   0  0  0  0  0  0  0  0  0  0  0  0  # atno 8008 bound_to 7997
  155.8302  140.0926  157.1817 H   0  0  0  0  0  0  0  0  0  0  0  0  # atno 8009 bound_to 7997
  154.4004  140.1413  156.3592 H   0  0  0  0  0  0  0  0  0  0  0  0  # atno 8010 bound_to 7997
  140.5062  144.0235  150.6353 H   0  0  0  0  0  0  0  0  0  0  0  0  # atno 10167 bound_to 10162
  156.5999  130.8806  151.2911 H   0  0  0  0  0  0  0  0  0  0  0  0  # atno 10718 bound_to 10713
  153.8083  135.6884  153.4845 H   0  0  0  0  0  0  0  0  0  0  0  0  # atno 10763 bound_to 10752
  153.1644  135.4567  154.9815 H   0  0  0  0  0  0  0  0  0  0  0  0  # atno 10764 bound_to 10752
  154.7978  135.3326  154.7566 H   0  0  0  0  0  0  0  0  0  0  0  0  # atno 10765 bound_to 10752
  140.9407  134.1197  157.4153 H   0  0  0  0  0  0  0  0  0  0  0  0  # atno 11005 bound_to 11000
  144.7306  139.7737  143.7348 LP  0  0  0  0  0  0  0  0  0  0  0  0  # atno 17320 bound_to 7965
  146.1569  139.4670  143.0013 LP  0  0  0  0  0  0  0  0  0  0  0  0  # atno 17321 bound_to 7965
  140.3545  143.2944  152.0451 LP  0  0  0  0  0  0  0  0  0  0  0  0  # atno 17342 bound_to 10162
  139.4884  144.6349  151.6995 LP  0  0  0  0  0  0  0  0  0  0  0  0  # atno 17343 bound_to 10162
  157.7282  130.9654  150.1732 LP  0  0  0  0  0  0  0  0  0  0  0  0  # atno 17370 bound_to 10713
  156.2478  130.3697  149.8266 LP  0  0  0  0  0  0  0  0  0  0  0  0  # atno 17371 bound_to 10713
  139.8819  135.0035  156.6193 LP  0  0  0  0  0  0  0  0  0  0  0  0  # atno 17394 bound_to 11000
  140.7738  133.8716  155.8513 LP  0  0  0  0  0  0  0  0  0  0  0  0  # atno 17395 bound_to 11000

$$$$
