AV-unprocessed.smi:1701|AV-procd|sdf|6833|dock4
  -GOLD-   22720 8 13D 1   1.00000     0.00000
 Structure written by MMmdl.
 54 56  0  0  0  0  0  0  0  0  2 V2000
  151.8574  140.1669  159.1603 C   0  0  0  0  0  0  0  0  0  0  0  0
  152.2072  140.9372  157.8774 C   0  0  0  0  0  0  0  0  0  0  0  0
  151.0486  141.1654  157.0147 N   0  0  0  0  0  0  0  0  0  0  0  0
  150.0657  142.1536  157.4643 C   0  0  0  0  0  0  0  0  0  0  0  0
  150.7059  143.3689  158.1542 C   0  0  0  0  0  0  0  0  0  0  0  0
  150.5863  140.0112  156.3460 C   0  0  0  0  0  0  0  0  0  0  0  0
  149.9707  138.9731  157.0811 C   0  0  0  0  0  0  0  0  0  0  0  0
  149.5018  137.8365  156.3973 C   0  0  0  0  0  0  0  0  0  0  0  0
  149.6564  137.7585  154.9996 C   0  0  0  0  0  0  0  0  0  0  0  0
  149.1512  136.6018  154.3463 N   0  0  0  0  0  0  0  0  0  0  0  0
  148.5827  135.4997  154.8739 C   0  0  0  0  0  0  0  0  0  0  0  0
  148.3335  135.3372  156.0655 O   0  0  0  0  0  0  0  0  0  0  0  0
  148.2909  134.5454  153.9710 N   0  0  0  0  0  0  0  0  0  0  0  0
  147.6742  133.2335  154.1924 C   0  0  2  0  0  0  0  0  0  0  0  0
  148.7090  132.0928  154.2406 C   0  0  0  0  0  0  0  0  0  0  0  0
  148.0516  130.9383  153.4783 C   0  0  0  0  0  0  0  0  0  0  0  0
  147.2625  131.6307  152.4533 N   0  3  1  0  0  0  0  0  0  0  0  0
  146.2865  130.8499  151.6665 C   0  0  0  0  0  0  0  0  0  0  0  0
  145.7362  131.7521  150.5411 C   0  0  0  0  0  0  0  0  0  0  0  0
  145.1948  133.0956  151.0803 C   0  0  0  0  0  0  0  0  0  0  0  0
  146.2141  133.7985  152.0029 C   0  0  0  0  0  0  0  0  0  0  0  0
  146.6632  132.8125  153.0972 C   0  0  2  0  0  0  0  0  0  0  0  0
  150.2764  138.8518  154.3477 C   0  0  0  0  0  0  0  0  0  0  0  0
  150.7284  139.9432  155.0003 N   0  0  0  0  0  0  0  0  0  0  0  0
  152.7444  140.0266  159.7778 H   0  0  0  0  0  0  0  0  0  0  0  0
  151.4535  139.1794  158.9357 H   0  0  0  0  0  0  0  0  0  0  0  0
  151.1202  140.7026  159.7589 H   0  0  0  0  0  0  0  0  0  0  0  0
  152.6349  141.9045  158.1429 H   0  0  0  0  0  0  0  0  0  0  0  0
  152.9910  140.4089  157.3351 H   0  0  0  0  0  0  0  0  0  0  0  0
  149.4540  142.4788  156.6221 H   0  0  0  0  0  0  0  0  0  0  0  0
  149.3823  141.6739  158.1657 H   0  0  0  0  0  0  0  0  0  0  0  0
  149.9376  144.0530  158.5141 H   0  0  0  0  0  0  0  0  0  0  0  0
  151.3522  143.9307  157.4804 H   0  0  0  0  0  0  0  0  0  0  0  0
  151.3037  143.0621  159.0127 H   0  0  0  0  0  0  0  0  0  0  0  0
  149.8645  139.0358  158.1541 H   0  0  0  0  0  0  0  0  0  0  0  0
  149.0293  137.0338  156.9448 H   0  0  0  0  0  0  0  0  0  0  0  0
  149.2269  136.6153  153.3402 H   0  0  0  0  0  0  0  0  0  0  0  0
  148.5515  134.7483  153.0166 H   0  0  0  0  0  0  0  0  0  0  0  0
  147.1580  133.2362  155.1543 H   0  0  0  0  0  0  0  0  0  0  0  0
  149.6234  132.3882  153.7232 H   0  0  0  0  0  0  0  0  0  0  0  0
  148.9835  131.8159  155.2591 H   0  0  0  0  0  0  0  0  0  0  0  0
  148.7794  130.2540  153.0409 H   0  0  0  0  0  0  0  0  0  0  0  0
  147.3899  130.3705  154.1342 H   0  0  0  0  0  0  0  0  0  0  0  0
  146.7736  129.9720  151.2411 H   0  0  0  0  0  0  0  0  0  0  0  0
  145.4809  130.4946  152.3111 H   0  0  0  0  0  0  0  0  0  0  0  0
  146.5330  131.9537  149.8239 H   0  0  0  0  0  0  0  0  0  0  0  0
  144.9546  131.2282  149.9898 H   0  0  0  0  0  0  0  0  0  0  0  0
  144.9265  133.7511  150.2510 H   0  0  0  0  0  0  0  0  0  0  0  0
  144.2744  132.9125  151.6362 H   0  0  0  0  0  0  0  0  0  0  0  0
  147.0721  134.1402  151.4222 H   0  0  0  0  0  0  0  0  0  0  0  0
  145.7547  134.6829  152.4439 H   0  0  0  0  0  0  0  0  0  0  0  0
  145.7682  132.4770  153.6260 H   0  0  0  0  0  0  0  0  0  0  0  0
  150.4101  138.8880  153.2788 H   0  0  0  0  0  0  0  0  0  0  0  0
  147.9387  131.9886  151.7939 H   0  0  0  0  0  0  0  0  0  0  0  0
  1  2  1  0  0  0  0
  1 25  1  0  0  0  0
  1 26  1  0  0  0  0
  1 27  1  0  0  0  0
  2  3  1  0  0  0  0
  2 28  1  0  0  0  0
  2 29  1  0  0  0  0
  3  4  1  0  0  0  0
  3  6  1  0  0  0  0
  4  5  1  0  0  0  0
  4 30  1  0  0  0  0
  4 31  1  0  0  0  0
  5 32  1  0  0  0  0
  5 33  1  0  0  0  0
  5 34  1  0  0  0  0
  6 24  1  0  0  0  0
  6  7  2  0  0  0  0
  7  8  1  0  0  0  0
  7 35  1  0  0  0  0
  8  9  2  0  0  0  0
  8 36  1  0  0  0  0
  9 10  1  0  0  0  0
  9 23  1  0  0  0  0
 10 11  1  0  0  0  0
 10 37  1  0  0  0  0
 11 12  2  0  0  0  0
 11 13  1  0  0  0  0
 13 14  1  0  0  0  0
 13 38  1  0  0  0  0
 14 22  1  0  0  0  0
 14 15  1  0  0  0  0
 14 39  1  0  0  0  0
 15 16  1  0  0  0  0
 15 40  1  0  0  0  0
 15 41  1  0  0  0  0
 16 17  1  0  0  0  0
 16 42  1  0  0  0  0
 16 43  1  0  0  0  0
 17 22  1  0  0  0  0
 17 18  1  0  0  0  0
 17 54  1  0  0  0  0
 18 19  1  0  0  0  0
 18 44  1  0  0  0  0
 18 45  1  0  0  0  0
 19 20  1  0  0  0  0
 19 46  1  0  0  0  0
 19 47  1  0  0  0  0
 20 21  1  0  0  0  0
 20 48  1  0  0  0  0
 20 49  1  0  0  0  0
 21 22  1  0  0  0  0
 21 50  1  0  0  0  0
 21 51  1  0  0  0  0
 22 52  1  0  0  0  0
 23 24  2  0  0  0  0
 23 53  1  0  0  0  0
M  CHG  1  17   1
M  END
> <s_m_source_file>
AV-unprocessed.smi

> <i_m_source_file_index>
1701

> <i_lp_mmshare_version>
43012

> <i_f3d_flags>
0

> <s_epik_input>
W0NIM11bQ0gyXU4oW0NIMl1bQ0gzXSljMVtjSF1bY0hdYyhbY0hdbjEpW05IXUMoPU8pW05IXVtDQEhdKFtDSDJdW0NIMl0yKVtDQEBIXShOMjMpW0NIMl1bQ0gyXVtDSDJdW0NIMl0z

> <s_epik_cmdline>
J2VwaWtfcHl0aG9uJywgJy1waCcsICc3LjAnLCAnLXRuJywgJzgnLCAnLW1hJywgJzIwMCcsICctbWV0YWxfYmluZGluZycsICctaW1hZScsICc8aW5maWxlLm1hZT4nLCAnLW9tYWUnLCAnPG91dGZpbGUubWFlPic=

> <r_lp_tautomer_probability>
1

> <r_epik_Ionization_Penalty>
0.56662

> <r_epik_Ionization_Penalty_Charging>
0.000974069

> <r_epik_Ionization_Penalty_Neutral>
0.565646

> <r_epik_State_Penalty>
2.0247

> <r_epik_Charging_Adjusted_Penalty>
2.02568

> <i_epik_Tot_Q>
1

> <i_epik_Tot_abs_Q>
1

> <r_epik_Metal_State_Penalty>
1.51504

> <b_epik_Metal_Only>
0

> <s_lp_Force_Field>
OPLS_2005

> <r_lp_Energy>
60.4427

> <b_lp_Chiralities_Consistent>
1

> <s_lp_Variant>
AV-unprocessed.smi:1701-13

> <Gold.Version>
5.8.1

> <Gold.Id.Protein>
6NUR|6NUR_protein|mol2

> <Gold.PLP.Fitness>
43.8737

> <Gold.PLP.PLP>
-32.0568

> <Gold.PLP.part.hbond>
-3.9492

> <Gold.PLP.part.metal>
0.0000

> <Gold.PLP.part.buried>
-4.7854

> <Gold.PLP.part.nonpolar>
-24.3550

> <Gold.PLP.part.repulsive>
0.1164

> <Gold.PLP.ligand.clash>
0.0000

> <Gold.PLP.ligand.torsion>
0.7635

> <Gold.PLP.Chemscore.Hbond>
3.1552

> <Gold.PLP.Chemscore.CHOScore>
1.0000

> <Gold.PLP.Chemscore.Metal>
0.0000

> <Gold.Chemscore.Hbonds>
donor molecule, donor type, donor heavy atom, donor atom, acceptor molecule, acceptor atom, score
      L1  H    10    37       P1  7948  0.99
      L1  H    13    38       P1  7948  0.85
      L1  H    17    54       P1 10747  0.37
      P1  H  7989  7998       L1    24  1.00
      L1  C    23    53       P1  7957  1.00

> <Gold.PLP.Chemscore.Internal.Correction>
0.8782

> <Gold.Rescore>
     Score         DG    S(hbond)    S(metal)    S(lipo)     H(rot)  DE(clash)    DE(int)     intcor
     17.50     -19.74       2.14        0.00      92.28       1.44       0.02       2.21       ----

> <Gold.Chemscore.Fitness>
17.5015

> <Gold.Chemscore.DG>
-19.7357

> <Gold.Chemscore.ZeroCoef>
-5.4800

> <Gold.Chemscore.Hbond>
2.1395

> <Gold.Chemscore.Metal>
0.0000

> <Gold.Chemscore.Lipo>
92.2837

> <Gold.Chemscore.Internal_Hbond>
0.0000

> <Gold.Chemscore.DEClash>
0.0224

> <Gold.Chemscore.DEInternal>
2.2119

> <Gold.Chemscore.Rot>
1.4404

> <Gold.Chemscore.Internal.Correction>
   9.000000E+99

> <Gold.Chemscore.Hbonds>
donor molecule, donor type, donor heavy atom, donor atom, acceptor molecule, acceptor atom, score
      L1  H    10    37       P1  7948  0.88
      L1  H    13    38       P1  7948  0.34
      L1  H    17    54       P1 10747  0.37
      P1  H  7989  7998       L1    24  0.25

> <Gold.Chemscore.Hbond.Weighted>
-7.1460

> <Gold.Chemscore.Metal.Weighted>
-0.0000

> <Gold.Chemscore.Lipo.Weighted>
-10.7972

> <Gold.Chemscore.Internal_Hbond.Weighted>
0.0000

> <Gold.Chemscore.DEClash.Weighted>
0.0224

> <Gold.Chemscore.DEInternal.Weighted>
2.2119

> <Gold.Chemscore.Rot.Weighted>
3.6875

> <Gold.Chemscore.Internal.Correction.Weighted>
   9.000000E+99

> <Gold.Protein.RotatedTorsions>
[ 6907 6896 6895 6894 ] final   93.69 input  -60.11 | X-H torsion
[ 7974 7965 7964 7962 ] final   88.91 input  175.53 | X-H torsion
[ 8008 7997 7996 7995 ] final   45.82 input   59.86 | X-H torsion
[ 10167 10162 10161 10158 ] final -131.66 input  -65.29 | X-H torsion
[ 10718 10713 10712 10709 ] final    5.65 input   66.30 | X-H torsion
[ 10763 10752 10751 10750 ] final  -80.08 input  -60.55 | X-H torsion
[ 11005 11000 10999 10996 ] final  -58.95 input  -57.11 | X-H torsion

> <Gold.Protein.ActiveResidues>
 VAL166  LYS551  ARG553  GLY616  TRP617  ASP618  TYR619  PRO620  LYS621  CYS622 
 ASP623  PHE694  ASN695  SER759  ASP760  ASP761  ALA762  ILE779  LEU786  VAL792 
 PHE793  MET794  SER795  GLU796  ALA797  LYS798  CYS799  TRP800  GLU811  SER814 

> <Gold.Protein.RotatedAtoms>
  152.5452  134.1308  159.8438 H   0  0  0  0  0  0  0  0  0  0  0  0  # atno 6907 bound_to 6896
  151.1354  133.5000  159.2605 H   0  0  0  0  0  0  0  0  0  0  0  0  # atno 6908 bound_to 6896
  151.1630  135.0292  159.8773 H   0  0  0  0  0  0  0  0  0  0  0  0  # atno 6909 bound_to 6896
  145.5394  139.2288  143.2574 H   0  0  0  0  0  0  0  0  0  0  0  0  # atno 7974 bound_to 7965
  155.3423  140.3409  155.4239 H   0  0  0  0  0  0  0  0  0  0  0  0  # atno 8008 bound_to 7997
  156.1807  140.1663  156.8315 H   0  0  0  0  0  0  0  0  0  0  0  0  # atno 8009 bound_to 7997
  154.5330  140.0741  156.8362 H   0  0  0  0  0  0  0  0  0  0  0  0  # atno 8010 bound_to 7997
  139.9166  143.6432  152.2563 H   0  0  0  0  0  0  0  0  0  0  0  0  # atno 10167 bound_to 10162
  156.9106  130.5754  149.5647 H   0  0  0  0  0  0  0  0  0  0  0  0  # atno 10718 bound_to 10713
  154.5467  135.5673  153.6886 H   0  0  0  0  0  0  0  0  0  0  0  0  # atno 10763 bound_to 10752
  152.9978  135.6241  154.2429 H   0  0  0  0  0  0  0  0  0  0  0  0  # atno 10764 bound_to 10752
  154.2362  135.2864  155.2851 H   0  0  0  0  0  0  0  0  0  0  0  0  # atno 10765 bound_to 10752
  141.1228  133.6614  156.4998 H   0  0  0  0  0  0  0  0  0  0  0  0  # atno 11005 bound_to 11000
  146.1991  140.6214  142.9110 LP  0  0  0  0  0  0  0  0  0  0  0  0  # atno 17320 bound_to 7965
  144.7585  140.5364  143.6752 LP  0  0  0  0  0  0  0  0  0  0  0  0  # atno 17321 bound_to 7965
  139.6897  144.7648  151.1460 LP  0  0  0  0  0  0  0  0  0  0  0  0  # atno 17342 bound_to 10162
  140.7672  143.5606  150.9103 LP  0  0  0  0  0  0  0  0  0  0  0  0  # atno 17343 bound_to 10162
  156.0538  130.5603  150.9047 LP  0  0  0  0  0  0  0  0  0  0  0  0  # atno 17370 bound_to 10713
  157.5970  131.0942  150.9024 LP  0  0  0  0  0  0  0  0  0  0  0  0  # atno 17371 bound_to 10713
  140.4455  134.6976  157.5013 LP  0  0  0  0  0  0  0  0  0  0  0  0  # atno 17394 bound_to 11000
  140.0200  134.6561  155.9253 LP  0  0  0  0  0  0  0  0  0  0  0  0  # atno 17395 bound_to 11000

$$$$
