AV-unprocessed.smi:1005|AV-procd|sdf|4379|dock5
  -GOLD-   22720 2293D 1   1.00000     0.00000
 Structure written by MMmdl.
 58 60  0  0  0  0  0  0  0  0  4 V2000
  152.5405  143.4624  161.3158 C   0  0  0  0  0  0  0  0  0  0  0  0
  152.2504  142.6935  160.0378 C   0  0  0  0  0  0  0  0  0  0  0  0
  151.2802  143.2065  159.1478 C   0  0  0  0  0  0  0  0  0  0  0  0
  151.0402  142.4832  157.9855 C   0  0  0  0  0  0  0  0  0  0  0  0
  150.1630  142.7218  156.9257 N   0  3  0  0  0  0  0  0  0  0  0  0
  150.2836  141.7280  156.0027 C   0  0  0  0  0  0  0  0  0  0  0  0
  151.2286  140.8589  156.4549 N   0  0  0  0  0  0  0  0  0  0  0  0
  151.7337  139.6208  155.8425 C   0  0  0  0  0  0  0  0  0  0  0  0
  150.6586  138.8675  155.0336 C   0  0  1  0  0  0  0  0  0  0  0  0
  150.3276  139.6101  153.8763 O   0  0  0  0  0  0  0  0  0  0  0  0
  151.1471  137.4705  154.5991 C   0  0  0  0  0  0  0  0  0  0  0  0
  150.0455  136.4787  154.4975 N   0  3  1  0  0  0  0  0  0  0  0  0
  150.5309  135.0817  154.5892 C   0  0  0  0  0  0  0  0  0  0  0  0
  149.3651  134.0976  154.4038 C   0  0  0  0  0  0  0  0  0  0  0  0
  148.3598  134.3649  155.3742 O   0  0  0  0  0  0  0  0  0  0  0  0
  147.8124  135.6731  155.2439 C   0  0  1  0  0  0  0  0  0  0  0  0
  146.6909  135.8254  156.2888 C   0  0  0  0  0  0  0  0  0  0  0  0
  145.4621  135.0726  155.9274 N   0  3  0  0  0  0  0  0  0  0  0  0
  144.3329  135.3080  156.8571 C   0  0  0  0  0  0  0  0  0  0  0  0
  145.7252  133.6270  155.7517 C   0  0  0  0  0  0  0  0  0  0  0  0
  148.9400  136.7030  155.4624 C   0  0  0  0  0  0  0  0  0  0  0  0
  151.7249  141.2874  157.6928 C   0  0  0  0  0  0  0  0  0  0  0  0
  152.6817  140.7666  158.5616 C   0  0  0  0  0  0  0  0  0  0  0  0
  152.9407  141.4878  159.7492 C   0  0  0  0  0  0  0  0  0  0  0  0
  153.9805  140.9444  160.7144 C   0  0  0  0  0  0  0  0  0  0  0  0
  151.9626  144.3857  161.3665 H   0  0  0  0  0  0  0  0  0  0  0  0
  153.5961  143.7286  161.3730 H   0  0  0  0  0  0  0  0  0  0  0  0
  152.2864  142.8616  162.1893 H   0  0  0  0  0  0  0  0  0  0  0  0
  150.7496  144.1226  159.3623 H   0  0  0  0  0  0  0  0  0  0  0  0
  149.7282  141.6456  155.0793 H   0  0  0  0  0  0  0  0  0  0  0  0
  152.6050  139.8520  155.2292 H   0  0  0  0  0  0  0  0  0  0  0  0
  152.0945  138.9889  156.6550 H   0  0  0  0  0  0  0  0  0  0  0  0
  149.7637  138.7830  155.6493 H   0  0  0  0  0  0  0  0  0  0  0  0
  150.0179  139.0110  153.2136 H   0  0  0  0  0  0  0  0  0  0  0  0
  151.6374  137.5647  153.6286 H   0  0  0  0  0  0  0  0  0  0  0  0
  151.9065  137.0982  155.2884 H   0  0  0  0  0  0  0  0  0  0  0  0
  151.2876  134.8987  153.8253 H   0  0  0  0  0  0  0  0  0  0  0  0
  151.0068  134.9211  155.5580 H   0  0  0  0  0  0  0  0  0  0  0  0
  148.9476  134.1711  153.3981 H   0  0  0  0  0  0  0  0  0  0  0  0
  149.7144  133.0726  154.5294 H   0  0  0  0  0  0  0  0  0  0  0  0
  147.4087  135.8024  154.2392 H   0  0  0  0  0  0  0  0  0  0  0  0
  147.0684  135.4678  157.2483 H   0  0  0  0  0  0  0  0  0  0  0  0
  146.4397  136.8774  156.4333 H   0  0  0  0  0  0  0  0  0  0  0  0
  144.5838  134.9812  157.8671 H   0  0  0  0  0  0  0  0  0  0  0  0
  143.4494  134.7565  156.5337 H   0  0  0  0  0  0  0  0  0  0  0  0
  144.0572  136.3609  156.8976 H   0  0  0  0  0  0  0  0  0  0  0  0
  146.0590  133.1738  156.6860 H   0  0  0  0  0  0  0  0  0  0  0  0
  146.4937  133.4609  154.9961 H   0  0  0  0  0  0  0  0  0  0  0  0
  144.8244  133.1076  155.4222 H   0  0  0  0  0  0  0  0  0  0  0  0
  149.3259  136.6301  156.4806 H   0  0  0  0  0  0  0  0  0  0  0  0
  148.5341  137.7073  155.3467 H   0  0  0  0  0  0  0  0  0  0  0  0
  153.2123  139.8518  158.3433 H   0  0  0  0  0  0  0  0  0  0  0  0
  154.3713  139.9828  160.3806 H   0  0  0  0  0  0  0  0  0  0  0  0
  153.5477  140.7999  161.7045 H   0  0  0  0  0  0  0  0  0  0  0  0
  154.8197  141.6350  160.7998 H   0  0  0  0  0  0  0  0  0  0  0  0
  145.1730  135.4112  155.0203 H   0  0  0  0  0  0  0  0  0  0  0  0
  149.6590  136.5831  153.5694 H   0  0  0  0  0  0  0  0  0  0  0  0
  149.5258  143.5034  156.8377 H   0  0  0  0  0  0  0  0  0  0  0  0
  1  2  1  0  0  0  0
  1 26  1  0  0  0  0
  1 27  1  0  0  0  0
  1 28  1  0  0  0  0
  2 24  1  0  0  0  0
  2  3  2  0  0  0  0
  3  4  1  0  0  0  0
  3 29  1  0  0  0  0
  4 22  2  0  0  0  0
  4  5  1  0  0  0  0
  5  6  2  0  0  0  0
  5 58  1  0  0  0  0
  6  7  1  0  0  0  0
  6 30  1  0  0  0  0
  7  8  1  0  0  0  0
  7 22  1  0  0  0  0
  8  9  1  0  0  0  0
  8 31  1  0  0  0  0
  8 32  1  0  0  0  0
  9 10  1  0  0  0  0
  9 11  1  0  0  0  0
  9 33  1  0  0  0  0
 10 34  1  0  0  0  0
 11 12  1  0  0  0  0
 11 35  1  0  0  0  0
 11 36  1  0  0  0  0
 12 21  1  0  0  0  0
 12 13  1  0  0  0  0
 12 57  1  0  0  0  0
 13 14  1  0  0  0  0
 13 37  1  0  0  0  0
 13 38  1  0  0  0  0
 14 15  1  0  0  0  0
 14 39  1  0  0  0  0
 14 40  1  0  0  0  0
 15 16  1  0  0  0  0
 16 17  1  0  0  0  0
 16 21  1  0  0  0  0
 16 41  1  0  0  0  0
 17 18  1  0  0  0  0
 17 42  1  0  0  0  0
 17 43  1  0  0  0  0
 18 19  1  0  0  0  0
 18 20  1  0  0  0  0
 18 56  1  0  0  0  0
 19 44  1  0  0  0  0
 19 45  1  0  0  0  0
 19 46  1  0  0  0  0
 20 47  1  0  0  0  0
 20 48  1  0  0  0  0
 20 49  1  0  0  0  0
 21 50  1  0  0  0  0
 21 51  1  0  0  0  0
 22 23  1  0  0  0  0
 23 24  2  0  0  0  0
 23 52  1  0  0  0  0
 24 25  1  0  0  0  0
 25 53  1  0  0  0  0
 25 54  1  0  0  0  0
 25 55  1  0  0  0  0
M  CHG  1   5   1
M  CHG  1  12   1
M  CHG  1  18   1
M  END
> <s_m_source_file>
AV-unprocessed.smi

> <i_m_source_file_index>
1005

> <i_lp_mmshare_version>
43012

> <i_f3d_flags>
0

> <s_epik_input>
W0NIM11jKFtjSF0xKWMoW0NIM10pW2NIXWMoYzEyKW4oW2NIXW4yKVtDSDJdW0NASF0oW09IXSlbQ0gyXU4zW0NIMl1bQ0gyXU9bQ0BIXShbQ0gyXTMpW0NIMl1OKFtDSDNdKVtDSDNd

> <s_epik_cmdline>
J2VwaWtfcHl0aG9uJywgJy1waCcsICc3LjAnLCAnLXRuJywgJzgnLCAnLW1hJywgJzIwMCcsICctbWV0YWxfYmluZGluZycsICctaW1hZScsICc8aW5maWxlLm1hZT4nLCAnLW9tYWUnLCAnPG91dGZpbGUubWFlPic=

> <r_epik_Ionization_Penalty>
2.30802

> <r_epik_Ionization_Penalty_Charging>
2.30798

> <r_epik_Ionization_Penalty_Neutral>
3.4851e-05

> <r_epik_State_Penalty>
2.52618

> <r_epik_Charging_Adjusted_Penalty>
4.83416

> <i_epik_Tot_Q>
3

> <i_epik_Tot_abs_Q>
3

> <r_epik_Metal_State_Penalty>
6.53149

> <b_epik_Metal_Only>
0

> <s_lp_Force_Field>
OPLS_2005

> <r_lp_Energy>
42.4596

> <b_lp_Chiralities_Consistent>
1

> <s_lp_Variant>
AV-unprocessed.smi:1005-18

> <Gold.Version>
5.8.1

> <Gold.Id.Protein>
6NUR|6NUR_protein|mol2

> <Gold.PLP.Fitness>
58.3403

> <Gold.PLP.PLP>
-45.3307

> <Gold.PLP.part.hbond>
-4.0491

> <Gold.PLP.part.metal>
0.0000

> <Gold.PLP.part.buried>
-5.3587

> <Gold.PLP.part.nonpolar>
-36.1934

> <Gold.PLP.part.repulsive>
0.1344

> <Gold.PLP.ligand.clash>
0.0000

> <Gold.PLP.ligand.torsion>
1.1597

> <Gold.PLP.Chemscore.Hbond>
5.0741

> <Gold.PLP.Chemscore.CHOScore>
0.0000

> <Gold.PLP.Chemscore.Metal>
0.0000

> <Gold.Chemscore.Hbonds>
donor molecule, donor type, donor heavy atom, donor atom, acceptor molecule, acceptor atom, score
      L1  H     5    58       P1  8028  1.76
      L1  H    10    34       P1  7957  0.08
      L1  H    12    57       P1  7948  2.00
      P1  H  7989  7998       L1    10  1.00

> <Gold.PLP.Chemscore.Internal.Correction>
0.1068

> <Gold.Rescore>
     Score         DG    S(hbond)    S(metal)    S(lipo)     H(rot)  DE(clash)    DE(int)     intcor
     17.59     -21.29       2.72        0.00     113.40       2.56       0.21       3.49       ----

> <Gold.Chemscore.Fitness>
17.5877

> <Gold.Chemscore.DG>
-21.2863

> <Gold.Chemscore.ZeroCoef>
-5.4800

> <Gold.Chemscore.Hbond>
2.7196

> <Gold.Chemscore.Metal>
0.0000

> <Gold.Chemscore.Lipo>
113.4003

> <Gold.Chemscore.Internal_Hbond>
0.0000

> <Gold.Chemscore.DEClash>
0.2065

> <Gold.Chemscore.DEInternal>
3.4921

> <Gold.Chemscore.Rot>
2.5566

> <Gold.Chemscore.Internal.Correction>
   9.000000E+99

> <Gold.Chemscore.Hbonds>
donor molecule, donor type, donor heavy atom, donor atom, acceptor molecule, acceptor atom, score
      L1  H     5    58       P1  8028  0.85
      L1  H    10    34       P1  7957  0.07
      L1  H    12    57       P1  7948  0.55
      P1  H  7989  7998       L1    10  0.77

> <Gold.Chemscore.Hbond.Weighted>
-9.0835

> <Gold.Chemscore.Metal.Weighted>
-0.0000

> <Gold.Chemscore.Lipo.Weighted>
-13.2678

> <Gold.Chemscore.Internal_Hbond.Weighted>
0.0000

> <Gold.Chemscore.DEClash.Weighted>
0.2065

> <Gold.Chemscore.DEInternal.Weighted>
3.4921

> <Gold.Chemscore.Rot.Weighted>
6.5450

> <Gold.Chemscore.Internal.Correction.Weighted>
   9.000000E+99

> <Gold.Protein.RotatedTorsions>
[ 6907 6896 6895 6894 ] final  173.41 input  -60.11 | X-H torsion
[ 7974 7965 7964 7962 ] final  158.54 input  175.53 | X-H torsion
[ 8008 7997 7996 7995 ] final  -69.85 input   59.86 | X-H torsion
[ 10167 10162 10161 10158 ] final  -58.17 input  -65.29 | X-H torsion
[ 10718 10713 10712 10709 ] final   -0.68 input   66.30 | X-H torsion
[ 10763 10752 10751 10750 ] final  -52.51 input  -60.55 | X-H torsion
[ 11005 11000 10999 10996 ] final   78.40 input  -57.11 | X-H torsion

> <Gold.Protein.ActiveResidues>
 VAL166  LYS551  ARG553  GLY616  TRP617  ASP618  TYR619  PRO620  LYS621  CYS622 
 ASP623  PHE694  ASN695  SER759  ASP760  ASP761  ALA762  ILE779  LEU786  VAL792 
 PHE793  MET794  SER795  GLU796  ALA797  LYS798  CYS799  TRP800  GLU811  SER814 

> <Gold.Protein.RotatedAtoms>
  151.7687  133.3339  159.3438 H   0  0  0  0  0  0  0  0  0  0  0  0  # atno 6907 bound_to 6896
  150.7470  134.6038  159.6060 H   0  0  0  0  0  0  0  0  0  0  0  0  # atno 6908 bound_to 6896
  152.3356  134.7204  160.0329 H   0  0  0  0  0  0  0  0  0  0  0  0  # atno 6909 bound_to 6896
  144.7840  139.7493  143.6248 H   0  0  0  0  0  0  0  0  0  0  0  0  # atno 7974 bound_to 7965
  154.4968  140.0845  156.7714 H   0  0  0  0  0  0  0  0  0  0  0  0  # atno 8008 bound_to 7997
  155.4097  140.3441  155.4244 H   0  0  0  0  0  0  0  0  0  0  0  0  # atno 8009 bound_to 7997
  156.1405  140.1528  156.8916 H   0  0  0  0  0  0  0  0  0  0  0  0  # atno 8010 bound_to 7997
  140.6214  143.2421  151.5472 H   0  0  0  0  0  0  0  0  0  0  0  0  # atno 10167 bound_to 10162
  156.8168  130.5443  149.5702 H   0  0  0  0  0  0  0  0  0  0  0  0  # atno 10718 bound_to 10713
  154.1439  135.6501  153.4948 H   0  0  0  0  0  0  0  0  0  0  0  0  # atno 10763 bound_to 10752
  153.0157  135.5322  154.6877 H   0  0  0  0  0  0  0  0  0  0  0  0  # atno 10764 bound_to 10752
  154.6146  135.2957  155.0366 H   0  0  0  0  0  0  0  0  0  0  0  0  # atno 10765 bound_to 10752
  139.9214  134.7760  156.1645 H   0  0  0  0  0  0  0  0  0  0  0  0  # atno 11005 bound_to 11000
  146.2062  139.5389  142.9711 LP  0  0  0  0  0  0  0  0  0  0  0  0  # atno 17320 bound_to 7965
  145.5972  141.0361  143.2038 LP  0  0  0  0  0  0  0  0  0  0  0  0  # atno 17321 bound_to 7965
  139.5442  144.2567  152.1409 LP  0  0  0  0  0  0  0  0  0  0  0  0  # atno 17342 bound_to 10162
  140.1788  144.4865  150.6540 LP  0  0  0  0  0  0  0  0  0  0  0  0  # atno 17343 bound_to 10162
  156.1012  130.5970  150.9896 LP  0  0  0  0  0  0  0  0  0  0  0  0  # atno 17370 bound_to 10713
  157.6477  131.0901  150.8118 LP  0  0  0  0  0  0  0  0  0  0  0  0  # atno 17371 bound_to 10713
  141.0738  133.6785  156.2194 LP  0  0  0  0  0  0  0  0  0  0  0  0  # atno 17394 bound_to 11000
  140.6463  134.5113  157.5574 LP  0  0  0  0  0  0  0  0  0  0  0  0  # atno 17395 bound_to 11000

$$$$
