AV-unprocessed.smi:753|AV-procd|sdf|3605|dock6
  -GOLD-   22720 1 03D 1   1.00000     0.00000
 Structure written by MMmdl.
 44 46  0  0  0  0  0  0  0  0  2 V2000
  151.7654  143.5007  158.4242 C   0  0  0  0  0  0  0  0  0  0  0  0
  151.3792  142.3706  157.4938 C   0  0  0  0  0  0  0  0  0  0  0  0
  151.9278  141.0759  157.6142 C   0  0  0  0  0  0  0  0  0  0  0  0
  151.5279  140.0716  156.7088 C   0  0  0  0  0  0  0  0  0  0  0  0
  150.5864  140.3811  155.7023 C   0  0  0  0  0  0  0  0  0  0  0  0
  150.1598  139.3344  154.6877 C   0  0  0  0  0  0  0  0  0  0  0  0
  148.9645  139.7686  153.8170 C   0  0  0  0  0  0  0  0  0  0  0  0
  148.2921  138.6370  153.1830 N   0  0  0  0  0  0  0  0  0  0  0  0
  146.9679  138.4036  153.1963 C   0  0  0  0  0  0  0  0  0  0  0  0
  146.1533  139.1420  153.7469 O   0  0  0  0  0  0  0  0  0  0  0  0
  146.5873  137.2941  152.5396 N   0  0  0  0  0  0  0  0  0  0  0  0
  145.2293  136.7698  152.3726 C   0  0  2  0  0  0  0  0  0  0  0  0
  144.7674  136.0071  153.6344 C   0  0  0  0  0  0  0  0  0  0  0  0
  144.4398  134.6030  153.0940 C   0  0  2  0  0  0  0  0  0  0  0  0
  145.7456  133.8737  152.7248 C   0  0  0  0  0  0  0  0  0  0  0  0
  146.1840  134.5916  151.4345 C   0  0  0  0  0  0  0  0  0  0  0  0
  145.1039  135.6833  151.2726 C   0  0  1  0  0  0  0  0  0  0  0  0
  143.8588  134.9274  151.7242 C   0  0  0  0  0  0  0  0  0  0  0  0
  150.0647  141.6906  155.6366 C   0  0  0  0  0  0  0  0  0  0  0  0
  150.4758  142.6254  156.5207 N   0  3  0  0  0  0  0  0  0  0  0  0
  152.7137  143.2907  158.9200 H   0  0  0  0  0  0  0  0  0  0  0  0
  151.0012  143.6375  159.1894 H   0  0  0  0  0  0  0  0  0  0  0  0
  151.8725  144.4355  157.8728 H   0  0  0  0  0  0  0  0  0  0  0  0
  152.6503  140.8542  158.3860 H   0  0  0  0  0  0  0  0  0  0  0  0
  151.9493  139.0795  156.7817 H   0  0  0  0  0  0  0  0  0  0  0  0
  151.0076  139.0856  154.0479 H   0  0  0  0  0  0  0  0  0  0  0  0
  149.9065  138.4185  155.2228 H   0  0  0  0  0  0  0  0  0  0  0  0
  148.2337  140.2864  154.4387 H   0  0  0  0  0  0  0  0  0  0  0  0
  149.2867  140.4914  153.0654 H   0  0  0  0  0  0  0  0  0  0  0  0
  148.8808  137.9712  152.7038 H   0  0  0  0  0  0  0  0  0  0  0  0
  147.3183  136.7675  152.0835 H   0  0  0  0  0  0  0  0  0  0  0  0
  144.5334  137.5882  152.1788 H   0  0  0  0  0  0  0  0  0  0  0  0
  145.5214  135.9740  154.4223 H   0  0  0  0  0  0  0  0  0  0  0  0
  143.8758  136.4741  154.0547 H   0  0  0  0  0  0  0  0  0  0  0  0
  143.7857  134.0256  153.7481 H   0  0  0  0  0  0  0  0  0  0  0  0
  146.4942  133.9455  153.5146 H   0  0  0  0  0  0  0  0  0  0  0  0
  145.5631  132.8158  152.5317 H   0  0  0  0  0  0  0  0  0  0  0  0
  147.1993  134.9835  151.4944 H   0  0  0  0  0  0  0  0  0  0  0  0
  146.1551  133.9010  150.5907 H   0  0  0  0  0  0  0  0  0  0  0  0
  145.0462  136.0884  150.2618 H   0  0  0  0  0  0  0  0  0  0  0  0
  143.6454  134.0417  151.1232 H   0  0  0  0  0  0  0  0  0  0  0  0
  142.9652  135.5524  151.7697 H   0  0  0  0  0  0  0  0  0  0  0  0
  149.3488  142.0208  154.8983 H   0  0  0  0  0  0  0  0  0  0  0  0
  150.0908  143.5672  156.4469 H   0  0  0  0  0  0  0  0  0  0  0  0
  1  2  1  0  0  0  0
  1 21  1  0  0  0  0
  1 22  1  0  0  0  0
  1 23  1  0  0  0  0
  2 20  1  0  0  0  0
  2  3  2  0  0  0  0
  3  4  1  0  0  0  0
  3 24  1  0  0  0  0
  4  5  2  0  0  0  0
  4 25  1  0  0  0  0
  5  6  1  0  0  0  0
  5 19  1  0  0  0  0
  6  7  1  0  0  0  0
  6 26  1  0  0  0  0
  6 27  1  0  0  0  0
  7  8  1  0  0  0  0
  7 28  1  0  0  0  0
  7 29  1  0  0  0  0
  8  9  1  0  0  0  0
  8 30  1  0  0  0  0
  9 10  2  0  0  0  0
  9 11  1  0  0  0  0
 11 12  1  0  0  0  0
 11 31  1  0  0  0  0
 12 17  1  0  0  0  0
 12 13  1  0  0  0  0
 12 32  1  0  0  0  0
 13 14  1  0  0  0  0
 13 33  1  0  0  0  0
 13 34  1  0  0  0  0
 14 18  1  0  0  0  0
 14 15  1  0  0  0  0
 14 35  1  0  0  0  0
 15 16  1  0  0  0  0
 15 36  1  0  0  0  0
 15 37  1  0  0  0  0
 16 17  1  0  0  0  0
 16 38  1  0  0  0  0
 16 39  1  0  0  0  0
 17 18  1  0  0  0  0
 17 40  1  0  0  0  0
 18 41  1  0  0  0  0
 18 42  1  0  0  0  0
 19 20  2  0  0  0  0
 19 43  1  0  0  0  0
 20 44  1  0  0  0  0
M  CHG  1  20   1
M  END
> <s_m_source_file>
AV-unprocessed.smi

> <i_m_source_file_index>
753

> <i_lp_mmshare_version>
43012

> <i_f3d_flags>
0

> <s_epik_input>
W0NIM11jMVtjSF1bY0hdYyhbY0hdbjEpW0NIMl1bQ0gyXVtOSF1DKD1PKVtOSF1bQ0BIXShbQ0gyXVtDQEBIXTIzKVtDQEBIXShbQ0gyXTMpW0NIMl1bQ0gyXTI=

> <s_epik_cmdline>
J2VwaWtfcHl0aG9uJywgJy1waCcsICc3LjAnLCAnLXRuJywgJzgnLCAnLW1hJywgJzIwMCcsICctbWV0YWxfYmluZGluZycsICctaW1hZScsICc8aW5maWxlLm1hZT4nLCAnLW9tYWUnLCAnPG91dGZpbGUubWFlPic=

> <r_epik_Ionization_Penalty>
1.41708

> <r_epik_Ionization_Penalty_Charging>
1.41702

> <r_epik_Ionization_Penalty_Neutral>
5.73163e-05

> <r_epik_State_Penalty>
1.50048

> <r_epik_Charging_Adjusted_Penalty>
2.9175

> <i_epik_Tot_Q>
1

> <i_epik_Tot_abs_Q>
1

> <r_epik_Metal_State_Penalty>
1.55295

> <b_epik_Metal_Only>
0

> <s_lp_Force_Field>
OPLS_2005

> <r_lp_Energy>
59.6045

> <b_lp_Chiralities_Consistent>
1

> <s_lp_Variant>
AV-unprocessed.smi:753-7

> <Gold.Version>
5.8.1

> <Gold.Id.Protein>
6NUR|6NUR_protein|mol2

> <Gold.PLP.Fitness>
45.1296

> <Gold.PLP.PLP>
-34.2491

> <Gold.PLP.part.hbond>
-4.0000

> <Gold.PLP.part.metal>
0.0000

> <Gold.PLP.part.buried>
-2.0349

> <Gold.PLP.part.nonpolar>
-28.8582

> <Gold.PLP.part.repulsive>
0.8599

> <Gold.PLP.ligand.clash>
0.0000

> <Gold.PLP.ligand.torsion>
0.4653

> <Gold.PLP.Chemscore.Hbond>
3.9280

> <Gold.PLP.Chemscore.CHOScore>
0.0000

> <Gold.PLP.Chemscore.Metal>
0.0000

> <Gold.Chemscore.Hbonds>
donor molecule, donor type, donor heavy atom, donor atom, acceptor molecule, acceptor atom, score
      L1  H     8    30       P1  7948  0.93
      L1  H    11    31       P1  7948  1.00
      L1  H    20    44       P1  8028  1.98

> <Gold.PLP.Chemscore.Internal.Correction>
0.0271

> <Gold.Rescore>
     Score         DG    S(hbond)    S(metal)    S(lipo)     H(rot)  DE(clash)    DE(int)     intcor
     19.95     -21.70       2.83        0.00      90.65       1.50       1.42       0.32       ----

> <Gold.Chemscore.Fitness>
19.9509

> <Gold.Chemscore.DG>
-21.6971

> <Gold.Chemscore.ZeroCoef>
-5.4800

> <Gold.Chemscore.Hbond>
2.8316

> <Gold.Chemscore.Metal>
0.0000

> <Gold.Chemscore.Lipo>
90.6526

> <Gold.Chemscore.Internal_Hbond>
0.0000

> <Gold.Chemscore.DEClash>
1.4235

> <Gold.Chemscore.DEInternal>
0.3228

> <Gold.Chemscore.Rot>
1.5027

> <Gold.Chemscore.Internal.Correction>
   9.000000E+99

> <Gold.Chemscore.Hbonds>
donor molecule, donor type, donor heavy atom, donor atom, acceptor molecule, acceptor atom, score
      L1  H     8    30       P1  7948  0.91
      L1  H    11    31       P1  7948  0.98
      L1  H    20    44       P1  8028  0.94

> <Gold.Chemscore.Hbond.Weighted>
-9.4575

> <Gold.Chemscore.Metal.Weighted>
-0.0000

> <Gold.Chemscore.Lipo.Weighted>
-10.6064

> <Gold.Chemscore.Internal_Hbond.Weighted>
0.0000

> <Gold.Chemscore.DEClash.Weighted>
1.4235

> <Gold.Chemscore.DEInternal.Weighted>
0.3228

> <Gold.Chemscore.Rot.Weighted>
3.8468

> <Gold.Chemscore.Internal.Correction.Weighted>
   9.000000E+99

> <Gold.Protein.RotatedTorsions>
[ 6907 6896 6895 6894 ] final   28.83 input  -60.11 | X-H torsion
[ 7974 7965 7964 7962 ] final   18.29 input  175.53 | X-H torsion
[ 8008 7997 7996 7995 ] final  -91.98 input   59.86 | X-H torsion
[ 10167 10162 10161 10158 ] final  -54.16 input  -65.29 | X-H torsion
[ 10718 10713 10712 10709 ] final    5.23 input   66.30 | X-H torsion
[ 10763 10752 10751 10750 ] final  -38.64 input  -60.55 | X-H torsion
[ 11005 11000 10999 10996 ] final   61.84 input  -57.11 | X-H torsion

> <Gold.Protein.ActiveResidues>
 VAL166  LYS551  ARG553  GLY616  TRP617  ASP618  TYR619  PRO620  LYS621  CYS622 
 ASP623  PHE694  ASN695  SER759  ASP760  ASP761  ALA762  ILE779  LEU786  VAL792 
 PHE793  MET794  SER795  GLU796  ALA797  LYS798  CYS799  TRP800  GLU811  SER814 

> <Gold.Protein.RotatedAtoms>
  152.0227  134.9813  160.0570 H   0  0  0  0  0  0  0  0  0  0  0  0  # atno 6907 bound_to 6896
  152.1321  133.4409  159.4734 H   0  0  0  0  0  0  0  0  0  0  0  0  # atno 6908 bound_to 6896
  150.6857  134.2326  159.4484 H   0  0  0  0  0  0  0  0  0  0  0  0  # atno 6909 bound_to 6896
  146.2190  139.8479  142.8628 H   0  0  0  0  0  0  0  0  0  0  0  0  # atno 7974 bound_to 7965
  154.7175  140.0514  157.0608 H   0  0  0  0  0  0  0  0  0  0  0  0  # atno 8008 bound_to 7997
  155.0472  140.3175  155.4685 H   0  0  0  0  0  0  0  0  0  0  0  0  # atno 8009 bound_to 7997
  156.2807  140.2122  156.5597 H   0  0  0  0  0  0  0  0  0  0  0  0  # atno 8010 bound_to 7997
  140.6445  143.2527  151.4896 H   0  0  0  0  0  0  0  0  0  0  0  0  # atno 10167 bound_to 10162
  156.9043  130.5733  149.5647 H   0  0  0  0  0  0  0  0  0  0  0  0  # atno 10718 bound_to 10713
  153.9162  135.6787  153.4749 H   0  0  0  0  0  0  0  0  0  0  0  0  # atno 10763 bound_to 10752
  153.1052  135.4809  154.8936 H   0  0  0  0  0  0  0  0  0  0  0  0  # atno 10764 bound_to 10752
  154.7502  135.3183  154.8528 H   0  0  0  0  0  0  0  0  0  0  0  0  # atno 10765 bound_to 10752
  140.0133  134.6263  155.9748 H   0  0  0  0  0  0  0  0  0  0  0  0  # atno 11005 bound_to 11000
  145.2832  141.0145  143.3705 LP  0  0  0  0  0  0  0  0  0  0  0  0  # atno 17320 bound_to 7965
  144.9134  139.4500  143.6576 LP  0  0  0  0  0  0  0  0  0  0  0  0  # atno 17321 bound_to 7965
  139.5655  144.2052  152.1759 LP  0  0  0  0  0  0  0  0  0  0  0  0  # atno 17342 bound_to 10162
  140.1332  144.5269  150.6789 LP  0  0  0  0  0  0  0  0  0  0  0  0  # atno 17343 bound_to 10162
  156.0566  130.5627  150.9105 LP  0  0  0  0  0  0  0  0  0  0  0  0  # atno 17370 bound_to 10713
  157.6007  131.0941  150.8966 LP  0  0  0  0  0  0  0  0  0  0  0  0  # atno 17371 bound_to 10713
  141.1726  133.6538  156.4707 LP  0  0  0  0  0  0  0  0  0  0  0  0  # atno 17394 bound_to 11000
  140.4516  134.6924  157.5042 LP  0  0  0  0  0  0  0  0  0  0  0  0  # atno 17395 bound_to 11000

$$$$
