#       Name:                AV-unprocessed.smi:2445
#       Creating user name   scv26
#       Creation time:       Fri Mar 27 13:27:34 2020


#       File generated by GOLD software.
#

@<TRIPOS>MOLECULE
AV-unprocessed.smi:2445
    45    46     1
SMALL
NO_CHARGES


@<TRIPOS>ATOM
      1 ****        -2.1067   0.2564   4.5950 C.3            1 S1                 0.0000
      2 ****        -1.9952   0.6593   3.1640 C.2            1 S1                 0.0000
      3 ****        -2.3780  -0.0572   2.0575 C.2            1 S1                 0.0000
      4 ****        -2.1395   0.6005   0.8491 N.2            1 S1                 0.0000
      5 ****        -1.5852   1.8036   1.0210 C.2            1 S1                 0.0000
      6 ****        -1.2026   2.7054  -0.1148 C.3            1 S1                 0.0000
      7 ****        -1.9472   4.0466  -0.0583 C.3            1 S1                 0.0000
      8 ****         0.3265   2.8895  -0.2478 C.3            1 S1                 0.0000
      9 ****         1.0560   1.6252  -0.2050 N.am           1 S1                 0.0000
     10 ****         1.0765   0.7178  -1.1901 C.2            1 S1                 0.0000
     11 ****         0.5350   0.8753  -2.2844 O.2            1 S1                 0.0000
     12 ****         1.7310  -0.3929  -0.8270 N.am           1 S1                 0.0000
     13 ****         1.8401  -1.5999  -1.6396 C.3            1 S1                 0.0000
     14 ****         3.0896  -2.3888  -1.3079 C.3            1 S1                 0.0000
     15 ****         2.7128  -3.7959  -1.7632 C.3            1 S1                 0.0000
     16 ****         1.2966  -3.8890  -1.6420 O.3            1 S1                 0.0000
     17 ****         0.7432  -2.6197  -1.3080 C.3            1 S1                 0.0000
     18 ****        -0.5779  -2.4029  -2.0563 C.3            1 S1                 0.0000
     19 ****        -1.3109   2.1994   2.7153 S.3            1 S1                 0.0000
     20 ****        -2.6932  -0.6566   4.7019 H              1 S1                 0.0000
     21 ****        -2.5922   1.0372   5.1806 H              1 S1                 0.0000
     22 ****        -1.1205   0.0762   5.0230 H              1 S1                 0.0000
     23 ****        -2.8261  -1.0396   2.0376 H              1 S1                 0.0000
     24 ****        -1.5415   2.2124  -1.0273 H              1 S1                 0.0000
     25 ****        -3.0271   3.8950  -0.0512 H              1 S1                 0.0000
     26 ****        -1.7068   4.6651  -0.9234 H              1 S1                 0.0000
     27 ****        -1.6837   4.6119   0.8359 H              1 S1                 0.0000
     28 ****         0.5701   3.4314  -1.1628 H              1 S1                 0.0000
     29 ****         0.6941   3.4996   0.5777 H              1 S1                 0.0000
     30 ****         1.5325   1.4031   0.6568 H              1 S1                 0.0000
     31 ****         2.1416  -0.4253   0.0947 H              1 S1                 0.0000
     32 ****         1.8391  -1.3693  -2.7071 H              1 S1                 0.0000
     33 ****         3.9832  -2.0063  -1.8020 H              1 S1                 0.0000
     34 ****         3.2690  -2.3882  -0.2315 H              1 S1                 0.0000
     35 ****         2.9776  -3.9396  -2.8114 H              1 S1                 0.0000
     36 ****         3.2141  -4.5681  -1.1794 H              1 S1                 0.0000
     37 ****         0.5576  -2.6250  -0.2325 H              1 S1                 0.0000
     38 ****        -1.0338  -1.4512  -1.7826 H              1 S1                 0.0000
     39 ****        -1.2925  -3.1909  -1.8186 H              1 S1                 0.0000
     40 ****        -0.4258  -2.4048  -3.1359 H              1 S1                 0.0000
     41 ****        -2.3594   0.2135  -0.0464 LP             1 S1                 0.0000
     42 ****         0.0414   1.7225  -2.4807 LP             1 S1                 0.0000
     43 ****         0.5888   0.1560  -2.9770 LP             1 S1                 0.0000
     44 ****         1.0697  -4.5468  -0.9238 LP             1 S1                 0.0000
     45 ****         0.9110  -4.1983  -2.5113 LP             1 S1                 0.0000
@<TRIPOS>BOND
    1    1    2 1     
    2    1   20 1     
    3    1   21 1     
    4    1   22 1     
    5    2   19 1     
    6    2    3 2     
    7    3    4 1     
    8    3   23 1     
    9    4    5 2     
   10    5    6 1     
   11    5   19 1     
   12    6    7 1     
   13    6    8 1     
   14    6   24 1     
   15    7   25 1     
   16    7   26 1     
   17    7   27 1     
   18    8    9 1     
   19    8   28 1     
   20    8   29 1     
   21    9   10 am    
   22    9   30 1     
   23   10   11 2     
   24   10   12 am    
   25   12   13 1     
   26   12   31 1     
   27   13   17 1     
   28   13   14 1     
   29   13   32 1     
   30   14   15 1     
   31   14   33 1     
   32   14   34 1     
   33   15   16 1     
   34   15   35 1     
   35   15   36 1     
   36   16   17 1     
   37   17   18 1     
   38   17   37 1     
   39   18   38 1     
   40   18   39 1     
   41   18   40 1     
   42    4   41 1     
   43   11   42 1     
   44   11   43 1     
   45   16   44 1     
   46   16   45 1     
@<TRIPOS>SUBSTRUCTURE
      1 S1             1
@<TRIPOS>SET
LONE_PAIRS      STATIC     ATOMS    <user>   **** ""
5 41 42 43 44 45
DONOR_HYDROGENS      STATIC     ATOMS    <user>   **** ""
2 30 31
ATOM$BLUE        STATIC     ATOMS    COLORGROUP SYSTEM
5 41 42 43 44 45
ATOM$RED        STATIC     ATOMS    COLORGROUP SYSTEM
2 30 31
