AV-unprocessed.smi:825|AV-procd|sdf|3851|dock2
  -GOLD-   22720 1303D 1   1.00000     0.00000
 Structure written by MMmdl.
 38 39  0  0  0  0  0  0  0  0  1 V2000
  145.0206  138.0888  152.9447 O   0  0  0  0  0  0  0  0  0  0  0  0
  146.0547  137.5210  152.5934 C   0  0  0  0  0  0  0  0  0  0  0  0
  146.0782  136.3686  151.9093 N   0  0  0  0  0  0  0  0  0  0  0  0
  144.9079  135.6072  151.4838 C   0  0  0  0  0  0  0  0  0  0  0  0
  145.3228  134.2883  150.8100 C   0  0  0  0  0  0  0  0  0  0  0  0
  144.1595  133.4744  150.2300 C   0  0  0  0  0  0  0  0  0  0  0  0
  144.6606  132.0248  150.1614 C   0  0  0  0  0  0  0  0  0  0  0  0
  145.9225  131.9580  151.0344 C   0  0  0  0  0  0  0  0  0  0  0  0
  146.0022  133.3023  151.7608 C   0  0  0  0  0  0  0  0  0  0  0  0
  147.2980  137.9637  152.8402 N   0  0  0  0  0  0  0  0  0  0  0  0
  147.6659  139.1608  153.5036 C   0  0  0  0  0  0  0  0  0  0  0  0
  146.9131  140.3536  153.6973 C   0  0  0  0  0  0  0  0  0  0  0  0
  147.6172  141.2565  154.3635 N   0  0  0  0  0  0  0  0  0  0  0  0
  148.8130  140.6644  154.6043 N   0  0  0  0  0  0  0  0  0  0  0  0
  149.8427  141.3937  155.3181 C   0  0  0  0  0  0  0  0  0  0  0  0
  149.4214  141.6920  156.7637 C   0  0  0  0  0  0  0  0  0  0  0  0
  150.1885  142.7593  157.2773 O   0  0  0  0  0  0  0  0  0  0  0  0
  148.8744  139.3839  154.0918 C   0  0  0  0  0  0  0  0  0  0  0  0
  146.9787  135.9821  151.6667 H   0  0  0  0  0  0  0  0  0  0  0  0
  144.2455  135.3909  152.3232 H   0  0  0  0  0  0  0  0  0  0  0  0
  144.3341  136.2222  150.7900 H   0  0  0  0  0  0  0  0  0  0  0  0
  146.0218  134.5097  150.0011 H   0  0  0  0  0  0  0  0  0  0  0  0
  143.3000  133.5261  150.9000 H   0  0  0  0  0  0  0  0  0  0  0  0
  143.8382  133.8465  149.2566 H   0  0  0  0  0  0  0  0  0  0  0  0
  143.8939  131.3360  150.5176 H   0  0  0  0  0  0  0  0  0  0  0  0
  144.8979  131.7438  149.1347 H   0  0  0  0  0  0  0  0  0  0  0  0
  145.9027  131.1180  151.7295 H   0  0  0  0  0  0  0  0  0  0  0  0
  146.7992  131.8339  150.3973 H   0  0  0  0  0  0  0  0  0  0  0  0
  147.0273  133.5878  151.9987 H   0  0  0  0  0  0  0  0  0  0  0  0
  145.4475  133.2441  152.6985 H   0  0  0  0  0  0  0  0  0  0  0  0
  148.0604  137.3913  152.5087 H   0  0  0  0  0  0  0  0  0  0  0  0
  145.9090  140.6004  153.3861 H   0  0  0  0  0  0  0  0  0  0  0  0
  150.7642  140.8096  155.2988 H   0  0  0  0  0  0  0  0  0  0  0  0
  150.0444  142.3219  154.7815 H   0  0  0  0  0  0  0  0  0  0  0  0
  148.3652  141.9601  156.8084 H   0  0  0  0  0  0  0  0  0  0  0  0
  149.5630  140.8152  157.3966 H   0  0  0  0  0  0  0  0  0  0  0  0
  150.0057  143.5336  156.7672 H   0  0  0  0  0  0  0  0  0  0  0  0
  149.7522  138.7618  154.1859 H   0  0  0  0  0  0  0  0  0  0  0  0
  1  2  2  0  0  0  0
  2  3  1  0  0  0  0
  2 10  1  0  0  0  0
  3  4  1  0  0  0  0
  3 19  1  0  0  0  0
  4  5  1  0  0  0  0
  4 20  1  0  0  0  0
  4 21  1  0  0  0  0
  5  9  1  0  0  0  0
  5  6  1  0  0  0  0
  5 22  1  0  0  0  0
  6  7  1  0  0  0  0
  6 23  1  0  0  0  0
  6 24  1  0  0  0  0
  7  8  1  0  0  0  0
  7 25  1  0  0  0  0
  7 26  1  0  0  0  0
  8  9  1  0  0  0  0
  8 27  1  0  0  0  0
  8 28  1  0  0  0  0
  9 29  1  0  0  0  0
  9 30  1  0  0  0  0
 10 11  1  0  0  0  0
 10 31  1  0  0  0  0
 11 18  2  0  0  0  0
 11 12  1  0  0  0  0
 12 13  2  0  0  0  0
 12 32  1  0  0  0  0
 13 14  1  0  0  0  0
 14 15  1  0  0  0  0
 14 18  1  0  0  0  0
 15 16  1  0  0  0  0
 15 33  1  0  0  0  0
 15 34  1  0  0  0  0
 16 17  1  0  0  0  0
 16 35  1  0  0  0  0
 16 36  1  0  0  0  0
 17 37  1  0  0  0  0
 18 38  1  0  0  0  0
M  END
> <s_m_source_file>
AV-unprocessed.smi

> <i_m_source_file_index>
825

> <i_lp_mmshare_version>
43012

> <i_f3d_flags>
0

> <s_epik_input>
W0NIMl0xW0NIMl1bQ0gyXVtDSDJdW0NIXTFbQ0gyXVtOSF1DKD1PKVtOSF1jMltjSF1ubihbY0hdMilbQ0gyXVtDSDJdW09IXQ==

> <s_epik_cmdline>
J2VwaWtfcHl0aG9uJywgJy1waCcsICc3LjAnLCAnLXRuJywgJzgnLCAnLW1hJywgJzIwMCcsICctbWV0YWxfYmluZGluZycsICctaW1hZScsICc8aW5maWxlLm1hZT4nLCAnLW9tYWUnLCAnPG91dGZpbGUubWFlPic=

> <r_lp_tautomer_probability>
1

> <r_epik_Ionization_Penalty>
0.000577844

> <r_epik_Ionization_Penalty_Charging>
0

> <r_epik_Ionization_Penalty_Neutral>
0.000577844

> <r_epik_State_Penalty>
-0

> <r_epik_Charging_Adjusted_Penalty>
0

> <i_epik_Tot_Q>
0

> <i_epik_Tot_abs_Q>
0

> <r_epik_Metal_State_Penalty>
-0

> <b_epik_Metal_Only>
0

> <s_lp_Force_Field>
OPLS_2005

> <r_lp_Energy>
26.6731

> <b_lp_Chiralities_Consistent>
1

> <s_lp_Variant>
AV-unprocessed.smi:825-1

> <Gold.Version>
5.8.1

> <Gold.Id.Protein>
6NUR|6NUR_protein|mol2

> <Gold.PLP.Fitness>
42.1149

> <Gold.PLP.PLP>
-30.8364

> <Gold.PLP.part.hbond>
-3.0000

> <Gold.PLP.part.metal>
0.0000

> <Gold.PLP.part.buried>
-4.3614

> <Gold.PLP.part.nonpolar>
-27.0138

> <Gold.PLP.part.repulsive>
2.7780

> <Gold.PLP.ligand.clash>
0.0000

> <Gold.PLP.ligand.torsion>
0.2417

> <Gold.PLP.Chemscore.Hbond>
2.9120

> <Gold.PLP.Chemscore.CHOScore>
1.0000

> <Gold.PLP.Chemscore.Metal>
0.0000

> <Gold.Chemscore.Hbonds>
donor molecule, donor type, donor heavy atom, donor atom, acceptor molecule, acceptor atom, score
      L1  H     3    19       P1  7948  0.91
      L1  H    10    31       P1  7948  1.00
      L1  H    17    37       P1  8028  1.00
      L1  C    12    32       P1 10175  1.00

> <Gold.PLP.Chemscore.Internal.Correction>
0.0259

> <Gold.Rescore>
     Score         DG    S(hbond)    S(metal)    S(lipo)     H(rot)  DE(clash)    DE(int)     intcor
     15.75     -18.10       2.89        0.00      75.96       2.31       1.27       1.08       ----

> <Gold.Chemscore.Fitness>
15.7548

> <Gold.Chemscore.DG>
-18.1048

> <Gold.Chemscore.ZeroCoef>
-5.4800

> <Gold.Chemscore.Hbond>
2.8892

> <Gold.Chemscore.Metal>
0.0000

> <Gold.Chemscore.Lipo>
75.9621

> <Gold.Chemscore.Internal_Hbond>
0.0000

> <Gold.Chemscore.DEClash>
1.2669

> <Gold.Chemscore.DEInternal>
1.0832

> <Gold.Chemscore.Rot>
2.3097

> <Gold.Chemscore.Internal.Correction>
   9.000000E+99

> <Gold.Chemscore.Hbonds>
donor molecule, donor type, donor heavy atom, donor atom, acceptor molecule, acceptor atom, score
      L1  H     3    19       P1  7948  0.87
      L1  H    10    31       P1  7948  0.98
      L1  H    17    37       P1  8028  0.97

> <Gold.Chemscore.Hbond.Weighted>
-9.6500

> <Gold.Chemscore.Metal.Weighted>
-0.0000

> <Gold.Chemscore.Lipo.Weighted>
-8.8876

> <Gold.Chemscore.Internal_Hbond.Weighted>
0.0000

> <Gold.Chemscore.DEClash.Weighted>
1.2669

> <Gold.Chemscore.DEInternal.Weighted>
1.0832

> <Gold.Chemscore.Rot.Weighted>
5.9128

> <Gold.Chemscore.Internal.Correction.Weighted>
   9.000000E+99

> <Gold.Protein.RotatedTorsions>
[ 6907 6896 6895 6894 ] final  136.09 input  -60.11 | X-H torsion
[ 7974 7965 7964 7962 ] final   68.70 input  175.53 | X-H torsion
[ 8008 7997 7996 7995 ] final  -21.68 input   59.86 | X-H torsion
[ 10167 10162 10161 10158 ] final   37.37 input  -65.29 | X-H torsion
[ 10718 10713 10712 10709 ] final  -37.78 input   66.30 | X-H torsion
[ 10763 10752 10751 10750 ] final   -5.74 input  -60.55 | X-H torsion
[ 11005 11000 10999 10996 ] final  -67.00 input  -57.11 | X-H torsion

> <Gold.Protein.ActiveResidues>
 VAL166  LYS551  ARG553  GLY616  TRP617  ASP618  TYR619  PRO620  LYS621  CYS622 
 ASP623  PHE694  ASN695  SER759  ASP760  ASP761  ALA762  ILE779  LEU786  VAL792 
 PHE793  MET794  SER795  GLU796  ALA797  LYS798  CYS799  TRP800  GLU811  SER814 

> <Gold.Protein.RotatedAtoms>
  152.2932  133.5582  159.5570 H   0  0  0  0  0  0  0  0  0  0  0  0  # atno 6907 bound_to 6896
  150.7244  134.0398  159.3771 H   0  0  0  0  0  0  0  0  0  0  0  0  # atno 6908 bound_to 6896
  151.8303  135.0624  160.0487 H   0  0  0  0  0  0  0  0  0  0  0  0  # atno 6909 bound_to 6896
  145.7993  139.2974  143.1164 H   0  0  0  0  0  0  0  0  0  0  0  0  # atno 7974 bound_to 7965
  154.4691  140.2028  156.0042 H   0  0  0  0  0  0  0  0  0  0  0  0  # atno 8008 bound_to 7997
  156.0979  140.3248  155.7873 H   0  0  0  0  0  0  0  0  0  0  0  0  # atno 8009 bound_to 7997
  155.4847  140.0541  157.2953 H   0  0  0  0  0  0  0  0  0  0  0  0  # atno 8010 bound_to 7997
  140.4039  144.1686  150.6135 H   0  0  0  0  0  0  0  0  0  0  0  0  # atno 10167 bound_to 10162
  156.3113  130.4253  149.8048 H   0  0  0  0  0  0  0  0  0  0  0  0  # atno 10718 bound_to 10713
  153.4027  135.7005  153.6414 H   0  0  0  0  0  0  0  0  0  0  0  0  # atno 10763 bound_to 10752
  153.4941  135.3666  155.2507 H   0  0  0  0  0  0  0  0  0  0  0  0  # atno 10764 bound_to 10752
  154.8711  135.4096  154.3365 H   0  0  0  0  0  0  0  0  0  0  0  0  # atno 10765 bound_to 10752
  141.1497  133.6710  156.6226 H   0  0  0  0  0  0  0  0  0  0  0  0  # atno 11005 bound_to 11000
  145.9894  140.8615  143.0074 LP  0  0  0  0  0  0  0  0  0  0  0  0  # atno 17320 bound_to 7965
  144.6771  140.2194  143.7368 LP  0  0  0  0  0  0  0  0  0  0  0  0  # atno 17321 bound_to 7965
  140.4711  143.2413  151.9088 LP  0  0  0  0  0  0  0  0  0  0  0  0  # atno 17342 bound_to 10162
  139.4784  144.5369  151.8585 LP  0  0  0  0  0  0  0  0  0  0  0  0  # atno 17343 bound_to 10162
  156.5390  130.8291  151.3263 LP  0  0  0  0  0  0  0  0  0  0  0  0  # atno 17370 bound_to 10713
  157.7391  130.9826  150.2295 LP  0  0  0  0  0  0  0  0  0  0  0  0  # atno 17371 bound_to 10713
  140.3529  134.7753  157.4479 LP  0  0  0  0  0  0  0  0  0  0  0  0  # atno 17394 bound_to 11000
  140.0846  134.5683  155.8505 LP  0  0  0  0  0  0  0  0  0  0  0  0  # atno 17395 bound_to 11000

$$$$
