AV-unprocessed.smi:103|AV-procd|sdf|984|dock6
  -GOLD-   2262017553D 1   1.00000     0.00000
 Structure written by MMmdl.
 53 55  0  0  0  0  0  0  0  0  1 V2000
  146.0655  134.7853  161.5815 C   0  0  0  0  0  0  0  0  0  0  0  0
  146.9379  135.9376  161.1021 C   0  0  0  0  0  0  0  0  0  0  0  0
  147.4114  136.7583  161.8884 O   0  0  0  0  0  0  0  0  0  0  0  0
  147.1107  135.9279  159.7721 O   0  0  0  0  0  0  0  0  0  0  0  0
  148.3091  136.4435  159.2137 C   0  0  0  0  0  0  0  0  0  0  0  0
  148.3857  137.9648  159.4493 C   0  0  1  0  0  0  0  0  0  0  0  0
  149.3452  138.2110  160.4666 O   0  0  0  0  0  0  0  0  0  0  0  0
  150.6117  138.2915  159.8911 C   0  0  2  0  0  0  0  0  0  0  0  0
  151.4240  139.2775  160.6769 N   0  0  0  0  0  0  0  0  0  0  0  0
  152.6593  139.1226  161.2734 C   0  0  0  0  0  0  0  0  0  0  0  0
  153.6365  137.6254  161.3274 S   0  0  0  0  0  0  0  0  0  0  0  0
  155.2079  138.1754  160.5488 C   0  0  0  0  0  0  0  0  0  0  0  0
  153.8827  137.3126  162.7433 O   0  0  0  0  0  0  0  0  0  0  0  0
  152.9717  136.6483  160.4510 O   0  0  0  0  0  0  0  0  0  0  0  0
  153.1131  140.1411  161.9524 N   0  0  0  0  0  0  0  0  0  0  0  0
  152.1465  141.1144  161.7424 C   0  0  0  0  0  0  0  0  0  0  0  0
  152.0026  142.4644  162.1508 C   0  0  0  0  0  0  0  0  0  0  0  0
  152.9030  143.0975  162.9155 N   0  0  0  0  0  0  0  0  0  0  0  0
  150.9058  143.1480  161.7493 N   0  0  0  0  0  0  0  0  0  0  0  0
  149.9927  142.5394  160.9860 C   0  0  0  0  0  0  0  0  0  0  0  0
  149.9867  141.2836  160.5310 N   0  0  0  0  0  0  0  0  0  0  0  0
  151.0927  140.5932  160.9379 C   0  0  0  0  0  0  0  0  0  0  0  0
  150.4291  138.7005  158.4125 C   0  0  2  0  0  0  0  0  0  0  0  0
  151.0149  139.9639  158.1098 O   0  0  0  0  0  0  0  0  0  0  0  0
  151.4340  140.2462  156.8657 C   0  0  0  0  0  0  0  0  0  0  0  0
  152.1564  141.5838  156.7923 C   0  0  0  0  0  0  0  0  0  0  0  0
  151.2857  139.5395  155.8693 O   0  0  0  0  0  0  0  0  0  0  0  0
  148.9144  138.7870  158.2666 C   0  0  1  0  0  0  0  0  0  0  0  0
  148.4798  138.2663  157.0159 O   0  0  0  0  0  0  0  0  0  0  0  0
  149.1792  137.3017  156.3961 C   0  0  0  0  0  0  0  0  0  0  0  0
  149.0455  137.3757  154.8812 C   0  0  0  0  0  0  0  0  0  0  0  0
  149.8615  136.4339  156.9407 O   0  0  0  0  0  0  0  0  0  0  0  0
  146.5143  133.8318  161.3030 H   0  0  0  0  0  0  0  0  0  0  0  0
  145.0744  134.8474  161.1319 H   0  0  0  0  0  0  0  0  0  0  0  0
  145.9561  134.8119  162.6658 H   0  0  0  0  0  0  0  0  0  0  0  0
  149.1513  135.9513  159.7017 H   0  0  0  0  0  0  0  0  0  0  0  0
  148.3747  136.2177  158.1483 H   0  0  0  0  0  0  0  0  0  0  0  0
  147.4141  138.3322  159.7809 H   0  0  0  0  0  0  0  0  0  0  0  0
  151.1122  137.3324  160.0113 H   0  0  0  0  0  0  0  0  0  0  0  0
  155.9052  137.3392  160.5092 H   0  0  0  0  0  0  0  0  0  0  0  0
  155.6422  138.9848  161.1349 H   0  0  0  0  0  0  0  0  0  0  0  0
  155.0062  138.5276  159.5374 H   0  0  0  0  0  0  0  0  0  0  0  0
  153.7306  142.6098  163.2274 H   0  0  0  0  0  0  0  0  0  0  0  0
  152.7520  144.0604  163.1791 H   0  0  0  0  0  0  0  0  0  0  0  0
  149.1439  143.1437  160.7014 H   0  0  0  0  0  0  0  0  0  0  0  0
  150.8197  137.8922  157.7920 H   0  0  0  0  0  0  0  0  0  0  0  0
  153.0514  141.5632  157.4143 H   0  0  0  0  0  0  0  0  0  0  0  0
  151.5065  142.3843  157.1455 H   0  0  0  0  0  0  0  0  0  0  0  0
  152.4523  141.8049  155.7667 H   0  0  0  0  0  0  0  0  0  0  0  0
  148.5865  139.8193  158.4019 H   0  0  0  0  0  0  0  0  0  0  0  0
  149.4163  138.3332  154.5152 H   0  0  0  0  0  0  0  0  0  0  0  0
  148.0008  137.2736  154.5876 H   0  0  0  0  0  0  0  0  0  0  0  0
  149.6174  136.5784  154.4062 H   0  0  0  0  0  0  0  0  0  0  0  0
  1  2  1  0  0  0  0
  1 33  1  0  0  0  0
  1 34  1  0  0  0  0
  1 35  1  0  0  0  0
  2  3  2  0  0  0  0
  2  4  1  0  0  0  0
  4  5  1  0  0  0  0
  5  6  1  0  0  0  0
  5 36  1  0  0  0  0
  5 37  1  0  0  0  0
  6 28  1  0  0  0  0
  6  7  1  0  0  0  0
  6 38  1  0  0  0  0
  7  8  1  0  0  0  0
  8  9  1  0  0  0  0
  8 23  1  0  0  0  0
  8 39  1  0  0  0  0
  9 22  1  0  0  0  0
  9 10  1  0  0  0  0
 10 11  1  0  0  0  0
 10 15  2  0  0  0  0
 11 12  1  0  0  0  0
 11 13  2  0  0  0  0
 11 14  2  0  0  0  0
 12 40  1  0  0  0  0
 12 41  1  0  0  0  0
 12 42  1  0  0  0  0
 15 16  1  0  0  0  0
 16 22  2  0  0  0  0
 16 17  1  0  0  0  0
 17 18  1  0  0  0  0
 17 19  2  0  0  0  0
 18 43  1  0  0  0  0
 18 44  1  0  0  0  0
 19 20  1  0  0  0  0
 20 21  2  0  0  0  0
 20 45  1  0  0  0  0
 21 22  1  0  0  0  0
 23 24  1  0  0  0  0
 23 28  1  0  0  0  0
 23 46  1  0  0  0  0
 24 25  1  0  0  0  0
 25 26  1  0  0  0  0
 25 27  2  0  0  0  0
 26 47  1  0  0  0  0
 26 48  1  0  0  0  0
 26 49  1  0  0  0  0
 28 29  1  0  0  0  0
 28 50  1  0  0  0  0
 29 30  1  0  0  0  0
 30 31  1  0  0  0  0
 30 32  2  0  0  0  0
 31 51  1  0  0  0  0
 31 52  1  0  0  0  0
 31 53  1  0  0  0  0
M  END
> <s_m_source_file>
AV-unprocessed.smi

> <i_m_source_file_index>
103

> <i_lp_mmshare_version>
43012

> <i_f3d_flags>
0

> <s_epik_input>
W0NIM11DKD1PKU9bQ0gyXVtDQEBIXTFPW0NASF0oW0NAQEhdKE9DKD1PKVtDSDNdKVtDQEhdMU9DKD1PKVtDSDNdKW4oYyhuMilTKD1PKSg9TylbQ0gzXSljKGMyMyluW2NIXW5jM1tOSDJd

> <s_epik_cmdline>
J2VwaWtfcHl0aG9uJywgJy1waCcsICc3LjAnLCAnLXRuJywgJzgnLCAnLW1hJywgJzIwMCcsICctbWV0YWxfYmluZGluZycsICctaW1hZScsICc8aW5maWxlLm1hZT4nLCAnLW9tYWUnLCAnPG91dGZpbGUubWFlPic=

> <r_lp_tautomer_probability>
1

> <r_epik_Ionization_Penalty>
1.51338e-05

> <r_epik_Ionization_Penalty_Charging>
0

> <r_epik_Ionization_Penalty_Neutral>
1.51338e-05

> <r_epik_State_Penalty>
-0

> <r_epik_Charging_Adjusted_Penalty>
0

> <i_epik_Tot_Q>
0

> <i_epik_Tot_abs_Q>
0

> <r_epik_Metal_State_Penalty>
-0

> <b_epik_Metal_Only>
0

> <s_epik_Chemistry_Notes>
This compound has an ester and may undergo hydrolysis at high or low pH. This compound contains an acetal/aminal-like group ( X-CH(R)-Y where X, Y are N, S, or O) that may be acid/base labile, releasing an aldehyde.

> <s_lp_Force_Field>
OPLS_2005

> <r_lp_Energy>
18.7929

> <b_lp_Chiralities_Consistent>
1

> <s_lp_Variant>
AV-unprocessed.smi:103-8

> <Gold.Version>
5.8.1

> <Gold.Id.Protein>
6NUR|6NUR_protein|mol2

> <Gold.PLP.Fitness>
49.2213

> <Gold.PLP.PLP>
-40.5008

> <Gold.PLP.part.hbond>
-6.0000

> <Gold.PLP.part.metal>
0.0000

> <Gold.PLP.part.buried>
-7.3276

> <Gold.PLP.part.nonpolar>
-27.7024

> <Gold.PLP.part.repulsive>
0.2274

> <Gold.PLP.ligand.clash>
0.0000

> <Gold.PLP.ligand.torsion>
3.2478

> <Gold.PLP.Chemscore.Hbond>
4.3272

> <Gold.PLP.Chemscore.CHOScore>
0.0000

> <Gold.PLP.Chemscore.Metal>
0.0000

> <Gold.Chemscore.Hbonds>
donor molecule, donor type, donor heavy atom, donor atom, acceptor molecule, acceptor atom, score
      P1  H  6896  6907       L1    14  1.00
      P1  H  6931  6943       L1     3  0.59

> <Gold.PLP.Chemscore.Internal.Correction>
2.2346

> <Gold.Rescore>
     Score         DG    S(hbond)    S(metal)    S(lipo)     H(rot)  DE(clash)    DE(int)     intcor
      3.53     -14.47       4.43        0.00      43.36       4.25       0.34      10.60       ----

> <Gold.Chemscore.Fitness>
3.5347

> <Gold.Chemscore.DG>
-14.4707

> <Gold.Chemscore.ZeroCoef>
-5.4800

> <Gold.Chemscore.Hbond>
4.4271

> <Gold.Chemscore.Metal>
0.0000

> <Gold.Chemscore.Lipo>
43.3580

> <Gold.Chemscore.Internal_Hbond>
0.0000

> <Gold.Chemscore.DEClash>
0.3351

> <Gold.Chemscore.DEInternal>
10.6009

> <Gold.Chemscore.Rot>
4.2456

> <Gold.Chemscore.Internal.Correction>
   9.000000E+99

> <Gold.Chemscore.Hbonds>
donor molecule, donor type, donor heavy atom, donor atom, acceptor molecule, acceptor atom, score
      P1  H  6896  6907       L1    14  1.00
      P1  H  6931  6943       L1     3  0.57
      P1  H  6934  6947       L1     3  0.02

> <Gold.Chemscore.Hbond.Weighted>
-14.7865

> <Gold.Chemscore.Metal.Weighted>
-0.0000

> <Gold.Chemscore.Lipo.Weighted>
-5.0729

> <Gold.Chemscore.Internal_Hbond.Weighted>
0.0000

> <Gold.Chemscore.DEClash.Weighted>
0.3351

> <Gold.Chemscore.DEInternal.Weighted>
10.6009

> <Gold.Chemscore.Rot.Weighted>
10.8687

> <Gold.Chemscore.Internal.Correction.Weighted>
   9.000000E+99

> <Gold.Protein.RotatedTorsions>
[ 6907 6896 6895 6894 ] final   27.70 input  -60.11 | X-H torsion
[ 7974 7965 7964 7962 ] final  -86.33 input  175.53 | X-H torsion
[ 8008 7997 7996 7995 ] final  -48.22 input   59.86 | X-H torsion
[ 10167 10162 10161 10158 ] final  152.43 input  -65.29 | X-H torsion
[ 10718 10713 10712 10709 ] final   38.92 input   66.30 | X-H torsion
[ 10763 10752 10751 10750 ] final  -55.91 input  -60.55 | X-H torsion
[ 11005 11000 10999 10996 ] final  -17.39 input  -57.11 | X-H torsion

> <Gold.Protein.ActiveResidues>
 VAL166  LYS551  ARG553  GLY616  TRP617  ASP618  TYR619  PRO620  LYS621  CYS622 
 ASP623  PHE694  ASN695  SER759  ASP760  ASP761  ALA762  ILE779  LEU786  VAL792 
 PHE793  MET794  SER795  GLU796  ALA797  LYS798  CYS799  TRP800  GLU811  SER814 

> <Gold.Protein.RotatedAtoms>
  152.0062  134.9901  160.0566 H   0  0  0  0  0  0  0  0  0  0  0  0  # atno 6907 bound_to 6896
  152.1473  133.4495  159.4804 H   0  0  0  0  0  0  0  0  0  0  0  0  # atno 6908 bound_to 6896
  150.6871  134.2151  159.4417 H   0  0  0  0  0  0  0  0  0  0  0  0  # atno 6909 bound_to 6896
  145.4814  140.9557  143.1862 H   0  0  0  0  0  0  0  0  0  0  0  0  # atno 7974 bound_to 7965
  154.4026  140.1327  156.4303 H   0  0  0  0  0  0  0  0  0  0  0  0  # atno 8008 bound_to 7997
  155.7558  140.3487  155.5153 H   0  0  0  0  0  0  0  0  0  0  0  0  # atno 8009 bound_to 7997
  155.8906  140.1002  157.1411 H   0  0  0  0  0  0  0  0  0  0  0  0  # atno 8010 bound_to 7997
  139.4833  144.5358  151.7647 H   0  0  0  0  0  0  0  0  0  0  0  0  # atno 10167 bound_to 10162
  157.3645  130.7667  149.7072 H   0  0  0  0  0  0  0  0  0  0  0  0  # atno 10718 bound_to 10713
  154.1983  135.6415  153.5079 H   0  0  0  0  0  0  0  0  0  0  0  0  # atno 10763 bound_to 10752
  153.0018  135.5445  154.6342 H   0  0  0  0  0  0  0  0  0  0  0  0  # atno 10764 bound_to 10752
  154.5749  135.2920  155.0764 H   0  0  0  0  0  0  0  0  0  0  0  0  # atno 10765 bound_to 10752
  140.8163  133.8102  155.9614 H   0  0  0  0  0  0  0  0  0  0  0  0  # atno 11005 bound_to 11000
  144.7887  139.6373  143.7123 LP  0  0  0  0  0  0  0  0  0  0  0  0  # atno 17320 bound_to 7965
  146.2339  139.5867  142.9537 LP  0  0  0  0  0  0  0  0  0  0  0  0  # atno 17321 bound_to 7965
  140.4891  144.1337  150.5947 LP  0  0  0  0  0  0  0  0  0  0  0  0  # atno 17342 bound_to 10162
  140.4191  143.2620  151.9737 LP  0  0  0  0  0  0  0  0  0  0  0  0  # atno 17343 bound_to 10162
  155.9743  130.4104  150.3931 LP  0  0  0  0  0  0  0  0  0  0  0  0  # atno 17370 bound_to 10713
  157.2013  131.0438  151.2649 LP  0  0  0  0  0  0  0  0  0  0  0  0  # atno 17371 bound_to 10713
  140.9145  134.2218  157.4965 LP  0  0  0  0  0  0  0  0  0  0  0  0  # atno 17394 bound_to 11000
  139.8711  134.9765  156.4924 LP  0  0  0  0  0  0  0  0  0  0  0  0  # atno 17395 bound_to 11000

$$$$
