AV-unprocessed.smi:1036|AV-procd|sdf|4517|dock6
  -GOLD-   22720 2533D 1   1.00000     0.00000
 Structure written by MMmdl.
 42 44  0  0  0  0  0  0  0  0  2 V2000
  146.5437  136.2328  153.3993 O   0  0  0  0  0  0  0  0  0  0  0  0
  146.8200  134.8885  153.7294 C   0  0  0  0  0  0  0  0  0  0  0  0
  148.2099  134.7823  154.3698 C   0  0  0  0  0  0  0  0  0  0  0  0
  148.2485  135.4155  155.6783 N   0  0  0  0  0  0  0  0  0  0  0  0
  148.6086  136.7638  155.7703 C   0  0  0  0  0  0  0  0  0  0  0  0
  149.1070  137.5279  154.7617 N   0  3  0  0  0  0  0  0  0  0  0  0
  149.3314  138.8163  155.2557 C   0  0  0  0  0  0  0  0  0  0  0  0
  149.8242  139.9565  154.6285 C   0  0  0  0  0  0  0  0  0  0  0  0
  149.9277  141.1199  155.4191 C   0  0  0  0  0  0  0  0  0  0  0  0
  149.5500  141.1223  156.7778 C   0  0  0  0  0  0  0  0  0  0  0  0
  149.0528  139.9618  157.4064 C   0  0  0  0  0  0  0  0  0  0  0  0
  148.9524  138.8149  156.6197 C   0  0  0  0  0  0  0  0  0  0  0  0
  148.5112  137.5155  156.8976 N   0  0  0  0  0  0  0  0  0  0  0  0
  148.0390  137.1805  158.2492 C   0  0  0  0  0  0  0  0  0  0  0  0
  148.8161  136.0090  158.8805 C   0  0  1  0  0  0  0  0  0  0  0  0
  150.1910  136.3366  158.9571 O   0  0  0  0  0  0  0  0  0  0  0  0
  148.2244  135.6240  160.2296 C   0  0  0  0  0  0  0  0  0  0  0  0
  148.1716  136.5602  161.2870 C   0  0  0  0  0  0  0  0  0  0  0  0
  147.6124  136.2012  162.5287 C   0  0  0  0  0  0  0  0  0  0  0  0
  147.5667  137.1040  163.5369 F   0  0  0  0  0  0  0  0  0  0  0  0
  147.0985  134.9052  162.7214 C   0  0  0  0  0  0  0  0  0  0  0  0
  147.1401  133.9699  161.6702 C   0  0  0  0  0  0  0  0  0  0  0  0
  147.6981  134.3272  160.4271 C   0  0  0  0  0  0  0  0  0  0  0  0
  147.7202  133.4185  159.4222 F   0  0  0  0  0  0  0  0  0  0  0  0
  147.2838  136.5856  152.9292 H   0  0  0  0  0  0  0  0  0  0  0  0
  146.0418  134.4834  154.3776 H   0  0  0  0  0  0  0  0  0  0  0  0
  146.7986  134.3127  152.8034 H   0  0  0  0  0  0  0  0  0  0  0  0
  148.4563  133.7287  154.5068 H   0  0  0  0  0  0  0  0  0  0  0  0
  148.9729  135.2052  153.7144 H   0  0  0  0  0  0  0  0  0  0  0  0
  147.8118  134.9539  156.4636 H   0  0  0  0  0  0  0  0  0  0  0  0
  150.1138  139.9589  153.5879 H   0  0  0  0  0  0  0  0  0  0  0  0
  150.3040  142.0296  154.9738 H   0  0  0  0  0  0  0  0  0  0  0  0
  149.6434  142.0337  157.3505 H   0  0  0  0  0  0  0  0  0  0  0  0
  148.7651  139.9748  158.4475 H   0  0  0  0  0  0  0  0  0  0  0  0
  148.1308  138.0750  158.8667 H   0  0  0  0  0  0  0  0  0  0  0  0
  146.9732  136.9560  158.1929 H   0  0  0  0  0  0  0  0  0  0  0  0
  148.7505  135.1432  158.2209 H   0  0  0  0  0  0  0  0  0  0  0  0
  150.4119  136.8816  158.2171 H   0  0  0  0  0  0  0  0  0  0  0  0
  148.5559  137.5605  161.1511 H   0  0  0  0  0  0  0  0  0  0  0  0
  146.6691  134.6299  163.6734 H   0  0  0  0  0  0  0  0  0  0  0  0
  146.7404  132.9774  161.8166 H   0  0  0  0  0  0  0  0  0  0  0  0
  149.2738  137.1979  153.8200 H   0  0  0  0  0  0  0  0  0  0  0  0
  1  2  1  0  0  0  0
  1 25  1  0  0  0  0
  2  3  1  0  0  0  0
  2 26  1  0  0  0  0
  2 27  1  0  0  0  0
  3  4  1  0  0  0  0
  3 28  1  0  0  0  0
  3 29  1  0  0  0  0
  4  5  1  0  0  0  0
  4 30  1  0  0  0  0
  5 13  1  0  0  0  0
  5  6  2  0  0  0  0
  6  7  1  0  0  0  0
  6 42  1  0  0  0  0
  7 12  2  0  0  0  0
  7  8  1  0  0  0  0
  8  9  2  0  0  0  0
  8 31  1  0  0  0  0
  9 10  1  0  0  0  0
  9 32  1  0  0  0  0
 10 11  2  0  0  0  0
 10 33  1  0  0  0  0
 11 12  1  0  0  0  0
 11 34  1  0  0  0  0
 12 13  1  0  0  0  0
 13 14  1  0  0  0  0
 14 15  1  0  0  0  0
 14 35  1  0  0  0  0
 14 36  1  0  0  0  0
 15 16  1  0  0  0  0
 15 17  1  0  0  0  0
 15 37  1  0  0  0  0
 16 38  1  0  0  0  0
 17 23  1  0  0  0  0
 17 18  2  0  0  0  0
 18 19  1  0  0  0  0
 18 39  1  0  0  0  0
 19 20  1  0  0  0  0
 19 21  2  0  0  0  0
 21 22  1  0  0  0  0
 21 40  1  0  0  0  0
 22 23  2  0  0  0  0
 22 41  1  0  0  0  0
 23 24  1  0  0  0  0
M  CHG  1   6   1
M  END
> <s_m_source_file>
AV-unprocessed.smi

> <i_m_source_file_index>
1036

> <i_lp_mmshare_version>
43012

> <i_f3d_flags>
0

> <s_epik_input>
W09IXVtDSDJdW0NIMl1bTkhdYyhuMSluKGMoYzEyKVtjSF1bY0hdW2NIXVtjSF0yKVtDSDJdW0NASF0oW09IXSljM1tjSF1jKEYpW2NIXVtjSF1jM0Y=

> <s_epik_cmdline>
J2VwaWtfcHl0aG9uJywgJy1waCcsICc3LjAnLCAnLXRuJywgJzgnLCAnLW1hJywgJzIwMCcsICctbWV0YWxfYmluZGluZycsICctaW1hZScsICc8aW5maWxlLm1hZT4nLCAnLW9tYWUnLCAnPG91dGZpbGUubWFlPic=

> <r_epik_Ionization_Penalty>
0.0688114

> <r_epik_Ionization_Penalty_Charging>
0.0688055

> <r_epik_Ionization_Penalty_Neutral>
5.85933e-06

> <r_epik_State_Penalty>
0.0602293

> <r_epik_Charging_Adjusted_Penalty>
0.129035

> <i_epik_Tot_Q>
1

> <i_epik_Tot_abs_Q>
1

> <r_epik_Metal_State_Penalty>
2.77411

> <b_epik_Metal_Only>
0

> <s_lp_Force_Field>
OPLS_2005

> <r_lp_Energy>
24.5331

> <b_lp_Chiralities_Consistent>
1

> <s_lp_Variant>
AV-unprocessed.smi:1036-2

> <Gold.Version>
5.8.1

> <Gold.Id.Protein>
6NUR|6NUR_protein|mol2

> <Gold.PLP.Fitness>
48.2596

> <Gold.PLP.PLP>
-36.6857

> <Gold.PLP.part.hbond>
-3.0000

> <Gold.PLP.part.metal>
0.0000

> <Gold.PLP.part.buried>
-0.6833

> <Gold.PLP.part.nonpolar>
-31.9584

> <Gold.PLP.part.repulsive>
0.0000

> <Gold.PLP.ligand.clash>
0.0000

> <Gold.PLP.ligand.torsion>
0.2269

> <Gold.PLP.Chemscore.Hbond>
4.0000

> <Gold.PLP.Chemscore.CHOScore>
0.0000

> <Gold.PLP.Chemscore.Metal>
0.0000

> <Gold.Chemscore.Hbonds>
donor molecule, donor type, donor heavy atom, donor atom, acceptor molecule, acceptor atom, score
      L1  H     1    25       P1  7948  0.96
      L1  H     6    42       P1  7948  1.24
      P1  H  6896  6909       L1    16  1.00

> <Gold.PLP.Chemscore.Internal.Correction>
0.0277

> <Gold.Rescore>
     Score         DG    S(hbond)    S(metal)    S(lipo)     H(rot)  DE(clash)    DE(int)     intcor
     15.86     -16.23       2.88        0.00      81.42       3.29       0.09       0.28       ----

> <Gold.Chemscore.Fitness>
15.8570

> <Gold.Chemscore.DG>
-16.2260

> <Gold.Chemscore.ZeroCoef>
-5.4800

> <Gold.Chemscore.Hbond>
2.8850

> <Gold.Chemscore.Metal>
0.0000

> <Gold.Chemscore.Lipo>
81.4193

> <Gold.Chemscore.Internal_Hbond>
0.0000

> <Gold.Chemscore.DEClash>
0.0857

> <Gold.Chemscore.DEInternal>
0.2834

> <Gold.Chemscore.Rot>
3.2874

> <Gold.Chemscore.Internal.Correction>
   9.000000E+99

> <Gold.Chemscore.Hbonds>
donor molecule, donor type, donor heavy atom, donor atom, acceptor molecule, acceptor atom, score
      L1  H     1    25       P1  7948  0.88
      L1  H     6    42       P1  7948  0.60
      P1  H  6896  6909       L1    16  0.45

> <Gold.Chemscore.Hbond.Weighted>
-9.6358

> <Gold.Chemscore.Metal.Weighted>
-0.0000

> <Gold.Chemscore.Lipo.Weighted>
-9.5261

> <Gold.Chemscore.Internal_Hbond.Weighted>
0.0000

> <Gold.Chemscore.DEClash.Weighted>
0.0857

> <Gold.Chemscore.DEInternal.Weighted>
0.2834

> <Gold.Chemscore.Rot.Weighted>
8.4158

> <Gold.Chemscore.Internal.Correction.Weighted>
   9.000000E+99

> <Gold.Protein.RotatedTorsions>
[ 6907 6896 6895 6894 ] final   75.71 input  -60.11 | X-H torsion
[ 7974 7965 7964 7962 ] final -141.93 input  175.53 | X-H torsion
[ 8008 7997 7996 7995 ] final  108.65 input   59.86 | X-H torsion
[ 10167 10162 10161 10158 ] final -116.62 input  -65.29 | X-H torsion
[ 10718 10713 10712 10709 ] final -103.68 input   66.30 | X-H torsion
[ 10763 10752 10751 10750 ] final  -13.93 input  -60.55 | X-H torsion
[ 11005 11000 10999 10996 ] final  -34.18 input  -57.11 | X-H torsion

> <Gold.Protein.ActiveResidues>
 VAL166  LYS551  ARG553  GLY616  TRP617  ASP618  TYR619  PRO620  LYS621  CYS622 
 ASP623  PHE694  ASN695  SER759  ASP760  ASP761  ALA762  ILE779  LEU786  VAL792 
 PHE793  MET794  SER795  GLU796  ALA797  LYS798  CYS799  TRP800  GLU811  SER814 

> <Gold.Protein.RotatedAtoms>
  152.5039  134.4079  159.9438 H   0  0  0  0  0  0  0  0  0  0  0  0  # atno 6907 bound_to 6896
  151.4046  133.3740  159.2744 H   0  0  0  0  0  0  0  0  0  0  0  0  # atno 6908 bound_to 6896
  150.9336  134.8772  159.7626 H   0  0  0  0  0  0  0  0  0  0  0  0  # atno 6909 bound_to 6896
  144.8482  140.6020  143.5408 H   0  0  0  0  0  0  0  0  0  0  0  0  # atno 7974 bound_to 7965
  156.1919  140.3072  155.9350 H   0  0  0  0  0  0  0  0  0  0  0  0  # atno 8008 bound_to 7997
  155.3153  140.0453  157.3054 H   0  0  0  0  0  0  0  0  0  0  0  0  # atno 8009 bound_to 7997
  154.5463  140.2277  155.8567 H   0  0  0  0  0  0  0  0  0  0  0  0  # atno 8010 bound_to 7997
  140.0772  143.4821  152.1946 H   0  0  0  0  0  0  0  0  0  0  0  0  # atno 10167 bound_to 10162
  156.0274  130.5479  150.7287 H   0  0  0  0  0  0  0  0  0  0  0  0  # atno 10718 bound_to 10713
  153.5207  135.7015  153.5733 H   0  0  0  0  0  0  0  0  0  0  0  0  # atno 10763 bound_to 10752
  153.3783  135.3927  155.1838 H   0  0  0  0  0  0  0  0  0  0  0  0  # atno 10764 bound_to 10752
  154.8695  135.3829  154.4696 H   0  0  0  0  0  0  0  0  0  0  0  0  # atno 10765 bound_to 10752
  140.9695  133.7118  156.1500 H   0  0  0  0  0  0  0  0  0  0  0  0  # atno 11005 bound_to 11000
  145.4554  139.1518  143.3895 LP  0  0  0  0  0  0  0  0  0  0  0  0  # atno 17320 bound_to 7965
  146.2762  140.4682  142.8794 LP  0  0  0  0  0  0  0  0  0  0  0  0  # atno 17321 bound_to 7965
  139.5801  144.7506  151.3663 LP  0  0  0  0  0  0  0  0  0  0  0  0  # atno 17342 bound_to 10162
  140.7096  143.7425  150.7543 LP  0  0  0  0  0  0  0  0  0  0  0  0  # atno 17343 bound_to 10162
  157.4885  131.0909  151.0454 LP  0  0  0  0  0  0  0  0  0  0  0  0  # atno 17370 bound_to 10713
  157.0868  130.5925  149.5431 LP  0  0  0  0  0  0  0  0  0  0  0  0  # atno 17371 bound_to 10713
  140.7350  134.4213  157.5561 LP  0  0  0  0  0  0  0  0  0  0  0  0  # atno 17394 bound_to 11000
  139.8907  134.8798  156.2357 LP  0  0  0  0  0  0  0  0  0  0  0  0  # atno 17395 bound_to 11000

$$$$
