AV-unprocessed.smi:81|AV-procd|sdf|787|dock5
  -GOLD-   2262017153D 1   1.00000     0.00000
 Structure written by MMmdl.
 64 67  0  0  0  0  0  0  0  0  2 V2000
  150.3765  137.1085  158.2536 C   0  0  0  0  0  0  0  0  0  0  0  0
  148.9240  137.1415  158.7571 C   0  0  0  0  0  0  0  0  0  0  0  0
  148.7589  136.2353  159.9851 C   0  0  0  0  0  0  0  0  0  0  0  0
  147.9248  136.7364  157.6502 C   0  0  0  0  0  0  0  0  0  0  0  0
  147.9996  137.5701  156.4469 N   0  0  0  0  0  0  0  0  0  0  0  0
  148.0715  138.9033  156.6864 C   0  0  0  0  0  0  0  0  0  0  0  0
  146.9535  139.5939  157.0334 N   0  0  0  0  0  0  0  0  0  0  0  0
  147.0271  140.9053  157.2801 C   0  0  0  0  0  0  0  0  0  0  0  0
  148.0965  141.7029  157.2416 N   0  0  0  0  0  0  0  0  0  0  0  0
  149.2206  141.0098  156.9002 C   0  0  0  0  0  0  0  0  0  0  0  0
  149.2958  139.6192  156.6108 C   0  0  0  0  0  0  0  0  0  0  0  0
  150.6046  139.2635  156.3123 N   0  0  0  0  0  0  0  0  0  0  0  0
  151.2676  140.3829  156.4177 C   0  0  0  0  0  0  0  0  0  0  0  0
  150.5130  141.4830  156.7589 N   0  0  0  0  0  0  0  0  0  0  0  0
  150.9889  142.8451  156.9400 C   0  0  0  0  0  0  0  0  0  0  0  0
  151.2617  143.2104  158.4182 C   0  0  2  0  0  0  0  0  0  0  0  0
  150.2286  142.6616  159.2215 O   0  0  0  0  0  0  0  0  0  0  0  0
  151.3340  144.7069  158.6840 C   0  0  0  0  0  0  0  0  0  0  0  0
  152.1759  144.7768  159.9521 C   0  0  0  0  0  0  0  0  0  0  0  0
  153.1299  143.7321  159.8123 O   0  0  0  0  0  0  0  0  0  0  0  0
  152.6484  142.7382  158.9085 C   0  0  1  0  0  0  0  0  0  0  0  0
  152.7142  141.3399  159.5438 C   0  0  0  0  0  0  0  0  0  0  0  0
  147.1628  137.1579  155.3107 C   0  0  2  0  0  0  0  0  0  0  0  0
  147.4275  135.7141  154.8325 C   0  0  0  0  0  0  0  0  0  0  0  0
  146.4644  135.3241  153.6998 C   0  0  0  0  0  0  0  0  0  0  0  0
  146.5623  136.2768  152.5661 N   0  3  1  0  0  0  0  0  0  0  0  0
  145.7410  135.8604  151.4093 C   0  0  0  0  0  0  0  0  0  0  0  0
  146.2808  137.6721  152.9866 C   0  0  0  0  0  0  0  0  0  0  0  0
  147.2396  138.1172  154.1031 C   0  0  0  0  0  0  0  0  0  0  0  0
  150.6569  136.1096  157.9186 H   0  0  0  0  0  0  0  0  0  0  0  0
  151.0708  137.4023  159.0412 H   0  0  0  0  0  0  0  0  0  0  0  0
  150.5260  137.7933  157.4188 H   0  0  0  0  0  0  0  0  0  0  0  0
  148.7042  138.1582  159.0848 H   0  0  0  0  0  0  0  0  0  0  0  0
  148.9641  135.1928  159.7399 H   0  0  0  0  0  0  0  0  0  0  0  0
  147.7442  136.2913  160.3802 H   0  0  0  0  0  0  0  0  0  0  0  0
  149.4384  136.5293  160.7856 H   0  0  0  0  0  0  0  0  0  0  0  0
  148.1026  135.6968  157.3724 H   0  0  0  0  0  0  0  0  0  0  0  0
  146.9086  136.7698  158.0453 H   0  0  0  0  0  0  0  0  0  0  0  0
  146.0967  141.3844  157.5470 H   0  0  0  0  0  0  0  0  0  0  0  0
  152.3325  140.4381  156.2444 H   0  0  0  0  0  0  0  0  0  0  0  0
  151.8936  142.9782  156.3452 H   0  0  0  0  0  0  0  0  0  0  0  0
  150.2439  143.5192  156.5155 H   0  0  0  0  0  0  0  0  0  0  0  0
  150.4572  141.7697  159.4344 H   0  0  0  0  0  0  0  0  0  0  0  0
  151.8656  145.2074  157.8732 H   0  0  0  0  0  0  0  0  0  0  0  0
  150.3587  145.1838  158.7897 H   0  0  0  0  0  0  0  0  0  0  0  0
  152.6589  145.7451  160.0840 H   0  0  0  0  0  0  0  0  0  0  0  0
  151.5620  144.5797  160.8317 H   0  0  0  0  0  0  0  0  0  0  0  0
  153.3398  142.7590  158.0650 H   0  0  0  0  0  0  0  0  0  0  0  0
  152.3350  140.5806  158.8596 H   0  0  0  0  0  0  0  0  0  0  0  0
  152.1319  141.2869  160.4639 H   0  0  0  0  0  0  0  0  0  0  0  0
  153.7426  141.0779  159.7930 H   0  0  0  0  0  0  0  0  0  0  0  0
  146.1361  137.1823  155.6791 H   0  0  0  0  0  0  0  0  0  0  0  0
  148.4521  135.6080  154.4738 H   0  0  0  0  0  0  0  0  0  0  0  0
  147.3120  135.0179  155.6638 H   0  0  0  0  0  0  0  0  0  0  0  0
  146.7018  134.3176  153.3527 H   0  0  0  0  0  0  0  0  0  0  0  0
  145.4382  135.2985  154.0697 H   0  0  0  0  0  0  0  0  0  0  0  0
  144.6803  135.8555  151.6638 H   0  0  0  0  0  0  0  0  0  0  0  0
  146.0191  134.8585  151.0805 H   0  0  0  0  0  0  0  0  0  0  0  0
  145.8887  136.5383  150.5681 H   0  0  0  0  0  0  0  0  0  0  0  0
  146.3864  138.3401  152.1308 H   0  0  0  0  0  0  0  0  0  0  0  0
  145.2466  137.7515  153.3257 H   0  0  0  0  0  0  0  0  0  0  0  0
  146.9905  139.1346  154.4056 H   0  0  0  0  0  0  0  0  0  0  0  0
  148.2543  138.1504  153.7054 H   0  0  0  0  0  0  0  0  0  0  0  0
  147.5236  136.2585  152.2558 H   0  0  0  0  0  0  0  0  0  0  0  0
  1  2  1  0  0  0  0
  1 30  1  0  0  0  0
  1 31  1  0  0  0  0
  1 32  1  0  0  0  0
  2  3  1  0  0  0  0
  2  4  1  0  0  0  0
  2 33  1  0  0  0  0
  3 34  1  0  0  0  0
  3 35  1  0  0  0  0
  3 36  1  0  0  0  0
  4  5  1  0  0  0  0
  4 37  1  0  0  0  0
  4 38  1  0  0  0  0
  5  6  1  0  0  0  0
  5 23  1  0  0  0  0
  6 11  1  0  0  0  0
  6  7  2  0  0  0  0
  7  8  1  0  0  0  0
  8  9  2  0  0  0  0
  8 39  1  0  0  0  0
  9 10  1  0  0  0  0
 10 14  1  0  0  0  0
 10 11  2  0  0  0  0
 11 12  1  0  0  0  0
 12 13  2  0  0  0  0
 13 14  1  0  0  0  0
 13 40  1  0  0  0  0
 14 15  1  0  0  0  0
 15 16  1  0  0  0  0
 15 41  1  0  0  0  0
 15 42  1  0  0  0  0
 16 21  1  0  0  0  0
 16 17  1  0  0  0  0
 16 18  1  0  0  0  0
 17 43  1  0  0  0  0
 18 19  1  0  0  0  0
 18 44  1  0  0  0  0
 18 45  1  0  0  0  0
 19 20  1  0  0  0  0
 19 46  1  0  0  0  0
 19 47  1  0  0  0  0
 20 21  1  0  0  0  0
 21 22  1  0  0  0  0
 21 48  1  0  0  0  0
 22 49  1  0  0  0  0
 22 50  1  0  0  0  0
 22 51  1  0  0  0  0
 23 29  1  0  0  0  0
 23 24  1  0  0  0  0
 23 52  1  0  0  0  0
 24 25  1  0  0  0  0
 24 53  1  0  0  0  0
 24 54  1  0  0  0  0
 25 26  1  0  0  0  0
 25 55  1  0  0  0  0
 25 56  1  0  0  0  0
 26 27  1  0  0  0  0
 26 28  1  0  0  0  0
 26 64  1  0  0  0  0
 27 57  1  0  0  0  0
 27 58  1  0  0  0  0
 27 59  1  0  0  0  0
 28 29  1  0  0  0  0
 28 60  1  0  0  0  0
 28 61  1  0  0  0  0
 29 62  1  0  0  0  0
 29 63  1  0  0  0  0
M  CHG  1  26   1
M  END
> <s_m_source_file>
AV-unprocessed.smi

> <i_m_source_file_index>
81

> <i_lp_mmshare_version>
43012

> <i_f3d_flags>
0

> <s_epik_input>
W0NIMl0xW0NIMl1OKFtDSDNdKVtDSDJdW0NIMl1bQ0hdMU4oW0NIMl1bQ0hdKFtDSDNdKVtDSDNdKWMobltjSF1uMiljKGMyMyluW2NIXW4zW0NIMl1bQ0BAXTQoW09IXSlbQ0gyXVtDSDJdT1tDQEhdNFtDSDNd

> <s_epik_cmdline>
J2VwaWtfcHl0aG9uJywgJy1waCcsICc3LjAnLCAnLXRuJywgJzgnLCAnLW1hJywgJzIwMCcsICctbWV0YWxfYmluZGluZycsICctaW1hZScsICc8aW5maWxlLm1hZT4nLCAnLW9tYWUnLCAnPG91dGZpbGUubWFlPic=

> <r_lp_tautomer_probability>
1

> <r_epik_Ionization_Penalty>
0.00272708

> <r_epik_Ionization_Penalty_Charging>
0.00158983

> <r_epik_Ionization_Penalty_Neutral>
0.00113725

> <r_epik_State_Penalty>
-0

> <r_epik_Charging_Adjusted_Penalty>
0.00158983

> <i_epik_Tot_Q>
1

> <i_epik_Tot_abs_Q>
1

> <r_epik_Metal_State_Penalty>
-0

> <b_epik_Metal_Only>
0

> <s_lp_Force_Field>
OPLS_2005

> <r_lp_Energy>
45.4509

> <b_lp_Chiralities_Consistent>
1

> <s_lp_Variant>
AV-unprocessed.smi:81-2

> <Gold.Version>
5.8.1

> <Gold.Id.Protein>
6NUR|6NUR_protein|mol2

> <Gold.PLP.Fitness>
43.4614

> <Gold.PLP.PLP>
-38.8206

> <Gold.PLP.part.hbond>
-2.0000

> <Gold.PLP.part.metal>
0.0000

> <Gold.PLP.part.buried>
-7.0202

> <Gold.PLP.part.nonpolar>
-31.5065

> <Gold.PLP.part.repulsive>
0.1648

> <Gold.PLP.ligand.clash>
0.0000

> <Gold.PLP.ligand.torsion>
1.1083

> <Gold.PLP.Chemscore.Hbond>
2.0000

> <Gold.PLP.Chemscore.CHOScore>
0.0000

> <Gold.PLP.Chemscore.Metal>
0.0000

> <Gold.Chemscore.Hbonds>
donor molecule, donor type, donor heavy atom, donor atom, acceptor molecule, acceptor atom, score
      L1  H    26    64       P1  7948  1.69

> <Gold.PLP.Chemscore.Internal.Correction>
0.8574

> <Gold.Rescore>
     Score         DG    S(hbond)    S(metal)    S(lipo)     H(rot)  DE(clash)    DE(int)     intcor
     12.25     -13.48       0.99        0.00      96.40       2.58       0.01       1.21       ----

> <Gold.Chemscore.Fitness>
12.2547

> <Gold.Chemscore.DG>
-13.4781

> <Gold.Chemscore.ZeroCoef>
-5.4800

> <Gold.Chemscore.Hbond>
0.9932

> <Gold.Chemscore.Metal>
0.0000

> <Gold.Chemscore.Lipo>
96.4024

> <Gold.Chemscore.Internal_Hbond>
0.0000

> <Gold.Chemscore.DEClash>
0.0133

> <Gold.Chemscore.DEInternal>
1.2101

> <Gold.Chemscore.Rot>
2.5774

> <Gold.Chemscore.Internal.Correction>
   9.000000E+99

> <Gold.Chemscore.Hbonds>
donor molecule, donor type, donor heavy atom, donor atom, acceptor molecule, acceptor atom, score
      L1  H    26    64       P1  7948  0.82

> <Gold.Chemscore.Hbond.Weighted>
-3.3173

> <Gold.Chemscore.Metal.Weighted>
-0.0000

> <Gold.Chemscore.Lipo.Weighted>
-11.2791

> <Gold.Chemscore.Internal_Hbond.Weighted>
0.0000

> <Gold.Chemscore.DEClash.Weighted>
0.0133

> <Gold.Chemscore.DEInternal.Weighted>
1.2101

> <Gold.Chemscore.Rot.Weighted>
6.5982

> <Gold.Chemscore.Internal.Correction.Weighted>
   9.000000E+99

> <Gold.Protein.RotatedTorsions>
[ 6907 6896 6895 6894 ] final  -58.36 input  -60.11 | X-H torsion
[ 7974 7965 7964 7962 ] final -148.75 input  175.53 | X-H torsion
[ 8008 7997 7996 7995 ] final -161.52 input   59.86 | X-H torsion
[ 10167 10162 10161 10158 ] final   61.70 input  -65.29 | X-H torsion
[ 10718 10713 10712 10709 ] final   31.63 input   66.30 | X-H torsion
[ 10763 10752 10751 10750 ] final  161.14 input  -60.55 | X-H torsion
[ 11005 11000 10999 10996 ] final    0.81 input  -57.11 | X-H torsion

> <Gold.Protein.ActiveResidues>
 VAL166  LYS551  ARG553  GLY616  TRP617  ASP618  TYR619  PRO620  LYS621  CYS622 
 ASP623  PHE694  ASN695  SER759  ASP760  ASP761  ALA762  ILE779  LEU786  VAL792 
 PHE793  MET794  SER795  GLU796  ALA797  LYS798  CYS799  TRP800  GLU811  SER814 

> <Gold.Protein.RotatedAtoms>
  150.8013  134.7109  159.6602 H   0  0  0  0  0  0  0  0  0  0  0  0  # atno 6907 bound_to 6896
  152.4130  134.6087  160.0029 H   0  0  0  0  0  0  0  0  0  0  0  0  # atno 6908 bound_to 6896
  151.6325  133.3294  159.3148 H   0  0  0  0  0  0  0  0  0  0  0  0  # atno 6909 bound_to 6896
  144.8010  140.5155  143.5707 H   0  0  0  0  0  0  0  0  0  0  0  0  # atno 7974 bound_to 7965
  155.7934  140.0881  157.1997 H   0  0  0  0  0  0  0  0  0  0  0  0  # atno 8008 bound_to 7997
  154.3984  140.1486  156.3247 H   0  0  0  0  0  0  0  0  0  0  0  0  # atno 8009 bound_to 7997
  155.8536  140.3433  155.5712 H   0  0  0  0  0  0  0  0  0  0  0  0  # atno 8010 bound_to 7997
  140.1519  144.4454  150.6755 H   0  0  0  0  0  0  0  0  0  0  0  0  # atno 10167 bound_to 10162
  157.2749  130.7226  149.6524 H   0  0  0  0  0  0  0  0  0  0  0  0  # atno 10718 bound_to 10713
  154.2583  135.2769  155.2788 H   0  0  0  0  0  0  0  0  0  0  0  0  # atno 10763 bound_to 10752
  154.5406  135.5704  153.6839 H   0  0  0  0  0  0  0  0  0  0  0  0  # atno 10764 bound_to 10752
  152.9967  135.6250  154.2733 H   0  0  0  0  0  0  0  0  0  0  0  0  # atno 10765 bound_to 10752
  140.6224  133.9649  155.8231 H   0  0  0  0  0  0  0  0  0  0  0  0  # atno 11005 bound_to 11000
  145.5554  139.1478  143.3371 LP  0  0  0  0  0  0  0  0  0  0  0  0  # atno 17320 bound_to 7965
  146.2291  140.5691  142.8983 LP  0  0  0  0  0  0  0  0  0  0  0  0  # atno 17321 bound_to 7965
  140.6697  143.2281  151.5655 LP  0  0  0  0  0  0  0  0  0  0  0  0  # atno 17342 bound_to 10162
  139.5422  144.2617  152.1372 LP  0  0  0  0  0  0  0  0  0  0  0  0  # atno 17343 bound_to 10162
  155.9663  130.4356  150.5099 LP  0  0  0  0  0  0  0  0  0  0  0  0  # atno 17370 bound_to 10713
  157.3031  131.0649  151.2054 LP  0  0  0  0  0  0  0  0  0  0  0  0  # atno 17371 bound_to 10713
  141.0733  134.0173  157.3495 LP  0  0  0  0  0  0  0  0  0  0  0  0  # atno 17394 bound_to 11000
  139.9148  135.0195  156.7837 LP  0  0  0  0  0  0  0  0  0  0  0  0  # atno 17395 bound_to 11000

$$$$
