#       Name:                AV-unprocessed.smi:2808
#       Creating user name   scv26
#       Creation time:       Fri Mar 27 15:26:21 2020


#       File generated by GOLD software.
#

@<TRIPOS>MOLECULE
AV-unprocessed.smi:2808
    49    50     1
SMALL
NO_CHARGES


@<TRIPOS>ATOM
      1 ****        -6.2684  -1.1508   1.7928 C.3            1 S1                 0.0000
      2 ****        -4.8666  -0.5727   1.7321 C.2            1 S1                 0.0000
      3 ****        -4.6762   0.8592   1.6288 C.2            1 S1                 0.0000
      4 ****        -3.4305   1.3538   1.5761 C.2            1 S1                 0.0000
      5 ****        -2.2977   0.5221   1.6185 N.am           1 S1                 0.0000
      6 ****        -0.9801   1.1758   1.5467 C.3            1 S1                 0.0000
      7 ****        -0.3592   1.1227   0.1440 C.2            1 S1                 0.0000
      8 ****        -1.0751   1.0849  -0.8570 O.2            1 S1                 0.0000
      9 ****         0.9832   1.1352   0.0946 N.am           1 S1                 0.0000
     10 ****         1.8272   1.0866  -1.1038 C.3            1 S1                 0.0000
     11 ****         1.4429   2.1557  -2.0469 C.1            1 S1                 0.0000
     12 ****         1.1427   2.9938  -2.7861 N.1            1 S1                 0.0000
     13 ****         3.2817   1.3745  -0.6569 C.3            1 S1                 0.0000
     14 ****         4.0653   0.1776  -0.0890 C.3            1 S1                 0.0000
     15 ****         4.8073  -0.6128  -1.1821 C.3            1 S1                 0.0000
     16 ****         3.9070  -1.4630  -2.0925 C.3            1 S1                 0.0000
     17 ****         2.7633  -0.6929  -2.7763 C.3            1 S1                 0.0000
     18 ****         1.6543  -0.2955  -1.7879 C.3            1 S1                 0.0000
     19 ****        -2.4013  -0.8379   1.7121 C.2            1 S1                 0.0000
     20 ****        -1.4039  -1.5616   1.7453 O.2            1 S1                 0.0000
     21 ****        -3.7721  -1.3700   1.7694 C.2            1 S1                 0.0000
     22 ****        -3.8798  -2.7902   1.8667 C.1            1 S1                 0.0000
     23 ****        -3.9889  -3.9397   1.9484 N.1            1 S1                 0.0000
     24 ****        -7.0219  -0.3635   1.7608 H              1 S1                 0.0000
     25 ****        -6.4084  -1.7152   2.7151 H              1 S1                 0.0000
     26 ****        -6.4419  -1.8195   0.9490 H              1 S1                 0.0000
     27 ****        -5.5250   1.5261   1.5897 H              1 S1                 0.0000
     28 ****        -3.2240   2.4109   1.4907 H              1 S1                 0.0000
     29 ****        -1.0520   2.2226   1.8447 H              1 S1                 0.0000
     30 ****        -0.2992   0.7196   2.2681 H              1 S1                 0.0000
     31 ****         1.4737   1.1738   0.9761 H              1 S1                 0.0000
     32 ****         3.8460   1.7954  -1.4905 H              1 S1                 0.0000
     33 ****         3.2687   2.1718   0.0882 H              1 S1                 0.0000
     34 ****         4.8148   0.5642   0.6023 H              1 S1                 0.0000
     35 ****         3.4222  -0.4732   0.5043 H              1 S1                 0.0000
     36 ****         5.3982   0.0720  -1.7916 H              1 S1                 0.0000
     37 ****         5.5298  -1.2749  -0.7037 H              1 S1                 0.0000
     38 ****         4.5320  -1.9166  -2.8623 H              1 S1                 0.0000
     39 ****         3.4956  -2.2965  -1.5219 H              1 S1                 0.0000
     40 ****         3.1378   0.1743  -3.3211 H              1 S1                 0.0000
     41 ****         2.3263  -1.3509  -3.5283 H              1 S1                 0.0000
     42 ****         1.5452  -1.0814  -1.0387 H              1 S1                 0.0000
     43 ****         0.7070  -0.2940  -2.3286 H              1 S1                 0.0000
     44 ****        -2.0704   1.0886  -0.7603 LP             1 S1                 0.0000
     45 ****        -0.6612   1.0505  -1.7667 LP             1 S1                 0.0000
     46 ****         0.8833   3.7181  -3.4249 LP             1 S1                 0.0000
     47 ****        -0.4906  -1.1565   1.7035 LP             1 S1                 0.0000
     48 ****        -1.5081  -2.5538   1.8141 LP             1 S1                 0.0000
     49 ****        -4.0832  -4.9327   2.0190 LP             1 S1                 0.0000
@<TRIPOS>BOND
    1    1    2 1     
    2    1   24 1     
    3    1   25 1     
    4    1   26 1     
    5    2   21 2     
    6    2    3 1     
    7    3    4 2     
    8    3   27 1     
    9    4    5 1     
   10    4   28 1     
   11    5    6 1     
   12    5   19 am    
   13    6    7 1     
   14    6   29 1     
   15    6   30 1     
   16    7    8 2     
   17    7    9 am    
   18    9   10 1     
   19    9   31 1     
   20   10   18 1     
   21   10   11 1     
   22   10   13 1     
   23   11   12 3     
   24   13   14 1     
   25   13   32 1     
   26   13   33 1     
   27   14   15 1     
   28   14   34 1     
   29   14   35 1     
   30   15   16 1     
   31   15   36 1     
   32   15   37 1     
   33   16   17 1     
   34   16   38 1     
   35   16   39 1     
   36   17   18 1     
   37   17   40 1     
   38   17   41 1     
   39   18   42 1     
   40   18   43 1     
   41   19   20 2     
   42   19   21 1     
   43   21   22 1     
   44   22   23 3     
   45    8   44 1     
   46    8   45 1     
   47   12   46 1     
   48   20   47 1     
   49   20   48 1     
   50   23   49 1     
@<TRIPOS>SUBSTRUCTURE
      1 S1             1
@<TRIPOS>SET
LONE_PAIRS      STATIC     ATOMS    <user>   **** ""
6 44 45 46 47 48 49
DONOR_HYDROGENS      STATIC     ATOMS    <user>   **** ""
1 31
ATOM$BLUE        STATIC     ATOMS    COLORGROUP SYSTEM
6 44 45 46 47 48 49
ATOM$RED        STATIC     ATOMS    COLORGROUP SYSTEM
1 31
