#       Name:                AV-unprocessed.smi:2451
#       Creating user name   scv26
#       Creation time:       Fri Mar 27 13:32:05 2020


#       File generated by GOLD software.
#

@<TRIPOS>MOLECULE
AV-unprocessed.smi:2451
    41    42     1
SMALL
NO_CHARGES


@<TRIPOS>ATOM
      1 ****        -3.1743  -2.3663  -2.0563 C.3            1 S1                 0.0000
      2 ****        -2.7113  -1.4766  -0.8865 C.3            1 S1                 0.0000
      3 ****        -3.0711  -2.1808   0.4454 C.3            1 S1                 0.0000
      4 ****        -2.6182  -1.3255   1.6412 C.3            1 S1                 0.0000
      5 ****        -1.1122  -0.9950   1.5752 C.3            1 S1                 0.0000
      6 ****        -0.7014  -0.2770   0.2683 C.3            1 S1                 0.0000
      7 ****         0.7478  -0.1276   0.2460 N.pl3          1 S1                -1.0000
      8 ****         1.4035   1.3309   0.5105 S.o2           1 S1                 0.0000
      9 ****         1.1129   2.2863  -0.5713 O.2            1 S1                 0.0000
     10 ****         1.1959   1.8017   1.8900 O.2            1 S1                 0.0000
     11 ****         3.1969   0.9260   0.3691 C.3            1 S1                 0.0000
     12 ****         4.0240   2.1772   0.4747 C.2            1 S1                 0.0000
     13 ****         4.2007   3.0322   1.5983 C.2            1 S1                 0.0000
     14 ****         5.0485   3.9968   1.1362 C.2            1 S1                 0.0000
     15 ****         5.3798   3.7584  -0.1576 O.3            1 S1                 0.0000
     16 ****         4.7233   2.5933  -0.5704 N.2            1 S1                 0.0000
     17 ****        -1.1924  -1.0867  -0.9791 C.3            1 S1                 0.0000
     18 ****        -0.8882  -0.3351  -2.3028 C.3            1 S1                 0.0000
     19 ****        -2.5570  -3.2612  -2.1423 H              1 S1                 0.0000
     20 ****        -3.1419  -1.8392  -3.0089 H              1 S1                 0.0000
     21 ****        -4.2060  -2.6901  -1.9170 H              1 S1                 0.0000
     22 ****        -3.3048  -0.5610  -0.9369 H              1 S1                 0.0000
     23 ****        -4.1452  -2.3591   0.5064 H              1 S1                 0.0000
     24 ****        -2.5882  -3.1579   0.4913 H              1 S1                 0.0000
     25 ****        -3.2083  -0.4076   1.6826 H              1 S1                 0.0000
     26 ****        -2.8311  -1.8587   2.5682 H              1 S1                 0.0000
     27 ****        -0.8413  -0.3797   2.4342 H              1 S1                 0.0000
     28 ****        -0.5474  -1.9234   1.6766 H              1 S1                 0.0000
     29 ****        -1.2073   0.6896   0.2500 H              1 S1                 0.0000
     30 ****         3.4515   0.2204   1.1593 H              1 S1                 0.0000
     31 ****         3.3549   0.4249  -0.5864 H              1 S1                 0.0000
     32 ****         3.7662   2.9521   2.5838 H              1 S1                 0.0000
     33 ****         5.4891   4.8747   1.5851 H              1 S1                 0.0000
     34 ****        -0.6270  -2.0199  -1.0012 H              1 S1                 0.0000
     35 ****        -1.4740   0.5813  -2.3955 H              1 S1                 0.0000
     36 ****        -1.1113  -0.9516  -3.1720 H              1 S1                 0.0000
     37 ****         0.1644  -0.0646  -2.4069 H              1 S1                 0.0000
     38 ****         1.3333  -0.9187   0.0689 LP             1 S1                 0.0000
     39 ****         6.3691   3.6354  -0.2365 LP             1 S1                 0.0000
     40 ****         5.0932   4.5283  -0.7277 LP             1 S1                 0.0000
     41 ****         4.7723   2.1624  -1.4715 LP             1 S1                 0.0000
@<TRIPOS>BOND
    1    1    2 1     
    2    1   19 1     
    3    1   20 1     
    4    1   21 1     
    5    2   17 1     
    6    2    3 1     
    7    2   22 1     
    8    3    4 1     
    9    3   23 1     
   10    3   24 1     
   11    4    5 1     
   12    4   25 1     
   13    4   26 1     
   14    5    6 1     
   15    5   27 1     
   16    5   28 1     
   17    6    7 1     
   18    6   17 1     
   19    6   29 1     
   20    7    8 1     
   21    8    9 2     
   22    8   10 2     
   23    8   11 1     
   24   11   12 1     
   25   11   30 1     
   26   11   31 1     
   27   12   16 2     
   28   12   13 1     
   29   13   14 2     
   30   13   32 1     
   31   14   15 1     
   32   14   33 1     
   33   15   16 1     
   34   17   18 1     
   35   17   34 1     
   36   18   35 1     
   37   18   36 1     
   38   18   37 1     
   39    7   38 1     
   40   15   39 1     
   41   15   40 1     
   42   16   41 1     
@<TRIPOS>SUBSTRUCTURE
      1 S1             1
@<TRIPOS>SET
LONE_PAIRS      STATIC     ATOMS    <user>   **** ""
6 38 9 10 39 40 41
ATOM$BLUE        STATIC     ATOMS    COLORGROUP SYSTEM
6 38 9 10 39 40 41
