AV-unprocessed.smi:560|AV-procd|sdf|2932|dock3
  -GOLD-   2262023423D 1   1.00000     0.00000
 Structure written by MMmdl.
 41 42  0  0  0  0  0  0  0  0  3 V2000
  153.5181  138.9026  154.8834 C   0  0  0  0  0  0  0  0  0  0  0  0
  152.3367  138.6577  155.8401 C   0  0  2  0  0  0  0  0  0  0  0  0
  151.3581  137.5955  155.3162 C   0  0  0  0  0  0  0  0  0  0  0  0
  151.4836  137.1288  154.1832 O   0  0  0  0  0  0  0  0  0  0  0  0
  150.3763  137.2289  156.1553 N   0  0  0  0  0  0  0  0  0  0  0  0
  149.3202  136.2690  155.8494 C   0  0  2  0  0  0  0  0  0  0  0  0
  149.9122  135.0658  155.0983 C   0  0  0  0  0  0  0  0  0  0  0  0
  148.8143  134.0700  154.6893 C   0  0  0  0  0  0  0  0  0  0  0  0
  147.7662  134.7344  153.8687 N   0  3  1  0  0  0  0  0  0  0  0  0
  146.7509  133.7901  153.3359 C   0  0  0  0  0  0  0  0  0  0  0  0
  145.7927  134.5093  152.3807 C   0  0  0  0  0  0  0  0  0  0  0  0
  146.4335  135.0690  151.3347 N   0  5  0  0  0  0  0  0  0  0  0  0
  144.5878  134.5181  152.6214 O   0  0  0  0  0  0  0  0  0  0  0  0
  147.1522  135.8794  154.5867 C   0  0  0  0  0  0  0  0  0  0  0  0
  148.2143  136.9140  154.9938 C   0  0  0  0  0  0  0  0  0  0  0  0
  151.6259  139.8976  156.1233 N   0  0  0  0  0  0  0  0  0  0  0  0
  151.4967  140.5673  157.3248 C   0  0  0  0  0  0  0  0  0  0  0  0
  150.7480  141.6849  157.0920 C   0  0  0  0  0  0  0  0  0  0  0  0
  150.4593  141.6139  155.7009 C   0  0  0  0  0  0  0  0  0  0  0  0
  150.9868  140.5460  155.1243 N   0  0  0  0  0  0  0  0  0  0  0  0
  154.0579  137.9777  154.6772 H   0  0  0  0  0  0  0  0  0  0  0  0
  154.2292  139.6053  155.3186 H   0  0  0  0  0  0  0  0  0  0  0  0
  153.1900  139.3163  153.9290 H   0  0  0  0  0  0  0  0  0  0  0  0
  152.7524  138.2823  156.7775 H   0  0  0  0  0  0  0  0  0  0  0  0
  150.3471  137.6657  157.0658 H   0  0  0  0  0  0  0  0  0  0  0  0
  148.8861  135.9104  156.7851 H   0  0  0  0  0  0  0  0  0  0  0  0
  150.4403  135.4062  154.2061 H   0  0  0  0  0  0  0  0  0  0  0  0
  150.6521  134.5617  155.7212 H   0  0  0  0  0  0  0  0  0  0  0  0
  149.2683  133.2514  154.1302 H   0  0  0  0  0  0  0  0  0  0  0  0
  148.3582  133.6299  155.5773 H   0  0  0  0  0  0  0  0  0  0  0  0
  147.2369  132.9513  152.8346 H   0  0  0  0  0  0  0  0  0  0  0  0
  146.1605  133.3646  154.1497 H   0  0  0  0  0  0  0  0  0  0  0  0
  147.4322  135.2908  151.4216 H   0  0  0  0  0  0  0  0  0  0  0  0
  146.4130  136.3619  153.9461 H   0  0  0  0  0  0  0  0  0  0  0  0
  146.6210  135.5153  155.4676 H   0  0  0  0  0  0  0  0  0  0  0  0
  147.7374  137.7283  155.5405 H   0  0  0  0  0  0  0  0  0  0  0  0
  148.6500  137.3575  154.0973 H   0  0  0  0  0  0  0  0  0  0  0  0
  151.9450  140.1966  158.2351 H   0  0  0  0  0  0  0  0  0  0  0  0
  150.4513  142.4379  157.8068 H   0  0  0  0  0  0  0  0  0  0  0  0
  149.8868  142.3023  155.0970 H   0  0  0  0  0  0  0  0  0  0  0  0
  148.2269  135.1195  153.0558 H   0  0  0  0  0  0  0  0  0  0  0  0
  1  2  1  0  0  0  0
  1 21  1  0  0  0  0
  1 22  1  0  0  0  0
  1 23  1  0  0  0  0
  2  3  1  0  0  0  0
  2 16  1  0  0  0  0
  2 24  1  0  0  0  0
  3  4  2  0  0  0  0
  3  5  1  0  0  0  0
  5  6  1  0  0  0  0
  5 25  1  0  0  0  0
  6 15  1  0  0  0  0
  6  7  1  0  0  0  0
  6 26  1  0  0  0  0
  7  8  1  0  0  0  0
  7 27  1  0  0  0  0
  7 28  1  0  0  0  0
  8  9  1  0  0  0  0
  8 29  1  0  0  0  0
  8 30  1  0  0  0  0
  9 10  1  0  0  0  0
  9 14  1  0  0  0  0
  9 41  1  0  0  0  0
 10 11  1  0  0  0  0
 10 31  1  0  0  0  0
 10 32  1  0  0  0  0
 11 12  1  0  0  0  0
 11 13  2  0  0  0  0
 12 33  1  0  0  0  0
 14 15  1  0  0  0  0
 14 34  1  0  0  0  0
 14 35  1  0  0  0  0
 15 36  1  0  0  0  0
 15 37  1  0  0  0  0
 16 20  1  0  0  0  0
 16 17  1  0  0  0  0
 17 18  2  0  0  0  0
 17 38  1  0  0  0  0
 18 19  1  0  0  0  0
 18 39  1  0  0  0  0
 19 20  2  0  0  0  0
 19 40  1  0  0  0  0
M  CHG  1   9   1
M  CHG  1  12  -1
M  END
> <s_m_source_file>
AV-unprocessed.smi

> <i_m_source_file_index>
560

> <i_lp_mmshare_version>
43012

> <i_f3d_flags>
0

> <s_epik_input>
bjFbY0hdW2NIXVtjSF1uMVtDQEhdKFtDSDNdKUMoPU8pW05IXVtDSF0yW0NIMl1bQ0gyXU4oW0NIMl1bQ0gyXTIpW0NIMl1DKD1PKVtOSDJd

> <s_epik_cmdline>
J2VwaWtfcHl0aG9uJywgJy1waCcsICc3LjAnLCAnLXRuJywgJzgnLCAnLW1hJywgJzIwMCcsICctbWV0YWxfYmluZGluZycsICctaW1hZScsICc8aW5maWxlLm1hZT4nLCAnLW9tYWUnLCAnPG91dGZpbGUubWFlPic=

> <r_lp_tautomer_probability>
1

> <r_epik_Ionization_Penalty>
5.71084

> <r_epik_Ionization_Penalty_Charging>
5.71081

> <r_epik_Ionization_Penalty_Neutral>
3.04611e-05

> <r_epik_State_Penalty>
6.71277

> <r_epik_Charging_Adjusted_Penalty>
12.4236

> <i_epik_Tot_Q>
0

> <i_epik_Tot_abs_Q>
2

> <r_epik_Metal_State_Penalty>
2.67562

> <b_epik_Metal_Only>
1

> <s_lp_Force_Field>
OPLS_2005

> <r_lp_Energy>
10.6989

> <b_lp_Chiralities_Consistent>
1

> <s_lp_Variant>
AV-unprocessed.smi:560-7

> <Gold.Version>
5.8.1

> <Gold.Id.Protein>
6NUR|6NUR_protein|mol2

> <Gold.PLP.Fitness>
44.3292

> <Gold.PLP.PLP>
-28.1561

> <Gold.PLP.part.hbond>
-4.0000

> <Gold.PLP.part.metal>
0.0000

> <Gold.PLP.part.buried>
-1.9908

> <Gold.PLP.part.nonpolar>
-24.3492

> <Gold.PLP.part.repulsive>
2.1441

> <Gold.PLP.ligand.clash>
0.0000

> <Gold.PLP.ligand.torsion>
0.3336

> <Gold.PLP.Chemscore.Hbond>
4.9833

> <Gold.PLP.Chemscore.CHOScore>
0.6010

> <Gold.PLP.Chemscore.Metal>
0.0000

> <Gold.Chemscore.Hbonds>
donor molecule, donor type, donor heavy atom, donor atom, acceptor molecule, acceptor atom, score
      L1  H     9    41       P1  7948  2.00
      L1  H    12    33       P1  7948  1.00
      P1  H  7989  7998       L1    20  0.98
      P1  H 10752 10764       L1     4  0.86
      L1  C    19    40       P1  8028  0.65

> <Gold.PLP.Chemscore.Internal.Correction>
0.0876

> <Gold.Rescore>
     Score         DG    S(hbond)    S(metal)    S(lipo)     H(rot)  DE(clash)    DE(int)     intcor
     13.31     -16.84       3.25        0.00      58.47       2.47       1.61       1.92       ----

> <Gold.Chemscore.Fitness>
13.3067

> <Gold.Chemscore.DG>
-16.8381

> <Gold.Chemscore.ZeroCoef>
-5.4800

> <Gold.Chemscore.Hbond>
3.2483

> <Gold.Chemscore.Metal>
0.0000

> <Gold.Chemscore.Lipo>
58.4657

> <Gold.Chemscore.Internal_Hbond>
0.0000

> <Gold.Chemscore.DEClash>
1.6102

> <Gold.Chemscore.DEInternal>
1.9213

> <Gold.Chemscore.Rot>
2.4734

> <Gold.Chemscore.Internal.Correction>
   9.000000E+99

> <Gold.Chemscore.Hbonds>
donor molecule, donor type, donor heavy atom, donor atom, acceptor molecule, acceptor atom, score
      L1  H     9    41       P1  7948  0.94
      L1  H    12    33       P1  7948  0.78
      P1  H  7989  7998       L1    20  0.80
      P1  H 10752 10764       L1     4  0.71

> <Gold.Chemscore.Hbond.Weighted>
-10.8494

> <Gold.Chemscore.Metal.Weighted>
-0.0000

> <Gold.Chemscore.Lipo.Weighted>
-6.8405

> <Gold.Chemscore.Internal_Hbond.Weighted>
0.0000

> <Gold.Chemscore.DEClash.Weighted>
1.6102

> <Gold.Chemscore.DEInternal.Weighted>
1.9213

> <Gold.Chemscore.Rot.Weighted>
6.3318

> <Gold.Chemscore.Internal.Correction.Weighted>
   9.000000E+99

> <Gold.Protein.RotatedTorsions>
[ 6907 6896 6895 6894 ] final   30.26 input  -60.11 | X-H torsion
[ 7974 7965 7964 7962 ] final  -99.63 input  175.53 | X-H torsion
[ 8008 7997 7996 7995 ] final   -7.57 input   59.86 | X-H torsion
[ 10167 10162 10161 10158 ] final  -15.02 input  -65.29 | X-H torsion
[ 10718 10713 10712 10709 ] final  148.18 input   66.30 | X-H torsion
[ 10763 10752 10751 10750 ] final  -91.44 input  -60.55 | X-H torsion
[ 11005 11000 10999 10996 ] final   19.36 input  -57.11 | X-H torsion

> <Gold.Protein.ActiveResidues>
 VAL166  LYS551  ARG553  GLY616  TRP617  ASP618  TYR619  PRO620  LYS621  CYS622 
 ASP623  PHE694  ASN695  SER759  ASP760  ASP761  ALA762  ILE779  LEU786  VAL792 
 PHE793  MET794  SER795  GLU796  ALA797  LYS798  CYS799  TRP800  GLU811  SER814 

> <Gold.Protein.RotatedAtoms>
  152.0434  134.9698  160.0573 H   0  0  0  0  0  0  0  0  0  0  0  0  # atno 6907 bound_to 6896
  152.1127  133.4305  159.4647 H   0  0  0  0  0  0  0  0  0  0  0  0  # atno 6908 bound_to 6896
  150.6844  134.2547  159.4568 H   0  0  0  0  0  0  0  0  0  0  0  0  # atno 6909 bound_to 6896
  145.3050  140.9386  143.2802 H   0  0  0  0  0  0  0  0  0  0  0  0  # atno 7974 bound_to 7965
  154.5826  140.2403  155.8033 H   0  0  0  0  0  0  0  0  0  0  0  0  # atno 8008 bound_to 7997
  156.2190  140.3003  155.9863 H   0  0  0  0  0  0  0  0  0  0  0  0  # atno 8009 bound_to 7997
  155.2515  140.0411  157.2977 H   0  0  0  0  0  0  0  0  0  0  0  0  # atno 8010 bound_to 7997
  140.7211  143.5261  150.9575 H   0  0  0  0  0  0  0  0  0  0  0  0  # atno 10167 bound_to 10162
  157.3117  131.0889  151.1311 H   0  0  0  0  0  0  0  0  0  0  0  0  # atno 10718 bound_to 10713
  154.6760  135.5268  153.8200 H   0  0  0  0  0  0  0  0  0  0  0  0  # atno 10763 bound_to 10752
  153.0533  135.6541  154.0650 H   0  0  0  0  0  0  0  0  0  0  0  0  # atno 10764 bound_to 10752
  154.0543  135.2967  155.3315 H   0  0  0  0  0  0  0  0  0  0  0  0  # atno 10765 bound_to 10752
  140.4146  134.1582  155.7669 H   0  0  0  0  0  0  0  0  0  0  0  0  # atno 11005 bound_to 11000
  144.9062  139.4586  143.6609 LP  0  0  0  0  0  0  0  0  0  0  0  0  # atno 17320 bound_to 7965
  146.3138  139.7845  142.8999 LP  0  0  0  0  0  0  0  0  0  0  0  0  # atno 17321 bound_to 7965
  139.8980  143.6871  152.3135 LP  0  0  0  0  0  0  0  0  0  0  0  0  # atno 17342 bound_to 10162
  139.7210  144.7602  151.0955 LP  0  0  0  0  0  0  0  0  0  0  0  0  # atno 17343 bound_to 10162
  157.2630  130.6668  149.5983 LP  0  0  0  0  0  0  0  0  0  0  0  0  # atno 17370 bound_to 10713
  155.9678  130.4503  150.5690 LP  0  0  0  0  0  0  0  0  0  0  0  0  # atno 17371 bound_to 10713
  141.1808  133.8418  157.1265 LP  0  0  0  0  0  0  0  0  0  0  0  0  # atno 17394 bound_to 11000
  140.0243  134.9931  157.0655 LP  0  0  0  0  0  0  0  0  0  0  0  0  # atno 17395 bound_to 11000

$$$$
