AV-unprocessed.smi:349|AV-procd|sdf|2396|dock4
  -GOLD-   2262022323D 1   1.00000     0.00000
 Structure written by MMmdl.
 43 44  0  0  0  0  0  0  0  0  1 V2000
  145.2328  134.0959  162.4888 C   0  0  0  0  0  0  0  0  0  0  0  0
  145.7802  135.0469  161.4126 C   0  0  0  0  0  0  0  0  0  0  0  0
  147.2750  135.4020  161.5758 C   0  0  2  0  0  0  0  0  0  0  0  0
  147.5450  136.0231  162.9568 C   0  0  0  0  0  0  0  0  0  0  0  0
  147.7628  136.3462  160.4667 C   0  0  0  0  0  0  0  0  0  0  0  0
  147.4397  137.5345  160.4773 O   0  0  0  0  0  0  0  0  0  0  0  0
  148.5304  135.8010  159.5101 N   0  0  0  0  0  0  0  0  0  0  0  0
  149.0545  136.5181  158.3524 C   0  0  0  0  0  0  0  0  0  0  0  0
  149.7409  135.6192  157.3217 C   0  0  0  0  0  0  0  0  0  0  0  0
  149.6397  134.2137  157.4354 C   0  0  0  0  0  0  0  0  0  0  0  0
  150.2918  133.3937  156.4977 C   0  0  0  0  0  0  0  0  0  0  0  0
  151.0354  134.0118  155.4776 C   0  0  0  0  0  0  0  0  0  0  0  0
  151.1528  135.3498  155.3585 N   0  0  0  0  0  0  0  0  0  0  0  0
  150.5237  136.1457  156.2580 C   0  0  0  0  0  0  0  0  0  0  0  0
  150.6532  137.5348  156.0836 N   0  0  0  0  0  0  0  0  0  0  0  0
  149.9591  138.0247  154.8994 C   0  0  0  0  0  0  0  0  0  0  0  0
  149.9518  139.5629  154.8948 C   0  0  0  0  0  0  0  0  0  0  0  0
  151.2882  140.0500  154.9860 O   0  0  0  0  0  0  0  0  0  0  0  0
  151.9352  139.6230  156.1820 C   0  0  0  0  0  0  0  0  0  0  0  0
  151.9978  138.0864  156.2130 C   0  0  0  0  0  0  0  0  0  0  0  0
  144.1597  133.9501  162.3647 H   0  0  0  0  0  0  0  0  0  0  0  0
  145.3997  134.4954  163.4895 H   0  0  0  0  0  0  0  0  0  0  0  0
  145.7024  133.1135  162.4356 H   0  0  0  0  0  0  0  0  0  0  0  0
  145.6034  134.6145  160.4266 H   0  0  0  0  0  0  0  0  0  0  0  0
  145.1952  135.9668  161.4414 H   0  0  0  0  0  0  0  0  0  0  0  0
  147.8500  134.4762  161.5157 H   0  0  0  0  0  0  0  0  0  0  0  0
  148.5955  136.2930  163.0736 H   0  0  0  0  0  0  0  0  0  0  0  0
  147.2992  135.3213  163.7542 H   0  0  0  0  0  0  0  0  0  0  0  0
  146.9498  136.9235  163.1159 H   0  0  0  0  0  0  0  0  0  0  0  0
  148.7519  134.8183  159.5791 H   0  0  0  0  0  0  0  0  0  0  0  0
  148.2481  137.1060  157.9143 H   0  0  0  0  0  0  0  0  0  0  0  0
  149.7907  137.2383  158.7095 H   0  0  0  0  0  0  0  0  0  0  0  0
  149.0713  133.7607  158.2342 H   0  0  0  0  0  0  0  0  0  0  0  0
  150.2260  132.3177  156.5614 H   0  0  0  0  0  0  0  0  0  0  0  0
  151.5513  133.4169  154.7383 H   0  0  0  0  0  0  0  0  0  0  0  0
  150.4620  137.6505  154.0066 H   0  0  0  0  0  0  0  0  0  0  0  0
  148.9370  137.6466  154.8720 H   0  0  0  0  0  0  0  0  0  0  0  0
  149.4998  139.9340  153.9751 H   0  0  0  0  0  0  0  0  0  0  0  0
  149.3551  139.9501  155.7224 H   0  0  0  0  0  0  0  0  0  0  0  0
  152.9413  140.0415  156.2116 H   0  0  0  0  0  0  0  0  0  0  0  0
  151.4031  140.0088  157.0532 H   0  0  0  0  0  0  0  0  0  0  0  0
  152.4489  137.7461  157.1458 H   0  0  0  0  0  0  0  0  0  0  0  0
  152.6270  137.7291  155.3966 H   0  0  0  0  0  0  0  0  0  0  0  0
  1  2  1  0  0  0  0
  1 21  1  0  0  0  0
  1 22  1  0  0  0  0
  1 23  1  0  0  0  0
  2  3  1  0  0  0  0
  2 24  1  0  0  0  0
  2 25  1  0  0  0  0
  3  4  1  0  0  0  0
  3  5  1  0  0  0  0
  3 26  1  0  0  0  0
  4 27  1  0  0  0  0
  4 28  1  0  0  0  0
  4 29  1  0  0  0  0
  5  6  2  0  0  0  0
  5  7  1  0  0  0  0
  7  8  1  0  0  0  0
  7 30  1  0  0  0  0
  8  9  1  0  0  0  0
  8 31  1  0  0  0  0
  8 32  1  0  0  0  0
  9 14  1  0  0  0  0
  9 10  2  0  0  0  0
 10 11  1  0  0  0  0
 10 33  1  0  0  0  0
 11 12  2  0  0  0  0
 11 34  1  0  0  0  0
 12 13  1  0  0  0  0
 12 35  1  0  0  0  0
 13 14  2  0  0  0  0
 14 15  1  0  0  0  0
 15 20  1  0  0  0  0
 15 16  1  0  0  0  0
 16 17  1  0  0  0  0
 16 36  1  0  0  0  0
 16 37  1  0  0  0  0
 17 18  1  0  0  0  0
 17 38  1  0  0  0  0
 17 39  1  0  0  0  0
 18 19  1  0  0  0  0
 19 20  1  0  0  0  0
 19 40  1  0  0  0  0
 19 41  1  0  0  0  0
 20 42  1  0  0  0  0
 20 43  1  0  0  0  0
M  END
> <s_m_source_file>
AV-unprocessed.smi

> <i_m_source_file_index>
349

> <i_lp_mmshare_version>
43012

> <i_f3d_flags>
0

> <s_epik_input>
W0NIM11bQ0gyXVtDQEhdKFtDSDNdKUMoPU8pW05IXVtDSDJdYzFbY0hdW2NIXVtjSF1uYzFOMltDSDJdW0NIMl1PW0NIMl1bQ0gyXTI=

> <s_epik_cmdline>
J2VwaWtfcHl0aG9uJywgJy1waCcsICc3LjAnLCAnLXRuJywgJzgnLCAnLW1hJywgJzIwMCcsICctbWV0YWxfYmluZGluZycsICctaW1hZScsICc8aW5maWxlLm1hZT4nLCAnLW9tYWUnLCAnPG91dGZpbGUubWFlPic=

> <r_lp_tautomer_probability>
1

> <r_epik_Ionization_Penalty>
0.00513869

> <r_epik_Ionization_Penalty_Charging>
0

> <r_epik_Ionization_Penalty_Neutral>
0.00513869

> <r_epik_State_Penalty>
0.00374265

> <r_epik_Charging_Adjusted_Penalty>
0.00374265

> <i_epik_Tot_Q>
0

> <i_epik_Tot_abs_Q>
0

> <r_epik_Metal_State_Penalty>
-0

> <b_epik_Metal_Only>
0

> <s_lp_Force_Field>
OPLS_2005

> <r_lp_Energy>
18.1158

> <b_lp_Chiralities_Consistent>
1

> <s_lp_Variant>
AV-unprocessed.smi:349-1

> <Gold.Version>
5.8.1

> <Gold.Id.Protein>
6NUR|6NUR_protein|mol2

> <Gold.PLP.Fitness>
38.0841

> <Gold.PLP.PLP>
-28.7715

> <Gold.PLP.part.hbond>
-3.9682

> <Gold.PLP.part.metal>
0.0000

> <Gold.PLP.part.buried>
-4.6009

> <Gold.PLP.part.nonpolar>
-20.3370

> <Gold.PLP.part.repulsive>
0.3245

> <Gold.PLP.ligand.clash>
0.0000

> <Gold.PLP.ligand.torsion>
0.5163

> <Gold.PLP.Chemscore.Hbond>
3.3834

> <Gold.PLP.Chemscore.CHOScore>
0.0000

> <Gold.PLP.Chemscore.Metal>
0.0000

> <Gold.Chemscore.Hbonds>
donor molecule, donor type, donor heavy atom, donor atom, acceptor molecule, acceptor atom, score
      P1  H  6931  6943       L1     6  0.24
      P1  H  6934  6947       L1     6  1.00
      P1  H  7989  7998       L1    18  1.00
      P1  H 10752 10764       L1    13  1.00

> <Gold.PLP.Chemscore.Internal.Correction>
0.1951

> <Gold.Rescore>
     Score         DG    S(hbond)    S(metal)    S(lipo)     H(rot)  DE(clash)    DE(int)     intcor
     17.82     -18.42       2.53        0.00      74.32       1.64       0.15       0.45       ----

> <Gold.Chemscore.Fitness>
17.8228

> <Gold.Chemscore.DG>
-18.4176

> <Gold.Chemscore.ZeroCoef>
-5.4800

> <Gold.Chemscore.Hbond>
2.5275

> <Gold.Chemscore.Metal>
0.0000

> <Gold.Chemscore.Lipo>
74.3243

> <Gold.Chemscore.Internal_Hbond>
0.0000

> <Gold.Chemscore.DEClash>
0.1476

> <Gold.Chemscore.DEInternal>
0.4472

> <Gold.Chemscore.Rot>
1.6407

> <Gold.Chemscore.Internal.Correction>
   9.000000E+99

> <Gold.Chemscore.Hbonds>
donor molecule, donor type, donor heavy atom, donor atom, acceptor molecule, acceptor atom, score
      P1  H  6931  6943       L1     6  0.05
      P1  H  6934  6947       L1     6  0.93
      P1  H  7989  7998       L1    18  0.65
      P1  H 10752 10764       L1    13  0.29

> <Gold.Chemscore.Hbond.Weighted>
-8.4418

> <Gold.Chemscore.Metal.Weighted>
-0.0000

> <Gold.Chemscore.Lipo.Weighted>
-8.6959

> <Gold.Chemscore.Internal_Hbond.Weighted>
0.0000

> <Gold.Chemscore.DEClash.Weighted>
0.1476

> <Gold.Chemscore.DEInternal.Weighted>
0.4472

> <Gold.Chemscore.Rot.Weighted>
4.2001

> <Gold.Chemscore.Internal.Correction.Weighted>
   9.000000E+99

> <Gold.Protein.RotatedTorsions>
[ 6907 6896 6895 6894 ] final   97.57 input  -60.11 | X-H torsion
[ 7974 7965 7964 7962 ] final  157.23 input  175.53 | X-H torsion
[ 8008 7997 7996 7995 ] final   77.60 input   59.86 | X-H torsion
[ 10167 10162 10161 10158 ] final  160.29 input  -65.29 | X-H torsion
[ 10718 10713 10712 10709 ] final  -64.25 input   66.30 | X-H torsion
[ 10763 10752 10751 10750 ] final  -49.51 input  -60.55 | X-H torsion
[ 11005 11000 10999 10996 ] final   91.55 input  -57.11 | X-H torsion

> <Gold.Protein.ActiveResidues>
 VAL166  LYS551  ARG553  GLY616  TRP617  ASP618  TYR619  PRO620  LYS621  CYS622 
 ASP623  PHE694  ASN695  SER759  ASP760  ASP761  ALA762  ILE779  LEU786  VAL792 
 PHE793  MET794  SER795  GLU796  ALA797  LYS798  CYS799  TRP800  GLU811  SER814 

> <Gold.Protein.RotatedAtoms>
  152.5421  134.0713  159.8194 H   0  0  0  0  0  0  0  0  0  0  0  0  # atno 6907 bound_to 6896
  151.0827  133.5370  159.2627 H   0  0  0  0  0  0  0  0  0  0  0  0  # atno 6908 bound_to 6896
  151.2191  135.0520  159.8996 H   0  0  0  0  0  0  0  0  0  0  0  0  # atno 6909 bound_to 6896
  144.7915  139.7312  143.6219 H   0  0  0  0  0  0  0  0  0  0  0  0  # atno 7974 bound_to 7965
  155.8439  140.3461  155.5649 H   0  0  0  0  0  0  0  0  0  0  0  0  # atno 8008 bound_to 7997
  155.8111  140.0899  157.1923 H   0  0  0  0  0  0  0  0  0  0  0  0  # atno 8009 bound_to 7997
  154.4005  140.1447  156.3375 H   0  0  0  0  0  0  0  0  0  0  0  0  # atno 8010 bound_to 7997
  139.4839  144.4648  151.8656 H   0  0  0  0  0  0  0  0  0  0  0  0  # atno 10167 bound_to 10162
  156.0740  130.4231  150.1394 H   0  0  0  0  0  0  0  0  0  0  0  0  # atno 10718 bound_to 10713
  154.0952  135.6571  153.4859 H   0  0  0  0  0  0  0  0  0  0  0  0  # atno 10763 bound_to 10752
  153.0308  135.5212  154.7341 H   0  0  0  0  0  0  0  0  0  0  0  0  # atno 10764 bound_to 10752
  154.6477  135.2997  154.9995 H   0  0  0  0  0  0  0  0  0  0  0  0  # atno 10765 bound_to 10752
  139.8837  134.8681  156.3445 H   0  0  0  0  0  0  0  0  0  0  0  0  # atno 11005 bound_to 11000
  146.2169  139.5566  142.9644 LP  0  0  0  0  0  0  0  0  0  0  0  0  # atno 17320 bound_to 7965
  145.5781  141.0386  143.2137 LP  0  0  0  0  0  0  0  0  0  0  0  0  # atno 17321 bound_to 7965
  140.4113  144.2366  150.5889 LP  0  0  0  0  0  0  0  0  0  0  0  0  # atno 17342 bound_to 10162
  140.4964  143.2331  151.8744 LP  0  0  0  0  0  0  0  0  0  0  0  0  # atno 17343 bound_to 10162
  156.9439  130.9753  151.3511 LP  0  0  0  0  0  0  0  0  0  0  0  0  # atno 17370 bound_to 10713
  157.5826  130.8387  149.8544 LP  0  0  0  0  0  0  0  0  0  0  0  0  # atno 17371 bound_to 10713
  140.9636  133.7372  156.0436 LP  0  0  0  0  0  0  0  0  0  0  0  0  # atno 17394 bound_to 11000
  140.7959  134.3565  157.5452 LP  0  0  0  0  0  0  0  0  0  0  0  0  # atno 17395 bound_to 11000

$$$$
