AV-unprocessed.smi:110|AV-procd|sdf|1067|dock8
  -GOLD-   2262018143D 1   1.00000     0.00000
 Structure written by MMmdl.
 46 50  0  0  0  0  0  0  0  0  1 V2000
  144.1404  138.1646  153.6871 O   0  0  0  0  0  0  0  0  0  0  0  0
  145.0589  138.7472  154.5865 C   0  0  0  0  0  0  0  0  0  0  0  0
  146.1836  139.4492  153.8091 C   0  0  1  0  0  0  0  0  0  0  0  0
  146.9324  140.2467  154.7234 O   0  0  0  0  0  0  0  0  0  0  0  0
  148.2747  140.1984  154.3773 C   0  0  1  0  0  0  0  0  0  0  0  0
  149.0984  140.5519  155.5708 N   0  0  0  0  0  0  0  0  0  0  0  0
  148.7343  141.2375  156.7085 C   0  0  0  0  0  0  0  0  0  0  0  0
  149.6840  141.3887  157.5920 N   0  0  0  0  0  0  0  0  0  0  0  0
  150.7903  140.7713  157.0180 C   0  0  0  0  0  0  0  0  0  0  0  0
  152.1412  140.5591  157.4175 C   0  0  0  0  0  0  0  0  0  0  0  0
  152.6750  140.9833  158.5871 N   0  0  0  0  0  0  0  0  0  0  0  0
  153.4285  140.0401  159.4256 C   0  0  0  0  0  0  0  0  0  0  0  0
  153.5168  140.6450  160.8394 C   0  0  0  0  0  0  0  0  0  0  0  0
  152.9085  141.9912  160.6111 C   0  0  0  0  0  0  0  0  0  0  0  0
  152.7972  143.0431  161.5369 C   0  0  0  0  0  0  0  0  0  0  0  0
  152.2081  144.2502  161.1038 C   0  0  0  0  0  0  0  0  0  0  0  0
  151.7561  144.3867  159.7706 C   0  0  0  0  0  0  0  0  0  0  0  0
  151.8799  143.3166  158.8574 C   0  0  0  0  0  0  0  0  0  0  0  0
  152.4497  142.1058  159.3023 C   0  0  0  0  0  0  0  0  0  0  0  0
  152.9348  139.8352  156.5867 N   0  0  0  0  0  0  0  0  0  0  0  0
  152.4573  139.3826  155.4239 C   0  0  0  0  0  0  0  0  0  0  0  0
  151.2336  139.5259  154.9121 N   0  0  0  0  0  0  0  0  0  0  0  0
  150.4228  140.2280  155.7547 C   0  0  0  0  0  0  0  0  0  0  0  0
  148.5218  138.7719  153.8856 C   0  0  1  0  0  0  0  0  0  0  0  0
  148.7689  137.8591  154.9401 O   0  0  0  0  0  0  0  0  0  0  0  0
  147.2000  138.4609  153.1924 C   0  0  2  0  0  0  0  0  0  0  0  0
  147.3164  138.7135  151.8050 O   0  0  0  0  0  0  0  0  0  0  0  0
  145.7634  140.0944  153.0347 H   0  0  0  0  0  0  0  0  0  0  0  0
  148.4975  140.9595  153.6278 H   0  0  0  0  0  0  0  0  0  0  0  0
  149.3776  138.7545  153.2092 H   0  0  0  0  0  0  0  0  0  0  0  0
  146.9094  137.4171  153.3216 H   0  0  0  0  0  0  0  0  0  0  0  0
  143.6467  138.8550  153.2716 H   0  0  0  0  0  0  0  0  0  0  0  0
  144.5492  139.4375  155.2597 H   0  0  0  0  0  0  0  0  0  0  0  0
  145.4683  137.9411  155.1959 H   0  0  0  0  0  0  0  0  0  0  0  0
  147.7368  141.6209  156.8674 H   0  0  0  0  0  0  0  0  0  0  0  0
  152.9460  139.0619  159.4459 H   0  0  0  0  0  0  0  0  0  0  0  0
  154.4268  139.9116  159.0051 H   0  0  0  0  0  0  0  0  0  0  0  0
  152.9258  140.0810  161.5616 H   0  0  0  0  0  0  0  0  0  0  0  0
  154.5445  140.7259  161.1942 H   0  0  0  0  0  0  0  0  0  0  0  0
  153.1574  142.9330  162.5490 H   0  0  0  0  0  0  0  0  0  0  0  0
  152.1103  145.0769  161.7918 H   0  0  0  0  0  0  0  0  0  0  0  0
  151.3179  145.3189  159.4461 H   0  0  0  0  0  0  0  0  0  0  0  0
  151.5486  143.4355  157.8367 H   0  0  0  0  0  0  0  0  0  0  0  0
  153.1558  138.8260  154.8170 H   0  0  0  0  0  0  0  0  0  0  0  0
  149.4406  137.2558  154.6617 H   0  0  0  0  0  0  0  0  0  0  0  0
  147.9048  139.4421  151.6788 H   0  0  0  0  0  0  0  0  0  0  0  0
  1  2  1  0  0  0  0
  1 32  1  0  0  0  0
  2  3  1  0  0  0  0
  2 33  1  0  0  0  0
  2 34  1  0  0  0  0
  3 28  1  0  0  0  0
  3 26  1  0  0  0  0
  3  4  1  0  0  0  0
  4  5  1  0  0  0  0
  5 29  1  0  0  0  0
  5  6  1  0  0  0  0
  5 24  1  0  0  0  0
  6 23  1  0  0  0  0
  6  7  1  0  0  0  0
  7  8  2  0  0  0  0
  7 35  1  0  0  0  0
  8  9  1  0  0  0  0
  9 23  2  0  0  0  0
  9 10  1  0  0  0  0
 10 11  1  0  0  0  0
 10 20  2  0  0  0  0
 11 19  1  0  0  0  0
 11 12  1  0  0  0  0
 12 13  1  0  0  0  0
 12 36  1  0  0  0  0
 12 37  1  0  0  0  0
 13 14  1  0  0  0  0
 13 38  1  0  0  0  0
 13 39  1  0  0  0  0
 14 19  2  0  0  0  0
 14 15  1  0  0  0  0
 15 16  2  0  0  0  0
 15 40  1  0  0  0  0
 16 17  1  0  0  0  0
 16 41  1  0  0  0  0
 17 18  2  0  0  0  0
 17 42  1  0  0  0  0
 18 19  1  0  0  0  0
 18 43  1  0  0  0  0
 20 21  1  0  0  0  0
 21 22  2  0  0  0  0
 21 44  1  0  0  0  0
 22 23  1  0  0  0  0
 24 30  1  0  0  0  0
 24 25  1  0  0  0  0
 24 26  1  0  0  0  0
 25 45  1  0  0  0  0
 26 31  1  0  0  0  0
 26 27  1  0  0  0  0
 27 46  1  0  0  0  0
M  END
> <s_m_source_file>
AV-unprocessed.smi

> <i_m_source_file_index>
110

> <i_lp_mmshare_version>
43012

> <i_f3d_flags>
0

> <s_epik_input>
W09IXVtDSDJdW0NASF0xT1tDQEhdKFtDQEhdKFtPSF0pW0NAQEhdMVtPSF0pbihbY0hdbjIpYyhjMjMpbltjSF1uYzNOKFtDSDJdW0NIMl00KWMoYzQ1KVtjSF1bY0hdW2NIXVtjSF01

> <s_epik_cmdline>
J2VwaWtfcHl0aG9uJywgJy1waCcsICc3LjAnLCAnLXRuJywgJzgnLCAnLW1hJywgJzIwMCcsICctbWV0YWxfYmluZGluZycsICctaW1hZScsICc8aW5maWxlLm1hZT4nLCAnLW9tYWUnLCAnPG91dGZpbGUubWFlPic=

> <r_lp_tautomer_probability>
1

> <r_epik_Ionization_Penalty>
0.00068475

> <r_epik_Ionization_Penalty_Charging>
0

> <r_epik_Ionization_Penalty_Neutral>
0.00068475

> <r_epik_State_Penalty>
0.000417442

> <r_epik_Charging_Adjusted_Penalty>
0.000417442

> <i_epik_Tot_Q>
0

> <i_epik_Tot_abs_Q>
0

> <r_epik_Metal_State_Penalty>
-0

> <b_epik_Metal_Only>
0

> <s_epik_Chemistry_Notes>
This compound contains an acetal/aminal-like group ( X-CH(R)-Y where X, Y are N, S, or O) that may be acid/base labile, releasing an aldehyde.

> <s_lp_Force_Field>
OPLS_2005

> <r_lp_Energy>
58.5768

> <b_lp_Chiralities_Consistent>
1

> <s_lp_Variant>
AV-unprocessed.smi:110-5

> <Gold.Version>
5.8.1

> <Gold.Id.Protein>
6NUR|6NUR_protein|mol2

> <Gold.PLP.Fitness>
54.3873

> <Gold.PLP.PLP>
-44.7756

> <Gold.PLP.part.hbond>
-5.3823

> <Gold.PLP.part.metal>
0.0000

> <Gold.PLP.part.buried>
1.1373

> <Gold.PLP.part.nonpolar>
-40.3110

> <Gold.PLP.part.repulsive>
0.1853

> <Gold.PLP.ligand.clash>
0.0000

> <Gold.PLP.ligand.torsion>
1.2886

> <Gold.PLP.Chemscore.Hbond>
4.0426

> <Gold.PLP.Chemscore.CHOScore>
0.0000

> <Gold.PLP.Chemscore.Metal>
0.0000

> <Gold.Chemscore.Hbonds>
donor molecule, donor type, donor heavy atom, donor atom, acceptor molecule, acceptor atom, score
      L1  H     1    32       P1 10175  0.98
      L1  H    27    46       P1  7957  0.94
      P1  H  7954  7966       L1    27  0.14
      P1  H  7989  7998       L1    22  0.95
      P1  H  7997  8008       L1    20  0.86

> <Gold.PLP.Chemscore.Internal.Correction>
0.0613

> <Gold.Rescore>
     Score         DG    S(hbond)    S(metal)    S(lipo)     H(rot)  DE(clash)    DE(int)     intcor
     15.53     -17.38       2.45        0.00     105.74       3.38       0.86       0.98       ----

> <Gold.Chemscore.Fitness>
15.5278

> <Gold.Chemscore.DG>
-17.3762

> <Gold.Chemscore.ZeroCoef>
-5.4800

> <Gold.Chemscore.Hbond>
2.4512

> <Gold.Chemscore.Metal>
0.0000

> <Gold.Chemscore.Lipo>
105.7393

> <Gold.Chemscore.Internal_Hbond>
0.0000

> <Gold.Chemscore.DEClash>
0.8650

> <Gold.Chemscore.DEInternal>
0.9834

> <Gold.Chemscore.Rot>
3.3837

> <Gold.Chemscore.Internal.Correction>
   9.000000E+99

> <Gold.Chemscore.Hbonds>
donor molecule, donor type, donor heavy atom, donor atom, acceptor molecule, acceptor atom, score
      L1  H     1    32       P1 10175  0.93
      L1  H    27    46       P1  7957  0.91
      P1  H  7989  7998       L1    22  0.08
      P1  H  7997  8008       L1    20  0.33

> <Gold.Chemscore.Hbond.Weighted>
-8.1869

> <Gold.Chemscore.Metal.Weighted>
-0.0000

> <Gold.Chemscore.Lipo.Weighted>
-12.3715

> <Gold.Chemscore.Internal_Hbond.Weighted>
0.0000

> <Gold.Chemscore.DEClash.Weighted>
0.8650

> <Gold.Chemscore.DEInternal.Weighted>
0.9834

> <Gold.Chemscore.Rot.Weighted>
8.6622

> <Gold.Chemscore.Internal.Correction.Weighted>
   9.000000E+99

> <Gold.Protein.RotatedTorsions>
[ 6907 6896 6895 6894 ] final  104.16 input  -60.11 | X-H torsion
[ 7974 7965 7964 7962 ] final  -23.96 input  175.53 | X-H torsion
[ 8008 7997 7996 7995 ] final  -37.23 input   59.86 | X-H torsion
[ 10167 10162 10161 10158 ] final  130.25 input  -65.29 | X-H torsion
[ 10718 10713 10712 10709 ] final   62.80 input   66.30 | X-H torsion
[ 10763 10752 10751 10750 ] final   78.86 input  -60.55 | X-H torsion
[ 11005 11000 10999 10996 ] final  155.49 input  -57.11 | X-H torsion

> <Gold.Protein.ActiveResidues>
 VAL166  LYS551  ARG553  GLY616  TRP617  ASP618  TYR619  PRO620  LYS621  CYS622 
 ASP623  PHE694  ASN695  SER759  ASP760  ASP761  ALA762  ILE779  LEU786  VAL792 
 PHE793  MET794  SER795  GLU796  ALA797  LYS798  CYS799  TRP800  GLU811  SER814 

> <Gold.Protein.RotatedAtoms>
  152.5273  133.9718  159.7765 H   0  0  0  0  0  0  0  0  0  0  0  0  # atno 6907 bound_to 6896
  150.9988  133.6068  159.2705 H   0  0  0  0  0  0  0  0  0  0  0  0  # atno 6908 bound_to 6896
  151.3185  135.0819  159.9350 H   0  0  0  0  0  0  0  0  0  0  0  0  # atno 6909 bound_to 6896
  146.1584  140.4687  142.8582 H   0  0  0  0  0  0  0  0  0  0  0  0  # atno 7974 bound_to 7965
  154.4057  140.1609  156.2504 H   0  0  0  0  0  0  0  0  0  0  0  0  # atno 8008 bound_to 7997
  155.9124  140.3426  155.6086 H   0  0  0  0  0  0  0  0  0  0  0  0  # atno 8009 bound_to 7997
  155.7320  140.0781  157.2275 H   0  0  0  0  0  0  0  0  0  0  0  0  # atno 8010 bound_to 7997
  139.5439  144.6755  151.4537 H   0  0  0  0  0  0  0  0  0  0  0  0  # atno 10167 bound_to 10162
  157.5926  130.9070  149.9634 H   0  0  0  0  0  0  0  0  0  0  0  0  # atno 10718 bound_to 10713
  153.0907  135.4861  154.8684 H   0  0  0  0  0  0  0  0  0  0  0  0  # atno 10763 bound_to 10752
  154.7265  135.3051  154.8964 H   0  0  0  0  0  0  0  0  0  0  0  0  # atno 10764 bound_to 10752
  153.9612  135.6812  153.4798 H   0  0  0  0  0  0  0  0  0  0  0  0  # atno 10765 bound_to 10752
  140.1586  134.8625  157.2546 H   0  0  0  0  0  0  0  0  0  0  0  0  # atno 11005 bound_to 11000
  144.7994  140.6184  143.6488 LP  0  0  0  0  0  0  0  0  0  0  0  0  # atno 17320 bound_to 7965
  145.4650  139.1509  143.3845 LP  0  0  0  0  0  0  0  0  0  0  0  0  # atno 17321 bound_to 7965
  140.6679  143.8357  150.6964 LP  0  0  0  0  0  0  0  0  0  0  0  0  # atno 17342 bound_to 10162
  140.1772  143.4145  152.1959 LP  0  0  0  0  0  0  0  0  0  0  0  0  # atno 17343 bound_to 10162
  156.0983  130.3657  150.0264 LP  0  0  0  0  0  0  0  0  0  0  0  0  # atno 17370 bound_to 10713
  156.8384  130.9417  151.3633 LP  0  0  0  0  0  0  0  0  0  0  0  0  # atno 17371 bound_to 10713
  140.2517  134.3675  155.7440 LP  0  0  0  0  0  0  0  0  0  0  0  0  # atno 17394 bound_to 11000
  141.2207  133.7320  156.8945 LP  0  0  0  0  0  0  0  0  0  0  0  0  # atno 17395 bound_to 11000

$$$$
