AV-unprocessed.smi:11|AV-procd|sdf|57|dock2
  -GOLD-   2262015173D 1   1.00000     0.00000
 Structure written by MMmdl.
 34 36  0  0  0  0  0  0  0  0  2 V2000
  153.8403  141.5407  160.2710 C   0  0  0  0  0  0  0  0  0  0  0  0
  153.3977  142.5360  159.1856 C   0  0  0  0  0  0  0  0  0  0  0  0
  151.8662  142.6775  159.0010 C   0  0  1  0  0  0  0  0  0  0  0  0
  151.2872  142.9874  160.2533 O   0  0  0  0  0  0  0  0  0  0  0  0
  151.4580  143.7017  157.9308 C   0  0  0  0  0  0  0  0  0  0  0  0
  151.5233  142.8962  156.6345 C   0  0  0  0  0  0  0  0  0  0  0  0
  151.1373  141.5460  157.0193 N   0  0  0  0  0  0  0  0  0  0  0  0
  151.3008  140.4565  156.1403 C   0  0  0  0  0  0  0  0  0  0  0  0
  152.4894  139.7929  156.1637 N   0  0  0  0  0  0  0  0  0  0  0  0
  152.7450  138.7421  155.3715 C   0  0  0  0  0  0  0  0  0  0  0  0
  151.8572  138.2673  154.4925 N   0  3  0  0  0  0  0  0  0  0  0  0
  150.6628  138.9076  154.4243 C   0  0  0  0  0  0  0  0  0  0  0  0
  149.5859  138.6341  153.6072 N   0  0  0  0  0  0  0  0  0  0  0  0
  148.5670  139.5391  153.8491 C   0  0  0  0  0  0  0  0  0  0  0  0
  148.9682  140.4126  154.8288 C   0  0  0  0  0  0  0  0  0  0  0  0
  150.3012  140.0255  155.2201 C   0  0  0  0  0  0  0  0  0  0  0  0
  151.2540  141.3721  158.4610 C   0  0  0  0  0  0  0  0  0  0  0  0
  149.5201  137.8959  152.9206 H   0  0  0  0  0  0  0  0  0  0  0  0
  154.9274  141.4664  160.2986 H   0  0  0  0  0  0  0  0  0  0  0  0
  153.4502  140.5406  160.0820 H   0  0  0  0  0  0  0  0  0  0  0  0
  153.5133  141.8481  161.2635 H   0  0  0  0  0  0  0  0  0  0  0  0
  153.8326  143.5110  159.4088 H   0  0  0  0  0  0  0  0  0  0  0  0
  153.8418  142.2265  158.2384 H   0  0  0  0  0  0  0  0  0  0  0  0
  151.9789  143.2071  160.8588 H   0  0  0  0  0  0  0  0  0  0  0  0
  150.4272  144.0209  158.0951 H   0  0  0  0  0  0  0  0  0  0  0  0
  152.0735  144.5999  157.9035 H   0  0  0  0  0  0  0  0  0  0  0  0
  150.8573  143.3020  155.8725 H   0  0  0  0  0  0  0  0  0  0  0  0
  152.5401  142.8959  156.2395 H   0  0  0  0  0  0  0  0  0  0  0  0
  153.6991  138.2384  155.4230 H   0  0  0  0  0  0  0  0  0  0  0  0
  147.6371  139.4902  153.3010 H   0  0  0  0  0  0  0  0  0  0  0  0
  148.3952  141.2349  155.2307 H   0  0  0  0  0  0  0  0  0  0  0  0
  151.8625  140.5072  158.7277 H   0  0  0  0  0  0  0  0  0  0  0  0
  150.2510  141.2158  158.8606 H   0  0  0  0  0  0  0  0  0  0  0  0
  152.0624  137.4672  153.8940 H   0  0  0  0  0  0  0  0  0  0  0  0
  1  2  1  0  0  0  0
  1 19  1  0  0  0  0
  1 20  1  0  0  0  0
  1 21  1  0  0  0  0
  2  3  1  0  0  0  0
  2 22  1  0  0  0  0
  2 23  1  0  0  0  0
  3 17  1  0  0  0  0
  3  4  1  0  0  0  0
  3  5  1  0  0  0  0
  4 24  1  0  0  0  0
  5  6  1  0  0  0  0
  5 25  1  0  0  0  0
  5 26  1  0  0  0  0
  6  7  1  0  0  0  0
  6 27  1  0  0  0  0
  6 28  1  0  0  0  0
  7  8  1  0  0  0  0
  7 17  1  0  0  0  0
  8 16  1  0  0  0  0
  8  9  2  0  0  0  0
  9 10  1  0  0  0  0
 10 11  2  0  0  0  0
 10 29  1  0  0  0  0
 11 12  1  0  0  0  0
 11 34  1  0  0  0  0
 12 16  2  0  0  0  0
 12 13  1  0  0  0  0
 13 18  1  0  0  0  0
 13 14  1  0  0  0  0
 14 15  2  0  0  0  0
 14 30  1  0  0  0  0
 15 16  1  0  0  0  0
 15 31  1  0  0  0  0
 17 32  1  0  0  0  0
 17 33  1  0  0  0  0
M  CHG  1  11   1
M  END
> <s_m_source_file>
AV-unprocessed.smi

> <i_m_source_file_index>
11

> <i_lp_mmshare_version>
43012

> <i_f3d_flags>
0

> <s_epik_input>
W0NIM11bQ0gyXVtDQEBdMShbT0hdKVtDSDJdW0NIMl1OKFtDSDJdMSljKG5bY0hdbjIpYyhjMjMpW2NIXVtjSF1bbkhdMw==

> <s_epik_cmdline>
J2VwaWtfcHl0aG9uJywgJy1waCcsICc3LjAnLCAnLXRuJywgJzgnLCAnLW1hJywgJzIwMCcsICctbWV0YWxfYmluZGluZycsICctaW1hZScsICc8aW5maWxlLm1hZT4nLCAnLW9tYWUnLCAnPG91dGZpbGUubWFlPic=

> <r_lp_tautomer_probability>
1.75997e-05

> <r_epik_Ionization_Penalty>
1.53257

> <r_epik_Ionization_Penalty_Charging>
1.53255

> <r_epik_Ionization_Penalty_Neutral>
1.78556e-05

> <r_epik_State_Penalty>
1.6253

> <r_epik_Charging_Adjusted_Penalty>
3.15785

> <i_epik_Tot_Q>
1

> <i_epik_Tot_abs_Q>
1

> <r_epik_Metal_State_Penalty>
1.66891

> <b_epik_Metal_Only>
0

> <s_lp_Force_Field>
OPLS_2005

> <r_lp_Energy>
33.1489

> <b_lp_Chiralities_Consistent>
1

> <s_lp_Variant>
AV-unprocessed.smi:11-3

> <Gold.Version>
5.8.1

> <Gold.Id.Protein>
6NUR|6NUR_protein|mol2

> <Gold.PLP.Fitness>
41.9374

> <Gold.PLP.PLP>
-36.2385

> <Gold.PLP.part.hbond>
-4.0000

> <Gold.PLP.part.metal>
0.0000

> <Gold.PLP.part.buried>
-2.3370

> <Gold.PLP.part.nonpolar>
-29.1954

> <Gold.PLP.part.repulsive>
0.2505

> <Gold.PLP.ligand.clash>
0.0000

> <Gold.PLP.ligand.torsion>
1.3191

> <Gold.PLP.Chemscore.Hbond>
2.7000

> <Gold.PLP.Chemscore.CHOScore>
0.0000

> <Gold.PLP.Chemscore.Metal>
0.0000

> <Gold.Chemscore.Hbonds>
donor molecule, donor type, donor heavy atom, donor atom, acceptor molecule, acceptor atom, score
      L1  H    13    18       P1  7948  2.00
      P1  H  7997  8008       L1     9  0.70

> <Gold.PLP.Chemscore.Internal.Correction>
0.2371

> <Gold.Rescore>
     Score         DG    S(hbond)    S(metal)    S(lipo)     H(rot)  DE(clash)    DE(int)     intcor
     11.83     -14.76       1.05        0.00      80.89       1.44       1.60       1.33       ----

> <Gold.Chemscore.Fitness>
11.8319

> <Gold.Chemscore.DG>
-14.7580

> <Gold.Chemscore.ZeroCoef>
-5.4800

> <Gold.Chemscore.Hbond>
1.0473

> <Gold.Chemscore.Metal>
0.0000

> <Gold.Chemscore.Lipo>
80.8930

> <Gold.Chemscore.Internal_Hbond>
0.0000

> <Gold.Chemscore.DEClash>
1.5989

> <Gold.Chemscore.DEInternal>
1.3271

> <Gold.Chemscore.Rot>
1.4392

> <Gold.Chemscore.Internal.Correction>
   9.000000E+99

> <Gold.Chemscore.Hbonds>
donor molecule, donor type, donor heavy atom, donor atom, acceptor molecule, acceptor atom, score
      L1  H    13    18       P1  7948  0.78
      P1  H  7997  8008       L1     9  0.07

> <Gold.Chemscore.Hbond.Weighted>
-3.4980

> <Gold.Chemscore.Metal.Weighted>
-0.0000

> <Gold.Chemscore.Lipo.Weighted>
-9.4645

> <Gold.Chemscore.Internal_Hbond.Weighted>
0.0000

> <Gold.Chemscore.DEClash.Weighted>
1.5989

> <Gold.Chemscore.DEInternal.Weighted>
1.3271

> <Gold.Chemscore.Rot.Weighted>
3.6844

> <Gold.Chemscore.Internal.Correction.Weighted>
   9.000000E+99

> <Gold.Protein.RotatedTorsions>
[ 6907 6896 6895 6894 ] final   93.90 input  -60.11 | X-H torsion
[ 7974 7965 7964 7962 ] final   96.59 input  175.53 | X-H torsion
[ 8008 7997 7996 7995 ] final  -59.28 input   59.86 | X-H torsion
[ 10167 10162 10161 10158 ] final   46.10 input  -65.29 | X-H torsion
[ 10718 10713 10712 10709 ] final   28.64 input   66.30 | X-H torsion
[ 10763 10752 10751 10750 ] final -146.70 input  -60.55 | X-H torsion
[ 11005 11000 10999 10996 ] final  -30.50 input  -57.11 | X-H torsion

> <Gold.Protein.ActiveResidues>
 VAL166  LYS551  ARG553  GLY616  TRP617  ASP618  TYR619  PRO620  LYS621  CYS622 
 ASP623  PHE694  ASN695  SER759  ASP760  ASP761  ALA762  ILE779  LEU786  VAL792 
 PHE793  MET794  SER795  GLU796  ALA797  LYS798  CYS799  TRP800  GLU811  SER814 

> <Gold.Protein.RotatedAtoms>
  152.5451  134.1276  159.8425 H   0  0  0  0  0  0  0  0  0  0  0  0  # atno 6907 bound_to 6896
  151.1325  133.5020  159.2606 H   0  0  0  0  0  0  0  0  0  0  0  0  # atno 6908 bound_to 6896
  151.1660  135.0305  159.8785 H   0  0  0  0  0  0  0  0  0  0  0  0  # atno 6909 bound_to 6896
  145.4368  139.2305  143.3114 H   0  0  0  0  0  0  0  0  0  0  0  0  # atno 7974 bound_to 7965
  154.4345  140.1065  156.6090 H   0  0  0  0  0  0  0  0  0  0  0  0  # atno 8008 bound_to 7997
  155.5830  140.3491  155.4527 H   0  0  0  0  0  0  0  0  0  0  0  0  # atno 8009 bound_to 7997
  156.0304  140.1259  157.0253 H   0  0  0  0  0  0  0  0  0  0  0  0  # atno 8010 bound_to 7997
  140.3174  144.2747  150.6188 H   0  0  0  0  0  0  0  0  0  0  0  0  # atno 10167 bound_to 10162
  157.2361  130.7047  149.6336 H   0  0  0  0  0  0  0  0  0  0  0  0  # atno 10718 bound_to 10713
  154.8323  135.3379  154.6703 H   0  0  0  0  0  0  0  0  0  0  0  0  # atno 10763 bound_to 10752
  153.7321  135.6951  153.4991 H   0  0  0  0  0  0  0  0  0  0  0  0  # atno 10764 bound_to 10752
  153.2304  135.4418  155.0541 H   0  0  0  0  0  0  0  0  0  0  0  0  # atno 10765 bound_to 10752
  140.9388  133.7292  156.1045 H   0  0  0  0  0  0  0  0  0  0  0  0  # atno 11005 bound_to 11000
  146.2578  140.5112  142.8866 LP  0  0  0  0  0  0  0  0  0  0  0  0  # atno 17320 bound_to 7965
  144.8147  140.6447  143.6392 LP  0  0  0  0  0  0  0  0  0  0  0  0  # atno 17321 bound_to 7965
  140.5514  143.2206  151.7921 LP  0  0  0  0  0  0  0  0  0  0  0  0  # atno 17342 bound_to 10162
  139.4881  144.4471  151.9697 LP  0  0  0  0  0  0  0  0  0  0  0  0  # atno 17343 bound_to 10162
  155.9672  130.4473  150.5575 LP  0  0  0  0  0  0  0  0  0  0  0  0  # atno 17370 bound_to 10713
  157.3427  131.0719  151.1775 LP  0  0  0  0  0  0  0  0  0  0  0  0  # atno 17371 bound_to 10713
  140.7762  134.3776  157.5497 LP  0  0  0  0  0  0  0  0  0  0  0  0  # atno 17394 bound_to 11000
  139.8815  134.9053  156.2897 LP  0  0  0  0  0  0  0  0  0  0  0  0  # atno 17395 bound_to 11000

$$$$
