AV-unprocessed.smi:160|AV-procd|sdf|1366|dock1
  -GOLD-   2262019 83D 1   1.00000     0.00000
 Structure written by MMmdl.
 28 29  0  0  0  0  0  0  0  0  2 V2000
  153.7600  139.1995  154.7645 N   0  5  0  0  0  0  0  0  0  0  0  0
  152.8186  138.3470  155.2253 C   0  0  0  0  0  0  0  0  0  0  0  0
  153.0218  137.2546  155.7546 O   0  0  0  0  0  0  0  0  0  0  0  0
  151.3983  138.8298  155.0526 C   0  0  0  0  0  0  0  0  0  0  0  0
  150.3477  137.9594  155.1485 N   0  0  0  0  0  0  0  0  0  0  0  0
  149.3498  138.8092  154.9461 C   0  0  0  0  0  0  0  0  0  0  0  0
  149.7359  140.0710  154.7347 N   0  0  0  0  0  0  0  0  0  0  0  0
  148.9055  141.2996  154.4991 C   0  0  1  0  0  0  0  0  0  0  0  0
  148.4516  141.2542  153.1820 O   0  0  0  0  0  0  0  0  0  0  0  0
  147.0647  140.9146  153.1184 C   0  0  1  0  0  0  0  0  0  0  0  0
  146.8546  139.7288  152.1616 C   0  0  0  0  0  0  0  0  0  0  0  0
  147.8881  138.7809  152.3258 O   0  0  0  0  0  0  0  0  0  0  0  0
  146.6280  140.6187  154.5641 C   0  0  2  0  0  0  0  0  0  0  0  0
  145.3325  141.1340  154.8016 O   0  0  0  0  0  0  0  0  0  0  0  0
  147.6609  141.3620  155.3989 C   0  0  1  0  0  0  0  0  0  0  0  0
  147.8393  140.7650  156.6706 O   0  0  0  0  0  0  0  0  0  0  0  0
  151.0891  140.1067  154.8093 N   0  0  0  0  0  0  0  0  0  0  0  0
  149.5991  142.1264  154.6552 H   0  0  0  0  0  0  0  0  0  0  0  0
  146.5340  141.7965  152.7543 H   0  0  0  0  0  0  0  0  0  0  0  0
  146.6520  139.5473  154.7699 H   0  0  0  0  0  0  0  0  0  0  0  0
  147.3863  142.4122  155.5097 H   0  0  0  0  0  0  0  0  0  0  0  0
  153.4946  139.8731  154.0362 H   0  0  0  0  0  0  0  0  0  0  0  0
  148.3138  138.5044  154.9533 H   0  0  0  0  0  0  0  0  0  0  0  0
  145.8830  139.2582  152.3120 H   0  0  0  0  0  0  0  0  0  0  0  0
  146.8900  140.0709  151.1268 H   0  0  0  0  0  0  0  0  0  0  0  0
  148.6035  139.0186  151.7559 H   0  0  0  0  0  0  0  0  0  0  0  0
  144.8430  141.0978  153.9942 H   0  0  0  0  0  0  0  0  0  0  0  0
  148.1769  141.4164  157.2656 H   0  0  0  0  0  0  0  0  0  0  0  0
  1  2  1  0  0  0  0
  1 22  1  0  0  0  0
  2  3  2  0  0  0  0
  2  4  1  0  0  0  0
  4 17  2  0  0  0  0
  4  5  1  0  0  0  0
  5  6  2  0  0  0  0
  6  7  1  0  0  0  0
  6 23  1  0  0  0  0
  7  8  1  0  0  0  0
  7 17  1  0  0  0  0
  8 18  1  0  0  0  0
  8 15  1  0  0  0  0
  8  9  1  0  0  0  0
  9 10  1  0  0  0  0
 10 19  1  0  0  0  0
 10 11  1  0  0  0  0
 10 13  1  0  0  0  0
 11 12  1  0  0  0  0
 11 24  1  0  0  0  0
 11 25  1  0  0  0  0
 12 26  1  0  0  0  0
 13 20  1  0  0  0  0
 13 14  1  0  0  0  0
 13 15  1  0  0  0  0
 14 27  1  0  0  0  0
 15 21  1  0  0  0  0
 15 16  1  0  0  0  0
 16 28  1  0  0  0  0
M  CHG  1   1  -1
M  END
> <s_m_source_file>
AV-unprocessed.smi

> <i_m_source_file_index>
160

> <i_lp_mmshare_version>
43012

> <i_f3d_flags>
0

> <s_epik_input>
W05IMl1DKD1PKWMxbltjSF1uKG4xKVtDQEBIXTJPW0NASF0oW0NIMl1bT0hdKVtDQEBIXShbT0hdKVtDQEhdMltPSF0=

> <s_epik_cmdline>
J2VwaWtfcHl0aG9uJywgJy1waCcsICc3LjAnLCAnLXRuJywgJzgnLCAnLW1hJywgJzIwMCcsICctbWV0YWxfYmluZGluZycsICctaW1hZScsICc8aW5maWxlLm1hZT4nLCAnLW9tYWUnLCAnPG91dGZpbGUubWFlPic=

> <r_lp_tautomer_probability>
1

> <r_epik_Ionization_Penalty>
6.6993

> <r_epik_Ionization_Penalty_Charging>
6.6993

> <r_epik_Ionization_Penalty_Neutral>
6.01698e-06

> <r_epik_State_Penalty>
6.69929

> <r_epik_Charging_Adjusted_Penalty>
13.3986

> <i_epik_Tot_Q>
-1

> <i_epik_Tot_abs_Q>
1

> <r_epik_Metal_State_Penalty>
2.62798

> <b_epik_Metal_Only>
1

> <s_epik_Chemistry_Notes>
This compound contains an acetal/aminal-like group ( X-CH(R)-Y where X, Y are N, S, or O) that may be acid/base labile, releasing an aldehyde.

> <s_lp_Force_Field>
OPLS_2005

> <r_lp_Energy>
43.6415

> <b_lp_Chiralities_Consistent>
1

> <s_lp_Variant>
AV-unprocessed.smi:160-24

> <Gold.Version>
5.8.1

> <Gold.Id.Protein>
6NUR|6NUR_protein|mol2

> <Gold.PLP.Fitness>
43.2565

> <Gold.PLP.PLP>
-25.5499

> <Gold.PLP.part.hbond>
-6.6037

> <Gold.PLP.part.metal>
0.0000

> <Gold.PLP.part.buried>
-2.4992

> <Gold.PLP.part.nonpolar>
-20.2176

> <Gold.PLP.part.repulsive>
3.5187

> <Gold.PLP.ligand.clash>
0.0000

> <Gold.PLP.ligand.torsion>
0.7447

> <Gold.PLP.Chemscore.Hbond>
6.3920

> <Gold.PLP.Chemscore.CHOScore>
0.0000

> <Gold.PLP.Chemscore.Metal>
0.0000

> <Gold.Chemscore.Hbonds>
donor molecule, donor type, donor heavy atom, donor atom, acceptor molecule, acceptor atom, score
      L1  H    12    26       P1  7957  0.98
      L1  H    14    27       P1 10175  1.00
      P1  H  7989  7998       L1    17  1.00
      P1  H  7997  8010       L1     1  2.00
      P1  H  8011  8017       L1     9  0.88
      P1  H 10752 10765       L1     3  0.50

> <Gold.PLP.Chemscore.Internal.Correction>
0.0199

> <Gold.Rescore>
     Score         DG    S(hbond)    S(metal)    S(lipo)     H(rot)  DE(clash)    DE(int)     intcor
      6.96     -11.56       4.05        0.00      24.74       4.04       1.78       2.82       ----

> <Gold.Chemscore.Fitness>
6.9566

> <Gold.Chemscore.DG>
-11.5559

> <Gold.Chemscore.ZeroCoef>
-5.4800

> <Gold.Chemscore.Hbond>
4.0492

> <Gold.Chemscore.Metal>
0.0000

> <Gold.Chemscore.Lipo>
24.7398

> <Gold.Chemscore.Internal_Hbond>
0.0000

> <Gold.Chemscore.DEClash>
1.7797

> <Gold.Chemscore.DEInternal>
2.8196

> <Gold.Chemscore.Rot>
4.0403

> <Gold.Chemscore.Internal.Correction>
   9.000000E+99

> <Gold.Chemscore.Hbonds>
donor molecule, donor type, donor heavy atom, donor atom, acceptor molecule, acceptor atom, score
      L1  H    12    26       P1  7957  0.76
      L1  H    14    27       P1 10175  0.76
      P1  H  7989  7998       L1    17  0.64
      P1  H  7997  8010       L1     1  0.27
      P1  H  8011  8017       L1     9  0.22
      P1  H 10752 10765       L1     3  0.50

> <Gold.Chemscore.Hbond.Weighted>
-13.5244

> <Gold.Chemscore.Metal.Weighted>
-0.0000

> <Gold.Chemscore.Lipo.Weighted>
-2.8946

> <Gold.Chemscore.Internal_Hbond.Weighted>
0.0000

> <Gold.Chemscore.DEClash.Weighted>
1.7797

> <Gold.Chemscore.DEInternal.Weighted>
2.8196

> <Gold.Chemscore.Rot.Weighted>
10.3431

> <Gold.Chemscore.Internal.Correction.Weighted>
   9.000000E+99

> <Gold.Protein.RotatedTorsions>
[ 6907 6896 6895 6894 ] final  138.14 input  -60.11 | X-H torsion
[ 7974 7965 7964 7962 ] final   36.63 input  175.53 | X-H torsion
[ 8008 7997 7996 7995 ] final  105.16 input   59.86 | X-H torsion
[ 10167 10162 10161 10158 ] final  152.66 input  -65.29 | X-H torsion
[ 10718 10713 10712 10709 ] final  -69.83 input   66.30 | X-H torsion
[ 10763 10752 10751 10750 ] final -154.23 input  -60.55 | X-H torsion
[ 11005 11000 10999 10996 ] final  139.14 input  -57.11 | X-H torsion

> <Gold.Protein.ActiveResidues>
 VAL166  LYS551  ARG553  GLY616  TRP617  ASP618  TYR619  PRO620  LYS621  CYS622 
 ASP623  PHE694  ASN695  SER759  ASP760  ASP761  ALA762  ILE779  LEU786  VAL792 
 PHE793  MET794  SER795  GLU796  ALA797  LYS798  CYS799  TRP800  GLU811  SER814 

> <Gold.Protein.RotatedAtoms>
  152.2700  133.5374  159.5433 H   0  0  0  0  0  0  0  0  0  0  0  0  # atno 6907 bound_to 6896
  150.7156  134.0711  159.3873 H   0  0  0  0  0  0  0  0  0  0  0  0  # atno 6908 bound_to 6896
  151.8626  135.0519  160.0521 H   0  0  0  0  0  0  0  0  0  0  0  0  # atno 6909 bound_to 6896
  146.1197  139.5993  142.9298 H   0  0  0  0  0  0  0  0  0  0  0  0  # atno 7974 bound_to 7965
  156.1636  140.3135  155.8849 H   0  0  0  0  0  0  0  0  0  0  0  0  # atno 8008 bound_to 7997
  155.3733  140.0483  157.3062 H   0  0  0  0  0  0  0  0  0  0  0  0  # atno 8009 bound_to 7997
  154.5170  140.2185  155.9058 H   0  0  0  0  0  0  0  0  0  0  0  0  # atno 8010 bound_to 7997
  139.4831  144.5339  151.7678 H   0  0  0  0  0  0  0  0  0  0  0  0  # atno 10167 bound_to 10162
  156.0436  130.4320  150.2206 H   0  0  0  0  0  0  0  0  0  0  0  0  # atno 10718 bound_to 10713
  154.7873  135.3195  154.7857 H   0  0  0  0  0  0  0  0  0  0  0  0  # atno 10763 bound_to 10752
  153.8554  135.6858  153.4792 H   0  0  0  0  0  0  0  0  0  0  0  0  # atno 10764 bound_to 10752
  153.1530  135.4692  154.9603 H   0  0  0  0  0  0  0  0  0  0  0  0  # atno 10765 bound_to 10752
  140.0234  134.9386  157.0519 H   0  0  0  0  0  0  0  0  0  0  0  0  # atno 11005 bound_to 11000
  145.5493  141.0414  143.2287 LP  0  0  0  0  0  0  0  0  0  0  0  0  # atno 17320 bound_to 7965
  144.7585  139.7014  143.7244 LP  0  0  0  0  0  0  0  0  0  0  0  0  # atno 17321 bound_to 7965
  140.4868  144.1368  150.5942 LP  0  0  0  0  0  0  0  0  0  0  0  0  # atno 17342 bound_to 10162
  140.4215  143.2609  151.9709 LP  0  0  0  0  0  0  0  0  0  0  0  0  # atno 17343 bound_to 10162
  157.0298  131.0004  151.3315 LP  0  0  0  0  0  0  0  0  0  0  0  0  # atno 17370 bound_to 10713
  157.5285  130.8043  149.7890 LP  0  0  0  0  0  0  0  0  0  0  0  0  # atno 17371 bound_to 10713
  140.4348  134.1742  155.7170 LP  0  0  0  0  0  0  0  0  0  0  0  0  # atno 17394 bound_to 11000
  141.1788  133.8458  157.1331 LP  0  0  0  0  0  0  0  0  0  0  0  0  # atno 17395 bound_to 11000

$$$$
