#       Name:                AV-unprocessed.smi:2736
#       Creating user name   scv26
#       Creation time:       Fri Mar 27 14:59:35 2020


#       File generated by GOLD software.
#

@<TRIPOS>MOLECULE
AV-unprocessed.smi:2736
    45    47     1
SMALL
NO_CHARGES


@<TRIPOS>ATOM
      1 ****        -2.2023   3.7462   0.5376 C.3            1 S1                 0.0000
      2 ****        -2.3775   2.2822   0.5741 N.am           1 S1                 0.0000
      3 ****        -1.2557   1.4955   0.5746 C.2            1 S1                 0.0000
      4 ****        -0.0988   1.9157   0.5476 O.2            1 S1                 0.0000
      5 ****        -1.5392   0.0590   0.6120 C.2            1 S1                 0.0000
      6 ****        -2.7963  -0.4445   0.6468 C.2            1 S1                 0.0000
      7 ****        -2.7847  -1.8343   0.6809 N.2            1 S1                 0.0000
      8 ****        -1.4778  -2.1010   0.6611 C.2            1 S1                 0.0000
      9 ****        -0.6645  -1.0254   0.6165 N.pl3          1 S1                 0.0000
     10 ****         0.7906  -1.0424   0.5817 C.3            1 S1                 0.0000
     11 ****         1.3591  -0.8866  -0.8440 C.3            1 S1                 0.0000
     12 ****         0.8353  -1.9032  -1.6788 O.3            1 S1                 0.0000
     13 ****         2.8860  -0.8832  -0.8292 C.ar           1 S1                 0.0000
     14 ****         3.5781  -2.1144  -0.7554 C.ar           1 S1                 0.0000
     15 ****         4.9849  -2.1492  -0.7319 C.ar           1 S1                 0.0000
     16 ****         5.7175  -0.9500  -0.7786 C.ar           1 S1                 0.0000
     17 ****         5.0405   0.2815  -0.8436 C.ar           1 S1                 0.0000
     18 ****         3.6317   0.3232  -0.8659 C.ar           1 S1                 0.0000
     19 ****         2.8629   1.8703  -0.9313 Cl             1 S1                 0.0000
     20 ****        -3.8896   0.4570   0.6425 N.am           1 S1                 0.0000
     21 ****        -5.2351  -0.1235   0.6758 C.3            1 S1                 0.0000
     22 ****        -3.6811   1.8148   0.6045 C.2            1 S1                 0.0000
     23 ****        -4.6344   2.5984   0.5974 O.2            1 S1                 0.0000
     24 ****        -1.1658   4.0852   0.5303 H              1 S1                 0.0000
     25 ****        -2.6710   4.2079   1.4082 H              1 S1                 0.0000
     26 ****        -2.6708   4.1623  -0.3557 H              1 S1                 0.0000
     27 ****        -1.0995  -3.1127   0.6744 H              1 S1                 0.0000
     28 ****         1.1653  -0.2526   1.2329 H              1 S1                 0.0000
     29 ****         1.1313  -1.9815   1.0203 H              1 S1                 0.0000
     30 ****         0.9940   0.0467  -1.2698 H              1 S1                 0.0000
     31 ****         1.1099  -1.7319  -2.5668 H              1 S1                 0.0000
     32 ****         3.0298  -3.0442  -0.7126 H              1 S1                 0.0000
     33 ****         5.5012  -3.0964  -0.6761 H              1 S1                 0.0000
     34 ****         6.7971  -0.9740  -0.7607 H              1 S1                 0.0000
     35 ****         5.6068   1.2007  -0.8738 H              1 S1                 0.0000
     36 ****        -6.0430   0.6086   0.6859 H              1 S1                 0.0000
     37 ****        -5.3495  -0.7428   1.5659 H              1 S1                 0.0000
     38 ****        -5.3864  -0.7608  -0.1960 H              1 S1                 0.0000
     39 ****         0.0752   2.9001   0.5229 LP             1 S1                 0.0000
     40 ****         0.6670   1.2725   0.5503 LP             1 S1                 0.0000
     41 ****        -3.5563  -2.4696   0.7122 LP             1 S1                 0.0000
     42 ****        -0.1634  -1.9006  -1.6279 LP             1 S1                 0.0000
     43 ****         1.1818  -2.7938  -1.3842 LP             1 S1                 0.0000
     44 ****        -4.4708   3.5845   0.5694 LP             1 S1                 0.0000
     45 ****        -5.5704   2.2472   0.6196 LP             1 S1                 0.0000
@<TRIPOS>BOND
    1    1    2 1     
    2    1   24 1     
    3    1   25 1     
    4    1   26 1     
    5    2   22 am    
    6    2    3 am    
    7    3    4 2     
    8    3    5 1     
    9    5    9 1     
   10    5    6 2     
   11    6    7 1     
   12    6   20 1     
   13    7    8 2     
   14    8    9 1     
   15    8   27 1     
   16    9   10 1     
   17   10   11 1     
   18   10   28 1     
   19   10   29 1     
   20   11   12 1     
   21   11   13 1     
   22   11   30 1     
   23   12   31 1     
   24   13   18 ar    
   25   13   14 ar    
   26   14   15 ar    
   27   14   32 1     
   28   15   16 ar    
   29   15   33 1     
   30   16   17 ar    
   31   16   34 1     
   32   17   18 ar    
   33   17   35 1     
   34   18   19 1     
   35   20   21 1     
   36   20   22 am    
   37   21   36 1     
   38   21   37 1     
   39   21   38 1     
   40   22   23 2     
   41    4   39 1     
   42    4   40 1     
   43    7   41 1     
   44   12   42 1     
   45   12   43 1     
   46   23   44 1     
   47   23   45 1     
@<TRIPOS>SUBSTRUCTURE
      1 S1             1
@<TRIPOS>SET
LONE_PAIRS      STATIC     ATOMS    <user>   **** ""
7 39 40 41 42 43 44 45
DONOR_HYDROGENS      STATIC     ATOMS    <user>   **** ""
1 31
ATOM$BLUE        STATIC     ATOMS    COLORGROUP SYSTEM
7 39 40 41 42 43 44 45
ATOM$RED        STATIC     ATOMS    COLORGROUP SYSTEM
1 31
