AV-unprocessed.smi:2751|AV-procd|sdf|10602|dock1
  -GOLD-   2272015 53D 1   1.00000     0.00000
 Structure written by MMmdl.
 34 35  0  0  0  0  0  0  0  0  1 V2000
  150.2638  140.2375  154.9621 O   0  0  0  0  0  0  0  0  0  0  0  0
  149.5589  141.2515  154.9344 C   0  0  0  0  0  0  0  0  0  0  0  0
  149.9177  142.3715  155.5797 N   0  0  0  0  0  0  0  0  0  0  0  0
  151.1304  142.5398  156.3727 C   0  0  0  0  0  0  0  0  0  0  0  0
  150.9589  141.9745  157.7931 C   0  0  0  0  0  0  0  0  0  0  0  0
  151.7845  142.7348  158.8427 C   0  0  1  0  0  0  0  0  0  0  0  0
  151.3747  144.2178  158.9325 C   0  0  0  0  0  0  0  0  0  0  0  0
  152.1602  144.9294  160.0400 C   0  0  0  0  0  0  0  0  0  0  0  0
  152.0135  144.1570  161.3551 C   0  0  0  0  0  0  0  0  0  0  0  0
  152.3813  142.6787  161.1500 C   0  0  0  0  0  0  0  0  0  0  0  0
  151.5811  142.1186  160.1133 O   0  0  0  0  0  0  0  0  0  0  0  0
  148.3429  141.4419  154.2926 N   0  0  0  0  0  0  0  0  0  0  0  0
  147.8013  140.4716  153.6215 C   0  0  0  0  0  0  0  0  0  0  0  0
  148.1899  139.1588  153.3677 N   0  0  0  0  0  0  0  0  0  0  0  0
  147.2295  138.5718  152.5925 C   0  0  0  0  0  0  0  0  0  0  0  0
  146.2762  139.4707  152.3670 C   0  0  0  0  0  0  0  0  0  0  0  0
  146.5984  140.6424  152.9837 O   0  0  0  0  0  0  0  0  0  0  0  0
  149.2993  143.1677  155.5194 H   0  0  0  0  0  0  0  0  0  0  0  0
  151.9762  142.0697  155.8683 H   0  0  0  0  0  0  0  0  0  0  0  0
  151.3543  143.6057  156.4230 H   0  0  0  0  0  0  0  0  0  0  0  0
  149.9036  142.0206  158.0651 H   0  0  0  0  0  0  0  0  0  0  0  0
  151.2338  140.9190  157.8116 H   0  0  0  0  0  0  0  0  0  0  0  0
  152.8408  142.6674  158.5755 H   0  0  0  0  0  0  0  0  0  0  0  0
  151.5446  144.7163  157.9776 H   0  0  0  0  0  0  0  0  0  0  0  0
  150.3062  144.2928  159.1390 H   0  0  0  0  0  0  0  0  0  0  0  0
  153.2137  144.9884  159.7636 H   0  0  0  0  0  0  0  0  0  0  0  0
  151.8079  145.9544  160.1587 H   0  0  0  0  0  0  0  0  0  0  0  0
  152.6438  144.6002  162.1263 H   0  0  0  0  0  0  0  0  0  0  0  0
  150.9848  144.2302  161.7099 H   0  0  0  0  0  0  0  0  0  0  0  0
  153.4392  142.5701  160.9063 H   0  0  0  0  0  0  0  0  0  0  0  0
  152.2080  142.1193  162.0692 H   0  0  0  0  0  0  0  0  0  0  0  0
  149.0251  138.6833  153.6784 H   0  0  0  0  0  0  0  0  0  0  0  0
  147.3342  137.5444  152.2764 H   0  0  0  0  0  0  0  0  0  0  0  0
  145.3496  139.4343  151.8135 H   0  0  0  0  0  0  0  0  0  0  0  0
  1  2  2  0  0  0  0
  2 12  1  0  0  0  0
  2  3  1  0  0  0  0
  3  4  1  0  0  0  0
  3 18  1  0  0  0  0
  4  5  1  0  0  0  0
  4 19  1  0  0  0  0
  4 20  1  0  0  0  0
  5  6  1  0  0  0  0
  5 21  1  0  0  0  0
  5 22  1  0  0  0  0
  6 11  1  0  0  0  0
  6  7  1  0  0  0  0
  6 23  1  0  0  0  0
  7  8  1  0  0  0  0
  7 24  1  0  0  0  0
  7 25  1  0  0  0  0
  8  9  1  0  0  0  0
  8 26  1  0  0  0  0
  8 27  1  0  0  0  0
  9 10  1  0  0  0  0
  9 28  1  0  0  0  0
  9 29  1  0  0  0  0
 10 11  1  0  0  0  0
 10 30  1  0  0  0  0
 10 31  1  0  0  0  0
 12 13  2  0  0  0  0
 13 17  1  0  0  0  0
 13 14  1  0  0  0  0
 14 32  1  0  0  0  0
 14 15  1  0  0  0  0
 15 33  1  0  0  0  0
 15 16  2  0  0  0  0
 16 34  1  0  0  0  0
 16 17  1  0  0  0  0
M  END
> <s_m_source_file>
AV-unprocessed.smi

> <i_m_source_file_index>
2751

> <i_lp_mmshare_version>
43012

> <i_f3d_flags>
0

> <s_epik_input>
bzFbY0hdW2NIXW5jMVtOSF1DKD1PKVtOSF1bQ0gyXVtDSDJdW0NAQEhdMltDSDJdW0NIMl1bQ0gyXVtDSDJdTzI=

> <s_epik_cmdline>
J2VwaWtfcHl0aG9uJywgJy1waCcsICc3LjAnLCAnLXRuJywgJzgnLCAnLW1hJywgJzIwMCcsICctbWV0YWxfYmluZGluZycsICctaW1hZScsICc8aW5maWxlLm1hZT4nLCAnLW9tYWUnLCAnPG91dGZpbGUubWFlPic=

> <r_lp_tautomer_probability>
0.107061

> <r_epik_Ionization_Penalty>
1.421

> <r_epik_Ionization_Penalty_Charging>
1.42064

> <r_epik_Ionization_Penalty_Neutral>
0.0003614

> <r_epik_State_Penalty>
2.61489

> <r_epik_Charging_Adjusted_Penalty>
4.03553

> <i_epik_Tot_Q>
0

> <i_epik_Tot_abs_Q>
0

> <r_epik_Metal_State_Penalty>
3.57288

> <b_epik_Metal_Only>
0

> <s_lp_Force_Field>
OPLS_2005

> <r_lp_Energy>
32.5629

> <b_lp_Chiralities_Consistent>
1

> <s_lp_Variant>
AV-unprocessed.smi:2751-8

> <Gold.Version>
5.8.1

> <Gold.Id.Protein>
6NUR|6NUR_protein|mol2

> <Gold.PLP.Fitness>
43.2544

> <Gold.PLP.PLP>
-30.0919

> <Gold.PLP.part.hbond>
-3.8143

> <Gold.PLP.part.metal>
0.0000

> <Gold.PLP.part.buried>
2.5413

> <Gold.PLP.part.nonpolar>
-29.5492

> <Gold.PLP.part.repulsive>
1.6189

> <Gold.PLP.ligand.clash>
0.0000

> <Gold.PLP.ligand.torsion>
0.3565

> <Gold.PLP.Chemscore.Hbond>
2.0000

> <Gold.PLP.Chemscore.CHOScore>
2.6206

> <Gold.PLP.Chemscore.Metal>
0.0000

> <Gold.Chemscore.Hbonds>
donor molecule, donor type, donor heavy atom, donor atom, acceptor molecule, acceptor atom, score
      L1  H     3    18       P1  8028  1.00
      P1  H  7989  7998       L1     1  0.66
      L1  C    15    33       P1  7948  1.00
      L1  C    16    34       P1 10171  0.81
      L1  C    16    34       P1 10175  0.84

> <Gold.PLP.Chemscore.Internal.Correction>
0.0138

> <Gold.Rescore>
     Score         DG    S(hbond)    S(metal)    S(lipo)     H(rot)  DE(clash)    DE(int)     intcor
     13.24     -15.18       1.00        0.00      90.23       1.63       1.59       0.35       ----

> <Gold.Chemscore.Fitness>
13.2391

> <Gold.Chemscore.DG>
-15.1806

> <Gold.Chemscore.ZeroCoef>
-5.4800

> <Gold.Chemscore.Hbond>
0.9952

> <Gold.Chemscore.Metal>
0.0000

> <Gold.Chemscore.Lipo>
90.2272

> <Gold.Chemscore.Internal_Hbond>
0.0000

> <Gold.Chemscore.DEClash>
1.5925

> <Gold.Chemscore.DEInternal>
0.3490

> <Gold.Chemscore.Rot>
1.6328

> <Gold.Chemscore.Internal.Correction>
   9.000000E+99

> <Gold.Chemscore.Hbonds>
donor molecule, donor type, donor heavy atom, donor atom, acceptor molecule, acceptor atom, score
      L1  H     3    18       P1  8028  0.97
      P1  H  7989  7998       L1     1  0.10

> <Gold.Chemscore.Hbond.Weighted>
-3.3240

> <Gold.Chemscore.Metal.Weighted>
-0.0000

> <Gold.Chemscore.Lipo.Weighted>
-10.5566

> <Gold.Chemscore.Internal_Hbond.Weighted>
0.0000

> <Gold.Chemscore.DEClash.Weighted>
1.5925

> <Gold.Chemscore.DEInternal.Weighted>
0.3490

> <Gold.Chemscore.Rot.Weighted>
4.1799

> <Gold.Chemscore.Internal.Correction.Weighted>
   9.000000E+99

> <Gold.Protein.RotatedTorsions>
[ 6907 6896 6895 6894 ] final    0.40 input  -60.11 | X-H torsion
[ 7974 7965 7964 7962 ] final  -43.34 input  175.53 | X-H torsion
[ 8008 7997 7996 7995 ] final  -44.91 input   59.86 | X-H torsion
[ 10167 10162 10161 10158 ] final  138.86 input  -65.29 | X-H torsion
[ 10718 10713 10712 10709 ] final  -73.00 input   66.30 | X-H torsion
[ 10763 10752 10751 10750 ] final   25.21 input  -60.55 | X-H torsion
[ 11005 11000 10999 10996 ] final  -98.98 input  -57.11 | X-H torsion

> <Gold.Protein.ActiveResidues>
 VAL166  LYS551  ARG553  GLY616  TRP617  ASP618  TYR619  PRO620  LYS621  CYS622 
 ASP623  PHE694  ASN695  SER759  ASP760  ASP761  ALA762  ILE779  LEU786  VAL792 
 PHE793  MET794  SER795  GLU796  ALA797  LYS798  CYS799  TRP800  GLU811  SER814 

> <Gold.Protein.RotatedAtoms>
  151.5759  135.1060  160.0005 H   0  0  0  0  0  0  0  0  0  0  0  0  # atno 6907 bound_to 6896
  152.4378  133.7388  159.6640 H   0  0  0  0  0  0  0  0  0  0  0  0  # atno 6908 bound_to 6896
  150.8278  133.8072  159.3134 H   0  0  0  0  0  0  0  0  0  0  0  0  # atno 6909 bound_to 6896
  146.0028  140.7054  142.9262 H   0  0  0  0  0  0  0  0  0  0  0  0  # atno 7974 bound_to 7965
  154.3999  140.1410  156.3761 H   0  0  0  0  0  0  0  0  0  0  0  0  # atno 8008 bound_to 7997
  155.8048  140.3475  155.5402 H   0  0  0  0  0  0  0  0  0  0  0  0  # atno 8009 bound_to 7997
  155.8447  140.0932  157.1703 H   0  0  0  0  0  0  0  0  0  0  0  0  # atno 8010 bound_to 7997
  139.5097  144.6329  151.5772 H   0  0  0  0  0  0  0  0  0  0  0  0  # atno 10167 bound_to 10162
  156.0298  130.4384  150.2676 H   0  0  0  0  0  0  0  0  0  0  0  0  # atno 10718 bound_to 10713
  153.0708  135.6588  154.0252 H   0  0  0  0  0  0  0  0  0  0  0  0  # atno 10763 bound_to 10752
  153.9898  135.2947  155.3414 H   0  0  0  0  0  0  0  0  0  0  0  0  # atno 10764 bound_to 10752
  154.7081  135.5216  153.8695 H   0  0  0  0  0  0  0  0  0  0  0  0  # atno 10765 bound_to 10752
  141.1325  133.8286  157.0911 H   0  0  0  0  0  0  0  0  0  0  0  0  # atno 11005 bound_to 11000
  144.6925  140.3263  143.7223 LP  0  0  0  0  0  0  0  0  0  0  0  0  # atno 17320 bound_to 7965
  145.7461  139.1779  143.2348 LP  0  0  0  0  0  0  0  0  0  0  0  0  # atno 17321 bound_to 7965
  140.6068  143.9510  150.6424 LP  0  0  0  0  0  0  0  0  0  0  0  0  # atno 17342 bound_to 10162
  140.2740  143.3436  152.1212 LP  0  0  0  0  0  0  0  0  0  0  0  0  # atno 17343 bound_to 10162
  157.0779  131.0135  151.3167 LP  0  0  0  0  0  0  0  0  0  0  0  0  # atno 17370 bound_to 10713
  157.4950  130.7845  149.7546 LP  0  0  0  0  0  0  0  0  0  0  0  0  # atno 17371 bound_to 10713
  140.0392  134.9863  157.0929 LP  0  0  0  0  0  0  0  0  0  0  0  0  # atno 17394 bound_to 11000
  140.4162  134.1928  155.7163 LP  0  0  0  0  0  0  0  0  0  0  0  0  # atno 17395 bound_to 11000

$$$$
