AV-unprocessed.smi:3227|AV-procd|sdf|12317|dock7
  -GOLD-   2272018163D 1   1.00000     0.00000
 Structure written by MMmdl.
 37 38  0  0  0  0  0  0  0  0  1 V2000
  150.3055  139.8310  158.4693 C   0  0  0  0  0  0  0  0  0  0  0  0
  150.7242  140.8801  157.5503 N   0  0  0  0  0  0  0  0  0  0  0  0
  151.5616  140.4597  156.4337 C   0  0  0  0  0  0  0  0  0  0  0  0
  151.1076  142.0667  158.2071 C   0  0  0  0  0  0  0  0  0  0  0  0
  150.3362  143.1629  158.0030 N   0  0  0  0  0  0  0  0  0  0  0  0
  150.6806  144.3230  158.5977 C   0  0  0  0  0  0  0  0  0  0  0  0
  151.8046  144.4553  159.4312 C   0  0  0  0  0  0  0  0  0  0  0  0
  152.6095  143.3234  159.6514 C   0  0  0  0  0  0  0  0  0  0  0  0
  152.2715  142.1003  159.0225 C   0  0  0  0  0  0  0  0  0  0  0  0
  153.0128  140.9030  159.2369 N   0  0  0  0  0  0  0  0  0  0  0  0
  153.9192  140.6419  160.1961 C   0  0  0  0  0  0  0  0  0  0  0  0
  154.2747  141.4432  161.0599 O   0  0  0  0  0  0  0  0  0  0  0  0
  154.5519  139.2525  160.1572 C   0  0  0  0  0  0  0  0  0  0  0  0
  155.4755  139.1463  161.2276 O   0  0  0  0  0  0  0  0  0  0  0  0
  154.8368  139.0507  162.4888 C   0  0  0  0  0  0  0  0  0  0  0  0
  154.1111  137.7251  162.5764 C   0  0  0  0  0  0  0  0  0  0  0  0
  153.8226  137.0876  163.9166 C   0  0  0  0  0  0  0  0  0  0  0  0
  154.8532  136.4780  163.0013 C   0  0  0  0  0  0  0  0  0  0  0  0
  149.4835  140.1597  159.1051 H   0  0  0  0  0  0  0  0  0  0  0  0
  151.1356  139.5322  159.1106 H   0  0  0  0  0  0  0  0  0  0  0  0
  149.9695  138.9529  157.9175 H   0  0  0  0  0  0  0  0  0  0  0  0
  151.8174  141.3073  155.7968 H   0  0  0  0  0  0  0  0  0  0  0  0
  151.0329  139.7290  155.8213 H   0  0  0  0  0  0  0  0  0  0  0  0
  152.4847  140.0013  156.7900 H   0  0  0  0  0  0  0  0  0  0  0  0
  150.0369  145.1692  158.4082 H   0  0  0  0  0  0  0  0  0  0  0  0
  152.0390  145.4005  159.8980 H   0  0  0  0  0  0  0  0  0  0  0  0
  153.4581  143.4082  160.3126 H   0  0  0  0  0  0  0  0  0  0  0  0
  152.8989  140.1918  158.5290 H   0  0  0  0  0  0  0  0  0  0  0  0
  153.7656  138.5025  160.2549 H   0  0  0  0  0  0  0  0  0  0  0  0
  155.0555  139.0849  159.2032 H   0  0  0  0  0  0  0  0  0  0  0  0
  155.5740  139.1029  163.2913 H   0  0  0  0  0  0  0  0  0  0  0  0
  154.1302  139.8707  162.6266 H   0  0  0  0  0  0  0  0  0  0  0  0
  153.3593  137.5836  161.8021 H   0  0  0  0  0  0  0  0  0  0  0  0
  154.1817  137.5966  164.8089 H   0  0  0  0  0  0  0  0  0  0  0  0
  152.8756  136.5636  164.0286 H   0  0  0  0  0  0  0  0  0  0  0  0
  154.5949  135.5458  162.5027 H   0  0  0  0  0  0  0  0  0  0  0  0
  155.8987  136.5805  163.2857 H   0  0  0  0  0  0  0  0  0  0  0  0
  1  2  1  0  0  0  0
  1 19  1  0  0  0  0
  1 20  1  0  0  0  0
  1 21  1  0  0  0  0
  2  3  1  0  0  0  0
  2  4  1  0  0  0  0
  3 22  1  0  0  0  0
  3 23  1  0  0  0  0
  3 24  1  0  0  0  0
  4  9  1  0  0  0  0
  4  5  2  0  0  0  0
  5  6  1  0  0  0  0
  6  7  2  0  0  0  0
  6 25  1  0  0  0  0
  7  8  1  0  0  0  0
  7 26  1  0  0  0  0
  8  9  2  0  0  0  0
  8 27  1  0  0  0  0
  9 10  1  0  0  0  0
 10 11  1  0  0  0  0
 10 28  1  0  0  0  0
 11 12  2  0  0  0  0
 11 13  1  0  0  0  0
 13 14  1  0  0  0  0
 13 29  1  0  0  0  0
 13 30  1  0  0  0  0
 14 15  1  0  0  0  0
 15 16  1  0  0  0  0
 15 31  1  0  0  0  0
 15 32  1  0  0  0  0
 16 18  1  0  0  0  0
 16 17  1  0  0  0  0
 16 33  1  0  0  0  0
 17 18  1  0  0  0  0
 17 34  1  0  0  0  0
 17 35  1  0  0  0  0
 18 36  1  0  0  0  0
 18 37  1  0  0  0  0
M  END
> <s_m_source_file>
AV-unprocessed.smi

> <i_m_source_file_index>
3227

> <i_lp_mmshare_version>
43012

> <i_f3d_flags>
0

> <s_epik_input>
W0NIM11OKFtDSDNdKWMxbltjSF1bY0hdW2NIXWMxW05IXUMoPU8pW0NIMl1PW0NIMl1bQ0hdMltDSDJdW0NIMl0y

> <s_epik_cmdline>
J2VwaWtfcHl0aG9uJywgJy1waCcsICc3LjAnLCAnLXRuJywgJzgnLCAnLW1hJywgJzIwMCcsICctbWV0YWxfYmluZGluZycsICctaW1hZScsICc8aW5maWxlLm1hZT4nLCAnLW9tYWUnLCAnPG91dGZpbGUubWFlPic=

> <r_lp_tautomer_probability>
1

> <r_epik_Ionization_Penalty>
0.25353

> <r_epik_Ionization_Penalty_Charging>
0

> <r_epik_Ionization_Penalty_Neutral>
0.25353

> <r_epik_State_Penalty>
0.244789

> <r_epik_Charging_Adjusted_Penalty>
0.244789

> <i_epik_Tot_Q>
0

> <i_epik_Tot_abs_Q>
0

> <r_epik_Metal_State_Penalty>
0.170372

> <b_epik_Metal_Only>
0

> <s_lp_Force_Field>
OPLS_2005

> <r_lp_Energy>
22.5303

> <b_lp_Chiralities_Consistent>
1

> <s_lp_Variant>
AV-unprocessed.smi:3227-1

> <Gold.Version>
5.8.1

> <Gold.Id.Protein>
6NUR|6NUR_protein|mol2

> <Gold.PLP.Fitness>
37.3423

> <Gold.PLP.PLP>
-34.5671

> <Gold.PLP.part.hbond>
-0.1774

> <Gold.PLP.part.metal>
0.0000

> <Gold.PLP.part.buried>
-5.8257

> <Gold.PLP.part.nonpolar>
-29.5810

> <Gold.PLP.part.repulsive>
0.4827

> <Gold.PLP.ligand.clash>
0.0000

> <Gold.PLP.ligand.torsion>
0.5451

> <Gold.PLP.Chemscore.Hbond>
0.0000

> <Gold.PLP.Chemscore.CHOScore>
0.9999

> <Gold.PLP.Chemscore.Metal>
0.0000

> <Gold.Chemscore.Hbonds>
donor molecule, donor type, donor heavy atom, donor atom, acceptor molecule, acceptor atom, score
      L1  C     6    25       P1  8029  1.00

> <Gold.PLP.Chemscore.Internal.Correction>
0.8657

> <Gold.Rescore>
     Score         DG    S(hbond)    S(metal)    S(lipo)     H(rot)  DE(clash)    DE(int)     intcor
      9.10     -12.13       0.00        0.00      93.50       1.68       0.00       3.02       ----

> <Gold.Chemscore.Fitness>
9.1008

> <Gold.Chemscore.DG>
-12.1260

> <Gold.Chemscore.ZeroCoef>
-5.4800

> <Gold.Chemscore.Hbond>
0.0000

> <Gold.Chemscore.Metal>
0.0000

> <Gold.Chemscore.Lipo>
93.4996

> <Gold.Chemscore.Internal_Hbond>
0.0000

> <Gold.Chemscore.DEClash>
0.0042

> <Gold.Chemscore.DEInternal>
3.0209

> <Gold.Chemscore.Rot>
1.6771

> <Gold.Chemscore.Internal.Correction>
   9.000000E+99

> <Gold.Chemscore.Hbond.Weighted>
-0.0000

> <Gold.Chemscore.Metal.Weighted>
-0.0000

> <Gold.Chemscore.Lipo.Weighted>
-10.9395

> <Gold.Chemscore.Internal_Hbond.Weighted>
0.0000

> <Gold.Chemscore.DEClash.Weighted>
0.0042

> <Gold.Chemscore.DEInternal.Weighted>
3.0209

> <Gold.Chemscore.Rot.Weighted>
4.2935

> <Gold.Chemscore.Internal.Correction.Weighted>
   9.000000E+99

> <Gold.Protein.RotatedTorsions>
[ 6907 6896 6895 6894 ] final   56.66 input  -60.11 | X-H torsion
[ 7974 7965 7964 7962 ] final  102.94 input  175.53 | X-H torsion
[ 8008 7997 7996 7995 ] final  112.56 input   59.86 | X-H torsion
[ 10167 10162 10161 10158 ] final   82.80 input  -65.29 | X-H torsion
[ 10718 10713 10712 10709 ] final  -72.57 input   66.30 | X-H torsion
[ 10763 10752 10751 10750 ] final   50.36 input  -60.55 | X-H torsion
[ 11005 11000 10999 10996 ] final  133.47 input  -57.11 | X-H torsion

> <Gold.Protein.ActiveResidues>
 VAL166  LYS551  ARG553  GLY616  TRP617  ASP618  TYR619  PRO620  LYS621  CYS622 
 ASP623  PHE694  ASN695  SER759  ASP760  ASP761  ALA762  ILE779  LEU786  VAL792 
 PHE793  MET794  SER795  GLU796  ALA797  LYS798  CYS799  TRP800  GLU811  SER814 

> <Gold.Protein.RotatedAtoms>
  152.3657  134.6808  160.0192 H   0  0  0  0  0  0  0  0  0  0  0  0  # atno 6907 bound_to 6896
  151.7117  133.3307  159.3300 H   0  0  0  0  0  0  0  0  0  0  0  0  # atno 6908 bound_to 6896
  150.7636  134.6461  159.6307 H   0  0  0  0  0  0  0  0  0  0  0  0  # atno 6909 bound_to 6896
  145.3524  139.2436  143.3551 H   0  0  0  0  0  0  0  0  0  0  0  0  # atno 7974 bound_to 7965
  156.2200  140.2997  155.9930 H   0  0  0  0  0  0  0  0  0  0  0  0  # atno 8008 bound_to 7997
  155.2506  140.0426  157.3003 H   0  0  0  0  0  0  0  0  0  0  0  0  # atno 8009 bound_to 7997
  154.5826  140.2379  155.8040 H   0  0  0  0  0  0  0  0  0  0  0  0  # atno 8010 bound_to 7997
  139.9251  144.6188  150.8401 H   0  0  0  0  0  0  0  0  0  0  0  0  # atno 10167 bound_to 10162
  156.0315  130.4375  150.2612 H   0  0  0  0  0  0  0  0  0  0  0  0  # atno 10718 bound_to 10713
  152.9785  135.5881  154.4240 H   0  0  0  0  0  0  0  0  0  0  0  0  # atno 10763 bound_to 10752
  154.3861  135.2767  155.2184 H   0  0  0  0  0  0  0  0  0  0  0  0  # atno 10764 bound_to 10752
  154.4077  135.6089  153.5988 H   0  0  0  0  0  0  0  0  0  0  0  0  # atno 10765 bound_to 10752
  139.9854  134.9534  156.9729 H   0  0  0  0  0  0  0  0  0  0  0  0  # atno 11005 bound_to 11000
  146.2962  140.4143  142.8721 LP  0  0  0  0  0  0  0  0  0  0  0  0  # atno 17320 bound_to 7965
  144.8707  140.7269  143.6048 LP  0  0  0  0  0  0  0  0  0  0  0  0  # atno 17321 bound_to 7965
  140.7652  143.3270  151.2495 LP  0  0  0  0  0  0  0  0  0  0  0  0  # atno 17342 bound_to 10162
  139.6829  143.9823  152.2818 LP  0  0  0  0  0  0  0  0  0  0  0  0  # atno 17343 bound_to 10162
  157.0714  131.0118  151.3189 LP  0  0  0  0  0  0  0  0  0  0  0  0  # atno 17370 bound_to 10713
  157.4996  130.7872  149.7591 LP  0  0  0  0  0  0  0  0  0  0  0  0  # atno 17371 bound_to 10713
  140.5013  134.1094  155.7251 LP  0  0  0  0  0  0  0  0  0  0  0  0  # atno 17394 bound_to 11000
  141.1520  133.8952  157.2075 LP  0  0  0  0  0  0  0  0  0  0  0  0  # atno 17395 bound_to 11000

$$$$
