#       Name:                AV-unprocessed.smi:2442
#       Creating user name   scv26
#       Creation time:       Fri Mar 27 13:26:14 2020


#       File generated by GOLD software.
#

@<TRIPOS>MOLECULE
AV-unprocessed.smi:2442
    51    52     1
SMALL
NO_CHARGES


@<TRIPOS>ATOM
      1 ****        -4.9389  -1.2068   0.7066 C.3            1 S1                 0.0000
      2 ****        -4.1220  -0.3179  -0.0396 O.3            1 S1                 0.0000
      3 ****        -3.8032   0.8981   0.6325 C.3            1 S1                 0.0000
      4 ****        -4.9766   1.8990   0.5517 C.3            1 S1                 0.0000
      5 ****        -5.2424   2.3528  -0.8933 C.3            1 S1                 0.0000
      6 ****        -3.9764   2.9421  -1.5340 C.3            1 S1                 0.0000
      7 ****        -2.8038   1.9513  -1.4661 C.3            1 S1                 0.0000
      8 ****        -2.5369   1.5002  -0.0143 C.3            1 S1                 0.0000
      9 ****        -1.4379   0.5400   0.0473 N.am           1 S1                 0.0000
     10 ****        -0.1354   0.8543   0.0324 C.2            1 S1                 0.0000
     11 ****         0.2972   2.0042  -0.0472 O.2            1 S1                 0.0000
     12 ****         0.6417  -0.2335   0.1153 N.am           1 S1                 0.0000
     13 ****         2.0981  -0.2023   0.1221 C.3            1 S1                 0.0000
     14 ****         2.6697  -1.5231   0.6550 C.3            1 S1                 0.0000
     15 ****         4.1907  -1.5148   0.6883 C.ar           1 S1                 0.0000
     16 ****         4.8479  -0.9944   1.8261 C.ar           1 S1                 0.0000
     17 ****         6.2560  -0.9733   1.8674 C.ar           1 S1                 0.0000
     18 ****         6.9643  -1.4495   0.8219 N.pl3          1 S1                 1.0000
     19 ****         6.3813  -1.9550  -0.2862 C.ar           1 S1                 0.0000
     20 ****         4.9735  -2.0028  -0.3911 C.ar           1 S1                 0.0000
     21 ****         4.3410  -2.5712  -1.6490 C.3            1 S1                 0.0000
     22 ****        -5.0989  -2.1191   0.1323 H              1 S1                 0.0000
     23 ****        -5.9170  -0.7785   0.9224 H              1 S1                 0.0000
     24 ****        -4.4628  -1.4856   1.6473 H              1 S1                 0.0000
     25 ****        -3.5823   0.6846   1.6801 H              1 S1                 0.0000
     26 ****        -5.8834   1.4768   0.9831 H              1 S1                 0.0000
     27 ****        -4.7400   2.7732   1.1596 H              1 S1                 0.0000
     28 ****        -5.5929   1.5065  -1.4855 H              1 S1                 0.0000
     29 ****        -6.0434   3.0923  -0.9085 H              1 S1                 0.0000
     30 ****        -4.1754   3.2130  -2.5713 H              1 S1                 0.0000
     31 ****        -3.7036   3.8651  -1.0207 H              1 S1                 0.0000
     32 ****        -3.0222   1.0847  -2.0917 H              1 S1                 0.0000
     33 ****        -1.9124   2.4174  -1.8873 H              1 S1                 0.0000
     34 ****        -2.2567   2.3792   0.5700 H              1 S1                 0.0000
     35 ****        -1.6949  -0.4344   0.1085 H              1 S1                 0.0000
     36 ****         0.1973  -1.1382   0.1731 H              1 S1                 0.0000
     37 ****         2.4513  -0.0156  -0.8928 H              1 S1                 0.0000
     38 ****         2.4493   0.6250   0.7418 H              1 S1                 0.0000
     39 ****         2.3012  -1.6990   1.6668 H              1 S1                 0.0000
     40 ****         2.3074  -2.3615   0.0601 H              1 S1                 0.0000
     41 ****         4.2783  -0.6105   2.6603 H              1 S1                 0.0000
     42 ****         6.8321  -0.5918   2.6979 H              1 S1                 0.0000
     43 ****         7.0583  -2.3031  -1.0530 H              1 S1                 0.0000
     44 ****         5.0933  -2.7713  -2.4127 H              1 S1                 0.0000
     45 ****         3.6179  -1.8721  -2.0694 H              1 S1                 0.0000
     46 ****         3.8304  -3.5088  -1.4279 H              1 S1                 0.0000
     47 ****         7.9833  -1.4257   0.8702 H              1 S1                 0.0000
     48 ****        -4.6017  -0.0898  -0.8869 LP             1 S1                 0.0000
     49 ****        -3.2666  -0.7880  -0.2570 LP             1 S1                 0.0000
     50 ****        -0.3379   2.7744  -0.1058 LP             1 S1                 0.0000
     51 ****         1.2836   2.1680  -0.0532 LP             1 S1                 0.0000
@<TRIPOS>BOND
    1    1    2 1     
    2    1   22 1     
    3    1   23 1     
    4    1   24 1     
    5    2    3 1     
    6    3    8 1     
    7    3    4 1     
    8    3   25 1     
    9    4    5 1     
   10    4   26 1     
   11    4   27 1     
   12    5    6 1     
   13    5   28 1     
   14    5   29 1     
   15    6    7 1     
   16    6   30 1     
   17    6   31 1     
   18    7    8 1     
   19    7   32 1     
   20    7   33 1     
   21    8    9 1     
   22    8   34 1     
   23    9   10 am    
   24    9   35 1     
   25   10   11 2     
   26   10   12 am    
   27   12   13 1     
   28   12   36 1     
   29   13   14 1     
   30   13   37 1     
   31   13   38 1     
   32   14   15 1     
   33   14   39 1     
   34   14   40 1     
   35   15   20 ar    
   36   15   16 ar    
   37   16   17 ar    
   38   16   41 1     
   39   17   18 ar    
   40   17   42 1     
   41   18   19 ar    
   42   18   47 1     
   43   19   20 ar    
   44   19   43 1     
   45   20   21 1     
   46   21   44 1     
   47   21   45 1     
   48   21   46 1     
   49    2   48 1     
   50    2   49 1     
   51   11   50 1     
   52   11   51 1     
@<TRIPOS>SUBSTRUCTURE
      1 S1             1
@<TRIPOS>SET
LONE_PAIRS      STATIC     ATOMS    <user>   **** ""
4 48 49 50 51
DONOR_HYDROGENS      STATIC     ATOMS    <user>   **** ""
3 35 36 47
ATOM$BLUE        STATIC     ATOMS    COLORGROUP SYSTEM
4 48 49 50 51
ATOM$RED        STATIC     ATOMS    COLORGROUP SYSTEM
3 35 36 47
