AV-unprocessed.smi:34|AV-procd|sdf|236|dock3
  -GOLD-   2262015573D 1   1.00000     0.00000
 Structure written by MMmdl.
 54 58  0  0  0  0  0  0  0  0  2 V2000
  150.8401  141.9741  156.3238 O   0  0  0  0  0  0  0  0  0  0  0  0
  151.5557  141.7666  157.3061 C   0  0  0  0  0  0  0  0  0  0  0  0
  152.2565  140.6432  157.6036 N   0  5  0  0  0  0  0  0  0  0  0  0
  152.1672  139.5672  156.8063 C   0  0  0  0  0  0  0  0  0  0  0  0
  152.6159  139.6233  155.5263 N   0  0  0  0  0  0  0  0  0  0  0  0
  152.5213  138.5528  154.7288 C   0  0  0  0  0  0  0  0  0  0  0  0
  152.0154  137.3460  154.9994 N   0  0  0  0  0  0  0  0  0  0  0  0
  151.5522  137.2776  156.2816 C   0  0  0  0  0  0  0  0  0  0  0  0
  151.5920  138.3386  157.2334 C   0  0  0  0  0  0  0  0  0  0  0  0
  151.0405  137.9379  158.4412 N   0  0  0  0  0  0  0  0  0  0  0  0
  150.7010  136.6786  158.1770 C   0  0  0  0  0  0  0  0  0  0  0  0
  150.9648  136.2086  156.9417 N   0  0  0  0  0  0  0  0  0  0  0  0
  150.6769  134.8347  156.4222 C   0  0  1  0  0  0  0  0  0  0  0  0
  149.8029  134.1811  157.2909 O   0  0  0  0  0  0  0  0  0  0  0  0
  148.8269  133.4374  156.5611 C   0  0  1  0  0  0  0  0  0  0  0  0
  147.4382  134.0063  156.8852 C   0  0  0  0  0  0  0  0  0  0  0  0
  147.3272  134.2081  158.2850 O   0  0  0  0  0  0  0  0  0  0  0  0
  147.5437  135.4296  158.8105 C   0  0  0  0  0  0  0  0  0  0  0  0
  147.8390  136.4197  158.1381 O   0  0  0  0  0  0  0  0  0  0  0  0
  147.3899  135.4585  160.2938 C   0  0  0  0  0  0  0  0  0  0  0  0
  147.3798  134.2406  161.0132 C   0  0  0  0  0  0  0  0  0  0  0  0
  147.2368  134.2361  162.4145 C   0  0  0  0  0  0  0  0  0  0  0  0
  147.1009  135.4495  163.1133 C   0  0  0  0  0  0  0  0  0  0  0  0
  147.1089  136.6678  162.4095 C   0  0  0  0  0  0  0  0  0  0  0  0
  147.2531  136.6745  161.0082 C   0  0  0  0  0  0  0  0  0  0  0  0
  149.2063  133.5671  155.0801 C   0  0  2  0  0  0  0  0  0  0  0  0
  149.9655  132.5290  154.7249 F   0  0  0  0  0  0  0  0  0  0  0  0
  150.0384  134.8337  155.0265 C   0  0  1  0  0  0  0  0  0  0  0  0
  149.2399  135.9686  154.7450 O   0  0  0  0  0  0  0  0  0  0  0  0
  151.6521  142.8270  158.3704 C   0  0  0  0  0  0  0  0  0  0  0  0
  151.2799  144.1570  158.0694 C   0  0  0  0  0  0  0  0  0  0  0  0
  151.3855  145.1687  159.0438 C   0  0  0  0  0  0  0  0  0  0  0  0
  151.8744  144.8630  160.3277 C   0  0  0  0  0  0  0  0  0  0  0  0
  152.2612  143.5453  160.6352 C   0  0  0  0  0  0  0  0  0  0  0  0
  152.1555  142.5330  159.6614 C   0  0  0  0  0  0  0  0  0  0  0  0
  152.9061  138.6828  153.7283 H   0  0  0  0  0  0  0  0  0  0  0  0
  150.2342  136.0588  158.9283 H   0  0  0  0  0  0  0  0  0  0  0  0
  151.6379  134.3184  156.4395 H   0  0  0  0  0  0  0  0  0  0  0  0
  148.8704  132.3962  156.8832 H   0  0  0  0  0  0  0  0  0  0  0  0
  147.3057  134.9631  156.3783 H   0  0  0  0  0  0  0  0  0  0  0  0
  146.6525  133.3374  156.5320 H   0  0  0  0  0  0  0  0  0  0  0  0
  147.4812  133.2963  160.4980 H   0  0  0  0  0  0  0  0  0  0  0  0
  147.2314  133.2999  162.9532 H   0  0  0  0  0  0  0  0  0  0  0  0
  146.9910  135.4457  164.1878 H   0  0  0  0  0  0  0  0  0  0  0  0
  147.0043  137.5999  162.9448 H   0  0  0  0  0  0  0  0  0  0  0  0
  147.2563  137.6272  160.4993 H   0  0  0  0  0  0  0  0  0  0  0  0
  148.3499  133.5751  154.4040 H   0  0  0  0  0  0  0  0  0  0  0  0
  150.8207  134.7798  154.2686 H   0  0  0  0  0  0  0  0  0  0  0  0
  149.3386  136.1869  153.8307 H   0  0  0  0  0  0  0  0  0  0  0  0
  150.9044  144.4087  157.0880 H   0  0  0  0  0  0  0  0  0  0  0  0
  151.0922  146.1800  158.8047 H   0  0  0  0  0  0  0  0  0  0  0  0
  151.9565  145.6388  161.0744 H   0  0  0  0  0  0  0  0  0  0  0  0
  152.6426  143.3100  161.6177 H   0  0  0  0  0  0  0  0  0  0  0  0
  152.4681  141.5302  159.9145 H   0  0  0  0  0  0  0  0  0  0  0  0
  1  2  2  0  0  0  0
  2  3  1  0  0  0  0
  2 30  1  0  0  0  0
  3  4  1  0  0  0  0
  4  9  1  0  0  0  0
  4  5  2  0  0  0  0
  5  6  1  0  0  0  0
  6  7  2  0  0  0  0
  6 36  1  0  0  0  0
  7  8  1  0  0  0  0
  8 12  1  0  0  0  0
  8  9  2  0  0  0  0
  9 10  1  0  0  0  0
 10 11  2  0  0  0  0
 11 12  1  0  0  0  0
 11 37  1  0  0  0  0
 12 13  1  0  0  0  0
 13 28  1  0  0  0  0
 13 14  1  0  0  0  0
 13 38  1  0  0  0  0
 14 15  1  0  0  0  0
 15 16  1  0  0  0  0
 15 26  1  0  0  0  0
 15 39  1  0  0  0  0
 16 17  1  0  0  0  0
 16 40  1  0  0  0  0
 16 41  1  0  0  0  0
 17 18  1  0  0  0  0
 18 19  2  0  0  0  0
 18 20  1  0  0  0  0
 20 25  1  0  0  0  0
 20 21  2  0  0  0  0
 21 22  1  0  0  0  0
 21 42  1  0  0  0  0
 22 23  2  0  0  0  0
 22 43  1  0  0  0  0
 23 24  1  0  0  0  0
 23 44  1  0  0  0  0
 24 25  2  0  0  0  0
 24 45  1  0  0  0  0
 25 46  1  0  0  0  0
 26 27  1  0  0  0  0
 26 28  1  0  0  0  0
 26 47  1  0  0  0  0
 28 29  1  0  0  0  0
 28 48  1  0  0  0  0
 29 49  1  0  0  0  0
 30 35  1  0  0  0  0
 30 31  2  0  0  0  0
 31 32  1  0  0  0  0
 31 50  1  0  0  0  0
 32 33  2  0  0  0  0
 32 51  1  0  0  0  0
 33 34  1  0  0  0  0
 33 52  1  0  0  0  0
 34 35  2  0  0  0  0
 34 53  1  0  0  0  0
 35 54  1  0  0  0  0
M  CHG  1   3  -1
M  END
> <s_m_source_file>
AV-unprocessed.smi

> <i_m_source_file_index>
34

> <i_lp_mmshare_version>
43012

> <i_f3d_flags>
0

> <s_epik_input>
W2NIXTFbY0hdW2NIXVtjSF1bY0hdYzFDKD1PKVtOSF1jKG5bY0hdbjIpYyhjMjMpbltjSF1uM1tDQEBIXTRPW0NASF0oW0NAQEhdKEYpW0NASF00W09IXSlbQ0gyXU9DKD1PKWM1W2NIXVtjSF1bY0hdW2NIXVtjSF01

> <s_epik_cmdline>
J2VwaWtfcHl0aG9uJywgJy1waCcsICc3LjAnLCAnLXRuJywgJzgnLCAnLW1hJywgJzIwMCcsICctbWV0YWxfYmluZGluZycsICctaW1hZScsICc8aW5maWxlLm1hZT4nLCAnLW9tYWUnLCAnPG91dGZpbGUubWFlPic=

> <r_lp_tautomer_probability>
1

> <r_epik_Ionization_Penalty>
4.33227

> <r_epik_Ionization_Penalty_Charging>
3.41027

> <r_epik_Ionization_Penalty_Neutral>
0.922001

> <r_epik_State_Penalty>
3.41358

> <r_epik_Charging_Adjusted_Penalty>
6.82385

> <i_epik_Tot_Q>
-1

> <i_epik_Tot_abs_Q>
1

> <r_epik_Metal_State_Penalty>
0.496292

> <b_epik_Metal_Only>
1

> <s_epik_Chemistry_Notes>
This compound has an ester and may undergo hydrolysis at high or low pH. This compound contains an acetal/aminal-like group ( X-CH(R)-Y where X, Y are N, S, or O) that may be acid/base labile, releasing an aldehyde.

> <s_lp_Force_Field>
OPLS_2005

> <r_lp_Energy>
54.5703

> <b_lp_Chiralities_Consistent>
1

> <s_lp_Variant>
AV-unprocessed.smi:34-22

> <Gold.Version>
5.8.1

> <Gold.Id.Protein>
6NUR|6NUR_protein|mol2

> <Gold.PLP.Fitness>
69.8313

> <Gold.PLP.PLP>
-61.5373

> <Gold.PLP.part.hbond>
-4.7254

> <Gold.PLP.part.metal>
0.0000

> <Gold.PLP.part.buried>
-7.8788

> <Gold.PLP.part.nonpolar>
-50.7764

> <Gold.PLP.part.repulsive>
0.1696

> <Gold.PLP.ligand.clash>
0.0000

> <Gold.PLP.ligand.torsion>
1.5835

> <Gold.PLP.Chemscore.Hbond>
3.5337

> <Gold.PLP.Chemscore.CHOScore>
0.0000

> <Gold.PLP.Chemscore.Metal>
0.0000

> <Gold.Chemscore.Hbonds>
donor molecule, donor type, donor heavy atom, donor atom, acceptor molecule, acceptor atom, score
      L1  H    29    49       P1  7948  1.00
      P1  H  6896  6909       L1    14  0.52
      P1  H  7997  8010       L1     5  0.96
      P1  H 10752 10765       L1     7  0.86

> <Gold.PLP.Chemscore.Internal.Correction>
0.8599

> <Gold.Rescore>
     Score         DG    S(hbond)    S(metal)    S(lipo)     H(rot)  DE(clash)    DE(int)     intcor
     20.64     -23.11       2.53        0.00     137.54       2.69       0.27       2.19       ----

> <Gold.Chemscore.Fitness>
20.6424

> <Gold.Chemscore.DG>
-23.1087

> <Gold.Chemscore.ZeroCoef>
-5.4800

> <Gold.Chemscore.Hbond>
2.5251

> <Gold.Chemscore.Metal>
0.0000

> <Gold.Chemscore.Lipo>
137.5425

> <Gold.Chemscore.Internal_Hbond>
0.0000

> <Gold.Chemscore.DEClash>
0.2726

> <Gold.Chemscore.DEInternal>
2.1937

> <Gold.Chemscore.Rot>
2.6944

> <Gold.Chemscore.Internal.Correction>
   9.000000E+99

> <Gold.Chemscore.Hbonds>
donor molecule, donor type, donor heavy atom, donor atom, acceptor molecule, acceptor atom, score
      L1  H    29    49       P1  7948  0.80
      P1  H  6896  6909       L1    14  0.38
      P1  H  7997  8010       L1     5  0.25
      P1  H 10752 10765       L1     7  0.66

> <Gold.Chemscore.Hbond.Weighted>
-8.4338

> <Gold.Chemscore.Metal.Weighted>
-0.0000

> <Gold.Chemscore.Lipo.Weighted>
-16.0925

> <Gold.Chemscore.Internal_Hbond.Weighted>
0.0000

> <Gold.Chemscore.DEClash.Weighted>
0.2726

> <Gold.Chemscore.DEInternal.Weighted>
2.1937

> <Gold.Chemscore.Rot.Weighted>
6.8975

> <Gold.Chemscore.Internal.Correction.Weighted>
   9.000000E+99

> <Gold.Protein.RotatedTorsions>
[ 6907 6896 6895 6894 ] final    8.90 input  -60.11 | X-H torsion
[ 7974 7965 7964 7962 ] final   33.36 input  175.53 | X-H torsion
[ 8008 7997 7996 7995 ] final  114.10 input   59.86 | X-H torsion
[ 10167 10162 10161 10158 ] final   79.52 input  -65.29 | X-H torsion
[ 10718 10713 10712 10709 ] final -100.79 input   66.30 | X-H torsion
[ 10763 10752 10751 10750 ] final  170.30 input  -60.55 | X-H torsion
[ 11005 11000 10999 10996 ] final -119.44 input  -57.11 | X-H torsion

> <Gold.Protein.ActiveResidues>
 VAL166  LYS551  ARG553  GLY616  TRP617  ASP618  TYR619  PRO620  LYS621  CYS622 
 ASP623  PHE694  ASN695  SER759  ASP760  ASP761  ALA762  ILE779  LEU786  VAL792 
 PHE793  MET794  SER795  GLU796  ALA797  LYS798  CYS799  TRP800  GLU811  SER814 

> <Gold.Protein.RotatedAtoms>
  151.7135  135.0908  160.0271 H   0  0  0  0  0  0  0  0  0  0  0  0  # atno 6907 bound_to 6896
  152.3647  133.6337  159.6050 H   0  0  0  0  0  0  0  0  0  0  0  0  # atno 6908 bound_to 6896
  150.7629  133.9283  159.3460 H   0  0  0  0  0  0  0  0  0  0  0  0  # atno 6909 bound_to 6896
  146.1426  139.6407  142.9153 H   0  0  0  0  0  0  0  0  0  0  0  0  # atno 7974 bound_to 7965
  156.2300  140.2966  156.0164 H   0  0  0  0  0  0  0  0  0  0  0  0  # atno 8008 bound_to 7997
  155.2251  140.0417  157.2971 H   0  0  0  0  0  0  0  0  0  0  0  0  # atno 8009 bound_to 7997
  154.5980  140.2419  155.7839 H   0  0  0  0  0  0  0  0  0  0  0  0  # atno 8010 bound_to 7997
  139.9595  144.5971  150.8086 H   0  0  0  0  0  0  0  0  0  0  0  0  # atno 10167 bound_to 10162
  156.0174  130.5344  150.6868 H   0  0  0  0  0  0  0  0  0  0  0  0  # atno 10718 bound_to 10713
  154.3956  135.2754  155.2128 H   0  0  0  0  0  0  0  0  0  0  0  0  # atno 10763 bound_to 10752
  154.4176  135.6008  153.5993 H   0  0  0  0  0  0  0  0  0  0  0  0  # atno 10764 bound_to 10752
  152.9831  135.5964  154.4217 H   0  0  0  0  0  0  0  0  0  0  0  0  # atno 10765 bound_to 10752
  141.0215  134.0117  157.3275 H   0  0  0  0  0  0  0  0  0  0  0  0  # atno 11005 bound_to 11000
  145.5012  141.0437  143.2539 LP  0  0  0  0  0  0  0  0  0  0  0  0  # atno 17320 bound_to 7965
  144.7809  139.6528  143.7154 LP  0  0  0  0  0  0  0  0  0  0  0  0  # atno 17321 bound_to 7965
  140.7558  143.3053  151.2978 LP  0  0  0  0  0  0  0  0  0  0  0  0  # atno 17342 bound_to 10162
  139.6565  144.0266  152.2663 LP  0  0  0  0  0  0  0  0  0  0  0  0  # atno 17343 bound_to 10162
  157.4558  131.0878  151.0798 LP  0  0  0  0  0  0  0  0  0  0  0  0  # atno 17370 bound_to 10713
  157.1300  130.6098  149.5527 LP  0  0  0  0  0  0  0  0  0  0  0  0  # atno 17371 bound_to 10713
  139.9149  135.0195  156.7841 LP  0  0  0  0  0  0  0  0  0  0  0  0  # atno 17394 bound_to 11000
  140.6564  133.9684  155.7782 LP  0  0  0  0  0  0  0  0  0  0  0  0  # atno 17395 bound_to 11000

$$$$
