AV-unprocessed.smi:54|AV-procd|sdf|560|dock10
  -GOLD-   2262016463D 1   1.00000     0.00000
 Structure written by MMmdl.
 43 45  0  0  0  0  0  0  0  0  2 V2000
  146.2804  135.5163  161.7705 C   0  0  0  0  0  0  0  0  0  0  0  0
  146.8528  135.3851  160.3496 C   0  0  0  0  0  0  0  0  0  0  0  0
  147.2477  133.9320  160.0385 C   0  0  0  0  0  0  0  0  0  0  0  0
  148.0494  136.3274  160.1565 C   0  0  0  0  0  0  0  0  0  0  0  0
  148.3365  137.1246  161.0521 O   0  0  0  0  0  0  0  0  0  0  0  0
  148.6944  136.2043  158.9756 N   0  0  0  0  0  0  0  0  0  0  0  0
  149.7920  136.9237  158.4901 C   0  0  0  0  0  0  0  0  0  0  0  0
  149.5188  137.6029  157.4034 N   0  0  0  0  0  0  0  0  0  0  0  0
  150.6081  138.3023  156.9208 C   0  0  0  0  0  0  0  0  0  0  0  0
  151.8741  138.3342  157.4391 C   0  0  0  0  0  0  0  0  0  0  0  0
  152.7126  139.1458  156.6848 N   0  0  0  0  0  0  0  0  0  0  0  0
  151.8946  139.5758  155.7258 C   0  0  0  0  0  0  0  0  0  0  0  0
  150.6272  139.1233  155.7956 N   0  0  0  0  0  0  0  0  0  0  0  0
  149.5171  139.4554  154.8484 C   0  0  1  0  0  0  0  0  0  0  0  0
  148.3341  138.9217  155.3626 O   0  0  0  0  0  0  0  0  0  0  0  0
  147.2959  139.8930  155.3149 C   0  0  1  0  0  0  0  0  0  0  0  0
  146.2685  139.5864  156.4164 C   0  0  0  0  0  0  0  0  0  0  0  0
  146.8748  139.6252  157.6911 O   0  0  0  0  0  0  0  0  0  0  0  0
  148.0374  141.2222  155.4778 C   0  0  2  0  0  0  0  0  0  0  0  0
  147.3030  142.3257  154.9813 O   0  0  0  0  0  0  0  0  0  0  0  0
  149.3442  140.9782  154.7262 C   0  0  2  0  0  0  0  0  0  0  0  0
  149.2664  141.3641  153.3657 O   0  0  0  0  0  0  0  0  0  0  0  0
  152.1200  137.5319  158.6607 C   0  0  0  0  0  0  0  0  0  0  0  0
  153.2440  137.5293  159.1591 O   0  0  0  0  0  0  0  0  0  0  0  0
  151.0402  136.8436  159.1382 N   0  5  0  0  0  0  0  0  0  0  0  0
  149.7936  138.9655  153.9135 H   0  0  0  0  0  0  0  0  0  0  0  0
  146.8352  139.8328  154.3268 H   0  0  0  0  0  0  0  0  0  0  0  0
  148.2550  141.3990  156.5310 H   0  0  0  0  0  0  0  0  0  0  0  0
  150.1797  141.5072  155.1873 H   0  0  0  0  0  0  0  0  0  0  0  0
  146.0100  136.5489  161.9946 H   0  0  0  0  0  0  0  0  0  0  0  0
  146.9974  135.1883  162.5241 H   0  0  0  0  0  0  0  0  0  0  0  0
  145.3809  134.9110  161.8850 H   0  0  0  0  0  0  0  0  0  0  0  0
  146.0694  135.6747  159.6471 H   0  0  0  0  0  0  0  0  0  0  0  0
  147.6613  133.8405  159.0333 H   0  0  0  0  0  0  0  0  0  0  0  0
  146.3820  133.2720  160.0967 H   0  0  0  0  0  0  0  0  0  0  0  0
  147.9943  133.5594  160.7410 H   0  0  0  0  0  0  0  0  0  0  0  0
  148.2782  135.5455  158.3347 H   0  0  0  0  0  0  0  0  0  0  0  0
  152.2282  140.2455  154.9468 H   0  0  0  0  0  0  0  0  0  0  0  0
  145.4703  140.3286  156.3972 H   0  0  0  0  0  0  0  0  0  0  0  0
  145.8044  138.6119  156.2607 H   0  0  0  0  0  0  0  0  0  0  0  0
  146.6610  138.8264  158.1488 H   0  0  0  0  0  0  0  0  0  0  0  0
  147.8835  143.0701  154.9339 H   0  0  0  0  0  0  0  0  0  0  0  0
  149.2888  140.5839  152.8329 H   0  0  0  0  0  0  0  0  0  0  0  0
  1  2  1  0  0  0  0
  1 30  1  0  0  0  0
  1 31  1  0  0  0  0
  1 32  1  0  0  0  0
  2  3  1  0  0  0  0
  2  4  1  0  0  0  0
  2 33  1  0  0  0  0
  3 34  1  0  0  0  0
  3 35  1  0  0  0  0
  3 36  1  0  0  0  0
  4  5  2  0  0  0  0
  4  6  1  0  0  0  0
  6 37  1  0  0  0  0
  6  7  1  0  0  0  0
  7 25  1  0  0  0  0
  7  8  2  0  0  0  0
  8  9  1  0  0  0  0
  9 13  1  0  0  0  0
  9 10  2  0  0  0  0
 10 11  1  0  0  0  0
 10 23  1  0  0  0  0
 11 12  2  0  0  0  0
 12 13  1  0  0  0  0
 12 38  1  0  0  0  0
 13 14  1  0  0  0  0
 14 26  1  0  0  0  0
 14 21  1  0  0  0  0
 14 15  1  0  0  0  0
 15 16  1  0  0  0  0
 16 27  1  0  0  0  0
 16 17  1  0  0  0  0
 16 19  1  0  0  0  0
 17 18  1  0  0  0  0
 17 39  1  0  0  0  0
 17 40  1  0  0  0  0
 18 41  1  0  0  0  0
 19 28  1  0  0  0  0
 19 20  1  0  0  0  0
 19 21  1  0  0  0  0
 20 42  1  0  0  0  0
 21 29  1  0  0  0  0
 21 22  1  0  0  0  0
 22 43  1  0  0  0  0
 23 24  2  0  0  0  0
 23 25  1  0  0  0  0
M  CHG  1  25  -1
M  END
> <s_m_source_file>
AV-unprocessed.smi

> <i_m_source_file_index>
54

> <i_lp_mmshare_version>
43012

> <i_f3d_flags>
0

> <s_epik_input>
W0NIM11bQ0hdKFtDSDNdKUMoPU8pW05IXWMobjEpW25IXWMoPU8pYyhjMTIpbltjSF1uMltDQEBIXTNPW0NASF0oW0NIMl1bT0hdKVtDQEBIXShbT0hdKVtDQEhdM1tPSF0=

> <s_epik_cmdline>
J2VwaWtfcHl0aG9uJywgJy1waCcsICc3LjAnLCAnLXRuJywgJzgnLCAnLW1hJywgJzIwMCcsICctbWV0YWxfYmluZGluZycsICctaW1hZScsICc8aW5maWxlLm1hZT4nLCAnLW9tYWUnLCAnPG91dGZpbGUubWFlPic=

> <r_lp_tautomer_probability>
0.85571

> <r_epik_Ionization_Penalty>
1.75936

> <r_epik_Ionization_Penalty_Charging>
4.55893e-11

> <r_epik_Ionization_Penalty_Neutral>
1.75936

> <r_epik_State_Penalty>
1.72072

> <r_epik_Charging_Adjusted_Penalty>
1.72072

> <i_epik_Tot_Q>
-1

> <i_epik_Tot_abs_Q>
1

> <r_epik_Metal_State_Penalty>
0.400338

> <b_epik_Metal_Only>
1

> <s_epik_Chemistry_Notes>
This compound contains an acetal/aminal-like group ( X-CH(R)-Y where X, Y are N, S, or O) that may be acid/base labile, releasing an aldehyde.

> <s_lp_Force_Field>
OPLS_2005

> <r_lp_Energy>
61.5682

> <b_lp_Chiralities_Consistent>
1

> <s_lp_Variant>
AV-unprocessed.smi:54-32

> <Gold.Version>
5.8.1

> <Gold.Id.Protein>
6NUR|6NUR_protein|mol2

> <Gold.PLP.Fitness>
49.2370

> <Gold.PLP.PLP>
-29.1525

> <Gold.PLP.part.hbond>
-7.5049

> <Gold.PLP.part.metal>
0.0000

> <Gold.PLP.part.buried>
-3.6626

> <Gold.PLP.part.nonpolar>
-17.7469

> <Gold.PLP.part.repulsive>
0.1904

> <Gold.PLP.ligand.clash>
0.0000

> <Gold.PLP.ligand.torsion>
0.8035

> <Gold.PLP.Chemscore.Hbond>
7.2191

> <Gold.PLP.Chemscore.CHOScore>
0.0000

> <Gold.PLP.Chemscore.Metal>
0.0000

> <Gold.Chemscore.Hbonds>
donor molecule, donor type, donor heavy atom, donor atom, acceptor molecule, acceptor atom, score
      L1  H    20    42       P1  8028  1.00
      L1  H    22    43       P1  7957  0.82
      P1  H  6896  6907       L1    25  2.00
      P1  H  6931  6943       L1     5  1.00
      P1  H  6934  6947       L1     5  0.32
      P1  H  7997  8008       L1    11  1.00
      P1  H  8011  8017       L1    22  0.99

> <Gold.PLP.Chemscore.Internal.Correction>
0.0343

> <Gold.Rescore>
     Score         DG    S(hbond)    S(metal)    S(lipo)     H(rot)  DE(clash)    DE(int)     intcor
     14.55     -17.27       5.38        0.00      35.12       4.02       0.15       2.57       ----

> <Gold.Chemscore.Fitness>
14.5547

> <Gold.Chemscore.DG>
-17.2655

> <Gold.Chemscore.ZeroCoef>
-5.4800

> <Gold.Chemscore.Hbond>
5.3788

> <Gold.Chemscore.Metal>
0.0000

> <Gold.Chemscore.Lipo>
35.1238

> <Gold.Chemscore.Internal_Hbond>
0.0000

> <Gold.Chemscore.DEClash>
0.1455

> <Gold.Chemscore.DEInternal>
2.5653

> <Gold.Chemscore.Rot>
4.0192

> <Gold.Chemscore.Internal.Correction>
   9.000000E+99

> <Gold.Chemscore.Hbonds>
donor molecule, donor type, donor heavy atom, donor atom, acceptor molecule, acceptor atom, score
      L1  H    20    42       P1  8028  0.76
      L1  H    22    43       P1  7957  0.81
      P1  H  6896  6907       L1    25  0.75
      P1  H  6931  6943       L1     5  0.93
      P1  H  6934  6947       L1     5  0.29
      P1  H  7997  8008       L1    11  0.89
      P1  H  8011  8017       L1    22  0.23

> <Gold.Chemscore.Hbond.Weighted>
-17.9653

> <Gold.Chemscore.Metal.Weighted>
-0.0000

> <Gold.Chemscore.Lipo.Weighted>
-4.1095

> <Gold.Chemscore.Internal_Hbond.Weighted>
0.0000

> <Gold.Chemscore.DEClash.Weighted>
0.1455

> <Gold.Chemscore.DEInternal.Weighted>
2.5653

> <Gold.Chemscore.Rot.Weighted>
10.2893

> <Gold.Chemscore.Internal.Correction.Weighted>
   9.000000E+99

> <Gold.Protein.RotatedTorsions>
[ 6907 6896 6895 6894 ] final  -16.90 input  -60.11 | X-H torsion
[ 7974 7965 7964 7962 ] final  162.97 input  175.53 | X-H torsion
[ 8008 7997 7996 7995 ] final  -71.89 input   59.86 | X-H torsion
[ 10167 10162 10161 10158 ] final  -90.99 input  -65.29 | X-H torsion
[ 10718 10713 10712 10709 ] final -141.54 input   66.30 | X-H torsion
[ 10763 10752 10751 10750 ] final  158.16 input  -60.55 | X-H torsion
[ 11005 11000 10999 10996 ] final   89.60 input  -57.11 | X-H torsion

> <Gold.Protein.ActiveResidues>
 VAL166  LYS551  ARG553  GLY616  TRP617  ASP618  TYR619  PRO620  LYS621  CYS622 
 ASP623  PHE694  ASN695  SER759  ASP760  ASP761  ALA762  ILE779  LEU786  VAL792 
 PHE793  MET794  SER795  GLU796  ALA797  LYS798  CYS799  TRP800  GLU811  SER814 

> <Gold.Protein.RotatedAtoms>
  151.3015  135.0770  159.9240 H   0  0  0  0  0  0  0  0  0  0  0  0  # atno 6907 bound_to 6896
  152.5296  133.9828  159.7825 H   0  0  0  0  0  0  0  0  0  0  0  0  # atno 6908 bound_to 6896
  151.0115  133.5909  159.2712 H   0  0  0  0  0  0  0  0  0  0  0  0  # atno 6909 bound_to 6896
  144.7611  139.8116  143.6332 H   0  0  0  0  0  0  0  0  0  0  0  0  # atno 7974 bound_to 7965
  154.5123  140.0807  156.8014 H   0  0  0  0  0  0  0  0  0  0  0  0  # atno 8008 bound_to 7997
  155.3757  140.3425  155.4226 H   0  0  0  0  0  0  0  0  0  0  0  0  # atno 8009 bound_to 7997
  156.1587  140.1581  156.8635 H   0  0  0  0  0  0  0  0  0  0  0  0  # atno 8010 bound_to 7997
  140.3494  143.2899  151.9744 H   0  0  0  0  0  0  0  0  0  0  0  0  # atno 10167 bound_to 10162
  156.3353  130.7608  151.1734 H   0  0  0  0  0  0  0  0  0  0  0  0  # atno 10718 bound_to 10713
  154.2116  135.2786  155.2956 H   0  0  0  0  0  0  0  0  0  0  0  0  # atno 10763 bound_to 10752
  154.5774  135.5600  153.7155 H   0  0  0  0  0  0  0  0  0  0  0  0  # atno 10764 bound_to 10752
  153.0063  135.6336  154.2255 H   0  0  0  0  0  0  0  0  0  0  0  0  # atno 10765 bound_to 10752
  139.8872  134.8561  156.3164 H   0  0  0  0  0  0  0  0  0  0  0  0  # atno 11005 bound_to 11000
  146.1675  139.4812  142.9949 LP  0  0  0  0  0  0  0  0  0  0  0  0  # atno 17320 bound_to 7965
  145.6616  141.0239  143.1706 LP  0  0  0  0  0  0  0  0  0  0  0  0  # atno 17321 bound_to 7965
  139.4828  144.6089  151.7470 LP  0  0  0  0  0  0  0  0  0  0  0  0  # atno 17342 bound_to 10162
  140.5233  144.0844  150.6029 LP  0  0  0  0  0  0  0  0  0  0  0  0  # atno 17343 bound_to 10162
  157.7437  131.0470  150.4921 LP  0  0  0  0  0  0  0  0  0  0  0  0  # atno 17370 bound_to 10713
  156.5093  130.4135  149.6310 LP  0  0  0  0  0  0  0  0  0  0  0  0  # atno 17371 bound_to 10713
  140.9816  133.7264  156.0680 LP  0  0  0  0  0  0  0  0  0  0  0  0  # atno 17394 bound_to 11000
  140.7742  134.3798  157.5501 LP  0  0  0  0  0  0  0  0  0  0  0  0  # atno 17395 bound_to 11000

$$$$
