#       Name:                AV-unprocessed.smi:287
#       Creating user name   scv26
#       Creation time:       Thu Mar 26 21:59:27 2020


#       File generated by GOLD software.
#

@<TRIPOS>MOLECULE
AV-unprocessed.smi:287
    70    73     1
SMALL
NO_CHARGES


@<TRIPOS>ATOM
      1 ****         0.6101   5.1009  -4.2125 C.3            1 S1                 0.0000
      2 ****         0.0919   4.9653  -2.8218 C.2            1 S1                 0.0000
      3 ****        -0.6159   3.9996  -2.1677 C.2            1 S1                 0.0000
      4 ****        -0.8111   4.4479  -0.8273 C.2            1 S1                 0.0000
      5 ****        -1.5502   3.6899   0.2668 C.3            1 S1                 0.0000
      6 ****        -3.0603   3.6997  -0.0223 C.3            1 S1                 0.0000
      7 ****        -1.4097   4.2854   1.5424 O.3            1 S1                 0.0000
      8 ****        -1.0453   2.2365   0.4117 C.3            1 S1                 0.0000
      9 ****         0.4092   2.1411   0.4208 N.pl3          1 S1                 0.0000
     10 ****         1.0298   0.9440   0.3684 C.ar           1 S1                 0.0000
     11 ****         2.3824   0.9907   0.3082 N.ar           1 S1                 0.0000
     12 ****         3.0931  -0.1392   0.2491 C.ar           1 S1                 0.0000
     13 ****         2.6563  -1.4000   0.2382 N.ar           1 S1                 0.0000
     14 ****         1.2948  -1.4544   0.2982 C.ar           1 S1                 0.0000
     15 ****         0.4094  -0.3408   0.3695 C.ar           1 S1                 0.0000
     16 ****        -0.9017  -0.8040   0.4281 N.2            1 S1                 0.0000
     17 ****        -0.7908  -2.1041   0.3906 C.2            1 S1                 0.0000
     18 ****         0.4995  -2.5775   0.3096 N.pl3          1 S1                 0.0000
     19 ****         0.9794  -3.9917   0.2585 C.3            1 S1                 0.0000
     20 ****        -0.0423  -4.7785  -0.2549 O.3            1 S1                 0.0000
     21 ****         0.1891  -6.1116   0.1670 C.3            1 S1                 0.0000
     22 ****        -1.1051  -6.9266   0.0184 C.3            1 S1                 0.0000
     23 ****        -0.8562  -8.2958   0.2552 O.3            1 S1                 0.0000
     24 ****         0.6919  -5.9572   1.6121 C.3            1 S1                 0.0000
     25 ****         1.6613  -6.9462   1.8964 O.3            1 S1                 0.0000
     26 ****         1.3242  -4.5640   1.6482 C.3            1 S1                 0.0000
     27 ****         0.8064  -3.8056   2.7273 O.3            1 S1                 0.0000
     28 ****        -0.2033   5.6796  -0.7776 C.2            1 S1                 0.0000
     29 ****        -0.0294   6.7095   0.2895 C.3            1 S1                 0.0000
     30 ****         0.3489   5.9986  -1.9814 O.3            1 S1                 0.0000
     31 ****         1.8282  -3.9893  -0.4279 H              1 S1                 0.0000
     32 ****         0.9728  -6.5207  -0.4749 H              1 S1                 0.0000
     33 ****        -0.1358  -6.0311   2.3196 H              1 S1                 0.0000
     34 ****         2.4110  -4.5988   1.7368 H              1 S1                 0.0000
     35 ****         0.5914   4.1413  -4.7295 H              1 S1                 0.0000
     36 ****         1.6386   5.4624  -4.2102 H              1 S1                 0.0000
     37 ****         0.0037   5.8045  -4.7830 H              1 S1                 0.0000
     38 ****        -0.9534   3.0696  -2.6006 H              1 S1                 0.0000
     39 ****        -3.2838   3.2209  -0.9763 H              1 S1                 0.0000
     40 ****        -3.4485   4.7182  -0.0685 H              1 S1                 0.0000
     41 ****        -3.6188   3.1672   0.7485 H              1 S1                 0.0000
     42 ****        -1.8977   3.7725   2.1682 H              1 S1                 0.0000
     43 ****        -1.4618   1.7667   1.3039 H              1 S1                 0.0000
     44 ****        -1.4022   1.6644  -0.4455 H              1 S1                 0.0000
     45 ****         0.9037   3.0217   0.4223 H              1 S1                 0.0000
     46 ****         4.1649  -0.0148   0.2025 H              1 S1                 0.0000
     47 ****        -1.6520  -2.7556   0.4259 H              1 S1                 0.0000
     48 ****        -1.8756  -6.5679   0.7015 H              1 S1                 0.0000
     49 ****        -1.4984  -6.8228  -0.9933 H              1 S1                 0.0000
     50 ****        -0.5041  -8.3908   1.1273 H              1 S1                 0.0000
     51 ****         1.9692  -6.8173   2.7810 H              1 S1                 0.0000
     52 ****         1.1464  -2.9258   2.6623 H              1 S1                 0.0000
     53 ****        -0.9912   6.9815   0.7246 H              1 S1                 0.0000
     54 ****         0.4260   7.6169  -0.1080 H              1 S1                 0.0000
     55 ****         0.6112   6.3334   1.0872 H              1 S1                 0.0000
     56 ****        -1.7669   5.2192   1.5199 LP             1 S1                 0.0000
     57 ****        -0.4440   4.3041   1.8014 LP             1 S1                 0.0000
     58 ****         2.8507   1.8743   0.3079 LP             1 S1                 0.0000
     59 ****         3.2512  -2.2024   0.1919 LP             1 S1                 0.0000
     60 ****        -1.7404  -0.2624   0.4859 LP             1 S1                 0.0000
     61 ****        -0.0394  -4.7317  -1.2538 LP             1 S1                 0.0000
     62 ****        -0.9247  -4.4597   0.0911 LP             1 S1                 0.0000
     63 ****        -0.1971  -8.6393  -0.4138 LP             1 S1                 0.0000
     64 ****        -1.7093  -8.8118   0.1779 LP             1 S1                 0.0000
     65 ****         2.4259  -6.8630   1.2572 LP             1 S1                 0.0000
     66 ****         1.2522  -7.8546   1.8103 LP             1 S1                 0.0000
     67 ****         1.0901  -4.2144   3.5946 LP             1 S1                 0.0000
     68 ****        -0.1922  -3.7865   2.6786 LP             1 S1                 0.0000
     69 ****        -0.0610   6.8393  -2.3354 LP             1 S1                 0.0000
     70 ****         1.3361   6.1246  -1.8839 LP             1 S1                 0.0000
@<TRIPOS>BOND
    1    1    2 1     
    2    1   35 1     
    3    1   36 1     
    4    1   37 1     
    5    2   30 1     
    6    2    3 2     
    7    3    4 1     
    8    3   38 1     
    9    4    5 1     
   10    4   28 2     
   11    5    6 1     
   12    5    7 1     
   13    5    8 1     
   14    6   39 1     
   15    6   40 1     
   16    6   41 1     
   17    7   42 1     
   18    8    9 1     
   19    8   43 1     
   20    8   44 1     
   21    9   10 1     
   22    9   45 1     
   23   10   15 ar    
   24   10   11 ar    
   25   11   12 ar    
   26   12   13 ar    
   27   12   46 1     
   28   13   14 ar    
   29   14   18 1     
   30   14   15 ar    
   31   15   16 1     
   32   16   17 2     
   33   17   18 1     
   34   17   47 1     
   35   18   19 1     
   36   19   31 1     
   37   19   26 1     
   38   19   20 1     
   39   20   21 1     
   40   21   32 1     
   41   21   22 1     
   42   21   24 1     
   43   22   23 1     
   44   22   48 1     
   45   22   49 1     
   46   23   50 1     
   47   24   33 1     
   48   24   25 1     
   49   24   26 1     
   50   25   51 1     
   51   26   34 1     
   52   26   27 1     
   53   27   52 1     
   54   28   29 1     
   55   28   30 1     
   56   29   53 1     
   57   29   54 1     
   58   29   55 1     
   59    7   56 1     
   60    7   57 1     
   61   11   58 1     
   62   13   59 1     
   63   16   60 1     
   64   20   61 1     
   65   20   62 1     
   66   23   63 1     
   67   23   64 1     
   68   25   65 1     
   69   25   66 1     
   70   27   67 1     
   71   27   68 1     
   72   30   69 1     
   73   30   70 1     
@<TRIPOS>SUBSTRUCTURE
      1 S1             1
@<TRIPOS>SET
LONE_PAIRS      STATIC     ATOMS    <user>   **** ""
15 56 57 58 59 60 61 62 63 64 65 66 67 68 69 70
DONOR_HYDROGENS      STATIC     ATOMS    <user>   **** ""
5 42 45 50 51 52
ATOM$BLUE        STATIC     ATOMS    COLORGROUP SYSTEM
15 56 57 58 59 60 61 62 63 64 65 66 67 68 69 70
ATOM$RED        STATIC     ATOMS    COLORGROUP SYSTEM
5 42 45 50 51 52
