AV-unprocessed.smi:592|AV-procd|sdf|3012|dock6
  -GOLD-   2262023523D 1   1.00000     0.00000
 Structure written by MMmdl.
 27 28  0  0  0  0  0  0  0  0  1 V2000
  150.0259  140.0744  157.5549 O   0  0  0  0  0  0  0  0  0  0  0  0
  150.5805  140.8853  156.8082 C   0  0  0  0  0  0  0  0  0  0  0  0
  150.7835  140.5034  155.3370 C   0  0  0  0  0  0  0  0  0  0  0  0
  149.4980  140.3135  154.6468 N   0  0  0  0  0  0  0  0  0  0  0  0
  148.6765  141.4508  154.5132 C   0  0  0  0  0  0  0  0  0  0  0  0
  147.4778  141.3958  153.9117 C   0  0  0  0  0  0  0  0  0  0  0  0
  147.0334  140.1246  153.3917 C   0  0  0  0  0  0  0  0  0  0  0  0
  147.8112  139.0304  153.5128 C   0  0  0  0  0  0  0  0  0  0  0  0
  149.1231  139.0865  154.1685 C   0  0  0  0  0  0  0  0  0  0  0  0
  149.8370  138.0900  154.2813 O   0  0  0  0  0  0  0  0  0  0  0  0
  151.0829  142.1492  157.0981 N   0  0  0  0  0  0  0  0  0  0  0  0
  151.7926  142.3684  158.1635 C   0  0  0  0  0  0  0  0  0  0  0  0
  152.1719  141.4724  159.1585 N   0  0  0  0  0  0  0  0  0  0  0  0
  153.2478  141.8745  160.0456 C   0  0  0  0  0  0  0  0  0  0  0  0
  153.1824  143.3931  160.1815 C   0  0  0  0  0  0  0  0  0  0  0  0
  152.4952  143.9755  158.6214 S   0  0  0  0  0  0  0  0  0  0  0  0
  151.3540  141.2926  154.8443 H   0  0  0  0  0  0  0  0  0  0  0  0
  151.4169  139.6167  155.2662 H   0  0  0  0  0  0  0  0  0  0  0  0
  149.0811  142.3601  154.9341 H   0  0  0  0  0  0  0  0  0  0  0  0
  146.8612  142.2781  153.8220 H   0  0  0  0  0  0  0  0  0  0  0  0
  146.0723  140.0501  152.9047 H   0  0  0  0  0  0  0  0  0  0  0  0
  147.4614  138.0874  153.1191 H   0  0  0  0  0  0  0  0  0  0  0  0
  153.1593  141.3819  161.0141 H   0  0  0  0  0  0  0  0  0  0  0  0
  154.1961  141.5700  159.6014 H   0  0  0  0  0  0  0  0  0  0  0  0
  152.4988  143.6735  160.9833 H   0  0  0  0  0  0  0  0  0  0  0  0
  154.1559  143.8379  160.3879 H   0  0  0  0  0  0  0  0  0  0  0  0
  151.9304  140.4915  159.1457 H   0  0  0  0  0  0  0  0  0  0  0  0
  1  2  2  0  0  0  0
  2  3  1  0  0  0  0
  2 11  1  0  0  0  0
  3  4  1  0  0  0  0
  3 17  1  0  0  0  0
  3 18  1  0  0  0  0
  4  9  1  0  0  0  0
  4  5  1  0  0  0  0
  5  6  2  0  0  0  0
  5 19  1  0  0  0  0
  6  7  1  0  0  0  0
  6 20  1  0  0  0  0
  7  8  2  0  0  0  0
  7 21  1  0  0  0  0
  8  9  1  0  0  0  0
  8 22  1  0  0  0  0
  9 10  2  0  0  0  0
 11 12  2  0  0  0  0
 12 16  1  0  0  0  0
 12 13  1  0  0  0  0
 13 14  1  0  0  0  0
 13 27  1  0  0  0  0
 14 15  1  0  0  0  0
 14 23  1  0  0  0  0
 14 24  1  0  0  0  0
 15 16  1  0  0  0  0
 15 25  1  0  0  0  0
 15 26  1  0  0  0  0
M  END
> <s_m_source_file>
AV-unprocessed.smi

> <i_m_source_file_index>
592

> <i_lp_mmshare_version>
43012

> <i_f3d_flags>
0

> <s_epik_input>
UzFbQ0gyXVtDSDJdTj1DMVtOSF1DKD1PKVtDSDJdbjJbY0hdW2NIXVtjSF1bY0hdYzI9Tw==

> <s_epik_cmdline>
J2VwaWtfcHl0aG9uJywgJy1waCcsICc3LjAnLCAnLXRuJywgJzgnLCAnLW1hJywgJzIwMCcsICctbWV0YWxfYmluZGluZycsICctaW1hZScsICc8aW5maWxlLm1hZT4nLCAnLW9tYWUnLCAnPG91dGZpbGUubWFlPic=

> <r_lp_tautomer_probability>
1

> <r_epik_Ionization_Penalty>
2.71369

> <r_epik_Ionization_Penalty_Charging>
3.63323e-07

> <r_epik_Ionization_Penalty_Neutral>
2.71369

> <r_epik_State_Penalty>
1.599

> <r_epik_Charging_Adjusted_Penalty>
1.599

> <i_epik_Tot_Q>
0

> <i_epik_Tot_abs_Q>
0

> <r_epik_Metal_State_Penalty>
1.59596

> <b_epik_Metal_Only>
1

> <s_epik_Chemistry_Notes>
This compound has an imine and may undergo hydrolysis.

> <s_lp_Force_Field>
OPLS_2005

> <r_lp_Energy>
29.0057

> <b_lp_Chiralities_Consistent>
1

> <s_lp_Variant>
AV-unprocessed.smi:592-3

> <Gold.Version>
5.8.1

> <Gold.Id.Protein>
6NUR|6NUR_protein|mol2

> <Gold.PLP.Fitness>
36.0110

> <Gold.PLP.PLP>
-33.8209

> <Gold.PLP.part.hbond>
0.0000

> <Gold.PLP.part.metal>
0.0000

> <Gold.PLP.part.buried>
-2.6338

> <Gold.PLP.part.nonpolar>
-31.2773

> <Gold.PLP.part.repulsive>
0.4371

> <Gold.PLP.ligand.clash>
0.0000

> <Gold.PLP.ligand.torsion>
0.4063

> <Gold.PLP.Chemscore.Hbond>
0.0000

> <Gold.PLP.Chemscore.CHOScore>
1.0000

> <Gold.PLP.Chemscore.Metal>
0.0000

> <Gold.Chemscore.Hbonds>
donor molecule, donor type, donor heavy atom, donor atom, acceptor molecule, acceptor atom, score
      L1  C     5    19       P1  8028  1.00

> <Gold.PLP.Chemscore.Internal.Correction>
0.0027

> <Gold.Rescore>
     Score         DG    S(hbond)    S(metal)    S(lipo)     H(rot)  DE(clash)    DE(int)     intcor
     10.25     -10.85       0.00        0.00      75.01       1.33       0.10       0.50       ----

> <Gold.Chemscore.Fitness>
10.2481

> <Gold.Chemscore.DG>
-10.8487

> <Gold.Chemscore.ZeroCoef>
-5.4800

> <Gold.Chemscore.Hbond>
0.0000

> <Gold.Chemscore.Metal>
0.0000

> <Gold.Chemscore.Lipo>
75.0065

> <Gold.Chemscore.Internal_Hbond>
0.0000

> <Gold.Chemscore.DEClash>
0.1030

> <Gold.Chemscore.DEInternal>
0.4976

> <Gold.Chemscore.Rot>
1.3309

> <Gold.Chemscore.Internal.Correction>
   9.000000E+99

> <Gold.Chemscore.Hbond.Weighted>
-0.0000

> <Gold.Chemscore.Metal.Weighted>
-0.0000

> <Gold.Chemscore.Lipo.Weighted>
-8.7758

> <Gold.Chemscore.Internal_Hbond.Weighted>
0.0000

> <Gold.Chemscore.DEClash.Weighted>
0.1030

> <Gold.Chemscore.DEInternal.Weighted>
0.4976

> <Gold.Chemscore.Rot.Weighted>
3.4071

> <Gold.Chemscore.Internal.Correction.Weighted>
   9.000000E+99

> <Gold.Protein.RotatedTorsions>
[ 6907 6896 6895 6894 ] final -155.61 input  -60.11 | X-H torsion
[ 7974 7965 7964 7962 ] final   95.87 input  175.53 | X-H torsion
[ 8008 7997 7996 7995 ] final  172.58 input   59.86 | X-H torsion
[ 10167 10162 10161 10158 ] final    7.70 input  -65.29 | X-H torsion
[ 10718 10713 10712 10709 ] final  -88.50 input   66.30 | X-H torsion
[ 10763 10752 10751 10750 ] final   48.86 input  -60.55 | X-H torsion
[ 11005 11000 10999 10996 ] final  115.39 input  -57.11 | X-H torsion

> <Gold.Protein.ActiveResidues>
 VAL166  LYS551  ARG553  GLY616  TRP617  ASP618  TYR619  PRO620  LYS621  CYS622 
 ASP623  PHE694  ASN695  SER759  ASP760  ASP761  ALA762  ILE779  LEU786  VAL792 
 PHE793  MET794  SER795  GLU796  ALA797  LYS798  CYS799  TRP800  GLU811  SER814 

> <Gold.Protein.RotatedAtoms>
  151.2751  133.4236  159.2623 H   0  0  0  0  0  0  0  0  0  0  0  0  # atno 6907 bound_to 6896
  151.0410  134.9607  159.8172 H   0  0  0  0  0  0  0  0  0  0  0  0  # atno 6908 bound_to 6896
  152.5365  134.2709  159.9024 H   0  0  0  0  0  0  0  0  0  0  0  0  # atno 6909 bound_to 6896
  145.4464  139.2297  143.3063 H   0  0  0  0  0  0  0  0  0  0  0  0  # atno 7974 bound_to 7965
  156.1160  140.1482  156.9271 H   0  0  0  0  0  0  0  0  0  0  0  0  # atno 8008 bound_to 7997
  154.4801  140.0882  156.7399 H   0  0  0  0  0  0  0  0  0  0  0  0  # atno 8009 bound_to 7997
  155.4512  140.3435  155.4303 H   0  0  0  0  0  0  0  0  0  0  0  0  # atno 8010 bound_to 7997
  140.6357  143.7892  150.7356 H   0  0  0  0  0  0  0  0  0  0  0  0  # atno 10167 bound_to 10162
  155.9983  130.4838  150.5029 H   0  0  0  0  0  0  0  0  0  0  0  0  # atno 10718 bound_to 10713
  152.9789  135.5930  154.3994 H   0  0  0  0  0  0  0  0  0  0  0  0  # atno 10763 bound_to 10752
  154.3641  135.2767  155.2305 H   0  0  0  0  0  0  0  0  0  0  0  0  # atno 10764 bound_to 10752
  154.4289  135.6041  153.6111 H   0  0  0  0  0  0  0  0  0  0  0  0  # atno 10765 bound_to 10752
  139.9009  134.9583  156.7039 H   0  0  0  0  0  0  0  0  0  0  0  0  # atno 11005 bound_to 11000
  146.2528  140.5219  142.8886 LP  0  0  0  0  0  0  0  0  0  0  0  0  # atno 17320 bound_to 7965
  144.8089  140.6349  143.6428 LP  0  0  0  0  0  0  0  0  0  0  0  0  # atno 17321 bound_to 7965
  140.1513  143.4355  152.2129 LP  0  0  0  0  0  0  0  0  0  0  0  0  # atno 17342 bound_to 10162
  139.5567  144.7378  151.4273 LP  0  0  0  0  0  0  0  0  0  0  0  0  # atno 17343 bound_to 10162
  157.3011  131.0645  151.2067 LP  0  0  0  0  0  0  0  0  0  0  0  0  # atno 17370 bound_to 10713
  157.3046  130.6860  149.6182 LP  0  0  0  0  0  0  0  0  0  0  0  0  # atno 17371 bound_to 10713
  140.7129  133.9207  155.8096 LP  0  0  0  0  0  0  0  0  0  0  0  0  # atno 17394 bound_to 11000
  141.0286  134.0788  157.4040 LP  0  0  0  0  0  0  0  0  0  0  0  0  # atno 17395 bound_to 11000

$$$$
