AV-unprocessed.smi:2784|AV-procd|sdf|10730|dock7
  -GOLD-   2272015163D 1   1.00000     0.00000
 Structure written by MMmdl.
 32 33  0  0  0  0  0  0  0  0  2 V2000
  149.3442  138.9929  153.8880 C   0  0  0  0  0  0  0  0  0  0  0  0
  149.1997  140.4014  153.9780 O   0  0  0  0  0  0  0  0  0  0  0  0
  147.8775  140.8567  153.7262 C   0  0  2  0  0  0  0  0  0  0  0  0
  147.6716  142.2182  154.3963 C   0  0  0  0  0  0  0  0  0  0  0  0
  146.1795  142.2680  154.7056 C   0  0  0  0  0  0  0  0  0  0  0  0
  145.8463  140.8386  155.1311 C   0  0  0  0  0  0  0  0  0  0  0  0
  146.7966  139.9292  154.3290 C   0  0  1  0  0  0  0  0  0  0  0  0
  146.0716  139.2311  153.2694 N   0  0  0  0  0  0  0  0  0  0  0  0
  146.0873  137.9061  153.0649 C   0  0  0  0  0  0  0  0  0  0  0  0
  146.7148  137.1119  153.7658 O   0  0  0  0  0  0  0  0  0  0  0  0
  145.3372  137.5615  152.0073 N   0  0  0  0  0  0  0  0  0  0  0  0
  145.1731  136.2505  151.5038 C   0  0  0  0  0  0  0  0  0  0  0  0
  146.1679  135.3758  151.3643 N   0  3  0  0  0  0  0  0  0  0  0  0
  145.6580  134.2056  150.8586 C   0  0  0  0  0  0  0  0  0  0  0  0
  144.3101  134.4224  150.7021 C   0  0  0  0  0  0  0  0  0  0  0  0
  143.9899  135.7039  151.1034 O   0  0  0  0  0  0  0  0  0  0  0  0
  150.3834  138.7210  154.0729 H   0  0  0  0  0  0  0  0  0  0  0  0
  149.0747  138.6319  152.8948 H   0  0  0  0  0  0  0  0  0  0  0  0
  148.7295  138.4764  154.6256 H   0  0  0  0  0  0  0  0  0  0  0  0
  147.7233  140.9871  152.6527 H   0  0  0  0  0  0  0  0  0  0  0  0
  148.2333  142.2633  155.3305 H   0  0  0  0  0  0  0  0  0  0  0  0
  148.0018  143.0480  153.7705 H   0  0  0  0  0  0  0  0  0  0  0  0
  145.9325  143.0033  155.4721 H   0  0  0  0  0  0  0  0  0  0  0  0
  145.6238  142.5247  153.8028 H   0  0  0  0  0  0  0  0  0  0  0  0
  146.0558  140.7247  156.1957 H   0  0  0  0  0  0  0  0  0  0  0  0
  144.7909  140.6026  154.9871 H   0  0  0  0  0  0  0  0  0  0  0  0
  147.2599  139.2145  155.0120 H   0  0  0  0  0  0  0  0  0  0  0  0
  145.5239  139.8062  152.6461 H   0  0  0  0  0  0  0  0  0  0  0  0
  147.1471  135.5101  151.5831 H   0  0  0  0  0  0  0  0  0  0  0  0
  146.2917  133.3519  150.6647 H   0  0  0  0  0  0  0  0  0  0  0  0
  143.4930  133.8131  150.3437 H   0  0  0  0  0  0  0  0  0  0  0  0
  144.8562  138.2984  151.5133 H   0  0  0  0  0  0  0  0  0  0  0  0
  1  2  1  0  0  0  0
  1 17  1  0  0  0  0
  1 18  1  0  0  0  0
  1 19  1  0  0  0  0
  2  3  1  0  0  0  0
  3  7  1  0  0  0  0
  3  4  1  0  0  0  0
  3 20  1  0  0  0  0
  4  5  1  0  0  0  0
  4 21  1  0  0  0  0
  4 22  1  0  0  0  0
  5  6  1  0  0  0  0
  5 23  1  0  0  0  0
  5 24  1  0  0  0  0
  6  7  1  0  0  0  0
  6 25  1  0  0  0  0
  6 26  1  0  0  0  0
  7  8  1  0  0  0  0
  7 27  1  0  0  0  0
  8 28  1  0  0  0  0
  8  9  1  0  0  0  0
  9 11  1  0  0  0  0
  9 10  2  0  0  0  0
 11 12  1  0  0  0  0
 11 32  1  0  0  0  0
 12 16  1  0  0  0  0
 12 13  2  0  0  0  0
 13 29  1  0  0  0  0
 13 14  1  0  0  0  0
 14 30  1  0  0  0  0
 14 15  2  0  0  0  0
 15 31  1  0  0  0  0
 15 16  1  0  0  0  0
M  CHG  1  13   1
M  END
> <s_m_source_file>
AV-unprocessed.smi

> <i_m_source_file_index>
2784

> <i_lp_mmshare_version>
43012

> <i_f3d_flags>
0

> <s_epik_input>
W0NIM11PW0NAQEhdMVtDSDJdW0NIMl1bQ0gyXVtDQEhdMVtOSF1DKD1PKVtOSF1jMm5bY0hdW2NIXW8y

> <s_epik_cmdline>
J2VwaWtfcHl0aG9uJywgJy1waCcsICc3LjAnLCAnLXRuJywgJzgnLCAnLW1hJywgJzIwMCcsICctbWV0YWxfYmluZGluZycsICctaW1hZScsICc8aW5maWxlLm1hZT4nLCAnLW9tYWUnLCAnPG91dGZpbGUubWFlPic=

> <r_epik_Ionization_Penalty>
6.73843

> <r_epik_Ionization_Penalty_Charging>
6.66704

> <r_epik_Ionization_Penalty_Neutral>
0.0713889

> <r_epik_State_Penalty>
1.94951

> <r_epik_Charging_Adjusted_Penalty>
8.61656

> <i_epik_Tot_Q>
1

> <i_epik_Tot_abs_Q>
1

> <r_epik_Metal_State_Penalty>
1.97013

> <b_epik_Metal_Only>
0

> <s_lp_Force_Field>
OPLS_2005

> <r_lp_Energy>
26.9129

> <b_lp_Chiralities_Consistent>
1

> <s_lp_Variant>
AV-unprocessed.smi:2784-5

> <Gold.Version>
5.8.1

> <Gold.Id.Protein>
6NUR|6NUR_protein|mol2

> <Gold.PLP.Fitness>
34.7672

> <Gold.PLP.PLP>
-24.1181

> <Gold.PLP.part.hbond>
-3.0314

> <Gold.PLP.part.metal>
0.0000

> <Gold.PLP.part.buried>
-2.4253

> <Gold.PLP.part.nonpolar>
-20.2352

> <Gold.PLP.part.repulsive>
1.5044

> <Gold.PLP.ligand.clash>
0.0060

> <Gold.PLP.ligand.torsion>
0.6197

> <Gold.PLP.Chemscore.Hbond>
3.5040

> <Gold.PLP.Chemscore.CHOScore>
0.4589

> <Gold.PLP.Chemscore.Metal>
0.0000

> <Gold.Chemscore.Hbonds>
donor molecule, donor type, donor heavy atom, donor atom, acceptor molecule, acceptor atom, score
      L1  H     8    28       P1 10175  0.80
      L1  H    11    32       P1 10171  0.80
      L1  H    13    29       P1  7948  2.00
      L1  C    15    31       P1 10186  0.63

> <Gold.PLP.Chemscore.Internal.Correction>
0.0059

> <Gold.Rescore>
     Score         DG    S(hbond)    S(metal)    S(lipo)     H(rot)  DE(clash)    DE(int)     intcor
     14.32     -15.19       2.35        0.00      45.20       1.34       0.33       0.54       ----

> <Gold.Chemscore.Fitness>
14.3217

> <Gold.Chemscore.DG>
-15.1927

> <Gold.Chemscore.ZeroCoef>
-5.4800

> <Gold.Chemscore.Hbond>
2.3479

> <Gold.Chemscore.Metal>
0.0000

> <Gold.Chemscore.Lipo>
45.2003

> <Gold.Chemscore.Internal_Hbond>
0.0000

> <Gold.Chemscore.DEClash>
0.3318

> <Gold.Chemscore.DEInternal>
0.5391

> <Gold.Chemscore.Rot>
1.3351

> <Gold.Chemscore.Internal.Correction>
   9.000000E+99

> <Gold.Chemscore.Hbonds>
donor molecule, donor type, donor heavy atom, donor atom, acceptor molecule, acceptor atom, score
      L1  H     8    28       P1 10175  0.78
      L1  H    11    32       P1 10171  0.77
      L1  H    13    29       P1  7948  0.98

> <Gold.Chemscore.Hbond.Weighted>
-7.8420

> <Gold.Chemscore.Metal.Weighted>
-0.0000

> <Gold.Chemscore.Lipo.Weighted>
-5.2884

> <Gold.Chemscore.Internal_Hbond.Weighted>
0.0000

> <Gold.Chemscore.DEClash.Weighted>
0.3318

> <Gold.Chemscore.DEInternal.Weighted>
0.5391

> <Gold.Chemscore.Rot.Weighted>
3.4177

> <Gold.Chemscore.Internal.Correction.Weighted>
   9.000000E+99

> <Gold.Protein.RotatedTorsions>
[ 6907 6896 6895 6894 ] final  -53.59 input  -60.11 | X-H torsion
[ 7974 7965 7964 7962 ] final -135.54 input  175.53 | X-H torsion
[ 8008 7997 7996 7995 ] final   -8.71 input   59.86 | X-H torsion
[ 10167 10162 10161 10158 ] final  136.62 input  -65.29 | X-H torsion
[ 10718 10713 10712 10709 ] final  -82.54 input   66.30 | X-H torsion
[ 10763 10752 10751 10750 ] final  170.16 input  -60.55 | X-H torsion
[ 11005 11000 10999 10996 ] final  -16.62 input  -57.11 | X-H torsion

> <Gold.Protein.ActiveResidues>
 VAL166  LYS551  ARG553  GLY616  TRP617  ASP618  TYR619  PRO620  LYS621  CYS622 
 ASP623  PHE694  ASN695  SER759  ASP760  ASP761  ALA762  ILE779  LEU786  VAL792 
 PHE793  MET794  SER795  GLU796  ALA797  LYS798  CYS799  TRP800  GLU811  SER814 

> <Gold.Protein.RotatedAtoms>
  150.8413  134.7706  159.6934 H   0  0  0  0  0  0  0  0  0  0  0  0  # atno 6907 bound_to 6896
  152.4500  134.5410  159.9849 H   0  0  0  0  0  0  0  0  0  0  0  0  # atno 6908 bound_to 6896
  151.5550  133.3374  159.2996 H   0  0  0  0  0  0  0  0  0  0  0  0  # atno 6909 bound_to 6896
  144.9005  140.6765  143.5088 H   0  0  0  0  0  0  0  0  0  0  0  0  # atno 7974 bound_to 7965
  154.5716  140.2374  155.8184 H   0  0  0  0  0  0  0  0  0  0  0  0  # atno 8008 bound_to 7997
  156.2111  140.3026  155.9692 H   0  0  0  0  0  0  0  0  0  0  0  0  # atno 8009 bound_to 7997
  155.2703  140.0418  157.2997 H   0  0  0  0  0  0  0  0  0  0  0  0  # atno 8010 bound_to 7997
  139.5173  144.6455  151.5452 H   0  0  0  0  0  0  0  0  0  0  0  0  # atno 10167 bound_to 10162
  156.0031  130.4637  150.4121 H   0  0  0  0  0  0  0  0  0  0  0  0  # atno 10718 bound_to 10713
  154.3936  135.2754  155.2139 H   0  0  0  0  0  0  0  0  0  0  0  0  # atno 10763 bound_to 10752
  154.4195  135.6003  153.6004 H   0  0  0  0  0  0  0  0  0  0  0  0  # atno 10764 bound_to 10752
  152.9831  135.5969  154.4195 H   0  0  0  0  0  0  0  0  0  0  0  0  # atno 10765 bound_to 10752
  140.8086  133.8158  155.9541 H   0  0  0  0  0  0  0  0  0  0  0  0  # atno 11005 bound_to 11000
  145.3624  139.1678  143.4376 LP  0  0  0  0  0  0  0  0  0  0  0  0  # atno 17320 bound_to 7965
  146.3106  140.3688  142.8672 LP  0  0  0  0  0  0  0  0  0  0  0  0  # atno 17321 bound_to 7965
  140.6238  143.9208  150.6547 LP  0  0  0  0  0  0  0  0  0  0  0  0  # atno 17342 bound_to 10162
  140.2490  143.3607  152.1422 LP  0  0  0  0  0  0  0  0  0  0  0  0  # atno 17343 bound_to 10162
  157.2183  131.0476  151.2561 LP  0  0  0  0  0  0  0  0  0  0  0  0  # atno 17370 bound_to 10713
  157.3824  130.7238  149.6639 LP  0  0  0  0  0  0  0  0  0  0  0  0  # atno 17371 bound_to 10713
  140.9221  134.2128  157.4920 LP  0  0  0  0  0  0  0  0  0  0  0  0  # atno 17394 bound_to 11000
  139.8716  134.9797  156.5045 LP  0  0  0  0  0  0  0  0  0  0  0  0  # atno 17395 bound_to 11000

$$$$
