#       Name:                AV-unprocessed.smi:1433
#       Creating user name   scv26
#       Creation time:       Fri Mar 27 05:51:25 2020


#       File generated by GOLD software.
#

@<TRIPOS>MOLECULE
AV-unprocessed.smi:1433
    50    51     1
SMALL
NO_CHARGES


@<TRIPOS>ATOM
      1 ****        -4.0308  -1.5170   2.3814 C.3            1 S1                 0.0000
      2 ****        -2.4996  -1.4657   2.4284 C.3            1 S1                 0.0000
      3 ****        -1.9074  -0.6891   1.2385 C.3            1 S1                 0.0000
      4 ****        -0.4194  -0.7036   1.2714 N.4            1 S1                 1.0000
      5 ****         0.1877   0.1246   0.1778 C.3            1 S1                 0.0000
      6 ****         0.0312   1.6299   0.4975 C.3            1 S1                 0.0000
      7 ****         1.6785  -0.2137  -0.1112 C.3            1 S1                 0.0000
      8 ****         2.2504   0.6128  -1.1688 N.am           1 S1                 0.0000
      9 ****         2.0076   0.4648  -2.4803 C.2            1 S1                 0.0000
     10 ****         1.3084  -0.4360  -2.9435 O.2            1 S1                 0.0000
     11 ****         2.6328   1.5061  -3.4083 C.3            1 S1                 0.0000
     12 ****         1.9055   2.7613  -3.3392 N.pl3          1 S1                 0.0000
     13 ****         0.7939   3.1475  -4.0588 C.2            1 S1                 0.0000
     14 ****         0.4562   4.4033  -3.6424 C.2            1 S1                 0.0000
     15 ****         1.4324   4.7055  -2.6524 C.2            1 S1                 0.0000
     16 ****         2.2970   3.7202  -2.4708 N.2            1 S1                 0.0000
     17 ****         0.0589  -2.1112   1.3537 C.3            1 S1                 0.0000
     18 ****        -0.5993  -2.8584   2.5296 C.3            1 S1                 0.0000
     19 ****        -0.1862  -4.3338   2.5782 C.3            1 S1                 0.0000
     20 ****        -2.0124  -2.7998   2.3938 O.3            1 S1                 0.0000
     21 ****        -4.4590  -0.5148   2.4130 H              1 S1                 0.0000
     22 ****        -4.4280  -2.0740   3.2304 H              1 S1                 0.0000
     23 ****        -4.3827  -2.0030   1.4709 H              1 S1                 0.0000
     24 ****        -2.1983  -0.9931   3.3650 H              1 S1                 0.0000
     25 ****        -2.2525  -1.1268   0.3002 H              1 S1                 0.0000
     26 ****        -2.2885   0.3298   1.2692 H              1 S1                 0.0000
     27 ****        -0.3703  -0.0885  -0.7354 H              1 S1                 0.0000
     28 ****         0.4351   2.2593  -0.2956 H              1 S1                 0.0000
     29 ****         0.5511   1.8913   1.4197 H              1 S1                 0.0000
     30 ****        -1.0092   1.9297   0.6088 H              1 S1                 0.0000
     31 ****         2.2785  -0.0699   0.7880 H              1 S1                 0.0000
     32 ****         1.8030  -1.2549  -0.4117 H              1 S1                 0.0000
     33 ****         2.8368   1.3838  -0.8820 H              1 S1                 0.0000
     34 ****         3.6775   1.6729  -3.1405 H              1 S1                 0.0000
     35 ****         2.6176   1.1460  -4.4379 H              1 S1                 0.0000
     36 ****         0.3403   2.5028  -4.7974 H              1 S1                 0.0000
     37 ****        -0.3634   5.0136  -3.9919 H              1 S1                 0.0000
     38 ****         1.5366   5.6048  -2.0633 H              1 S1                 0.0000
     39 ****        -0.1510  -2.6223   0.4125 H              1 S1                 0.0000
     40 ****         1.1360  -2.1428   1.5139 H              1 S1                 0.0000
     41 ****        -0.3095  -2.3882   3.4711 H              1 S1                 0.0000
     42 ****         0.8932  -4.4364   2.6925 H              1 S1                 0.0000
     43 ****        -0.4774  -4.8562   1.6664 H              1 S1                 0.0000
     44 ****        -0.6579  -4.8433   3.4187 H              1 S1                 0.0000
     45 ****        -0.1412  -0.2695   2.1399 H              1 S1                 0.0000
     46 ****         0.8870  -1.1062  -2.3326 LP             1 S1                 0.0000
     47 ****         1.1616  -0.4976  -3.9307 LP             1 S1                 0.0000
     48 ****         3.0673   3.6916  -1.8338 LP             1 S1                 0.0000
     49 ****        -2.2696  -3.2140   1.5208 LP             1 S1                 0.0000
     50 ****        -2.4296  -3.3146   3.1428 LP             1 S1                 0.0000
@<TRIPOS>BOND
    1    1    2 1     
    2    1   21 1     
    3    1   22 1     
    4    1   23 1     
    5    2   20 1     
    6    2    3 1     
    7    2   24 1     
    8    3    4 1     
    9    3   25 1     
   10    3   26 1     
   11    4    5 1     
   12    4   17 1     
   13    4   45 1     
   14    5    6 1     
   15    5    7 1     
   16    5   27 1     
   17    6   28 1     
   18    6   29 1     
   19    6   30 1     
   20    7    8 1     
   21    7   31 1     
   22    7   32 1     
   23    8    9 am    
   24    8   33 1     
   25    9   10 2     
   26    9   11 1     
   27   11   12 1     
   28   11   34 1     
   29   11   35 1     
   30   12   16 1     
   31   12   13 1     
   32   13   14 2     
   33   13   36 1     
   34   14   15 1     
   35   14   37 1     
   36   15   16 2     
   37   15   38 1     
   38   17   18 1     
   39   17   39 1     
   40   17   40 1     
   41   18   19 1     
   42   18   20 1     
   43   18   41 1     
   44   19   42 1     
   45   19   43 1     
   46   19   44 1     
   47   10   46 1     
   48   10   47 1     
   49   16   48 1     
   50   20   49 1     
   51   20   50 1     
@<TRIPOS>SUBSTRUCTURE
      1 S1             1
@<TRIPOS>SET
LONE_PAIRS      STATIC     ATOMS    <user>   **** ""
5 46 47 48 49 50
DONOR_HYDROGENS      STATIC     ATOMS    <user>   **** ""
2 45 33
ATOM$BLUE        STATIC     ATOMS    COLORGROUP SYSTEM
5 46 47 48 49 50
ATOM$RED        STATIC     ATOMS    COLORGROUP SYSTEM
2 45 33
