AV-unprocessed.smi:2272|AV-procd|sdf|9162|dock1
  -GOLD-   2272012373D 1   1.00000     0.00000
 Structure written by MMmdl.
 41 42  0  0  0  0  0  0  0  0  1 V2000
  143.6575  145.1248  155.8753 C   0  0  0  0  0  0  0  0  0  0  0  0
  144.6151  144.0376  155.4205 C   0  0  0  0  0  0  0  0  0  0  0  0
  145.0844  144.1559  154.1095 N   0  0  0  0  0  0  0  0  0  0  0  0
  145.9161  143.2838  153.6421 C   0  0  0  0  0  0  0  0  0  0  0  0
  146.3746  142.2068  154.4195 N   0  0  0  0  0  0  0  0  0  0  0  0
  147.3391  141.3035  153.7659 C   0  0  0  0  0  0  0  0  0  0  0  0
  148.7821  141.5018  154.2834 C   0  0  2  0  0  0  0  0  0  0  0  0
  149.6921  140.7768  153.4836 O   0  0  0  0  0  0  0  0  0  0  0  0
  149.0113  141.1401  155.7610 C   0  0  0  0  0  0  0  0  0  0  0  0
  150.1993  141.7553  156.2405 O   0  0  0  0  0  0  0  0  0  0  0  0
  150.9285  140.9608  157.1665 C   0  0  0  0  0  0  0  0  0  0  0  0
  151.7950  141.7819  158.1076 C   0  0  0  0  0  0  0  0  0  0  0  0
  151.7499  143.1915  158.0612 C   0  0  0  0  0  0  0  0  0  0  0  0
  152.5479  143.9566  158.9337 C   0  0  0  0  0  0  0  0  0  0  0  0
  153.4006  143.3155  159.8522 C   0  0  0  0  0  0  0  0  0  0  0  0
  153.4538  141.9092  159.8983 C   0  0  0  0  0  0  0  0  0  0  0  0
  152.6538  141.1425  159.0287 C   0  0  0  0  0  0  0  0  0  0  0  0
  152.7125  139.7902  159.0861 F   0  0  0  0  0  0  0  0  0  0  0  0
  145.9464  142.0038  155.6994 C   0  0  0  0  0  0  0  0  0  0  0  0
  146.3292  141.0423  156.3667 O   0  0  0  0  0  0  0  0  0  0  0  0
  145.0047  143.0081  156.2205 C   0  0  0  0  0  0  0  0  0  0  0  0
  144.5297  142.8332  157.6573 C   0  0  0  0  0  0  0  0  0  0  0  0
  144.0463  145.6332  156.7581 H   0  0  0  0  0  0  0  0  0  0  0  0
  142.6839  144.6982  156.1183 H   0  0  0  0  0  0  0  0  0  0  0  0
  143.5088  145.8745  155.0969 H   0  0  0  0  0  0  0  0  0  0  0  0
  146.3141  143.3303  152.6265 H   0  0  0  0  0  0  0  0  0  0  0  0
  147.0472  140.2571  153.8688 H   0  0  0  0  0  0  0  0  0  0  0  0
  147.3156  141.4835  152.6891 H   0  0  0  0  0  0  0  0  0  0  0  0
  149.0597  142.5482  154.1530 H   0  0  0  0  0  0  0  0  0  0  0  0
  149.3160  140.6766  152.6222 H   0  0  0  0  0  0  0  0  0  0  0  0
  148.1515  141.4436  156.3606 H   0  0  0  0  0  0  0  0  0  0  0  0
  149.0974  140.0574  155.8536 H   0  0  0  0  0  0  0  0  0  0  0  0
  150.2080  140.3986  157.7607 H   0  0  0  0  0  0  0  0  0  0  0  0
  151.5314  140.2137  156.6475 H   0  0  0  0  0  0  0  0  0  0  0  0
  151.0976  143.6898  157.3588 H   0  0  0  0  0  0  0  0  0  0  0  0
  152.5057  145.0353  158.8980 H   0  0  0  0  0  0  0  0  0  0  0  0
  154.0124  143.9012  160.5224 H   0  0  0  0  0  0  0  0  0  0  0  0
  154.1061  141.4170  160.6044 H   0  0  0  0  0  0  0  0  0  0  0  0
  145.3673  142.9560  158.3431 H   0  0  0  0  0  0  0  0  0  0  0  0
  144.1149  141.8351  157.8027 H   0  0  0  0  0  0  0  0  0  0  0  0
  143.7606  143.5480  157.9452 H   0  0  0  0  0  0  0  0  0  0  0  0
  1  2  1  0  0  0  0
  1 23  1  0  0  0  0
  1 24  1  0  0  0  0
  1 25  1  0  0  0  0
  2 21  2  0  0  0  0
  2  3  1  0  0  0  0
  3  4  2  0  0  0  0
  4  5  1  0  0  0  0
  4 26  1  0  0  0  0
  5  6  1  0  0  0  0
  5 19  1  0  0  0  0
  6  7  1  0  0  0  0
  6 27  1  0  0  0  0
  6 28  1  0  0  0  0
  7  8  1  0  0  0  0
  7  9  1  0  0  0  0
  7 29  1  0  0  0  0
  8 30  1  0  0  0  0
  9 10  1  0  0  0  0
  9 31  1  0  0  0  0
  9 32  1  0  0  0  0
 10 11  1  0  0  0  0
 11 12  1  0  0  0  0
 11 33  1  0  0  0  0
 11 34  1  0  0  0  0
 12 17  1  0  0  0  0
 12 13  2  0  0  0  0
 13 14  1  0  0  0  0
 13 35  1  0  0  0  0
 14 15  2  0  0  0  0
 14 36  1  0  0  0  0
 15 16  1  0  0  0  0
 15 37  1  0  0  0  0
 16 17  2  0  0  0  0
 16 38  1  0  0  0  0
 17 18  1  0  0  0  0
 19 20  2  0  0  0  0
 19 21  1  0  0  0  0
 21 22  1  0  0  0  0
 22 39  1  0  0  0  0
 22 40  1  0  0  0  0
 22 41  1  0  0  0  0
M  END
> <s_m_source_file>
AV-unprocessed.smi

> <i_m_source_file_index>
2272

> <i_lp_mmshare_version>
43012

> <i_f3d_flags>
0

> <s_epik_input>
W0NIM11jMW5bY0hdbihjKD1PKWMxW0NIM10pW0NIMl1bQ0BIXShbT0hdKVtDSDJdT1tDSDJdYzJbY0hdW2NIXVtjSF1bY0hdYzJG

> <s_epik_cmdline>
J2VwaWtfcHl0aG9uJywgJy1waCcsICc3LjAnLCAnLXRuJywgJzgnLCAnLW1hJywgJzIwMCcsICctbWV0YWxfYmluZGluZycsICctaW1hZScsICc8aW5maWxlLm1hZT4nLCAnLW9tYWUnLCAnPG91dGZpbGUubWFlPic=

> <r_lp_tautomer_probability>
1

> <r_epik_Ionization_Penalty>
5.35985e-05

> <r_epik_Ionization_Penalty_Charging>
1.17753e-07

> <r_epik_Ionization_Penalty_Neutral>
5.34808e-05

> <r_epik_State_Penalty>
-0

> <r_epik_Charging_Adjusted_Penalty>
1.17753e-07

> <i_epik_Tot_Q>
0

> <i_epik_Tot_abs_Q>
0

> <r_epik_Metal_State_Penalty>
-0

> <b_epik_Metal_Only>
0

> <s_lp_Force_Field>
OPLS_2005

> <r_lp_Energy>
20.6286

> <b_lp_Chiralities_Consistent>
1

> <s_lp_Variant>
AV-unprocessed.smi:2272-1

> <Gold.Version>
5.8.1

> <Gold.Id.Protein>
6NUR|6NUR_protein|mol2

> <Gold.PLP.Fitness>
49.5394

> <Gold.PLP.PLP>
-46.7878

> <Gold.PLP.part.hbond>
-2.7469

> <Gold.PLP.part.metal>
0.0000

> <Gold.PLP.part.buried>
-6.7221

> <Gold.PLP.part.nonpolar>
-37.4780

> <Gold.PLP.part.repulsive>
0.3386

> <Gold.PLP.ligand.clash>
0.0000

> <Gold.PLP.ligand.torsion>
0.7503

> <Gold.PLP.Chemscore.Hbond>
1.3440

> <Gold.PLP.Chemscore.CHOScore>
0.0000

> <Gold.PLP.Chemscore.Metal>
0.0000

> <Gold.Chemscore.Hbonds>
donor molecule, donor type, donor heavy atom, donor atom, acceptor molecule, acceptor atom, score
      L1  H     8    30       P1  7957  0.85
      P1  H  7989  7998       L1     8  0.35

> <Gold.PLP.Chemscore.Internal.Correction>
0.2202

> <Gold.Rescore>
     Score         DG    S(hbond)    S(metal)    S(lipo)     H(rot)  DE(clash)    DE(int)     intcor
     14.25     -15.12       1.28        0.00     104.59       2.69       0.01       0.86       ----

> <Gold.Chemscore.Fitness>
14.2528

> <Gold.Chemscore.DG>
-15.1239

> <Gold.Chemscore.ZeroCoef>
-5.4800

> <Gold.Chemscore.Hbond>
1.2821

> <Gold.Chemscore.Metal>
0.0000

> <Gold.Chemscore.Lipo>
104.5903

> <Gold.Chemscore.Internal_Hbond>
0.0000

> <Gold.Chemscore.DEClash>
0.0129

> <Gold.Chemscore.DEInternal>
0.8582

> <Gold.Chemscore.Rot>
2.6857

> <Gold.Chemscore.Internal.Correction>
   9.000000E+99

> <Gold.Chemscore.Hbonds>
donor molecule, donor type, donor heavy atom, donor atom, acceptor molecule, acceptor atom, score
      L1  H     8    30       P1  7957  0.84
      P1  H  7989  7998       L1     8  0.29

> <Gold.Chemscore.Hbond.Weighted>
-4.2823

> <Gold.Chemscore.Metal.Weighted>
-0.0000

> <Gold.Chemscore.Lipo.Weighted>
-12.2371

> <Gold.Chemscore.Internal_Hbond.Weighted>
0.0000

> <Gold.Chemscore.DEClash.Weighted>
0.0129

> <Gold.Chemscore.DEInternal.Weighted>
0.8582

> <Gold.Chemscore.Rot.Weighted>
6.8755

> <Gold.Chemscore.Internal.Correction.Weighted>
   9.000000E+99

> <Gold.Protein.RotatedTorsions>
[ 6907 6896 6895 6894 ] final   73.16 input  -60.11 | X-H torsion
[ 7974 7965 7964 7962 ] final  125.49 input  175.53 | X-H torsion
[ 8008 7997 7996 7995 ] final -160.43 input   59.86 | X-H torsion
[ 10167 10162 10161 10158 ] final   83.46 input  -65.29 | X-H torsion
[ 10718 10713 10712 10709 ] final  106.75 input   66.30 | X-H torsion
[ 10763 10752 10751 10750 ] final  -47.15 input  -60.55 | X-H torsion
[ 11005 11000 10999 10996 ] final  -29.90 input  -57.11 | X-H torsion

> <Gold.Protein.ActiveResidues>
 VAL166  LYS551  ARG553  GLY616  TRP617  ASP618  TYR619  PRO620  LYS621  CYS622 
 ASP623  PHE694  ASN695  SER759  ASP760  ASP761  ALA762  ILE779  LEU786  VAL792 
 PHE793  MET794  SER795  GLU796  ALA797  LYS798  CYS799  TRP800  GLU811  SER814 

> <Gold.Protein.RotatedAtoms>
  152.4908  134.4463  159.9559 H   0  0  0  0  0  0  0  0  0  0  0  0  # atno 6907 bound_to 6896
  151.4451  133.3626  159.2795 H   0  0  0  0  0  0  0  0  0  0  0  0  # atno 6908 bound_to 6896
  150.9060  134.8499  159.7453 H   0  0  0  0  0  0  0  0  0  0  0  0  # atno 6909 bound_to 6896
  145.0724  139.3720  143.4951 H   0  0  0  0  0  0  0  0  0  0  0  0  # atno 7974 bound_to 7965
  155.7774  140.0860  157.2077 H   0  0  0  0  0  0  0  0  0  0  0  0  # atno 8008 bound_to 7997
  154.3992  140.1514  156.3070 H   0  0  0  0  0  0  0  0  0  0  0  0  # atno 8009 bound_to 7997
  155.8687  140.3426  155.5809 H   0  0  0  0  0  0  0  0  0  0  0  0  # atno 8010 bound_to 7997
  139.9182  144.6229  150.8467 H   0  0  0  0  0  0  0  0  0  0  0  0  # atno 10167 bound_to 10162
  157.6656  131.0857  150.6053 H   0  0  0  0  0  0  0  0  0  0  0  0  # atno 10718 bound_to 10713
  154.0567  135.6624  153.4807 H   0  0  0  0  0  0  0  0  0  0  0  0  # atno 10763 bound_to 10752
  153.0443  135.5125  154.7699 H   0  0  0  0  0  0  0  0  0  0  0  0  # atno 10764 bound_to 10752
  154.6722  135.3031  154.9693 H   0  0  0  0  0  0  0  0  0  0  0  0  # atno 10765 bound_to 10752
  140.9336  133.7322  156.0973 H   0  0  0  0  0  0  0  0  0  0  0  0  # atno 11005 bound_to 11000
  146.3529  140.0475  142.8638 LP  0  0  0  0  0  0  0  0  0  0  0  0  # atno 17320 bound_to 7965
  145.1276  140.9499  143.4563 LP  0  0  0  0  0  0  0  0  0  0  0  0  # atno 17321 bound_to 7965
  140.7669  143.3316  151.2397 LP  0  0  0  0  0  0  0  0  0  0  0  0  # atno 17342 bound_to 10162
  139.6884  143.9733  152.2846 LP  0  0  0  0  0  0  0  0  0  0  0  0  # atno 17343 bound_to 10162
  156.6354  130.4443  149.5771 LP  0  0  0  0  0  0  0  0  0  0  0  0  # atno 17370 bound_to 10713
  156.2250  130.6760  151.1406 LP  0  0  0  0  0  0  0  0  0  0  0  0  # atno 17371 bound_to 10713
  140.7829  134.3705  157.5483 LP  0  0  0  0  0  0  0  0  0  0  0  0  # atno 17394 bound_to 11000
  139.8802  134.9093  156.2987 LP  0  0  0  0  0  0  0  0  0  0  0  0  # atno 17395 bound_to 11000

$$$$
