AV-unprocessed.smi:3354|AV-procd|sdf|12957|dock9
  -GOLD-   2272019393D 1   1.00000     0.00000
 Structure written by MMmdl.
 38 40  0  0  0  0  0  0  0  0  1 V2000
  150.5105  138.9325  154.1238 C   0  0  0  0  0  0  0  0  0  0  0  0
  151.1688  139.0055  155.4879 C   0  0  2  0  0  0  0  0  0  0  0  0
  152.4230  138.2165  155.7832 C   0  0  0  0  0  0  0  0  0  0  0  0
  151.1213  137.8519  156.4711 C   0  0  2  0  0  0  0  0  0  0  0  0
  150.4113  136.6545  156.1233 N   0  0  0  0  0  0  0  0  0  0  0  0
  149.0863  136.6866  155.5184 C   0  0  0  0  0  0  0  0  0  0  0  0
  148.7071  135.2157  155.2717 C   0  0  1  0  0  0  0  0  0  0  0  0
  148.1637  135.0331  153.9282 N   0  0  0  0  0  0  0  0  0  0  0  0
  147.1062  134.2658  153.6297 C   0  0  0  0  0  0  0  0  0  0  0  0
  146.4741  133.6275  154.4712 O   0  0  0  0  0  0  0  0  0  0  0  0
  146.8550  134.2754  152.3093 N   0  0  0  0  0  0  0  0  0  0  0  0
  145.8241  133.6014  151.6002 C   0  0  0  0  0  0  0  0  0  0  0  0
  146.0084  132.9428  150.3601 C   0  0  0  0  0  0  0  0  0  0  0  0
  144.9091  132.2943  149.7655 C   0  0  0  0  0  0  0  0  0  0  0  0
  143.6696  132.3213  150.4335 C   0  0  0  0  0  0  0  0  0  0  0  0
  143.4829  132.9329  151.6220 N   0  0  0  0  0  0  0  0  0  0  0  0
  144.5417  133.5518  152.1867 C   0  0  0  0  0  0  0  0  0  0  0  0
  149.9977  134.4131  155.4979 C   0  0  0  0  0  0  0  0  0  0  0  0
  150.9642  135.4376  156.0653 C   0  0  0  0  0  0  0  0  0  0  0  0
  152.1094  135.1481  156.4094 O   0  0  0  0  0  0  0  0  0  0  0  0
  150.6515  137.9519  153.6689 H   0  0  0  0  0  0  0  0  0  0  0  0
  150.9414  139.6838  153.4617 H   0  0  0  0  0  0  0  0  0  0  0  0
  149.4410  139.1231  154.2158 H   0  0  0  0  0  0  0  0  0  0  0  0
  151.1130  139.9963  155.9350 H   0  0  0  0  0  0  0  0  0  0  0  0
  152.8071  137.5798  154.9897 H   0  0  0  0  0  0  0  0  0  0  0  0
  153.1860  138.7052  156.3855 H   0  0  0  0  0  0  0  0  0  0  0  0
  151.0658  138.1308  157.5223 H   0  0  0  0  0  0  0  0  0  0  0  0
  148.3579  137.1623  156.1752 H   0  0  0  0  0  0  0  0  0  0  0  0
  149.1324  137.2610  154.5915 H   0  0  0  0  0  0  0  0  0  0  0  0
  147.9641  134.9168  156.0140 H   0  0  0  0  0  0  0  0  0  0  0  0
  148.6301  135.5186  153.1759 H   0  0  0  0  0  0  0  0  0  0  0  0
  147.5137  134.7816  151.7356 H   0  0  0  0  0  0  0  0  0  0  0  0
  146.9650  132.9087  149.8629 H   0  0  0  0  0  0  0  0  0  0  0  0
  145.0153  131.7838  148.8198 H   0  0  0  0  0  0  0  0  0  0  0  0
  142.8071  131.8329  150.0049 H   0  0  0  0  0  0  0  0  0  0  0  0
  144.3555  134.0276  153.1387 H   0  0  0  0  0  0  0  0  0  0  0  0
  149.8469  133.5900  156.1970 H   0  0  0  0  0  0  0  0  0  0  0  0
  150.4062  134.0093  154.5706 H   0  0  0  0  0  0  0  0  0  0  0  0
  1  2  1  0  0  0  0
  1 21  1  0  0  0  0
  1 22  1  0  0  0  0
  1 23  1  0  0  0  0
  2  4  1  0  0  0  0
  2  3  1  0  0  0  0
  2 24  1  0  0  0  0
  3  4  1  0  0  0  0
  3 25  1  0  0  0  0
  3 26  1  0  0  0  0
  4  5  1  0  0  0  0
  4 27  1  0  0  0  0
  5 19  1  0  0  0  0
  5  6  1  0  0  0  0
  6  7  1  0  0  0  0
  6 28  1  0  0  0  0
  6 29  1  0  0  0  0
  7  8  1  0  0  0  0
  7 18  1  0  0  0  0
  7 30  1  0  0  0  0
  8  9  1  0  0  0  0
  8 31  1  0  0  0  0
  9 10  2  0  0  0  0
  9 11  1  0  0  0  0
 11 12  1  0  0  0  0
 11 32  1  0  0  0  0
 12 17  1  0  0  0  0
 12 13  2  0  0  0  0
 13 14  1  0  0  0  0
 13 33  1  0  0  0  0
 14 15  2  0  0  0  0
 14 34  1  0  0  0  0
 15 16  1  0  0  0  0
 15 35  1  0  0  0  0
 16 17  2  0  0  0  0
 17 36  1  0  0  0  0
 18 19  1  0  0  0  0
 18 37  1  0  0  0  0
 18 38  1  0  0  0  0
 19 20  2  0  0  0  0
M  END
> <s_m_source_file>
AV-unprocessed.smi

> <i_m_source_file_index>
3354

> <i_lp_mmshare_version>
43012

> <i_f3d_flags>
0

> <s_epik_input>
W0NIM11bQ0BASF0xW0NIMl1bQ0BIXTFOMltDSDJdW0NASF0oW0NIMl1DMj1PKVtOSF1DKD1PKVtOSF1jM1tjSF1bY0hdW2NIXW5bY0hdMw==

> <s_epik_cmdline>
J2VwaWtfcHl0aG9uJywgJy1waCcsICc3LjAnLCAnLXRuJywgJzgnLCAnLW1hJywgJzIwMCcsICctbWV0YWxfYmluZGluZycsICctaW1hZScsICc8aW5maWxlLm1hZT4nLCAnLW9tYWUnLCAnPG91dGZpbGUubWFlPic=

> <r_epik_Ionization_Penalty>
0.00456191

> <r_epik_Ionization_Penalty_Charging>
0

> <r_epik_Ionization_Penalty_Neutral>
0.00456191

> <r_epik_State_Penalty>
0.00327094

> <r_epik_Charging_Adjusted_Penalty>
0.00327094

> <i_epik_Tot_Q>
0

> <i_epik_Tot_abs_Q>
0

> <r_epik_Metal_State_Penalty>
-0

> <b_epik_Metal_Only>
0

> <s_lp_Force_Field>
OPLS_2005

> <r_lp_Energy>
41.3899

> <b_lp_Chiralities_Consistent>
1

> <s_lp_Variant>
AV-unprocessed.smi:3354-3

> <Gold.Version>
5.8.1

> <Gold.Id.Protein>
6NUR|6NUR_protein|mol2

> <Gold.PLP.Fitness>
39.9755

> <Gold.PLP.PLP>
-29.5354

> <Gold.PLP.part.hbond>
-2.9326

> <Gold.PLP.part.metal>
0.0000

> <Gold.PLP.part.buried>
-4.6493

> <Gold.PLP.part.nonpolar>
-22.0213

> <Gold.PLP.part.repulsive>
0.3085

> <Gold.PLP.ligand.clash>
0.0000

> <Gold.PLP.ligand.torsion>
0.6974

> <Gold.PLP.Chemscore.Hbond>
2.8553

> <Gold.PLP.Chemscore.CHOScore>
1.0000

> <Gold.PLP.Chemscore.Metal>
0.0000

> <Gold.Chemscore.Hbonds>
donor molecule, donor type, donor heavy atom, donor atom, acceptor molecule, acceptor atom, score
      L1  H     8    31       P1  7948  0.94
      L1  H    11    32       P1  7948  0.86
      P1  H 10752 10763       L1    20  1.00
      L1  C    15    35       P1 10952  1.00

> <Gold.PLP.Chemscore.Internal.Correction>
0.2691

> <Gold.Rescore>
     Score         DG    S(hbond)    S(metal)    S(lipo)     H(rot)  DE(clash)    DE(int)     intcor
     17.21     -19.86       2.67        0.00      73.83       1.24       0.02       2.63       ----

> <Gold.Chemscore.Fitness>
17.2111

> <Gold.Chemscore.DG>
-19.8604

> <Gold.Chemscore.ZeroCoef>
-5.4800

> <Gold.Chemscore.Hbond>
2.6665

> <Gold.Chemscore.Metal>
0.0000

> <Gold.Chemscore.Lipo>
73.8337

> <Gold.Chemscore.Internal_Hbond>
0.0000

> <Gold.Chemscore.DEClash>
0.0183

> <Gold.Chemscore.DEInternal>
2.6310

> <Gold.Chemscore.Rot>
1.2361

> <Gold.Chemscore.Internal.Correction>
   9.000000E+99

> <Gold.Chemscore.Hbonds>
donor molecule, donor type, donor heavy atom, donor atom, acceptor molecule, acceptor atom, score
      L1  H     8    31       P1  7948  0.86
      L1  H    11    32       P1  7948  0.50
      P1  H 10752 10763       L1    20  0.73

> <Gold.Chemscore.Hbond.Weighted>
-8.9062

> <Gold.Chemscore.Metal.Weighted>
-0.0000

> <Gold.Chemscore.Lipo.Weighted>
-8.6385

> <Gold.Chemscore.Internal_Hbond.Weighted>
0.0000

> <Gold.Chemscore.DEClash.Weighted>
0.0183

> <Gold.Chemscore.DEInternal.Weighted>
2.6310

> <Gold.Chemscore.Rot.Weighted>
3.1643

> <Gold.Chemscore.Internal.Correction.Weighted>
   9.000000E+99

> <Gold.Protein.RotatedTorsions>
[ 6907 6896 6895 6894 ] final  175.11 input  -60.11 | X-H torsion
[ 7974 7965 7964 7962 ] final  146.87 input  175.53 | X-H torsion
[ 8008 7997 7996 7995 ] final  -37.67 input   59.86 | X-H torsion
[ 10167 10162 10161 10158 ] final -168.67 input  -65.29 | X-H torsion
[ 10718 10713 10712 10709 ] final -120.15 input   66.30 | X-H torsion
[ 10763 10752 10751 10750 ] final   94.35 input  -60.55 | X-H torsion
[ 11005 11000 10999 10996 ] final  -49.43 input  -57.11 | X-H torsion

> <Gold.Protein.ActiveResidues>
 VAL166  LYS551  ARG553  GLY616  TRP617  ASP618  TYR619  PRO620  LYS621  CYS622 
 ASP623  PHE694  ASN695  SER759  ASP760  ASP761  ALA762  ILE779  LEU786  VAL792 
 PHE793  MET794  SER795  GLU796  ALA797  LYS798  CYS799  TRP800  GLU811  SER814 

> <Gold.Protein.RotatedAtoms>
  151.7414  133.3322  159.3366 H   0  0  0  0  0  0  0  0  0  0  0  0  # atno 6907 bound_to 6896
  150.7572  134.6274  159.6177 H   0  0  0  0  0  0  0  0  0  0  0  0  # atno 6908 bound_to 6896
  152.3528  134.6984  160.0283 H   0  0  0  0  0  0  0  0  0  0  0  0  # atno 6909 bound_to 6896
  144.8637  139.5958  143.5919 H   0  0  0  0  0  0  0  0  0  0  0  0  # atno 7974 bound_to 7965
  154.4049  140.1598  156.2574 H   0  0  0  0  0  0  0  0  0  0  0  0  # atno 8008 bound_to 7997
  155.9066  140.3430  155.6044 H   0  0  0  0  0  0  0  0  0  0  0  0  # atno 8009 bound_to 7997
  155.7385  140.0789  157.2247 H   0  0  0  0  0  0  0  0  0  0  0  0  # atno 8010 bound_to 7997
  139.5971  144.1090  152.1701 H   0  0  0  0  0  0  0  0  0  0  0  0  # atno 10167 bound_to 10162
  156.1236  130.6342  150.9505 H   0  0  0  0  0  0  0  0  0  0  0  0  # atno 10718 bound_to 10713
  153.2406  135.4293  155.0694 H   0  0  0  0  0  0  0  0  0  0  0  0  # atno 10763 bound_to 10752
  154.8339  135.3402  154.6654 H   0  0  0  0  0  0  0  0  0  0  0  0  # atno 10764 bound_to 10752
  153.7078  135.7024  153.5102 H   0  0  0  0  0  0  0  0  0  0  0  0  # atno 10765 bound_to 10752
  141.0759  133.6666  156.3585 H   0  0  0  0  0  0  0  0  0  0  0  0  # atno 11005 bound_to 11000
  146.2879  139.7057  142.9182 LP  0  0  0  0  0  0  0  0  0  0  0  0  # atno 17320 bound_to 7965
  145.4263  141.0411  143.2935 LP  0  0  0  0  0  0  0  0  0  0  0  0  # atno 17321 bound_to 7965
  140.0677  144.5805  150.7215 LP  0  0  0  0  0  0  0  0  0  0  0  0  # atno 17342 bound_to 10162
  140.7220  143.2598  151.4246 LP  0  0  0  0  0  0  0  0  0  0  0  0  # atno 17343 bound_to 10162
  157.6418  131.0909  150.8235 LP  0  0  0  0  0  0  0  0  0  0  0  0  # atno 17370 bound_to 10713
  156.8328  130.5022  149.5329 LP  0  0  0  0  0  0  0  0  0  0  0  0  # atno 17371 bound_to 10713
  140.5575  134.5967  157.5424 LP  0  0  0  0  0  0  0  0  0  0  0  0  # atno 17394 bound_to 11000
  139.9571  134.7516  156.0318 LP  0  0  0  0  0  0  0  0  0  0  0  0  # atno 17395 bound_to 11000

$$$$
