AV-unprocessed.smi:2591|AV-procd|sdf|10153|dock9
  -GOLD-   2272014163D 1   1.00000     0.00000
 Structure written by MMmdl.
 35 36  0  0  0  0  0  0  0  0  2 V2000
  150.3760  134.9572  154.7648 C   0  0  0  0  0  0  0  0  0  0  0  0
  149.7719  136.3053  154.7054 N   0  3  1  0  0  0  0  0  0  0  0  0
  148.3789  136.3281  155.2047 C   0  0  0  0  0  0  0  0  0  0  0  0
  147.7928  137.7426  155.0783 C   0  0  0  0  0  0  0  0  0  0  0  0
  148.6134  138.6606  155.7899 O   0  0  0  0  0  0  0  0  0  0  0  0
  149.9412  138.7265  155.2698 C   0  0  1  0  0  0  0  0  0  0  0  0
  150.7217  139.8089  156.0325 C   0  0  0  0  0  0  0  0  0  0  0  0
  151.0677  140.8368  155.4492 O   0  0  0  0  0  0  0  0  0  0  0  0
  150.9624  139.5586  157.3344 N   0  0  0  0  0  0  0  0  0  0  0  0
  151.6568  140.3655  158.2742 C   0  0  0  0  0  0  0  0  0  0  0  0
  151.4005  141.7512  158.1774 C   0  0  0  0  0  0  0  0  0  0  0  0
  152.0361  142.6448  159.0654 C   0  0  0  0  0  0  0  0  0  0  0  0
  151.7677  144.1384  158.9673 C   0  0  0  0  0  0  0  0  0  0  0  0
  152.1972  144.7895  160.0488 F   0  0  0  0  0  0  0  0  0  0  0  0
  152.3918  144.6296  157.8975 F   0  0  0  0  0  0  0  0  0  0  0  0
  150.4588  144.3534  158.8375 F   0  0  0  0  0  0  0  0  0  0  0  0
  152.9214  142.1151  160.0267 C   0  0  0  0  0  0  0  0  0  0  0  0
  153.1202  140.7228  160.0550 C   0  0  0  0  0  0  0  0  0  0  0  0
  152.5078  139.8713  159.2066 N   0  0  0  0  0  0  0  0  0  0  0  0
  150.5964  137.3297  155.3866 C   0  0  0  0  0  0  0  0  0  0  0  0
  150.4496  134.6054  155.7946 H   0  0  0  0  0  0  0  0  0  0  0  0
  151.3775  134.9658  154.3336 H   0  0  0  0  0  0  0  0  0  0  0  0
  149.7763  134.2423  154.2007 H   0  0  0  0  0  0  0  0  0  0  0  0
  147.7713  135.6222  154.6373 H   0  0  0  0  0  0  0  0  0  0  0  0
  148.3568  136.0066  156.2473 H   0  0  0  0  0  0  0  0  0  0  0  0
  147.7121  138.0416  154.0321 H   0  0  0  0  0  0  0  0  0  0  0  0
  146.7866  137.7710  155.4966 H   0  0  0  0  0  0  0  0  0  0  0  0
  149.9009  139.0299  154.2222 H   0  0  0  0  0  0  0  0  0  0  0  0
  150.6173  138.6788  157.6890 H   0  0  0  0  0  0  0  0  0  0  0  0
  150.7214  142.1322  157.4282 H   0  0  0  0  0  0  0  0  0  0  0  0
  153.4392  142.7517  160.7285 H   0  0  0  0  0  0  0  0  0  0  0  0
  153.7900  140.2806  160.7776 H   0  0  0  0  0  0  0  0  0  0  0  0
  150.7207  137.0552  156.4358 H   0  0  0  0  0  0  0  0  0  0  0  0
  151.5907  137.3389  154.9370 H   0  0  0  0  0  0  0  0  0  0  0  0
  149.7358  136.5636  153.7294 H   0  0  0  0  0  0  0  0  0  0  0  0
  1  2  1  0  0  0  0
  1 21  1  0  0  0  0
  1 22  1  0  0  0  0
  1 23  1  0  0  0  0
  2 20  1  0  0  0  0
  2  3  1  0  0  0  0
  2 35  1  0  0  0  0
  3  4  1  0  0  0  0
  3 24  1  0  0  0  0
  3 25  1  0  0  0  0
  4  5  1  0  0  0  0
  4 26  1  0  0  0  0
  4 27  1  0  0  0  0
  5  6  1  0  0  0  0
  6  7  1  0  0  0  0
  6 20  1  0  0  0  0
  6 28  1  0  0  0  0
  7  8  2  0  0  0  0
  7  9  1  0  0  0  0
  9 10  1  0  0  0  0
  9 29  1  0  0  0  0
 10 19  1  0  0  0  0
 10 11  2  0  0  0  0
 11 12  1  0  0  0  0
 11 30  1  0  0  0  0
 12 13  1  0  0  0  0
 12 17  2  0  0  0  0
 13 14  1  0  0  0  0
 13 15  1  0  0  0  0
 13 16  1  0  0  0  0
 17 18  1  0  0  0  0
 17 31  1  0  0  0  0
 18 19  2  0  0  0  0
 18 32  1  0  0  0  0
 20 33  1  0  0  0  0
 20 34  1  0  0  0  0
M  CHG  1   2   1
M  END
> <s_m_source_file>
AV-unprocessed.smi

> <i_m_source_file_index>
2591

> <i_lp_mmshare_version>
43012

> <i_f3d_flags>
0

> <s_epik_input>
W0NIM11OMVtDSDJdW0NIMl1PW0NASF0oW0NIMl0xKUMoPU8pW05IXWMyW2NIXWMoQyhGKShGKUYpW2NIXVtjSF1uMg==

> <s_epik_cmdline>
J2VwaWtfcHl0aG9uJywgJy1waCcsICc3LjAnLCAnLXRuJywgJzgnLCAnLW1hJywgJzIwMCcsICctbWV0YWxfYmluZGluZycsICctaW1hZScsICc8aW5maWxlLm1hZT4nLCAnLW9tYWUnLCAnPG91dGZpbGUubWFlPic=

> <r_epik_Ionization_Penalty>
0.314028

> <r_epik_Ionization_Penalty_Charging>
0.314023

> <r_epik_Ionization_Penalty_Neutral>
5.2303e-06

> <r_epik_State_Penalty>
0.308208

> <r_epik_Charging_Adjusted_Penalty>
0.62223

> <i_epik_Tot_Q>
1

> <i_epik_Tot_abs_Q>
1

> <r_epik_Metal_State_Penalty>
0.308209

> <b_epik_Metal_Only>
0

> <s_lp_Force_Field>
OPLS_2005

> <r_lp_Energy>
17.8582

> <b_lp_Chiralities_Consistent>
1

> <s_lp_Variant>
AV-unprocessed.smi:2591-1

> <Gold.Version>
5.8.1

> <Gold.Id.Protein>
6NUR|6NUR_protein|mol2

> <Gold.PLP.Fitness>
44.1776

> <Gold.PLP.PLP>
-37.7691

> <Gold.PLP.part.hbond>
-2.0000

> <Gold.PLP.part.metal>
0.0000

> <Gold.PLP.part.buried>
-5.6701

> <Gold.PLP.part.nonpolar>
-30.8365

> <Gold.PLP.part.repulsive>
0.1296

> <Gold.PLP.ligand.clash>
0.0000

> <Gold.PLP.ligand.torsion>
0.9255

> <Gold.PLP.Chemscore.Hbond>
2.7520

> <Gold.PLP.Chemscore.CHOScore>
0.0000

> <Gold.PLP.Chemscore.Metal>
0.0000

> <Gold.Chemscore.Hbonds>
donor molecule, donor type, donor heavy atom, donor atom, acceptor molecule, acceptor atom, score
      L1  H     2    35       P1  7948  1.98
      P1  H  7989  7998       L1     8  0.77

> <Gold.PLP.Chemscore.Internal.Correction>
0.0034

> <Gold.Rescore>
     Score         DG    S(hbond)    S(metal)    S(lipo)     H(rot)  DE(clash)    DE(int)     intcor
     14.32     -16.66       1.73        0.00      68.03       1.00       0.20       2.14       ----

> <Gold.Chemscore.Fitness>
14.3206

> <Gold.Chemscore.DG>
-16.6638

> <Gold.Chemscore.ZeroCoef>
-5.4800

> <Gold.Chemscore.Hbond>
1.7319

> <Gold.Chemscore.Metal>
0.0000

> <Gold.Chemscore.Lipo>
68.0281

> <Gold.Chemscore.Internal_Hbond>
0.0000

> <Gold.Chemscore.DEClash>
0.2035

> <Gold.Chemscore.DEInternal>
2.1397

> <Gold.Chemscore.Rot>
1.0000

> <Gold.Chemscore.Internal.Correction>
   9.000000E+99

> <Gold.Chemscore.Hbonds>
donor molecule, donor type, donor heavy atom, donor atom, acceptor molecule, acceptor atom, score
      L1  H     2    35       P1  7948  0.44
      P1  H  7989  7998       L1     8  0.71

> <Gold.Chemscore.Hbond.Weighted>
-5.7845

> <Gold.Chemscore.Metal.Weighted>
-0.0000

> <Gold.Chemscore.Lipo.Weighted>
-7.9593

> <Gold.Chemscore.Internal_Hbond.Weighted>
0.0000

> <Gold.Chemscore.DEClash.Weighted>
0.2035

> <Gold.Chemscore.DEInternal.Weighted>
2.1397

> <Gold.Chemscore.Rot.Weighted>
2.5600

> <Gold.Chemscore.Internal.Correction.Weighted>
   9.000000E+99

> <Gold.Protein.RotatedTorsions>
[ 6907 6896 6895 6894 ] final  -47.03 input  -60.11 | X-H torsion
[ 7974 7965 7964 7962 ] final  -40.97 input  175.53 | X-H torsion
[ 8008 7997 7996 7995 ] final   48.56 input   59.86 | X-H torsion
[ 10167 10162 10161 10158 ] final  145.82 input  -65.29 | X-H torsion
[ 10718 10713 10712 10709 ] final  -38.51 input   66.30 | X-H torsion
[ 10763 10752 10751 10750 ] final -125.35 input  -60.55 | X-H torsion
[ 11005 11000 10999 10996 ] final -174.17 input  -57.11 | X-H torsion

> <Gold.Protein.ActiveResidues>
 VAL166  LYS551  ARG553  GLY616  TRP617  ASP618  TYR619  PRO620  LYS621  CYS622 
 ASP623  PHE694  ASN695  SER759  ASP760  ASP761  ALA762  ILE779  LEU786  VAL792 
 PHE793  MET794  SER795  GLU796  ALA797  LYS798  CYS799  TRP800  GLU811  SER814 

> <Gold.Protein.RotatedAtoms>
  150.9051  134.8465  159.7386 H   0  0  0  0  0  0  0  0  0  0  0  0  # atno 6907 bound_to 6896
  152.4914  134.4444  159.9564 H   0  0  0  0  0  0  0  0  0  0  0  0  # atno 6908 bound_to 6896
  151.4492  133.3583  159.2828 H   0  0  0  0  0  0  0  0  0  0  0  0  # atno 6909 bound_to 6896
  146.0255  140.6797  142.9158 H   0  0  0  0  0  0  0  0  0  0  0  0  # atno 7974 bound_to 7965
  155.3876  140.3432  155.4250 H   0  0  0  0  0  0  0  0  0  0  0  0  # atno 8008 bound_to 7997
  156.1575  140.1590  156.8700 H   0  0  0  0  0  0  0  0  0  0  0  0  # atno 8009 bound_to 7997
  154.5109  140.0790  156.7969 H   0  0  0  0  0  0  0  0  0  0  0  0  # atno 8010 bound_to 7997
  139.4918  144.5874  151.6751 H   0  0  0  0  0  0  0  0  0  0  0  0  # atno 10167 bound_to 10162
  156.3029  130.4242  149.8125 H   0  0  0  0  0  0  0  0  0  0  0  0  # atno 10718 bound_to 10713
  154.8735  135.4032  154.3253 H   0  0  0  0  0  0  0  0  0  0  0  0  # atno 10763 bound_to 10752
  153.4075  135.7020  153.6388 H   0  0  0  0  0  0  0  0  0  0  0  0  # atno 10764 bound_to 10752
  153.5104  135.3708  155.2554 H   0  0  0  0  0  0  0  0  0  0  0  0  # atno 10765 bound_to 10752
  140.4775  134.6107  157.4906 H   0  0  0  0  0  0  0  0  0  0  0  0  # atno 11005 bound_to 11000
  144.7008  140.3642  143.7158 LP  0  0  0  0  0  0  0  0  0  0  0  0  # atno 17320 bound_to 7965
  145.7125  139.1688  143.2531 LP  0  0  0  0  0  0  0  0  0  0  0  0  # atno 17321 bound_to 7965
  140.5493  144.0452  150.6120 LP  0  0  0  0  0  0  0  0  0  0  0  0  # atno 17342 bound_to 10162
  140.3500  143.2968  152.0497 LP  0  0  0  0  0  0  0  0  0  0  0  0  # atno 17343 bound_to 10162
  156.5497  130.8336  151.3295 LP  0  0  0  0  0  0  0  0  0  0  0  0  # atno 17370 bound_to 10713
  157.7372  130.9792  150.2182 LP  0  0  0  0  0  0  0  0  0  0  0  0  # atno 17371 bound_to 10713
  139.9847  134.7081  155.9796 LP  0  0  0  0  0  0  0  0  0  0  0  0  # atno 17394 bound_to 11000
  141.1547  133.6544  156.4124 LP  0  0  0  0  0  0  0  0  0  0  0  0  # atno 17395 bound_to 11000

$$$$
