AV-unprocessed.smi:1126|AV-procd|sdf|4838|dock6
  -GOLD-   22720 3403D 1   1.00000     0.00000
 Structure written by MMmdl.
 48 49  0  0  0  0  0  0  0  0  2 V2000
  143.2138  135.6267  152.5839 C   0  0  0  0  0  0  0  0  0  0  0  0
  144.0686  136.1540  153.5835 O   0  0  0  0  0  0  0  0  0  0  0  0
  144.6910  137.3646  153.1853 C   0  0  0  0  0  0  0  0  0  0  0  0
  145.2038  138.0928  154.4371 C   0  0  0  0  0  0  0  0  0  0  0  0
  145.7425  139.4415  154.1262 N   0  3  2  0  0  0  0  0  0  0  0  0
  146.8171  139.3958  153.1019 C   0  0  0  0  0  0  0  0  0  0  0  0
  147.2605  140.8126  152.6938 C   0  0  0  0  0  0  0  0  0  0  0  0
  147.7114  141.6541  153.9024 C   0  0  2  0  0  0  0  0  0  0  0  0
  149.0958  141.2126  154.4317 C   0  0  0  0  0  0  0  0  0  0  0  0
  149.5570  142.0410  155.5409 N   0  0  0  0  0  0  0  0  0  0  0  0
  150.6436  141.8088  156.2947 C   0  0  0  0  0  0  0  0  0  0  0  0
  151.3714  140.8263  156.1534 O   0  0  0  0  0  0  0  0  0  0  0  0
  150.9510  142.8388  157.3831 C   0  0  0  0  0  0  0  0  0  0  0  0
  151.6422  142.2296  158.5057 N   0  0  0  0  0  0  0  0  0  0  0  0
  152.3267  142.8505  159.5294 C   0  0  0  0  0  0  0  0  0  0  0  0
  152.7997  141.8740  160.3597 C   0  0  0  0  0  0  0  0  0  0  0  0
  153.6035  142.0214  161.6193 C   0  0  0  0  0  0  0  0  0  0  0  0
  152.3461  140.6709  159.7477 C   0  0  0  0  0  0  0  0  0  0  0  0
  151.6545  140.8856  158.6403 N   0  0  0  0  0  0  0  0  0  0  0  0
  146.5883  141.6343  154.9605 C   0  0  0  0  0  0  0  0  0  0  0  0
  146.1661  140.2017  155.3317 C   0  0  0  0  0  0  0  0  0  0  0  0
  142.7632  134.6997  152.9390 H   0  0  0  0  0  0  0  0  0  0  0  0
  143.7662  135.4036  151.6703 H   0  0  0  0  0  0  0  0  0  0  0  0
  142.4085  136.3227  152.3458 H   0  0  0  0  0  0  0  0  0  0  0  0
  145.4957  137.1704  152.4761 H   0  0  0  0  0  0  0  0  0  0  0  0
  143.9621  137.9948  152.6734 H   0  0  0  0  0  0  0  0  0  0  0  0
  144.4124  138.1764  155.1833 H   0  0  0  0  0  0  0  0  0  0  0  0
  145.9847  137.4776  154.8866 H   0  0  0  0  0  0  0  0  0  0  0  0
  147.6626  138.8212  153.4820 H   0  0  0  0  0  0  0  0  0  0  0  0
  146.4555  138.8715  152.2163 H   0  0  0  0  0  0  0  0  0  0  0  0
  148.0582  140.7564  151.9525 H   0  0  0  0  0  0  0  0  0  0  0  0
  146.4272  141.3146  152.2000 H   0  0  0  0  0  0  0  0  0  0  0  0
  147.8215  142.6836  153.5582 H   0  0  0  0  0  0  0  0  0  0  0  0
  149.0974  140.1580  154.7089 H   0  0  0  0  0  0  0  0  0  0  0  0
  149.8348  141.3098  153.6357 H   0  0  0  0  0  0  0  0  0  0  0  0
  149.0231  142.8763  155.7360 H   0  0  0  0  0  0  0  0  0  0  0  0
  151.5603  143.6449  156.9710 H   0  0  0  0  0  0  0  0  0  0  0  0
  150.0258  143.2888  157.7458 H   0  0  0  0  0  0  0  0  0  0  0  0
  152.4166  143.9258  159.5821 H   0  0  0  0  0  0  0  0  0  0  0  0
  154.2021  141.1335  161.8234 H   0  0  0  0  0  0  0  0  0  0  0  0
  152.9638  142.1847  162.4865 H   0  0  0  0  0  0  0  0  0  0  0  0
  154.2913  142.8654  161.5631 H   0  0  0  0  0  0  0  0  0  0  0  0
  152.4973  139.6527  160.0752 H   0  0  0  0  0  0  0  0  0  0  0  0
  146.8813  142.1835  155.8547 H   0  0  0  0  0  0  0  0  0  0  0  0
  145.7201  142.1632  154.5648 H   0  0  0  0  0  0  0  0  0  0  0  0
  145.3496  140.2558  156.0507 H   0  0  0  0  0  0  0  0  0  0  0  0
  146.9833  139.6781  155.8291 H   0  0  0  0  0  0  0  0  0  0  0  0
  144.9814  139.9571  153.7071 H   0  0  0  0  0  0  0  0  0  0  0  0
  1  2  1  0  0  0  0
  1 22  1  0  0  0  0
  1 23  1  0  0  0  0
  1 24  1  0  0  0  0
  2  3  1  0  0  0  0
  3  4  1  0  0  0  0
  3 25  1  0  0  0  0
  3 26  1  0  0  0  0
  4  5  1  0  0  0  0
  4 27  1  0  0  0  0
  4 28  1  0  0  0  0
  5 21  1  0  0  0  0
  5  6  1  0  0  0  0
  5 48  1  0  0  0  0
  6  7  1  0  0  0  0
  6 29  1  0  0  0  0
  6 30  1  0  0  0  0
  7  8  1  0  0  0  0
  7 31  1  0  0  0  0
  7 32  1  0  0  0  0
  8  9  1  0  0  0  0
  8 20  1  0  0  0  0
  8 33  1  0  0  0  0
  9 10  1  0  0  0  0
  9 34  1  0  0  0  0
  9 35  1  0  0  0  0
 10 11  1  0  0  0  0
 10 36  1  0  0  0  0
 11 12  2  0  0  0  0
 11 13  1  0  0  0  0
 13 14  1  0  0  0  0
 13 37  1  0  0  0  0
 13 38  1  0  0  0  0
 14 19  1  0  0  0  0
 14 15  1  0  0  0  0
 15 16  2  0  0  0  0
 15 39  1  0  0  0  0
 16 17  1  0  0  0  0
 16 18  1  0  0  0  0
 17 40  1  0  0  0  0
 17 41  1  0  0  0  0
 17 42  1  0  0  0  0
 18 19  2  0  0  0  0
 18 43  1  0  0  0  0
 20 21  1  0  0  0  0
 20 44  1  0  0  0  0
 20 45  1  0  0  0  0
 21 46  1  0  0  0  0
 21 47  1  0  0  0  0
M  CHG  1   5   1
M  END
> <s_m_source_file>
AV-unprocessed.smi

> <i_m_source_file_index>
1126

> <i_lp_mmshare_version>
43012

> <i_f3d_flags>
0

> <s_epik_input>
W0NIM11PW0NIMl1bQ0gyXU4xW0NIMl1bQ0gyXVtDSF0oW0NIMl1bQ0gyXTEpW0NIMl1bTkhdQyg9TylbQ0gyXW4yW2NIXWMoW0NIM10pW2NIXW4y

> <s_epik_cmdline>
J2VwaWtfcHl0aG9uJywgJy1waCcsICc3LjAnLCAnLXRuJywgJzgnLCAnLW1hJywgJzIwMCcsICctbWV0YWxfYmluZGluZycsICctaW1hZScsICc8aW5maWxlLm1hZT4nLCAnLW9tYWUnLCAnPG91dGZpbGUubWFlPic=

> <r_lp_tautomer_probability>
1

> <r_epik_Ionization_Penalty>
0.00992859

> <r_epik_Ionization_Penalty_Charging>
0.00990284

> <r_epik_Ionization_Penalty_Neutral>
2.57527e-05

> <r_epik_State_Penalty>
0.00754525

> <r_epik_Charging_Adjusted_Penalty>
0.0174481

> <i_epik_Tot_Q>
1

> <i_epik_Tot_abs_Q>
1

> <r_epik_Metal_State_Penalty>
0.00754529

> <b_epik_Metal_Only>
0

> <s_lp_Force_Field>
OPLS_2005

> <r_lp_Energy>
20.6922

> <b_lp_Chiralities_Consistent>
1

> <s_lp_Variant>
AV-unprocessed.smi:1126-2

> <Gold.Version>
5.8.1

> <Gold.Id.Protein>
6NUR|6NUR_protein|mol2

> <Gold.PLP.Fitness>
46.7143

> <Gold.PLP.PLP>
-39.0060

> <Gold.PLP.part.hbond>
-2.0000

> <Gold.PLP.part.metal>
0.0000

> <Gold.PLP.part.buried>
-3.7812

> <Gold.PLP.part.nonpolar>
-33.1896

> <Gold.PLP.part.repulsive>
0.2418

> <Gold.PLP.ligand.clash>
0.0000

> <Gold.PLP.ligand.torsion>
0.6959

> <Gold.PLP.Chemscore.Hbond>
3.0000

> <Gold.PLP.Chemscore.CHOScore>
0.0000

> <Gold.PLP.Chemscore.Metal>
0.0000

> <Gold.Chemscore.Hbonds>
donor molecule, donor type, donor heavy atom, donor atom, acceptor molecule, acceptor atom, score
      L1  H     5    48       P1 10175  2.00
      L1  H    10    36       P1  8028  0.98

> <Gold.PLP.Chemscore.Internal.Correction>
0.1001

> <Gold.Rescore>
     Score         DG    S(hbond)    S(metal)    S(lipo)     H(rot)  DE(clash)    DE(int)     intcor
     15.01     -17.63       1.95        0.00      94.15       2.10       0.12       2.50       ----

> <Gold.Chemscore.Fitness>
15.0069

> <Gold.Chemscore.DG>
-17.6273

> <Gold.Chemscore.ZeroCoef>
-5.4800

> <Gold.Chemscore.Hbond>
1.9488

> <Gold.Chemscore.Metal>
0.0000

> <Gold.Chemscore.Lipo>
94.1532

> <Gold.Chemscore.Internal_Hbond>
0.0000

> <Gold.Chemscore.DEClash>
0.1223

> <Gold.Chemscore.DEInternal>
2.4981

> <Gold.Chemscore.Rot>
2.1006

> <Gold.Chemscore.Internal.Correction>
   9.000000E+99

> <Gold.Chemscore.Hbonds>
donor molecule, donor type, donor heavy atom, donor atom, acceptor molecule, acceptor atom, score
      L1  H     5    48       P1 10175  1.00
      L1  H    10    36       P1  8028  0.93

> <Gold.Chemscore.Hbond.Weighted>
-6.5089

> <Gold.Chemscore.Metal.Weighted>
-0.0000

> <Gold.Chemscore.Lipo.Weighted>
-11.0159

> <Gold.Chemscore.Internal_Hbond.Weighted>
0.0000

> <Gold.Chemscore.DEClash.Weighted>
0.1223

> <Gold.Chemscore.DEInternal.Weighted>
2.4981

> <Gold.Chemscore.Rot.Weighted>
5.3775

> <Gold.Chemscore.Internal.Correction.Weighted>
   9.000000E+99

> <Gold.Protein.RotatedTorsions>
[ 6907 6896 6895 6894 ] final   93.93 input  -60.11 | X-H torsion
[ 7974 7965 7964 7962 ] final   53.60 input  175.53 | X-H torsion
[ 8008 7997 7996 7995 ] final   38.35 input   59.86 | X-H torsion
[ 10167 10162 10161 10158 ] final   51.15 input  -65.29 | X-H torsion
[ 10718 10713 10712 10709 ] final   98.38 input   66.30 | X-H torsion
[ 10763 10752 10751 10750 ] final -143.18 input  -60.55 | X-H torsion
[ 11005 11000 10999 10996 ] final   89.20 input  -57.11 | X-H torsion

> <Gold.Protein.ActiveResidues>
 VAL166  LYS551  ARG553  GLY616  TRP617  ASP618  TYR619  PRO620  LYS621  CYS622 
 ASP623  PHE694  ASN695  SER759  ASP760  ASP761  ALA762  ILE779  LEU786  VAL792 
 PHE793  MET794  SER795  GLU796  ALA797  LYS798  CYS799  TRP800  GLU811  SER814 

> <Gold.Protein.RotatedAtoms>
  152.5451  134.1272  159.8423 H   0  0  0  0  0  0  0  0  0  0  0  0  # atno 6907 bound_to 6896
  151.1322  133.5022  159.2606 H   0  0  0  0  0  0  0  0  0  0  0  0  # atno 6908 bound_to 6896
  151.1663  135.0307  159.8787 H   0  0  0  0  0  0  0  0  0  0  0  0  # atno 6909 bound_to 6896
  145.9695  139.4135  143.0199 H   0  0  0  0  0  0  0  0  0  0  0  0  # atno 7974 bound_to 7965
  155.2188  140.3329  155.4318 H   0  0  0  0  0  0  0  0  0  0  0  0  # atno 8008 bound_to 7997
  156.2341  140.1864  156.7212 H   0  0  0  0  0  0  0  0  0  0  0  0  # atno 8009 bound_to 7997
  154.6029  140.0620  156.9378 H   0  0  0  0  0  0  0  0  0  0  0  0  # atno 8010 bound_to 7997
  140.2649  144.3331  150.6307 H   0  0  0  0  0  0  0  0  0  0  0  0  # atno 10167 bound_to 10162
  157.6896  131.0638  150.4787 H   0  0  0  0  0  0  0  0  0  0  0  0  # atno 10718 bound_to 10713
  154.8480  135.3475  154.6146 H   0  0  0  0  0  0  0  0  0  0  0  0  # atno 10763 bound_to 10752
  153.6754  135.6983  153.5138 H   0  0  0  0  0  0  0  0  0  0  0  0  # atno 10764 bound_to 10752
  153.2709  135.4293  155.0943 H   0  0  0  0  0  0  0  0  0  0  0  0  # atno 10765 bound_to 10752
  139.8880  134.8536  156.3109 H   0  0  0  0  0  0  0  0  0  0  0  0  # atno 11005 bound_to 11000
  145.7927  140.9807  143.1040 LP  0  0  0  0  0  0  0  0  0  0  0  0  # atno 17320 bound_to 7965
  144.6833  139.9702  143.7482 LP  0  0  0  0  0  0  0  0  0  0  0  0  # atno 17321 bound_to 7965
  140.5936  143.2167  151.7206 LP  0  0  0  0  0  0  0  0  0  0  0  0  # atno 17342 bound_to 10162
  139.5005  144.3901  152.0288 LP  0  0  0  0  0  0  0  0  0  0  0  0  # atno 17343 bound_to 10162
  156.5120  130.4141  149.6296 LP  0  0  0  0  0  0  0  0  0  0  0  0  # atno 17370 bound_to 10713
  156.3232  130.7291  151.2207 LP  0  0  0  0  0  0  0  0  0  0  0  0  # atno 17371 bound_to 10713
  140.9851  133.7243  156.0730 LP  0  0  0  0  0  0  0  0  0  0  0  0  # atno 17394 bound_to 11000
  140.7699  134.3845  157.5510 LP  0  0  0  0  0  0  0  0  0  0  0  0  # atno 17395 bound_to 11000

$$$$
