#       Name:                AV-unprocessed.smi:2623
#       Creating user name   scv26
#       Creation time:       Fri Mar 27 14:23:40 2020


#       File generated by GOLD software.
#

@<TRIPOS>MOLECULE
AV-unprocessed.smi:2623
    47    49     1
SMALL
NO_CHARGES


@<TRIPOS>ATOM
      1 ****        -1.4325   2.7667  -3.3631 O.3            1 S1                 0.0000
      2 ****        -1.1854   1.8583  -2.3086 C.3            1 S1                 0.0000
      3 ****        -1.3849   2.4423  -0.9382 C.2            1 S1                 0.0000
      4 ****        -1.8537   3.6756  -0.7319 N.2            1 S1                 0.0000
      5 ****        -1.8786   3.7684   0.6454 C.ar           1 S1                 0.0000
      6 ****        -2.2790   4.8309   1.4873 C.ar           1 S1                 0.0000
      7 ****        -2.2178   4.6927   2.8895 C.ar           1 S1                 0.0000
      8 ****        -1.7565   3.4929   3.4685 C.ar           1 S1                 0.0000
      9 ****        -1.3532   2.4219   2.6478 C.ar           1 S1                 0.0000
     10 ****        -1.4162   2.5649   1.2485 C.ar           1 S1                 0.0000
     11 ****        -1.1032   1.7283   0.1808 N.pl3          1 S1                 0.0000
     12 ****        -0.5869   0.3685   0.2709 C.3            1 S1                 0.0000
     13 ****         0.9533   0.3054   0.2032 C.3            1 S1                 0.0000
     14 ****         1.5175   1.0577   1.2591 O.3            1 S1                 0.0000
     15 ****         1.4869  -1.1315   0.2944 C.3            1 S1                 0.0000
     16 ****         1.0778  -1.8513  -0.8611 O.3            1 S1                 0.0000
     17 ****         1.4501  -3.1739  -0.9713 C.ar           1 S1                 0.0000
     18 ****         1.0071  -3.8697  -2.1153 C.ar           1 S1                 0.0000
     19 ****         1.3434  -5.2231  -2.3116 C.ar           1 S1                 0.0000
     20 ****         2.1305  -5.8973  -1.3602 C.ar           1 S1                 0.0000
     21 ****         2.5784  -5.2163  -0.2132 C.ar           1 S1                 0.0000
     22 ****         2.2414  -3.8627  -0.0168 C.ar           1 S1                 0.0000
     23 ****        -1.2885   2.3215  -4.1838 H              1 S1                 0.0000
     24 ****        -1.8475   1.0006  -2.4298 H              1 S1                 0.0000
     25 ****        -0.1618   1.4976  -2.4029 H              1 S1                 0.0000
     26 ****        -2.6335   5.7539   1.0530 H              1 S1                 0.0000
     27 ****        -2.5259   5.5114   3.5234 H              1 S1                 0.0000
     28 ****        -1.7117   3.3955   4.5433 H              1 S1                 0.0000
     29 ****        -0.9985   1.5026   3.0890 H              1 S1                 0.0000
     30 ****        -0.9421  -0.0752   1.2017 H              1 S1                 0.0000
     31 ****        -1.0278  -0.2273  -0.5285 H              1 S1                 0.0000
     32 ****         1.3001   0.7493  -0.7300 H              1 S1                 0.0000
     33 ****         1.2251   0.6913   2.0795 H              1 S1                 0.0000
     34 ****         2.5774  -1.1126   0.3420 H              1 S1                 0.0000
     35 ****         1.1161  -1.6134   1.2009 H              1 S1                 0.0000
     36 ****         0.4027  -3.3600  -2.8512 H              1 S1                 0.0000
     37 ****         0.9978  -5.7432  -3.1928 H              1 S1                 0.0000
     38 ****         2.3906  -6.9348  -1.5099 H              1 S1                 0.0000
     39 ****         3.1830  -5.7326   0.5179 H              1 S1                 0.0000
     40 ****         2.6050  -3.3752   0.8747 H              1 S1                 0.0000
     41 ****        -0.8106   3.5463  -3.2890 LP             1 S1                 0.0000
     42 ****        -2.3779   3.0889  -3.3159 LP             1 S1                 0.0000
     43 ****        -2.1206   4.3624  -1.4080 LP             1 S1                 0.0000
     44 ****         1.2206   2.0102   1.1905 LP             1 S1                 0.0000
     45 ****         2.5153   1.0151   1.2075 LP             1 S1                 0.0000
     46 ****         1.4495  -1.3716  -1.6560 LP             1 S1                 0.0000
     47 ****         0.0787  -1.8211  -0.8907 LP             1 S1                 0.0000
@<TRIPOS>BOND
    1    1    2 1     
    2    1   23 1     
    3    2    3 1     
    4    2   24 1     
    5    2   25 1     
    6    3   11 1     
    7    3    4 2     
    8    4    5 1     
    9    5   10 ar    
   10    5    6 ar    
   11    6    7 ar    
   12    6   26 1     
   13    7    8 ar    
   14    7   27 1     
   15    8    9 ar    
   16    8   28 1     
   17    9   10 ar    
   18    9   29 1     
   19   10   11 1     
   20   11   12 1     
   21   12   13 1     
   22   12   30 1     
   23   12   31 1     
   24   13   14 1     
   25   13   15 1     
   26   13   32 1     
   27   14   33 1     
   28   15   16 1     
   29   15   34 1     
   30   15   35 1     
   31   16   17 1     
   32   17   22 ar    
   33   17   18 ar    
   34   18   19 ar    
   35   18   36 1     
   36   19   20 ar    
   37   19   37 1     
   38   20   21 ar    
   39   20   38 1     
   40   21   22 ar    
   41   21   39 1     
   42   22   40 1     
   43    1   41 1     
   44    1   42 1     
   45    4   43 1     
   46   14   44 1     
   47   14   45 1     
   48   16   46 1     
   49   16   47 1     
@<TRIPOS>SUBSTRUCTURE
      1 S1             1
@<TRIPOS>SET
LONE_PAIRS      STATIC     ATOMS    <user>   **** ""
7 41 42 43 44 45 46 47
DONOR_HYDROGENS      STATIC     ATOMS    <user>   **** ""
2 23 33
ATOM$BLUE        STATIC     ATOMS    COLORGROUP SYSTEM
7 41 42 43 44 45 46 47
ATOM$RED        STATIC     ATOMS    COLORGROUP SYSTEM
2 23 33
