AV-unprocessed.smi:1642|AV-procd|sdf|6570|dock7
  -GOLD-   22720 7253D 1   1.00000     0.00000
 Structure written by MMmdl.
 35 36  0  0  0  0  0  0  0  0  2 V2000
  152.4313  140.6999  158.6288 C   0  0  0  0  0  0  0  0  0  0  0  0
  151.9750  140.0811  157.3518 C   0  0  0  0  0  0  0  0  0  0  0  0
  152.7834  139.3581  156.5672 N   0  0  0  0  0  0  0  0  0  0  0  0
  152.1337  138.8852  155.4359 N   0  0  0  0  0  0  0  0  0  0  0  0
  150.8492  139.2658  155.4012 C   0  0  0  0  0  0  0  0  0  0  0  0
  149.9521  138.9208  154.3553 N   0  0  0  0  0  0  0  0  0  0  0  0
  148.6994  139.3662  154.1530 C   0  0  0  0  0  0  0  0  0  0  0  0
  148.1048  140.1739  154.8671 O   0  0  0  0  0  0  0  0  0  0  0  0
  148.1558  138.8173  153.0581 N   0  0  0  0  0  0  0  0  0  0  0  0
  146.8082  139.1070  152.5871 C   0  0  0  0  0  0  0  0  0  0  0  0
  146.4726  138.2725  151.3419 C   0  0  0  0  0  0  0  0  0  0  0  0
  146.1563  136.8675  151.6895 N   0  3  0  0  0  0  0  0  0  0  0  0
  145.2205  136.6909  152.8269 C   0  0  0  0  0  0  0  0  0  0  0  0
  144.2515  135.5657  152.4375 C   0  0  0  0  0  0  0  0  0  0  0  0
  144.8913  134.9089  151.2185 C   0  0  0  0  0  0  0  0  0  0  0  0
  145.6383  136.0655  150.5633 C   0  0  0  0  0  0  0  0  0  0  0  0
  150.3247  140.2417  156.7628 S   0  0  0  0  0  0  0  0  0  0  0  0
  153.5200  140.7551  158.6610 H   0  0  0  0  0  0  0  0  0  0  0  0
  152.0851  140.1054  159.4742 H   0  0  0  0  0  0  0  0  0  0  0  0
  152.0290  141.7088  158.7209 H   0  0  0  0  0  0  0  0  0  0  0  0
  150.3074  138.2559  153.6842 H   0  0  0  0  0  0  0  0  0  0  0  0
  148.7061  138.1625  152.5216 H   0  0  0  0  0  0  0  0  0  0  0  0
  146.0940  138.8922  153.3839 H   0  0  0  0  0  0  0  0  0  0  0  0
  146.7335  140.1729  152.3664 H   0  0  0  0  0  0  0  0  0  0  0  0
  145.6391  138.7138  150.7928 H   0  0  0  0  0  0  0  0  0  0  0  0
  147.3312  138.2789  150.6686 H   0  0  0  0  0  0  0  0  0  0  0  0
  145.7937  136.4278  153.7166 H   0  0  0  0  0  0  0  0  0  0  0  0
  144.6676  137.6052  153.0487 H   0  0  0  0  0  0  0  0  0  0  0  0
  144.0770  134.8598  153.2501 H   0  0  0  0  0  0  0  0  0  0  0  0
  143.2876  135.9930  152.1577 H   0  0  0  0  0  0  0  0  0  0  0  0
  145.5990  134.1421  151.5373 H   0  0  0  0  0  0  0  0  0  0  0  0
  144.1629  134.4422  150.5547 H   0  0  0  0  0  0  0  0  0  0  0  0
  144.9419  136.6637  149.9725 H   0  0  0  0  0  0  0  0  0  0  0  0
  146.4398  135.7290  149.9050 H   0  0  0  0  0  0  0  0  0  0  0  0
  147.0217  136.4253  151.9652 H   0  0  0  0  0  0  0  0  0  0  0  0
  1  2  1  0  0  0  0
  1 18  1  0  0  0  0
  1 19  1  0  0  0  0
  1 20  1  0  0  0  0
  2 17  1  0  0  0  0
  2  3  2  0  0  0  0
  3  4  1  0  0  0  0
  4  5  2  0  0  0  0
  5  6  1  0  0  0  0
  5 17  1  0  0  0  0
  6  7  1  0  0  0  0
  6 21  1  0  0  0  0
  7  8  2  0  0  0  0
  7  9  1  0  0  0  0
  9 10  1  0  0  0  0
  9 22  1  0  0  0  0
 10 11  1  0  0  0  0
 10 23  1  0  0  0  0
 10 24  1  0  0  0  0
 11 12  1  0  0  0  0
 11 25  1  0  0  0  0
 11 26  1  0  0  0  0
 12 16  1  0  0  0  0
 12 13  1  0  0  0  0
 12 35  1  0  0  0  0
 13 14  1  0  0  0  0
 13 27  1  0  0  0  0
 13 28  1  0  0  0  0
 14 15  1  0  0  0  0
 14 29  1  0  0  0  0
 14 30  1  0  0  0  0
 15 16  1  0  0  0  0
 15 31  1  0  0  0  0
 15 32  1  0  0  0  0
 16 33  1  0  0  0  0
 16 34  1  0  0  0  0
M  CHG  1  12   1
M  END
> <s_m_source_file>
AV-unprocessed.smi

> <i_m_source_file_index>
1642

> <i_lp_mmshare_version>
43012

> <i_f3d_flags>
0

> <s_epik_input>
W0NIM11jMW5uYyhzMSlbTkhdQyg9TylbTkhdW0NIMl1bQ0gyXU4yW0NIMl1bQ0gyXVtDSDJdW0NIMl0y

> <s_epik_cmdline>
J2VwaWtfcHl0aG9uJywgJy1waCcsICc3LjAnLCAnLXRuJywgJzgnLCAnLW1hJywgJzIwMCcsICctbWV0YWxfYmluZGluZycsICctaW1hZScsICc8aW5maWxlLm1hZT4nLCAnLW9tYWUnLCAnPG91dGZpbGUubWFlPic=

> <r_lp_tautomer_probability>
1

> <r_epik_Ionization_Penalty>
0.00661496

> <r_epik_Ionization_Penalty_Charging>
0.0023443

> <r_epik_Ionization_Penalty_Neutral>
0.00427066

> <r_epik_State_Penalty>
0.00184107

> <r_epik_Charging_Adjusted_Penalty>
0.00418537

> <i_epik_Tot_Q>
1

> <i_epik_Tot_abs_Q>
1

> <r_epik_Metal_State_Penalty>
0.375387

> <b_epik_Metal_Only>
0

> <s_lp_Force_Field>
OPLS_2005

> <r_lp_Energy>
26.1101

> <b_lp_Chiralities_Consistent>
1

> <s_lp_Variant>
AV-unprocessed.smi:1642-1

> <Gold.Version>
5.8.1

> <Gold.Id.Protein>
6NUR|6NUR_protein|mol2

> <Gold.PLP.Fitness>
39.3739

> <Gold.PLP.PLP>
-27.6551

> <Gold.PLP.part.hbond>
-4.0037

> <Gold.PLP.part.metal>
0.0000

> <Gold.PLP.part.buried>
-1.2898

> <Gold.PLP.part.nonpolar>
-22.9105

> <Gold.PLP.part.repulsive>
0.2648

> <Gold.PLP.ligand.clash>
0.0000

> <Gold.PLP.ligand.torsion>
0.1476

> <Gold.PLP.Chemscore.Hbond>
4.0000

> <Gold.PLP.Chemscore.CHOScore>
0.0000

> <Gold.PLP.Chemscore.Metal>
0.0000

> <Gold.Chemscore.Hbonds>
donor molecule, donor type, donor heavy atom, donor atom, acceptor molecule, acceptor atom, score
      L1  H     9    22       P1  7948  0.99
      L1  H    12    35       P1  7948  2.00
      P1  H  7997  8010       L1     3  1.00

> <Gold.PLP.Chemscore.Internal.Correction>
0.0140

> <Gold.Rescore>
     Score         DG    S(hbond)    S(metal)    S(lipo)     H(rot)  DE(clash)    DE(int)     intcor
     15.03     -16.74       2.67        0.00      55.67       1.63       0.34       1.37       ----

> <Gold.Chemscore.Fitness>
15.0284

> <Gold.Chemscore.DG>
-16.7359

> <Gold.Chemscore.ZeroCoef>
-5.4800

> <Gold.Chemscore.Hbond>
2.6690

> <Gold.Chemscore.Metal>
0.0000

> <Gold.Chemscore.Lipo>
55.6687

> <Gold.Chemscore.Internal_Hbond>
0.0000

> <Gold.Chemscore.DEClash>
0.3415

> <Gold.Chemscore.DEInternal>
1.3660

> <Gold.Chemscore.Rot>
1.6297

> <Gold.Chemscore.Internal.Correction>
   9.000000E+99

> <Gold.Chemscore.Hbonds>
donor molecule, donor type, donor heavy atom, donor atom, acceptor molecule, acceptor atom, score
      L1  H     9    22       P1  7948  0.87
      L1  H    12    35       P1  7948  0.95
      P1  H  7997  8010       L1     3  0.76

> <Gold.Chemscore.Hbond.Weighted>
-8.9146

> <Gold.Chemscore.Metal.Weighted>
-0.0000

> <Gold.Chemscore.Lipo.Weighted>
-6.5132

> <Gold.Chemscore.Internal_Hbond.Weighted>
0.0000

> <Gold.Chemscore.DEClash.Weighted>
0.3415

> <Gold.Chemscore.DEInternal.Weighted>
1.3660

> <Gold.Chemscore.Rot.Weighted>
4.1720

> <Gold.Chemscore.Internal.Correction.Weighted>
   9.000000E+99

> <Gold.Protein.RotatedTorsions>
[ 6907 6896 6895 6894 ] final  118.02 input  -60.11 | X-H torsion
[ 7974 7965 7964 7962 ] final  -47.46 input  175.53 | X-H torsion
[ 8008 7997 7996 7995 ] final   73.77 input   59.86 | X-H torsion
[ 10167 10162 10161 10158 ] final -151.61 input  -65.29 | X-H torsion
[ 10718 10713 10712 10709 ] final   32.51 input   66.30 | X-H torsion
[ 10763 10752 10751 10750 ] final   -1.81 input  -60.55 | X-H torsion
[ 11005 11000 10999 10996 ] final  -66.47 input  -57.11 | X-H torsion

> <Gold.Protein.ActiveResidues>
 VAL166  LYS551  ARG553  GLY616  TRP617  ASP618  TYR619  PRO620  LYS621  CYS622 
 ASP623  PHE694  ASN695  SER759  ASP760  ASP761  ALA762  ILE779  LEU786  VAL792 
 PHE793  MET794  SER795  GLU796  ALA797  LYS798  CYS799  TRP800  GLU811  SER814 

> <Gold.Protein.RotatedAtoms>
  152.4572  133.7747  159.6817 H   0  0  0  0  0  0  0  0  0  0  0  0  # atno 6907 bound_to 6896
  150.8502  133.7788  159.3034 H   0  0  0  0  0  0  0  0  0  0  0  0  # atno 6908 bound_to 6896
  151.5386  135.1071  159.9972 H   0  0  0  0  0  0  0  0  0  0  0  0  # atno 6909 bound_to 6896
  145.9614  140.7476  142.9456 H   0  0  0  0  0  0  0  0  0  0  0  0  # atno 7974 bound_to 7965
  155.7885  140.3480  155.5336 H   0  0  0  0  0  0  0  0  0  0  0  0  # atno 8008 bound_to 7997
  155.8657  140.0978  157.1604 H   0  0  0  0  0  0  0  0  0  0  0  0  # atno 8009 bound_to 7997
  154.4014  140.1350  156.4004 H   0  0  0  0  0  0  0  0  0  0  0  0  # atno 8010 bound_to 7997
  139.7252  143.8894  152.2517 H   0  0  0  0  0  0  0  0  0  0  0  0  # atno 10167 bound_to 10162
  157.2861  130.7279  149.6584 H   0  0  0  0  0  0  0  0  0  0  0  0  # atno 10718 bound_to 10713
  153.3498  135.6985  153.6798 H   0  0  0  0  0  0  0  0  0  0  0  0  # atno 10763 bound_to 10752
  153.5529  135.3550  155.2767 H   0  0  0  0  0  0  0  0  0  0  0  0  # atno 10764 bound_to 10752
  154.8651  135.4231  154.2731 H   0  0  0  0  0  0  0  0  0  0  0  0  # atno 10765 bound_to 10752
  141.1483  133.6700  156.6145 H   0  0  0  0  0  0  0  0  0  0  0  0  # atno 11005 bound_to 11000
  144.6816  140.2596  143.7320 LP  0  0  0  0  0  0  0  0  0  0  0  0  # atno 17320 bound_to 7965
  145.8035  139.1974  143.2034 LP  0  0  0  0  0  0  0  0  0  0  0  0  # atno 17321 bound_to 7965
  139.8802  144.7022  150.8887 LP  0  0  0  0  0  0  0  0  0  0  0  0  # atno 17342 bound_to 10162
  140.7761  143.3668  151.1725 LP  0  0  0  0  0  0  0  0  0  0  0  0  # atno 17343 bound_to 10162
  155.9665  130.4323  150.4958 LP  0  0  0  0  0  0  0  0  0  0  0  0  # atno 17370 bound_to 10713
  157.2911  131.0626  151.2133 LP  0  0  0  0  0  0  0  0  0  0  0  0  # atno 17371 bound_to 10713
  140.3588  134.7705  157.4519 LP  0  0  0  0  0  0  0  0  0  0  0  0  # atno 17394 bound_to 11000
  140.0801  134.5743  155.8549 LP  0  0  0  0  0  0  0  0  0  0  0  0  # atno 17395 bound_to 11000

$$$$
