AV-unprocessed.smi:110|AV-procd|sdf|1069|dock8
  -GOLD-   2262018153D 1   1.00000     0.00000
 Structure written by MMmdl.
 46 50  0  0  0  0  0  0  0  0  1 V2000
  143.7282  142.0776  154.8361 O   0  0  0  0  0  0  0  0  0  0  0  0
  144.5015  143.1227  155.3861 C   0  0  0  0  0  0  0  0  0  0  0  0
  145.9950  142.7704  155.3113 C   0  0  1  0  0  0  0  0  0  0  0  0
  146.1947  141.4381  155.7592 O   0  0  0  0  0  0  0  0  0  0  0  0
  147.3786  140.9366  155.2290 C   0  0  2  0  0  0  0  0  0  0  0  0
  148.4801  141.1551  156.2322 N   0  0  0  0  0  0  0  0  0  0  0  0
  148.3883  141.9386  157.3610 C   0  0  0  0  0  0  0  0  0  0  0  0
  149.4678  142.0153  158.0873 N   0  0  0  0  0  0  0  0  0  0  0  0
  150.3992  141.2541  157.3948 C   0  0  0  0  0  0  0  0  0  0  0  0
  151.7657  140.9153  157.6146 C   0  0  0  0  0  0  0  0  0  0  0  0
  152.4994  141.3232  158.6760 N   0  0  0  0  0  0  0  0  0  0  0  0
  153.1702  140.3005  159.4925 C   0  0  0  0  0  0  0  0  0  0  0  0
  153.4188  140.9028  160.8885 C   0  0  0  0  0  0  0  0  0  0  0  0
  152.9195  142.2970  160.6901 C   0  0  0  0  0  0  0  0  0  0  0  0
  152.9377  143.3504  161.6209 C   0  0  0  0  0  0  0  0  0  0  0  0
  152.4272  144.6030  161.2177 C   0  0  0  0  0  0  0  0  0  0  0  0
  151.9220  144.7811  159.9087 C   0  0  0  0  0  0  0  0  0  0  0  0
  151.9152  143.7085  158.9899 C   0  0  0  0  0  0  0  0  0  0  0  0
  152.4089  142.4549  159.4059 C   0  0  0  0  0  0  0  0  0  0  0  0
  152.3602  140.0829  156.7242 N   0  0  0  0  0  0  0  0  0  0  0  0
  151.6795  139.6404  155.6653 C   0  0  0  0  0  0  0  0  0  0  0  0
  150.4140  139.8888  155.3266 N   0  0  0  0  0  0  0  0  0  0  0  0
  149.7910  140.7022  156.2291 C   0  0  0  0  0  0  0  0  0  0  0  0
  147.6121  141.6435  153.8830 C   0  0  1  0  0  0  0  0  0  0  0  0
  147.4100  140.7559  152.8014 O   0  0  0  0  0  0  0  0  0  0  0  0
  146.5434  142.7419  153.8750 C   0  0  2  0  0  0  0  0  0  0  0  0
  147.1142  143.9933  153.5489 O   0  0  0  0  0  0  0  0  0  0  0  0
  146.5777  143.4501  155.9334 H   0  0  0  0  0  0  0  0  0  0  0  0
  147.3204  139.8508  155.1411 H   0  0  0  0  0  0  0  0  0  0  0  0
  148.6307  142.0244  153.8159 H   0  0  0  0  0  0  0  0  0  0  0  0
  145.7455  142.5031  153.1695 H   0  0  0  0  0  0  0  0  0  0  0  0
  143.9164  142.0190  153.9119 H   0  0  0  0  0  0  0  0  0  0  0  0
  144.2887  144.0627  154.8762 H   0  0  0  0  0  0  0  0  0  0  0  0
  144.1969  143.2411  156.4265 H   0  0  0  0  0  0  0  0  0  0  0  0
  147.4807  142.4559  157.6363 H   0  0  0  0  0  0  0  0  0  0  0  0
  152.5608  139.3982  159.5619 H   0  0  0  0  0  0  0  0  0  0  0  0
  154.1145  140.0274  159.0201 H   0  0  0  0  0  0  0  0  0  0  0  0
  152.8397  140.3965  161.6612 H   0  0  0  0  0  0  0  0  0  0  0  0
  154.4742  140.8959  161.1612 H   0  0  0  0  0  0  0  0  0  0  0  0
  153.3336  143.2071  162.6154 H   0  0  0  0  0  0  0  0  0  0  0  0
  152.4277  145.4315  161.9105 H   0  0  0  0  0  0  0  0  0  0  0  0
  151.5410  145.7457  159.6073 H   0  0  0  0  0  0  0  0  0  0  0  0
  151.5390  143.8534  157.9880 H   0  0  0  0  0  0  0  0  0  0  0  0
  152.2256  138.9935  154.9947 H   0  0  0  0  0  0  0  0  0  0  0  0
  148.2382  140.6194  152.3671 H   0  0  0  0  0  0  0  0  0  0  0  0
  146.8729  144.2075  152.6601 H   0  0  0  0  0  0  0  0  0  0  0  0
  1  2  1  0  0  0  0
  1 32  1  0  0  0  0
  2  3  1  0  0  0  0
  2 33  1  0  0  0  0
  2 34  1  0  0  0  0
  3 28  1  0  0  0  0
  3 26  1  0  0  0  0
  3  4  1  0  0  0  0
  4  5  1  0  0  0  0
  5 29  1  0  0  0  0
  5  6  1  0  0  0  0
  5 24  1  0  0  0  0
  6 23  1  0  0  0  0
  6  7  1  0  0  0  0
  7  8  2  0  0  0  0
  7 35  1  0  0  0  0
  8  9  1  0  0  0  0
  9 23  2  0  0  0  0
  9 10  1  0  0  0  0
 10 11  1  0  0  0  0
 10 20  2  0  0  0  0
 11 19  1  0  0  0  0
 11 12  1  0  0  0  0
 12 13  1  0  0  0  0
 12 36  1  0  0  0  0
 12 37  1  0  0  0  0
 13 14  1  0  0  0  0
 13 38  1  0  0  0  0
 13 39  1  0  0  0  0
 14 19  2  0  0  0  0
 14 15  1  0  0  0  0
 15 16  2  0  0  0  0
 15 40  1  0  0  0  0
 16 17  1  0  0  0  0
 16 41  1  0  0  0  0
 17 18  2  0  0  0  0
 17 42  1  0  0  0  0
 18 19  1  0  0  0  0
 18 43  1  0  0  0  0
 20 21  1  0  0  0  0
 21 22  2  0  0  0  0
 21 44  1  0  0  0  0
 22 23  1  0  0  0  0
 24 30  1  0  0  0  0
 24 25  1  0  0  0  0
 24 26  1  0  0  0  0
 25 45  1  0  0  0  0
 26 31  1  0  0  0  0
 26 27  1  0  0  0  0
 27 46  1  0  0  0  0
M  END
> <s_m_source_file>
AV-unprocessed.smi

> <i_m_source_file_index>
110

> <i_lp_mmshare_version>
43012

> <i_f3d_flags>
0

> <s_epik_input>
W09IXVtDSDJdW0NASF0xT1tDQEhdKFtDQEhdKFtPSF0pW0NAQEhdMVtPSF0pbihbY0hdbjIpYyhjMjMpbltjSF1uYzNOKFtDSDJdW0NIMl00KWMoYzQ1KVtjSF1bY0hdW2NIXVtjSF01

> <s_epik_cmdline>
J2VwaWtfcHl0aG9uJywgJy1waCcsICc3LjAnLCAnLXRuJywgJzgnLCAnLW1hJywgJzIwMCcsICctbWV0YWxfYmluZGluZycsICctaW1hZScsICc8aW5maWxlLm1hZT4nLCAnLW9tYWUnLCAnPG91dGZpbGUubWFlPic=

> <r_lp_tautomer_probability>
1

> <r_epik_Ionization_Penalty>
0.00068475

> <r_epik_Ionization_Penalty_Charging>
0

> <r_epik_Ionization_Penalty_Neutral>
0.00068475

> <r_epik_State_Penalty>
0.000417442

> <r_epik_Charging_Adjusted_Penalty>
0.000417442

> <i_epik_Tot_Q>
0

> <i_epik_Tot_abs_Q>
0

> <r_epik_Metal_State_Penalty>
-0

> <b_epik_Metal_Only>
0

> <s_epik_Chemistry_Notes>
This compound contains an acetal/aminal-like group ( X-CH(R)-Y where X, Y are N, S, or O) that may be acid/base labile, releasing an aldehyde.

> <s_lp_Force_Field>
OPLS_2005

> <r_lp_Energy>
55.3724

> <b_lp_Chiralities_Consistent>
1

> <s_lp_Variant>
AV-unprocessed.smi:110-7

> <Gold.Version>
5.8.1

> <Gold.Id.Protein>
6NUR|6NUR_protein|mol2

> <Gold.PLP.Fitness>
57.5920

> <Gold.PLP.PLP>
-49.9946

> <Gold.PLP.part.hbond>
-5.0000

> <Gold.PLP.part.metal>
0.0000

> <Gold.PLP.part.buried>
-4.3137

> <Gold.PLP.part.nonpolar>
-40.2550

> <Gold.PLP.part.repulsive>
0.1464

> <Gold.PLP.ligand.clash>
0.0000

> <Gold.PLP.ligand.torsion>
0.9107

> <Gold.PLP.Chemscore.Hbond>
3.0879

> <Gold.PLP.Chemscore.CHOScore>
0.0000

> <Gold.PLP.Chemscore.Metal>
0.0000

> <Gold.Chemscore.Hbonds>
donor molecule, donor type, donor heavy atom, donor atom, acceptor molecule, acceptor atom, score
      L1  H     1    32       P1 10175  0.09
      L1  H    25    45       P1  7957  1.00
      P1  H  7997  8009       L1    20  1.00
      P1  H  8022  8030       L1    27  0.04

> <Gold.PLP.Chemscore.Internal.Correction>
0.1551

> <Gold.Rescore>
     Score         DG    S(hbond)    S(metal)    S(lipo)     H(rot)  DE(clash)    DE(int)     intcor
     17.62     -19.10       2.90        0.00     107.61       3.38       0.27       1.21       ----

> <Gold.Chemscore.Fitness>
17.6246

> <Gold.Chemscore.DG>
-19.1033

> <Gold.Chemscore.ZeroCoef>
-5.4800

> <Gold.Chemscore.Hbond>
2.9027

> <Gold.Chemscore.Metal>
0.0000

> <Gold.Chemscore.Lipo>
107.6120

> <Gold.Chemscore.Internal_Hbond>
0.0000

> <Gold.Chemscore.DEClash>
0.2734

> <Gold.Chemscore.DEInternal>
1.2053

> <Gold.Chemscore.Rot>
3.3837

> <Gold.Chemscore.Internal.Correction>
   9.000000E+99

> <Gold.Chemscore.Hbonds>
donor molecule, donor type, donor heavy atom, donor atom, acceptor molecule, acceptor atom, score
      L1  H    25    45       P1  7957  1.00
      P1  H  7997  8009       L1    20  0.84
      P1  H  8022  8030       L1    27  0.01

> <Gold.Chemscore.Hbond.Weighted>
-9.6949

> <Gold.Chemscore.Metal.Weighted>
-0.0000

> <Gold.Chemscore.Lipo.Weighted>
-12.5906

> <Gold.Chemscore.Internal_Hbond.Weighted>
0.0000

> <Gold.Chemscore.DEClash.Weighted>
0.2734

> <Gold.Chemscore.DEInternal.Weighted>
1.2053

> <Gold.Chemscore.Rot.Weighted>
8.6622

> <Gold.Chemscore.Internal.Correction.Weighted>
   9.000000E+99

> <Gold.Protein.RotatedTorsions>
[ 6907 6896 6895 6894 ] final    6.36 input  -60.11 | X-H torsion
[ 7974 7965 7964 7962 ] final    7.04 input  175.53 | X-H torsion
[ 8008 7997 7996 7995 ] final  178.92 input   59.86 | X-H torsion
[ 10167 10162 10161 10158 ] final   57.18 input  -65.29 | X-H torsion
[ 10718 10713 10712 10709 ] final  169.15 input   66.30 | X-H torsion
[ 10763 10752 10751 10750 ] final -168.78 input  -60.55 | X-H torsion
[ 11005 11000 10999 10996 ] final  -86.20 input  -57.11 | X-H torsion

> <Gold.Protein.ActiveResidues>
 VAL166  LYS551  ARG553  GLY616  TRP617  ASP618  TYR619  PRO620  LYS621  CYS622 
 ASP623  PHE694  ASN695  SER759  ASP760  ASP761  ALA762  ILE779  LEU786  VAL792 
 PHE793  MET794  SER795  GLU796  ALA797  LYS798  CYS799  TRP800  GLU811  SER814 

> <Gold.Protein.RotatedAtoms>
  151.6724  135.0974  160.0200 H   0  0  0  0  0  0  0  0  0  0  0  0  # atno 6907 bound_to 6896
  152.3884  133.6639  159.6226 H   0  0  0  0  0  0  0  0  0  0  0  0  # atno 6908 bound_to 6896
  150.7804  133.8913  159.3355 H   0  0  0  0  0  0  0  0  0  0  0  0  # atno 6909 bound_to 6896
  146.2430  140.0142  142.8404 H   0  0  0  0  0  0  0  0  0  0  0  0  # atno 7974 bound_to 7965
  156.0492  140.1321  157.0069 H   0  0  0  0  0  0  0  0  0  0  0  0  # atno 8008 bound_to 7997
  154.4427  140.1014  156.6422 H   0  0  0  0  0  0  0  0  0  0  0  0  # atno 8009 bound_to 7997
  155.5549  140.3463  155.4479 H   0  0  0  0  0  0  0  0  0  0  0  0  # atno 8010 bound_to 7997
  140.2008  144.3990  150.6530 H   0  0  0  0  0  0  0  0  0  0  0  0  # atno 10167 bound_to 10162
  157.0268  131.0248  151.2757 H   0  0  0  0  0  0  0  0  0  0  0  0  # atno 10718 bound_to 10713
  154.6593  135.2922  154.9887 H   0  0  0  0  0  0  0  0  0  0  0  0  # atno 10763 bound_to 10752
  154.0953  135.6585  153.4863 H   0  0  0  0  0  0  0  0  0  0  0  0  # atno 10764 bound_to 10752
  153.0420  135.5229  154.7536 H   0  0  0  0  0  0  0  0  0  0  0  0  # atno 10765 bound_to 10752
  141.1633  133.7441  156.9126 H   0  0  0  0  0  0  0  0  0  0  0  0  # atno 11005 bound_to 11000
  145.1300  140.9512  143.4550 LP  0  0  0  0  0  0  0  0  0  0  0  0  # atno 17320 bound_to 7965
  145.0397  139.3270  143.5983 LP  0  0  0  0  0  0  0  0  0  0  0  0  # atno 17321 bound_to 7965
  140.6392  143.2200  151.6328 LP  0  0  0  0  0  0  0  0  0  0  0  0  # atno 17342 bound_to 10162
  139.5218  144.3182  152.0934 LP  0  0  0  0  0  0  0  0  0  0  0  0  # atno 17343 bound_to 10162
  157.5208  130.7997  149.7807 LP  0  0  0  0  0  0  0  0  0  0  0  0  # atno 17370 bound_to 10713
  156.0083  130.3845  150.2353 LP  0  0  0  0  0  0  0  0  0  0  0  0  # atno 17371 bound_to 10713
  140.1506  134.9232  157.2587 LP  0  0  0  0  0  0  0  0  0  0  0  0  # atno 17394 bound_to 11000
  140.2727  134.3441  155.7368 LP  0  0  0  0  0  0  0  0  0  0  0  0  # atno 17395 bound_to 11000

$$$$
