AV-unprocessed.smi:1927|AV-procd|sdf|7796|dock9
  -GOLD-   22720 9543D 1   1.00000     0.00000
 Structure written by MMmdl.
 34 35  0  0  0  0  0  0  0  0  1 V2000
  147.7051  133.1194  152.3504 C   0  0  0  0  0  0  0  0  0  0  0  0
  146.3304  133.1035  151.7016 C   0  0  0  0  0  0  0  0  0  0  0  0
  145.7526  131.8684  151.3381 C   0  0  0  0  0  0  0  0  0  0  0  0
  144.4823  131.8563  150.7369 C   0  0  0  0  0  0  0  0  0  0  0  0
  143.8395  133.0877  150.5238 C   0  0  0  0  0  0  0  0  0  0  0  0
  144.3838  134.2724  150.8686 N   0  0  0  0  0  0  0  0  0  0  0  0
  145.6094  134.3018  151.4499 C   0  0  0  0  0  0  0  0  0  0  0  0
  146.2443  135.5134  151.8440 N   0  0  0  0  0  0  0  0  0  0  0  0
  145.6777  136.6671  152.2392 C   0  0  0  0  0  0  0  0  0  0  0  0
  144.4671  136.8809  152.3095 O   0  0  0  0  0  0  0  0  0  0  0  0
  146.6103  137.5793  152.5503 N   0  0  0  0  0  0  0  0  0  0  0  0
  146.3474  138.9384  153.0123 C   0  0  0  0  0  0  0  0  0  0  0  0
  147.6403  139.7686  153.1099 C   0  0  2  0  0  0  0  0  0  0  0  0
  148.5633  139.3326  154.2293 C   0  0  0  0  0  0  0  0  0  0  0  0
  149.4681  140.5510  154.3923 C   0  0  0  0  0  0  0  0  0  0  0  0
  148.6860  141.6771  154.0033 O   0  0  0  0  0  0  0  0  0  0  0  0
  147.4421  141.2439  153.4623 C   0  0  0  0  0  0  0  0  0  0  0  0
  148.1024  132.1104  152.4653 H   0  0  0  0  0  0  0  0  0  0  0  0
  147.6558  133.5755  153.3397 H   0  0  0  0  0  0  0  0  0  0  0  0
  148.4080  133.6880  151.7407 H   0  0  0  0  0  0  0  0  0  0  0  0
  146.2736  130.9393  151.5168 H   0  0  0  0  0  0  0  0  0  0  0  0
  144.0131  130.9277  150.4473 H   0  0  0  0  0  0  0  0  0  0  0  0
  142.8618  133.1232  150.0664 H   0  0  0  0  0  0  0  0  0  0  0  0
  147.2531  135.4950  151.8294 H   0  0  0  0  0  0  0  0  0  0  0  0
  147.5801  137.3135  152.4613 H   0  0  0  0  0  0  0  0  0  0  0  0
  145.6164  139.4355  152.3721 H   0  0  0  0  0  0  0  0  0  0  0  0
  145.8873  138.8669  153.9981 H   0  0  0  0  0  0  0  0  0  0  0  0
  148.1867  139.7033  152.1673 H   0  0  0  0  0  0  0  0  0  0  0  0
  147.9962  139.1640  155.1462 H   0  0  0  0  0  0  0  0  0  0  0  0
  149.1164  138.4216  153.9989 H   0  0  0  0  0  0  0  0  0  0  0  0
  149.8391  140.6572  155.4119 H   0  0  0  0  0  0  0  0  0  0  0  0
  150.3282  140.4796  153.7255 H   0  0  0  0  0  0  0  0  0  0  0  0
  147.1511  141.8468  152.6019 H   0  0  0  0  0  0  0  0  0  0  0  0
  146.6750  141.3576  154.2296 H   0  0  0  0  0  0  0  0  0  0  0  0
  1  2  1  0  0  0  0
  1 18  1  0  0  0  0
  1 19  1  0  0  0  0
  1 20  1  0  0  0  0
  2  7  1  0  0  0  0
  2  3  2  0  0  0  0
  3  4  1  0  0  0  0
  3 21  1  0  0  0  0
  4  5  2  0  0  0  0
  4 22  1  0  0  0  0
  5  6  1  0  0  0  0
  5 23  1  0  0  0  0
  6  7  2  0  0  0  0
  7  8  1  0  0  0  0
  8  9  1  0  0  0  0
  8 24  1  0  0  0  0
  9 10  2  0  0  0  0
  9 11  1  0  0  0  0
 11 12  1  0  0  0  0
 11 25  1  0  0  0  0
 12 13  1  0  0  0  0
 12 26  1  0  0  0  0
 12 27  1  0  0  0  0
 13 17  1  0  0  0  0
 13 14  1  0  0  0  0
 13 28  1  0  0  0  0
 14 15  1  0  0  0  0
 14 29  1  0  0  0  0
 14 30  1  0  0  0  0
 15 16  1  0  0  0  0
 15 31  1  0  0  0  0
 15 32  1  0  0  0  0
 16 17  1  0  0  0  0
 17 33  1  0  0  0  0
 17 34  1  0  0  0  0
M  END
> <s_m_source_file>
AV-unprocessed.smi

> <i_m_source_file_index>
1927

> <i_lp_mmshare_version>
43012

> <i_f3d_flags>
0

> <s_epik_input>
W0NIM11jMVtjSF1bY0hdW2NIXW5jMVtOSF1DKD1PKVtOSF1bQ0gyXVtDQEBIXTJbQ0gyXVtDSDJdT1tDSDJdMg==

> <s_epik_cmdline>
J2VwaWtfcHl0aG9uJywgJy1waCcsICc3LjAnLCAnLXRuJywgJzgnLCAnLW1hJywgJzIwMCcsICctbWV0YWxfYmluZGluZycsICctaW1hZScsICc8aW5maWxlLm1hZT4nLCAnLW9tYWUnLCAnPG91dGZpbGUubWFlPic=

> <r_lp_tautomer_probability>
1

> <r_epik_Ionization_Penalty>
5.84082e-05

> <r_epik_Ionization_Penalty_Charging>
0

> <r_epik_Ionization_Penalty_Neutral>
5.84082e-05

> <r_epik_State_Penalty>
-0

> <r_epik_Charging_Adjusted_Penalty>
0

> <i_epik_Tot_Q>
0

> <i_epik_Tot_abs_Q>
0

> <r_epik_Metal_State_Penalty>
-0

> <b_epik_Metal_Only>
0

> <s_lp_Force_Field>
OPLS_2005

> <r_lp_Energy>
21.003

> <b_lp_Chiralities_Consistent>
1

> <s_lp_Variant>
AV-unprocessed.smi:1927-1

> <Gold.Version>
5.8.1

> <Gold.Id.Protein>
6NUR|6NUR_protein|mol2

> <Gold.PLP.Fitness>
40.0199

> <Gold.PLP.PLP>
-30.1887

> <Gold.PLP.part.hbond>
-3.0000

> <Gold.PLP.part.metal>
0.0000

> <Gold.PLP.part.buried>
-1.1387

> <Gold.PLP.part.nonpolar>
-26.4874

> <Gold.PLP.part.repulsive>
0.7287

> <Gold.PLP.ligand.clash>
0.0000

> <Gold.PLP.ligand.torsion>
0.2393

> <Gold.PLP.Chemscore.Hbond>
2.4347

> <Gold.PLP.Chemscore.CHOScore>
1.0000

> <Gold.PLP.Chemscore.Metal>
0.0000

> <Gold.Chemscore.Hbonds>
donor molecule, donor type, donor heavy atom, donor atom, acceptor molecule, acceptor atom, score
      L1  H     8    24       P1  7948  1.00
      L1  H    11    25       P1  7948  1.00
      P1  H  8011  8017       L1    16  0.43
      L1  C     5    23       P1 10186  1.00

> <Gold.PLP.Chemscore.Internal.Correction>
0.0057

> <Gold.Rescore>
     Score         DG    S(hbond)    S(metal)    S(lipo)     H(rot)  DE(clash)    DE(int)     intcor
     14.89     -17.31       2.00        0.00      71.00       1.23       1.07       1.35       ----

> <Gold.Chemscore.Fitness>
14.8853

> <Gold.Chemscore.DG>
-17.3112

> <Gold.Chemscore.ZeroCoef>
-5.4800

> <Gold.Chemscore.Hbond>
2.0006

> <Gold.Chemscore.Metal>
0.0000

> <Gold.Chemscore.Lipo>
71.0020

> <Gold.Chemscore.Internal_Hbond>
0.0000

> <Gold.Chemscore.DEClash>
1.0735

> <Gold.Chemscore.DEInternal>
1.3523

> <Gold.Chemscore.Rot>
1.2337

> <Gold.Chemscore.Internal.Correction>
   9.000000E+99

> <Gold.Chemscore.Hbonds>
donor molecule, donor type, donor heavy atom, donor atom, acceptor molecule, acceptor atom, score
      L1  H     8    24       P1  7948  0.98
      L1  H    11    25       P1  7948  0.98
      P1  H  8011  8017       L1    16  0.08

> <Gold.Chemscore.Hbond.Weighted>
-6.6821

> <Gold.Chemscore.Metal.Weighted>
-0.0000

> <Gold.Chemscore.Lipo.Weighted>
-8.3072

> <Gold.Chemscore.Internal_Hbond.Weighted>
0.0000

> <Gold.Chemscore.DEClash.Weighted>
1.0735

> <Gold.Chemscore.DEInternal.Weighted>
1.3523

> <Gold.Chemscore.Rot.Weighted>
3.1582

> <Gold.Chemscore.Internal.Correction.Weighted>
   9.000000E+99

> <Gold.Protein.RotatedTorsions>
[ 6907 6896 6895 6894 ] final    5.81 input  -60.11 | X-H torsion
[ 7974 7965 7964 7962 ] final   74.47 input  175.53 | X-H torsion
[ 8008 7997 7996 7995 ] final   72.08 input   59.86 | X-H torsion
[ 10167 10162 10161 10158 ] final   56.45 input  -65.29 | X-H torsion
[ 10718 10713 10712 10709 ] final  140.02 input   66.30 | X-H torsion
[ 10763 10752 10751 10750 ] final   -7.66 input  -60.55 | X-H torsion
[ 11005 11000 10999 10996 ] final -148.47 input  -57.11 | X-H torsion

> <Gold.Protein.ActiveResidues>
 VAL166  LYS551  ARG553  GLY616  TRP617  ASP618  TYR619  PRO620  LYS621  CYS622 
 ASP623  PHE694  ASN695  SER759  ASP760  ASP761  ALA762  ILE779  LEU786  VAL792 
 PHE793  MET794  SER795  GLU796  ALA797  LYS798  CYS799  TRP800  GLU811  SER814 

> <Gold.Protein.RotatedAtoms>
  151.6636  135.0986  160.0184 H   0  0  0  0  0  0  0  0  0  0  0  0  # atno 6907 bound_to 6896
  152.3932  133.6705  159.6263 H   0  0  0  0  0  0  0  0  0  0  0  0  # atno 6908 bound_to 6896
  150.7844  133.8835  159.3334 H   0  0  0  0  0  0  0  0  0  0  0  0  # atno 6909 bound_to 6896
  145.7278  139.2672  143.1558 H   0  0  0  0  0  0  0  0  0  0  0  0  # atno 7974 bound_to 7965
  155.7636  140.3486  155.5210 H   0  0  0  0  0  0  0  0  0  0  0  0  # atno 8008 bound_to 7997
  155.8890  140.1015  157.1453 H   0  0  0  0  0  0  0  0  0  0  0  0  # atno 8009 bound_to 7997
  154.4031  140.1308  156.4279 H   0  0  0  0  0  0  0  0  0  0  0  0  # atno 8010 bound_to 7997
  140.2086  144.3912  150.6498 H   0  0  0  0  0  0  0  0  0  0  0  0  # atno 10167 bound_to 10162
  157.4080  131.1024  151.0484 H   0  0  0  0  0  0  0  0  0  0  0  0  # atno 10718 bound_to 10713
  153.4294  135.7011  153.6240 H   0  0  0  0  0  0  0  0  0  0  0  0  # atno 10763 bound_to 10752
  153.4661  135.3725  155.2366 H   0  0  0  0  0  0  0  0  0  0  0  0  # atno 10764 bound_to 10752
  154.8725  135.4032  154.3676 H   0  0  0  0  0  0  0  0  0  0  0  0  # atno 10765 bound_to 10752
  140.7609  134.3299  157.5102 H   0  0  0  0  0  0  0  0  0  0  0  0  # atno 11005 bound_to 11000
  146.0566  140.8015  142.9755 LP  0  0  0  0  0  0  0  0  0  0  0  0  # atno 17320 bound_to 7965
  144.6900  140.3132  143.7244 LP  0  0  0  0  0  0  0  0  0  0  0  0  # atno 17321 bound_to 7965
  140.6339  143.2192  151.6436 LP  0  0  0  0  0  0  0  0  0  0  0  0  # atno 17342 bound_to 10162
  139.5188  144.3271  152.0859 LP  0  0  0  0  0  0  0  0  0  0  0  0  # atno 17343 bound_to 10162
  157.1459  130.6163  149.5568 LP  0  0  0  0  0  0  0  0  0  0  0  0  # atno 17370 bound_to 10713
  155.9842  130.4865  150.6971 LP  0  0  0  0  0  0  0  0  0  0  0  0  # atno 17371 bound_to 10713
  139.8771  134.9201  156.3244 LP  0  0  0  0  0  0  0  0  0  0  0  0  # atno 17394 bound_to 11000
  140.9664  133.7355  156.0472 LP  0  0  0  0  0  0  0  0  0  0  0  0  # atno 17395 bound_to 11000

$$$$
