AV-unprocessed.smi:1875|AV-procd|sdf|7613|dock2
  -GOLD-   22720 9333D 1   1.00000     0.00000
 Structure written by MMmdl.
 48 50  0  0  0  0  0  0  0  0  2 V2000
  142.8020  135.0778  153.6791 C   0  0  0  0  0  0  0  0  0  0  0  0
  143.8694  135.4568  152.6732 C   0  0  0  0  0  0  0  0  0  0  0  0
  144.1220  134.5750  151.7013 N   0  0  0  0  0  0  0  0  0  0  0  0
  145.0797  134.9054  150.8076 C   0  0  0  0  0  0  0  0  0  0  0  0
  145.7856  136.1227  150.8935 C   0  0  0  0  0  0  0  0  0  0  0  0
  145.4301  136.9742  151.9605 C   0  0  0  0  0  0  0  0  0  0  0  0
  146.1210  138.3045  152.1735 C   0  0  0  0  0  0  0  0  0  0  0  0
  147.1815  138.1737  153.1892 N   0  3  0  0  0  0  0  0  0  0  0  0
  147.7552  139.4600  153.6304 C   0  0  0  0  0  0  0  0  0  0  0  0
  149.0963  139.2536  154.3586 C   0  0  1  0  0  0  0  0  0  0  0  0
  149.9285  138.4519  153.5435 O   0  0  0  0  0  0  0  0  0  0  0  0
  149.8262  140.5726  154.6965 C   0  0  0  0  0  0  0  0  0  0  0  0
  150.8888  140.4214  155.6780 N   0  0  0  0  0  0  0  0  0  0  0  0
  151.8847  139.5140  155.6628 C   0  0  0  0  0  0  0  0  0  0  0  0
  152.7559  139.5470  156.6664 N   0  0  0  0  0  0  0  0  0  0  0  0
  152.2786  140.6089  157.4150 C   0  0  0  0  0  0  0  0  0  0  0  0
  152.7598  141.1717  158.6172 C   0  0  0  0  0  0  0  0  0  0  0  0
  152.1071  142.2737  159.2138 C   0  0  0  0  0  0  0  0  0  0  0  0
  152.6591  142.8477  160.5070 C   0  0  0  0  0  0  0  0  0  0  0  0
  150.9529  142.8297  158.6060 C   0  0  0  0  0  0  0  0  0  0  0  0
  150.2363  144.0152  159.2278 C   0  0  0  0  0  0  0  0  0  0  0  0
  150.4583  142.2791  157.4050 C   0  0  0  0  0  0  0  0  0  0  0  0
  151.1149  141.1809  156.8219 C   0  0  0  0  0  0  0  0  0  0  0  0
  144.4740  136.6357  152.8543 N   0  0  0  0  0  0  0  0  0  0  0  0
  142.0810  134.3841  153.2453 H   0  0  0  0  0  0  0  0  0  0  0  0
  142.2565  135.9590  154.0189 H   0  0  0  0  0  0  0  0  0  0  0  0
  143.2576  134.6003  154.5470 H   0  0  0  0  0  0  0  0  0  0  0  0
  145.2864  134.1939  150.0218 H   0  0  0  0  0  0  0  0  0  0  0  0
  146.5528  136.3831  150.1789 H   0  0  0  0  0  0  0  0  0  0  0  0
  146.5510  138.6528  151.2335 H   0  0  0  0  0  0  0  0  0  0  0  0
  145.3907  139.0499  152.4921 H   0  0  0  0  0  0  0  0  0  0  0  0
  146.7952  137.6964  153.9910 H   0  0  0  0  0  0  0  0  0  0  0  0
  147.8796  140.1163  152.7677 H   0  0  0  0  0  0  0  0  0  0  0  0
  147.0435  139.9428  154.3013 H   0  0  0  0  0  0  0  0  0  0  0  0
  148.9224  138.7136  155.2905 H   0  0  0  0  0  0  0  0  0  0  0  0
  149.8900  138.7797  152.6574 H   0  0  0  0  0  0  0  0  0  0  0  0
  150.2608  140.9941  153.7891 H   0  0  0  0  0  0  0  0  0  0  0  0
  149.1171  141.3149  155.0654 H   0  0  0  0  0  0  0  0  0  0  0  0
  151.9710  138.7818  154.8734 H   0  0  0  0  0  0  0  0  0  0  0  0
  153.6400  140.7490  159.0791 H   0  0  0  0  0  0  0  0  0  0  0  0
  152.9082  143.9018  160.3832 H   0  0  0  0  0  0  0  0  0  0  0  0
  153.5637  142.3257  160.8205 H   0  0  0  0  0  0  0  0  0  0  0  0
  151.9254  142.7566  161.3083 H   0  0  0  0  0  0  0  0  0  0  0  0
  149.3541  144.2943  158.6511 H   0  0  0  0  0  0  0  0  0  0  0  0
  150.8973  144.8813  159.2689 H   0  0  0  0  0  0  0  0  0  0  0  0
  149.9115  143.7780  160.2413 H   0  0  0  0  0  0  0  0  0  0  0  0
  149.5807  142.6945  156.9325 H   0  0  0  0  0  0  0  0  0  0  0  0
  147.9250  137.6079  152.8051 H   0  0  0  0  0  0  0  0  0  0  0  0
  1  2  1  0  0  0  0
  1 25  1  0  0  0  0
  1 26  1  0  0  0  0
  1 27  1  0  0  0  0
  2 24  1  0  0  0  0
  2  3  2  0  0  0  0
  3  4  1  0  0  0  0
  4  5  2  0  0  0  0
  4 28  1  0  0  0  0
  5  6  1  0  0  0  0
  5 29  1  0  0  0  0
  6  7  1  0  0  0  0
  6 24  2  0  0  0  0
  7  8  1  0  0  0  0
  7 30  1  0  0  0  0
  7 31  1  0  0  0  0
  8  9  1  0  0  0  0
  8 32  1  0  0  0  0
  8 48  1  0  0  0  0
  9 10  1  0  0  0  0
  9 33  1  0  0  0  0
  9 34  1  0  0  0  0
 10 11  1  0  0  0  0
 10 12  1  0  0  0  0
 10 35  1  0  0  0  0
 11 36  1  0  0  0  0
 12 13  1  0  0  0  0
 12 37  1  0  0  0  0
 12 38  1  0  0  0  0
 13 23  1  0  0  0  0
 13 14  1  0  0  0  0
 14 15  2  0  0  0  0
 14 39  1  0  0  0  0
 15 16  1  0  0  0  0
 16 23  2  0  0  0  0
 16 17  1  0  0  0  0
 17 18  2  0  0  0  0
 17 40  1  0  0  0  0
 18 19  1  0  0  0  0
 18 20  1  0  0  0  0
 19 41  1  0  0  0  0
 19 42  1  0  0  0  0
 19 43  1  0  0  0  0
 20 21  1  0  0  0  0
 20 22  2  0  0  0  0
 21 44  1  0  0  0  0
 21 45  1  0  0  0  0
 21 46  1  0  0  0  0
 22 23  1  0  0  0  0
 22 47  1  0  0  0  0
M  CHG  1   8   1
M  END
> <s_m_source_file>
AV-unprocessed.smi

> <i_m_source_file_index>
1875

> <i_lp_mmshare_version>
43012

> <i_f3d_flags>
0

> <s_epik_input>
W0NIM11jMW5bY0hdW2NIXWMobjEpW0NIMl1bTkhdW0NIMl1bQ0BIXShbT0hdKVtDSDJdbihbY0hdbjIpYyhjMjMpW2NIXWMoW0NIM10pYyhbY0hdMylbQ0gzXQ==

> <s_epik_cmdline>
J2VwaWtfcHl0aG9uJywgJy1waCcsICc3LjAnLCAnLXRuJywgJzgnLCAnLW1hJywgJzIwMCcsICctbWV0YWxfYmluZGluZycsICctaW1hZScsICc8aW5maWxlLm1hZT4nLCAnLW9tYWUnLCAnPG91dGZpbGUubWFlPic=

> <r_lp_tautomer_probability>
1

> <r_epik_Ionization_Penalty>
0.192455

> <r_epik_Ionization_Penalty_Charging>
0.102343

> <r_epik_Ionization_Penalty_Neutral>
0.0901122

> <r_epik_State_Penalty>
0.175389

> <r_epik_Charging_Adjusted_Penalty>
0.277732

> <i_epik_Tot_Q>
1

> <i_epik_Tot_abs_Q>
1

> <r_epik_Metal_State_Penalty>
0.167659

> <b_epik_Metal_Only>
0

> <s_epik_Chemistry_Notes>
This compound contains an electron-poor aromatic ring that is susceptible to covalent hydrolysis at low pH, typically resulting in measured values for nitrogen ring protonation that are around two units higher than predicted values.

> <s_lp_Force_Field>
OPLS_2005

> <r_lp_Energy>
1.49454

> <b_lp_Chiralities_Consistent>
1

> <s_lp_Variant>
AV-unprocessed.smi:1875-2

> <Gold.Version>
5.8.1

> <Gold.Id.Protein>
6NUR|6NUR_protein|mol2

> <Gold.PLP.Fitness>
60.2304

> <Gold.PLP.PLP>
-46.8492

> <Gold.PLP.part.hbond>
-4.0000

> <Gold.PLP.part.metal>
0.0000

> <Gold.PLP.part.buried>
-1.6768

> <Gold.PLP.part.nonpolar>
-40.7923

> <Gold.PLP.part.repulsive>
0.3320

> <Gold.PLP.ligand.clash>
0.0000

> <Gold.PLP.ligand.torsion>
0.6505

> <Gold.PLP.Chemscore.Hbond>
4.0000

> <Gold.PLP.Chemscore.CHOScore>
0.8587

> <Gold.PLP.Chemscore.Metal>
0.0000

> <Gold.Chemscore.Hbonds>
donor molecule, donor type, donor heavy atom, donor atom, acceptor molecule, acceptor atom, score
      L1  H     8    48       P1  7948  2.00
      L1  H    11    36       P1  7957  1.00
      P1  H  7997  8009       L1    15  1.00
      L1  C     4    28       P1  7921  0.73

> <Gold.PLP.Chemscore.Internal.Correction>
0.1059

> <Gold.Rescore>
     Score         DG    S(hbond)    S(metal)    S(lipo)     H(rot)  DE(clash)    DE(int)     intcor
     18.51     -19.87       2.55        0.00     111.52       2.80       0.04       1.32       ----

> <Gold.Chemscore.Fitness>
18.5140

> <Gold.Chemscore.DG>
-19.8666

> <Gold.Chemscore.ZeroCoef>
-5.4800

> <Gold.Chemscore.Hbond>
2.5504

> <Gold.Chemscore.Metal>
0.0000

> <Gold.Chemscore.Lipo>
111.5233

> <Gold.Chemscore.Internal_Hbond>
0.0000

> <Gold.Chemscore.DEClash>
0.0369

> <Gold.Chemscore.DEInternal>
1.3157

> <Gold.Chemscore.Rot>
2.8047

> <Gold.Chemscore.Internal.Correction>
   9.000000E+99

> <Gold.Chemscore.Hbonds>
donor molecule, donor type, donor heavy atom, donor atom, acceptor molecule, acceptor atom, score
      L1  H     8    48       P1  7948  0.99
      L1  H    11    36       P1  7957  0.59
      P1  H  7997  8009       L1    15  0.24

> <Gold.Chemscore.Hbond.Weighted>
-8.5185

> <Gold.Chemscore.Metal.Weighted>
-0.0000

> <Gold.Chemscore.Lipo.Weighted>
-13.0482

> <Gold.Chemscore.Internal_Hbond.Weighted>
0.0000

> <Gold.Chemscore.DEClash.Weighted>
0.0369

> <Gold.Chemscore.DEInternal.Weighted>
1.3157

> <Gold.Chemscore.Rot.Weighted>
7.1801

> <Gold.Chemscore.Internal.Correction.Weighted>
   9.000000E+99

> <Gold.Protein.RotatedTorsions>
[ 6907 6896 6895 6894 ] final -128.29 input  -60.11 | X-H torsion
[ 7974 7965 7964 7962 ] final -152.84 input  175.53 | X-H torsion
[ 8008 7997 7996 7995 ] final -157.77 input   59.86 | X-H torsion
[ 10167 10162 10161 10158 ] final   14.84 input  -65.29 | X-H torsion
[ 10718 10713 10712 10709 ] final   78.14 input   66.30 | X-H torsion
[ 10763 10752 10751 10750 ] final   -2.50 input  -60.55 | X-H torsion
[ 11005 11000 10999 10996 ] final   -7.47 input  -57.11 | X-H torsion

> <Gold.Protein.ActiveResidues>
 VAL166  LYS551  ARG553  GLY616  TRP617  ASP618  TYR619  PRO620  LYS621  CYS622 
 ASP623  PHE694  ASN695  SER759  ASP760  ASP761  ALA762  ILE779  LEU786  VAL792 
 PHE793  MET794  SER795  GLU796  ALA797  LYS798  CYS799  TRP800  GLU811  SER814 

> <Gold.Protein.RotatedAtoms>
  150.9164  133.6934  159.2842 H   0  0  0  0  0  0  0  0  0  0  0  0  # atno 6907 bound_to 6896
  151.4404  135.1018  159.9678 H   0  0  0  0  0  0  0  0  0  0  0  0  # atno 6908 bound_to 6896
  152.4957  133.8573  159.7287 H   0  0  0  0  0  0  0  0  0  0  0  0  # atno 6909 bound_to 6896
  144.7772  140.4607  143.5865 H   0  0  0  0  0  0  0  0  0  0  0  0  # atno 7974 bound_to 7965
  155.7375  140.0810  157.2261 H   0  0  0  0  0  0  0  0  0  0  0  0  # atno 8008 bound_to 7997
  154.4025  140.1584  156.2633 H   0  0  0  0  0  0  0  0  0  0  0  0  # atno 8009 bound_to 7997
  155.9051  140.3407  155.6059 H   0  0  0  0  0  0  0  0  0  0  0  0  # atno 8010 bound_to 7997
  140.5908  143.8799  150.6872 H   0  0  0  0  0  0  0  0  0  0  0  0  # atno 10167 bound_to 10162
  157.6735  130.9854  150.1744 H   0  0  0  0  0  0  0  0  0  0  0  0  # atno 10718 bound_to 10713
  153.3588  135.6989  153.6728 H   0  0  0  0  0  0  0  0  0  0  0  0  # atno 10763 bound_to 10752
  153.5425  135.3570  155.2725 H   0  0  0  0  0  0  0  0  0  0  0  0  # atno 10764 bound_to 10752
  154.8665  135.4207  154.2841 H   0  0  0  0  0  0  0  0  0  0  0  0  # atno 10765 bound_to 10752
  140.7131  133.8892  155.8765 H   0  0  0  0  0  0  0  0  0  0  0  0  # atno 11005 bound_to 11000
  145.6152  139.1517  143.3053 LP  0  0  0  0  0  0  0  0  0  0  0  0  # atno 17320 bound_to 7965
  146.1959  140.6265  142.9124 LP  0  0  0  0  0  0  0  0  0  0  0  0  # atno 17321 bound_to 7965
  140.2321  143.3728  152.1557 LP  0  0  0  0  0  0  0  0  0  0  0  0  # atno 17342 bound_to 10162
  139.5226  144.7061  151.5349 LP  0  0  0  0  0  0  0  0  0  0  0  0  # atno 17343 bound_to 10162
  156.2491  130.3698  149.8252 LP  0  0  0  0  0  0  0  0  0  0  0  0  # atno 17370 bound_to 10713
  156.6031  130.8555  151.3436 LP  0  0  0  0  0  0  0  0  0  0  0  0  # atno 17371 bound_to 10713
  141.0068  134.1075  157.4262 LP  0  0  0  0  0  0  0  0  0  0  0  0  # atno 17394 bound_to 11000
  139.8867  135.0083  156.6513 LP  0  0  0  0  0  0  0  0  0  0  0  0  # atno 17395 bound_to 11000

$$$$
