AV-unprocessed.smi:2727|AV-procd|sdf|10521|dock2
  -GOLD-   2272014563D 1   1.00000     0.00000
 Structure written by MMmdl.
 40 41  0  0  0  0  0  0  0  0  1 V2000
  147.0640  132.9249  154.3962 O   0  0  0  0  0  0  0  0  0  0  0  0
  147.5133  133.7727  153.6244 C   0  0  0  0  0  0  0  0  0  0  0  0
  148.6271  134.4789  153.8683 N   0  0  0  0  0  0  0  0  0  0  0  0
  149.4501  134.3539  155.0662 C   0  0  0  0  0  0  0  0  0  0  0  0
  149.6038  135.7055  155.7935 C   0  0  0  0  0  0  0  0  0  0  0  0
  150.9201  136.4360  155.4724 C   0  0  0  0  0  0  0  0  0  0  0  0
  151.9769  135.9945  155.9279 O   0  0  0  0  0  0  0  0  0  0  0  0
  150.8833  137.5481  154.6976 N   0  0  0  0  0  0  0  0  0  0  0  0
  152.1024  138.3043  154.3851 C   0  0  0  0  0  0  0  0  0  0  0  0
  152.4902  139.2785  155.5166 C   0  0  0  0  0  0  0  0  0  0  0  0
  151.3163  139.9243  156.2851 C   0  0  0  0  0  0  0  0  0  0  0  0
  150.1292  140.3801  155.4137 C   0  0  0  0  0  0  0  0  0  0  0  0
  149.1206  139.2543  155.0995 C   0  0  0  0  0  0  0  0  0  0  0  0
  149.6595  138.1598  154.1600 C   0  0  0  0  0  0  0  0  0  0  0  0
  146.9675  134.1117  152.4443 N   0  0  0  0  0  0  0  0  0  0  0  0
  145.7982  133.5748  151.8486 C   0  0  0  0  0  0  0  0  0  0  0  0
  145.2662  132.3740  152.0824 N   0  0  0  0  0  0  0  0  0  0  0  0
  144.1474  132.3215  151.2639 C   0  0  0  0  0  0  0  0  0  0  0  0
  144.0651  133.5047  150.5757 C   0  0  0  0  0  0  0  0  0  0  0  0
  145.1100  134.3124  150.9376 O   0  0  0  0  0  0  0  0  0  0  0  0
  148.9246  135.1554  153.1807 H   0  0  0  0  0  0  0  0  0  0  0  0
  148.9712  133.6265  155.7229 H   0  0  0  0  0  0  0  0  0  0  0  0
  150.4254  133.9408  154.8014 H   0  0  0  0  0  0  0  0  0  0  0  0
  148.7743  136.3601  155.5237 H   0  0  0  0  0  0  0  0  0  0  0  0
  149.5434  135.5353  156.8685 H   0  0  0  0  0  0  0  0  0  0  0  0
  152.9341  137.6313  154.1696 H   0  0  0  0  0  0  0  0  0  0  0  0
  151.9679  138.8742  153.4653 H   0  0  0  0  0  0  0  0  0  0  0  0
  153.1217  138.7571  156.2367 H   0  0  0  0  0  0  0  0  0  0  0  0
  153.1175  140.0628  155.0919 H   0  0  0  0  0  0  0  0  0  0  0  0
  150.9564  139.2361  157.0512 H   0  0  0  0  0  0  0  0  0  0  0  0
  151.7061  140.7837  156.8316 H   0  0  0  0  0  0  0  0  0  0  0  0
  149.5935  141.1606  155.9551 H   0  0  0  0  0  0  0  0  0  0  0  0
  150.4858  140.8476  154.4952 H   0  0  0  0  0  0  0  0  0  0  0  0
  148.7757  138.8069  156.0320 H   0  0  0  0  0  0  0  0  0  0  0  0
  148.2359  139.6958  154.6401 H   0  0  0  0  0  0  0  0  0  0  0  0
  149.8521  138.5913  153.1771 H   0  0  0  0  0  0  0  0  0  0  0  0
  148.8840  137.4169  153.9752 H   0  0  0  0  0  0  0  0  0  0  0  0
  147.4396  134.8279  151.9128 H   0  0  0  0  0  0  0  0  0  0  0  0
  143.5037  131.4548  151.2353 H   0  0  0  0  0  0  0  0  0  0  0  0
  143.3757  133.9001  149.8445 H   0  0  0  0  0  0  0  0  0  0  0  0
  1  2  2  0  0  0  0
  2  3  1  0  0  0  0
  2 15  1  0  0  0  0
  3  4  1  0  0  0  0
  3 21  1  0  0  0  0
  4  5  1  0  0  0  0
  4 22  1  0  0  0  0
  4 23  1  0  0  0  0
  5  6  1  0  0  0  0
  5 24  1  0  0  0  0
  5 25  1  0  0  0  0
  6  7  2  0  0  0  0
  6  8  1  0  0  0  0
  8 14  1  0  0  0  0
  8  9  1  0  0  0  0
  9 10  1  0  0  0  0
  9 26  1  0  0  0  0
  9 27  1  0  0  0  0
 10 11  1  0  0  0  0
 10 28  1  0  0  0  0
 10 29  1  0  0  0  0
 11 12  1  0  0  0  0
 11 30  1  0  0  0  0
 11 31  1  0  0  0  0
 12 13  1  0  0  0  0
 12 32  1  0  0  0  0
 12 33  1  0  0  0  0
 13 14  1  0  0  0  0
 13 34  1  0  0  0  0
 13 35  1  0  0  0  0
 14 36  1  0  0  0  0
 14 37  1  0  0  0  0
 15 16  1  0  0  0  0
 15 38  1  0  0  0  0
 16 20  1  0  0  0  0
 16 17  2  0  0  0  0
 17 18  1  0  0  0  0
 18 19  2  0  0  0  0
 18 39  1  0  0  0  0
 19 20  1  0  0  0  0
 19 40  1  0  0  0  0
M  END
> <s_m_source_file>
AV-unprocessed.smi

> <i_m_source_file_index>
2727

> <i_lp_mmshare_version>
43012

> <i_f3d_flags>
0

> <s_epik_input>
bzFbY0hdW2NIXW5jMVtOSF1DKD1PKVtOSF1bQ0gyXVtDSDJdQyg9TylOMltDSDJdW0NIMl1bQ0gyXVtDSDJdW0NIMl1bQ0gyXTI=

> <s_epik_cmdline>
J2VwaWtfcHl0aG9uJywgJy1waCcsICc3LjAnLCAnLXRuJywgJzgnLCAnLW1hJywgJzIwMCcsICctbWV0YWxfYmluZGluZycsICctaW1hZScsICc8aW5maWxlLm1hZT4nLCAnLW9tYWUnLCAnPG91dGZpbGUubWFlPic=

> <r_lp_tautomer_probability>
0.785861

> <r_epik_Ionization_Penalty>
4.25735e-05

> <r_epik_Ionization_Penalty_Charging>
0

> <r_epik_Ionization_Penalty_Neutral>
4.25735e-05

> <r_epik_State_Penalty>
0.0209239

> <r_epik_Charging_Adjusted_Penalty>
0.0209239

> <i_epik_Tot_Q>
0

> <i_epik_Tot_abs_Q>
0

> <r_epik_Metal_State_Penalty>
0.0088118

> <b_epik_Metal_Only>
0

> <s_lp_Force_Field>
OPLS_2005

> <r_lp_Energy>
23.803

> <b_lp_Chiralities_Consistent>
1

> <s_lp_Variant>
AV-unprocessed.smi:2727-1

> <Gold.Version>
5.8.1

> <Gold.Id.Protein>
6NUR|6NUR_protein|mol2

> <Gold.PLP.Fitness>
42.6790

> <Gold.PLP.PLP>
-31.8148

> <Gold.PLP.part.hbond>
-3.0000

> <Gold.PLP.part.metal>
0.0000

> <Gold.PLP.part.buried>
-2.9972

> <Gold.PLP.part.nonpolar>
-26.9140

> <Gold.PLP.part.repulsive>
0.3748

> <Gold.PLP.ligand.clash>
0.0000

> <Gold.PLP.ligand.torsion>
0.5224

> <Gold.PLP.Chemscore.Hbond>
2.9600

> <Gold.PLP.Chemscore.CHOScore>
1.0000

> <Gold.PLP.Chemscore.Metal>
0.0000

> <Gold.Chemscore.Hbonds>
donor molecule, donor type, donor heavy atom, donor atom, acceptor molecule, acceptor atom, score
      L1  H     3    21       P1  7948  1.00
      L1  H    15    38       P1  7948  0.96
      P1  H 10752 10765       L1     7  1.00
      L1  C    19    40       P1 10186  1.00

> <Gold.PLP.Chemscore.Internal.Correction>
0.0292

> <Gold.Rescore>
     Score         DG    S(hbond)    S(metal)    S(lipo)     H(rot)  DE(clash)    DE(int)     intcor
     14.77     -16.47       2.56        0.00      58.04       1.70       0.02       1.69       ----

> <Gold.Chemscore.Fitness>
14.7659

> <Gold.Chemscore.DG>
-16.4747

> <Gold.Chemscore.ZeroCoef>
-5.4800

> <Gold.Chemscore.Hbond>
2.5635

> <Gold.Chemscore.Metal>
0.0000

> <Gold.Chemscore.Lipo>
58.0428

> <Gold.Chemscore.Internal_Hbond>
0.0000

> <Gold.Chemscore.DEClash>
0.0234

> <Gold.Chemscore.DEInternal>
1.6854

> <Gold.Chemscore.Rot>
1.7025

> <Gold.Chemscore.Internal.Correction>
   9.000000E+99

> <Gold.Chemscore.Hbonds>
donor molecule, donor type, donor heavy atom, donor atom, acceptor molecule, acceptor atom, score
      L1  H     3    21       P1  7948  0.40
      L1  H    15    38       P1  7948  0.68
      P1  H 10752 10765       L1     7  0.87

> <Gold.Chemscore.Hbond.Weighted>
-8.5620

> <Gold.Chemscore.Metal.Weighted>
-0.0000

> <Gold.Chemscore.Lipo.Weighted>
-6.7910

> <Gold.Chemscore.Internal_Hbond.Weighted>
0.0000

> <Gold.Chemscore.DEClash.Weighted>
0.0234

> <Gold.Chemscore.DEInternal.Weighted>
1.6854

> <Gold.Chemscore.Rot.Weighted>
4.3584

> <Gold.Chemscore.Internal.Correction.Weighted>
   9.000000E+99

> <Gold.Protein.RotatedTorsions>
[ 6907 6896 6895 6894 ] final   36.15 input  -60.11 | X-H torsion
[ 7974 7965 7964 7962 ] final   57.82 input  175.53 | X-H torsion
[ 8008 7997 7996 7995 ] final  122.68 input   59.86 | X-H torsion
[ 10167 10162 10161 10158 ] final -109.76 input  -65.29 | X-H torsion
[ 10718 10713 10712 10709 ] final   25.30 input   66.30 | X-H torsion
[ 10763 10752 10751 10750 ] final -164.77 input  -60.55 | X-H torsion
[ 11005 11000 10999 10996 ] final   56.83 input  -57.11 | X-H torsion

> <Gold.Protein.ActiveResidues>
 VAL166  LYS551  ARG553  GLY616  TRP617  ASP618  TYR619  PRO620  LYS621  CYS622 
 ASP623  PHE694  ASN695  SER759  ASP760  ASP761  ALA762  ILE779  LEU786  VAL792 
 PHE793  MET794  SER795  GLU796  ALA797  LYS798  CYS799  TRP800  GLU811  SER814 

> <Gold.Protein.RotatedAtoms>
  152.1259  134.9171  160.0560 H   0  0  0  0  0  0  0  0  0  0  0  0  # atno 6907 bound_to 6896
  152.0294  133.3926  159.4299 H   0  0  0  0  0  0  0  0  0  0  0  0  # atno 6908 bound_to 6896
  150.6852  134.3459  159.4931 H   0  0  0  0  0  0  0  0  0  0  0  0  # atno 6909 bound_to 6896
  145.9249  139.3760  143.0456 H   0  0  0  0  0  0  0  0  0  0  0  0  # atno 7974 bound_to 7965
  156.2737  140.2780  156.1506 H   0  0  0  0  0  0  0  0  0  0  0  0  # atno 8008 bound_to 7997
  155.0857  140.0388  157.2671 H   0  0  0  0  0  0  0  0  0  0  0  0  # atno 8009 bound_to 7997
  154.6929  140.2633  155.6800 H   0  0  0  0  0  0  0  0  0  0  0  0  # atno 8010 bound_to 7997
  140.1518  143.4193  152.1489 H   0  0  0  0  0  0  0  0  0  0  0  0  # atno 10167 bound_to 10162
  157.1914  130.6848  149.6151 H   0  0  0  0  0  0  0  0  0  0  0  0  # atno 10718 bound_to 10713
  154.6996  135.2985  154.9360 H   0  0  0  0  0  0  0  0  0  0  0  0  # atno 10763 bound_to 10752
  154.0296  135.6672  153.4783 H   0  0  0  0  0  0  0  0  0  0  0  0  # atno 10764 bound_to 10752
  153.0671  135.5082  154.8133 H   0  0  0  0  0  0  0  0  0  0  0  0  # atno 10765 bound_to 10752
  140.0499  134.5752  155.9277 H   0  0  0  0  0  0  0  0  0  0  0  0  # atno 11005 bound_to 11000
  145.8502  140.9533  143.0754 LP  0  0  0  0  0  0  0  0  0  0  0  0  # atno 17320 bound_to 7965
  144.6757  140.0396  143.7481 LP  0  0  0  0  0  0  0  0  0  0  0  0  # atno 17321 bound_to 7965
  139.5422  144.7267  151.4697 LP  0  0  0  0  0  0  0  0  0  0  0  0  # atno 17342 bound_to 10162
  140.6698  143.8319  150.6985 LP  0  0  0  0  0  0  0  0  0  0  0  0  # atno 17343 bound_to 10162
  155.9711  130.4613  150.6105 LP  0  0  0  0  0  0  0  0  0  0  0  0  # atno 17370 bound_to 10713
  157.3856  131.0788  151.1438 LP  0  0  0  0  0  0  0  0  0  0  0  0  # atno 17371 bound_to 10713
  141.1925  133.6575  156.5505 LP  0  0  0  0  0  0  0  0  0  0  0  0  # atno 17394 bound_to 11000
  140.3934  134.7420  157.4736 LP  0  0  0  0  0  0  0  0  0  0  0  0  # atno 17395 bound_to 11000

$$$$
