AV-unprocessed.smi:1023|AV-procd|sdf|4463|dock6
  -GOLD-   22720 2433D 1   1.00000     0.00000
 Structure written by MMmdl.
 31 32  0  0  0  0  0  0  0  0  2 V2000
  153.2492  143.1209  159.1513 C   0  0  0  0  0  0  0  0  0  0  0  0
  151.7640  143.2168  158.7731 C   0  0  0  0  0  0  0  0  0  0  0  0
  151.4088  142.1793  157.6925 C   0  0  0  0  0  0  0  0  0  0  0  0
  151.3989  144.6539  158.3531 C   0  0  0  0  0  0  0  0  0  0  0  0
  150.0905  145.0370  158.8662 N   0  0  0  0  0  0  0  0  0  0  0  0
  149.6560  144.8671  160.1286 C   0  0  0  0  0  0  0  0  0  0  0  0
  150.3945  144.3124  160.9413 O   0  0  0  0  0  0  0  0  0  0  0  0
  148.4137  145.3255  160.4367 N   0  5  0  0  0  0  0  0  0  0  0  0
  147.3655  144.5000  160.6169 C   0  0  0  0  0  0  0  0  0  0  0  0
  147.4199  143.1921  160.3287 N   0  0  0  0  0  0  0  0  0  0  0  0
  146.2223  142.5329  160.5637 N   0  0  0  0  0  0  0  0  0  0  0  0
  145.2810  143.3517  161.0389 C   0  0  0  0  0  0  0  0  0  0  0  0
  143.9020  142.8821  161.3613 C   0  0  0  0  0  0  0  0  0  0  0  0
  142.7058  143.4415  160.6265 C   0  0  0  0  0  0  0  0  0  0  0  0
  142.9102  143.7674  162.0841 C   0  0  0  0  0  0  0  0  0  0  0  0
  145.8020  145.0159  161.2482 S   0  0  0  0  0  0  0  0  0  0  0  0
  153.8903  143.3467  158.2987 H   0  0  0  0  0  0  0  0  0  0  0  0
  153.5019  142.1200  159.5023 H   0  0  0  0  0  0  0  0  0  0  0  0
  153.4976  143.8210  159.9493 H   0  0  0  0  0  0  0  0  0  0  0  0
  151.1845  142.9737  159.6648 H   0  0  0  0  0  0  0  0  0  0  0  0
  151.9359  142.3842  156.7603 H   0  0  0  0  0  0  0  0  0  0  0  0
  150.3401  142.1715  157.4757 H   0  0  0  0  0  0  0  0  0  0  0  0
  151.6786  141.1727  158.0126 H   0  0  0  0  0  0  0  0  0  0  0  0
  152.1465  145.3541  158.7291 H   0  0  0  0  0  0  0  0  0  0  0  0
  151.3968  144.7403  157.2654 H   0  0  0  0  0  0  0  0  0  0  0  0
  149.4620  145.4840  158.2151 H   0  0  0  0  0  0  0  0  0  0  0  0
  143.9038  141.8198  161.5977 H   0  0  0  0  0  0  0  0  0  0  0  0
  142.8819  144.2377  159.9057 H   0  0  0  0  0  0  0  0  0  0  0  0
  141.9052  142.7499  160.3722 H   0  0  0  0  0  0  0  0  0  0  0  0
  142.2462  143.2925  162.8032 H   0  0  0  0  0  0  0  0  0  0  0  0
  143.2081  144.7853  162.3276 H   0  0  0  0  0  0  0  0  0  0  0  0
  1  2  1  0  0  0  0
  1 17  1  0  0  0  0
  1 18  1  0  0  0  0
  1 19  1  0  0  0  0
  2  3  1  0  0  0  0
  2  4  1  0  0  0  0
  2 20  1  0  0  0  0
  3 21  1  0  0  0  0
  3 22  1  0  0  0  0
  3 23  1  0  0  0  0
  4  5  1  0  0  0  0
  4 24  1  0  0  0  0
  4 25  1  0  0  0  0
  5  6  1  0  0  0  0
  5 26  1  0  0  0  0
  6  7  2  0  0  0  0
  6  8  1  0  0  0  0
  8  9  1  0  0  0  0
  9 16  1  0  0  0  0
  9 10  2  0  0  0  0
 10 11  1  0  0  0  0
 11 12  2  0  0  0  0
 12 13  1  0  0  0  0
 12 16  1  0  0  0  0
 13 15  1  0  0  0  0
 13 14  1  0  0  0  0
 13 27  1  0  0  0  0
 14 15  1  0  0  0  0
 14 28  1  0  0  0  0
 14 29  1  0  0  0  0
 15 30  1  0  0  0  0
 15 31  1  0  0  0  0
M  CHG  1   8  -1
M  END
> <s_m_source_file>
AV-unprocessed.smi

> <i_m_source_file_index>
1023

> <i_lp_mmshare_version>
43012

> <i_f3d_flags>
0

> <s_epik_input>
W0NIM11bQ0hdKFtDSDNdKVtDSDJdW05IXUMoPU8pW05IXWMxbm5jKHMxKVtDSF0yW0NIMl1bQ0gyXTI=

> <s_epik_cmdline>
J2VwaWtfcHl0aG9uJywgJy1waCcsICc3LjAnLCAnLXRuJywgJzgnLCAnLW1hJywgJzIwMCcsICctbWV0YWxfYmluZGluZycsICctaW1hZScsICc8aW5maWxlLm1hZT4nLCAnLW9tYWUnLCAnPG91dGZpbGUubWFlPic=

> <r_lp_tautomer_probability>
1

> <r_epik_Ionization_Penalty>
3.99087

> <r_epik_Ionization_Penalty_Charging>
3.83446

> <r_epik_Ionization_Penalty_Neutral>
0.156418

> <r_epik_State_Penalty>
3.83354

> <r_epik_Charging_Adjusted_Penalty>
7.668

> <i_epik_Tot_Q>
-1

> <i_epik_Tot_abs_Q>
1

> <r_epik_Metal_State_Penalty>
0.575872

> <b_epik_Metal_Only>
1

> <s_lp_Force_Field>
OPLS_2005

> <r_lp_Energy>
2.18617

> <b_lp_Chiralities_Consistent>
1

> <s_lp_Variant>
AV-unprocessed.smi:1023-2

> <Gold.Version>
5.8.1

> <Gold.Id.Protein>
6NUR|6NUR_protein|mol2

> <Gold.PLP.Fitness>
39.4914

> <Gold.PLP.PLP>
-33.2244

> <Gold.PLP.part.hbond>
-5.0978

> <Gold.PLP.part.metal>
0.0000

> <Gold.PLP.part.buried>
-5.4148

> <Gold.PLP.part.nonpolar>
-24.5725

> <Gold.PLP.part.repulsive>
0.6917

> <Gold.PLP.ligand.clash>
0.0000

> <Gold.PLP.ligand.torsion>
1.3854

> <Gold.PLP.Chemscore.Hbond>
2.9500

> <Gold.PLP.Chemscore.CHOScore>
0.0000

> <Gold.PLP.Chemscore.Metal>
0.0000

> <Gold.Chemscore.Hbonds>
donor molecule, donor type, donor heavy atom, donor atom, acceptor molecule, acceptor atom, score
      L1  H     5    26       P1  8029  1.00
      P1  H  6933  6944       L1    10  1.00
      P1  H  6934  6946       L1    11  0.85

> <Gold.PLP.Chemscore.Internal.Correction>
0.1877

> <Gold.Rescore>
     Score         DG    S(hbond)    S(metal)    S(lipo)     H(rot)  DE(clash)    DE(int)     intcor
     13.90     -16.62       1.71        0.00      76.89       1.39       0.24       2.49       ----

> <Gold.Chemscore.Fitness>
13.8955

> <Gold.Chemscore.DG>
-16.6232

> <Gold.Chemscore.ZeroCoef>
-5.4800

> <Gold.Chemscore.Hbond>
1.7090

> <Gold.Chemscore.Metal>
0.0000

> <Gold.Chemscore.Lipo>
76.8903

> <Gold.Chemscore.Internal_Hbond>
0.0000

> <Gold.Chemscore.DEClash>
0.2364

> <Gold.Chemscore.DEInternal>
2.4912

> <Gold.Chemscore.Rot>
1.3911

> <Gold.Chemscore.Internal.Correction>
   9.000000E+99

> <Gold.Chemscore.Hbonds>
donor molecule, donor type, donor heavy atom, donor atom, acceptor molecule, acceptor atom, score
      L1  H     5    26       P1  8029  0.60
      P1  H  6933  6944       L1    10  0.23
      P1  H  6934  6946       L1    11  0.15

> <Gold.Chemscore.Hbond.Weighted>
-5.7081

> <Gold.Chemscore.Metal.Weighted>
-0.0000

> <Gold.Chemscore.Lipo.Weighted>
-8.9962

> <Gold.Chemscore.Internal_Hbond.Weighted>
0.0000

> <Gold.Chemscore.DEClash.Weighted>
0.2364

> <Gold.Chemscore.DEInternal.Weighted>
2.4912

> <Gold.Chemscore.Rot.Weighted>
3.5612

> <Gold.Chemscore.Internal.Correction.Weighted>
   9.000000E+99

> <Gold.Protein.RotatedTorsions>
[ 6907 6896 6895 6894 ] final -148.87 input  -60.11 | X-H torsion
[ 7974 7965 7964 7962 ] final -150.01 input  175.53 | X-H torsion
[ 8008 7997 7996 7995 ] final  -18.90 input   59.86 | X-H torsion
[ 10167 10162 10161 10158 ] final   30.67 input  -65.29 | X-H torsion
[ 10718 10713 10712 10709 ] final -141.56 input   66.30 | X-H torsion
[ 10763 10752 10751 10750 ] final  106.51 input  -60.55 | X-H torsion
[ 11005 11000 10999 10996 ] final   98.56 input  -57.11 | X-H torsion

> <Gold.Protein.ActiveResidues>
 VAL166  LYS551  ARG553  GLY616  TRP617  ASP618  TYR619  PRO620  LYS621  CYS622 
 ASP623  PHE694  ASN695  SER759  ASP760  ASP761  ALA762  ILE779  LEU786  VAL792 
 PHE793  MET794  SER795  GLU796  ALA797  LYS798  CYS799  TRP800  GLU811  SER814 

> <Gold.Protein.RotatedAtoms>
  151.1760  133.4755  159.2593 H   0  0  0  0  0  0  0  0  0  0  0  0  # atno 6907 bound_to 6896
  151.1308  135.0129  159.8591 H   0  0  0  0  0  0  0  0  0  0  0  0  # atno 6908 bound_to 6896
  152.5460  134.1662  159.8631 H   0  0  0  0  0  0  0  0  0  0  0  0  # atno 6909 bound_to 6896
  144.7933  140.4989  143.5757 H   0  0  0  0  0  0  0  0  0  0  0  0  # atno 7974 bound_to 7965
  154.4873  140.2103  155.9626 H   0  0  0  0  0  0  0  0  0  0  0  0  # atno 8008 bound_to 7997
  156.1255  140.3206  155.8240 H   0  0  0  0  0  0  0  0  0  0  0  0  # atno 8009 bound_to 7997
  155.4391  140.0509  157.3002 H   0  0  0  0  0  0  0  0  0  0  0  0  # atno 8010 bound_to 7997
  140.4657  144.0839  150.6224 H   0  0  0  0  0  0  0  0  0  0  0  0  # atno 10167 bound_to 10162
  156.3355  130.7609  151.1735 H   0  0  0  0  0  0  0  0  0  0  0  0  # atno 10718 bound_to 10713
  153.3939  135.3875  155.1942 H   0  0  0  0  0  0  0  0  0  0  0  0  # atno 10763 bound_to 10752
  154.8722  135.3755  154.4702 H   0  0  0  0  0  0  0  0  0  0  0  0  # atno 10764 bound_to 10752
  153.5192  135.7087  153.5802 H   0  0  0  0  0  0  0  0  0  0  0  0  # atno 10765 bound_to 10752
  139.8772  134.9055  156.4475 H   0  0  0  0  0  0  0  0  0  0  0  0  # atno 11005 bound_to 11000
  145.5738  139.1485  143.3273 LP  0  0  0  0  0  0  0  0  0  0  0  0  # atno 17320 bound_to 7965
  146.2193  140.5870  142.9024 LP  0  0  0  0  0  0  0  0  0  0  0  0  # atno 17321 bound_to 7965
  140.4039  143.2690  151.9914 LP  0  0  0  0  0  0  0  0  0  0  0  0  # atno 17342 bound_to 10162
  139.4811  144.5974  151.7666 LP  0  0  0  0  0  0  0  0  0  0  0  0  # atno 17343 bound_to 10162
  157.7438  131.0469  150.4918 LP  0  0  0  0  0  0  0  0  0  0  0  0  # atno 17370 bound_to 10713
  156.5090  130.4135  149.6311 LP  0  0  0  0  0  0  0  0  0  0  0  0  # atno 17371 bound_to 10713
  140.8956  133.7817  155.9621 LP  0  0  0  0  0  0  0  0  0  0  0  0  # atno 17394 bound_to 11000
  140.8707  134.2730  157.5192 LP  0  0  0  0  0  0  0  0  0  0  0  0  # atno 17395 bound_to 11000

$$$$
