#       Name:                AV-unprocessed.smi:278
#       Creating user name   scv26
#       Creation time:       Thu Mar 26 21:37:35 2020


#       File generated by GOLD software.
#

@<TRIPOS>MOLECULE
AV-unprocessed.smi:278
    57    61     1
SMALL
NO_CHARGES


@<TRIPOS>ATOM
      1 ****        -5.2500   4.7372  -0.5444 O.2            1 S1                 0.0000
      2 ****        -4.0288   4.1996  -1.1632 S.o2           1 S1                 0.0000
      3 ****        -4.0279   2.8694  -1.7917 O.2            1 S1                 0.0000
      4 ****        -3.3778   5.4274  -2.3617 C.3            1 S1                 0.0000
      5 ****        -2.1939   6.1176  -1.6716 C.3            1 S1                 0.0000
      6 ****        -1.5530   5.1401  -0.6695 C.3            1 S1                 0.0000
      7 ****        -0.6992   4.0480  -1.3232 C.3            1 S1                 0.0000
      8 ****        -0.7880   2.9069  -0.4233 N.pl3          1 S1                 0.0000
      9 ****        -0.2488   1.7039  -0.7532 C.ar           1 S1                 0.0000
     10 ****         0.4934   1.6105  -1.8889 N.ar           1 S1                 0.0000
     11 ****         1.0441   0.4477  -2.2485 C.ar           1 S1                 0.0000
     12 ****         0.9874  -0.7298  -1.6250 N.ar           1 S1                 0.0000
     13 ****         0.2558  -0.6443  -0.4779 C.ar           1 S1                 0.0000
     14 ****        -0.3908   0.5196   0.0298 C.ar           1 S1                 0.0000
     15 ****        -1.0263   0.2120   1.2289 N.2            1 S1                 0.0000
     16 ****        -0.7765  -1.0552   1.4134 C.2            1 S1                 0.0000
     17 ****        -0.0105  -1.6471   0.4366 N.pl3          1 S1                 0.0000
     18 ****         0.4241  -3.0316   0.3887 C.3            1 S1                 0.0000
     19 ****         1.8965  -3.1974   0.8130 C.3            1 S1                 0.0000
     20 ****         2.0953  -2.7219   2.1315 O.3            1 S1                 0.0000
     21 ****         2.3979  -4.6501   0.6902 C.3            1 S1                 0.0000
     22 ****         3.8419  -4.9014   1.1585 C.3            1 S1                 0.0000
     23 ****         3.6910  -5.9525   2.2436 C.3            1 S1                 0.0000
     24 ****         2.3712  -6.6206   1.8815 C.3            1 S1                 0.0000
     25 ****         1.5724  -5.5337   1.4444 O.3            1 S1                 0.0000
     26 ****        -1.9974   2.9895   0.3848 C.3            1 S1                 0.0000
     27 ****        -2.6438   4.3405   0.0452 C.3            1 S1                 0.0000
     28 ****        -0.9446   5.6749   0.0612 H              1 S1                 0.0000
     29 ****        -3.0188   4.8559   0.9297 H              1 S1                 0.0000
     30 ****        -3.0478   4.8873  -3.2493 H              1 S1                 0.0000
     31 ****        -4.1646   6.1232  -2.6532 H              1 S1                 0.0000
     32 ****        -1.4695   6.4956  -2.3937 H              1 S1                 0.0000
     33 ****        -2.5687   6.9805  -1.1200 H              1 S1                 0.0000
     34 ****        -1.0971   3.7673  -2.2992 H              1 S1                 0.0000
     35 ****         0.3328   4.3740  -1.4562 H              1 S1                 0.0000
     36 ****         1.6131   0.4639  -3.1663 H              1 S1                 0.0000
     37 ****        -1.1414  -1.5947   2.2753 H              1 S1                 0.0000
     38 ****        -0.2311  -3.6239   1.0288 H              1 S1                 0.0000
     39 ****         0.2813  -3.3980  -0.6286 H              1 S1                 0.0000
     40 ****         2.5142  -2.5758   0.1635 H              1 S1                 0.0000
     41 ****         1.6187  -3.2829   2.7243 H              1 S1                 0.0000
     42 ****         2.3202  -4.9581  -0.3539 H              1 S1                 0.0000
     43 ****         4.4362  -5.2937   0.3323 H              1 S1                 0.0000
     44 ****         4.3455  -4.0071   1.5270 H              1 S1                 0.0000
     45 ****         4.5271  -6.6511   2.2826 H              1 S1                 0.0000
     46 ****         3.6043  -5.4693   3.2176 H              1 S1                 0.0000
     47 ****         2.5038  -7.3307   1.0637 H              1 S1                 0.0000
     48 ****         1.9161  -7.1423   2.7236 H              1 S1                 0.0000
     49 ****        -2.6757   2.1548   0.2071 H              1 S1                 0.0000
     50 ****        -1.7102   2.9664   1.4363 H              1 S1                 0.0000
     51 ****         0.6282   2.4200  -2.4603 LP             1 S1                 0.0000
     52 ****         1.4244  -1.5662  -1.9557 LP             1 S1                 0.0000
     53 ****        -1.5552   0.8242   1.8167 LP             1 S1                 0.0000
     54 ****         1.7564  -1.7841   2.2074 LP             1 S1                 0.0000
     55 ****         3.0696  -2.7434   2.3554 LP             1 S1                 0.0000
     56 ****         0.8256  -5.8713   0.8714 LP             1 S1                 0.0000
     57 ****         1.1943  -5.0519   2.2349 LP             1 S1                 0.0000
@<TRIPOS>BOND
    1    1    2 2     
    2    2   27 1     
    3    2    3 2     
    4    2    4 1     
    5    4    5 1     
    6    4   30 1     
    7    4   31 1     
    8    5    6 1     
    9    5   32 1     
   10    5   33 1     
   11    6   28 1     
   12    6   27 1     
   13    6    7 1     
   14    7    8 1     
   15    7   34 1     
   16    7   35 1     
   17    8    9 1     
   18    8   26 1     
   19    9   14 ar    
   20    9   10 ar    
   21   10   11 ar    
   22   11   12 ar    
   23   11   36 1     
   24   12   13 ar    
   25   13   17 1     
   26   13   14 ar    
   27   14   15 1     
   28   15   16 2     
   29   16   17 1     
   30   16   37 1     
   31   17   18 1     
   32   18   19 1     
   33   18   38 1     
   34   18   39 1     
   35   19   20 1     
   36   19   21 1     
   37   19   40 1     
   38   20   41 1     
   39   21   25 1     
   40   21   22 1     
   41   21   42 1     
   42   22   23 1     
   43   22   43 1     
   44   22   44 1     
   45   23   24 1     
   46   23   45 1     
   47   23   46 1     
   48   24   25 1     
   49   24   47 1     
   50   24   48 1     
   51   26   27 1     
   52   26   49 1     
   53   26   50 1     
   54   27   29 1     
   55   10   51 1     
   56   12   52 1     
   57   15   53 1     
   58   20   54 1     
   59   20   55 1     
   60   25   56 1     
   61   25   57 1     
@<TRIPOS>SUBSTRUCTURE
      1 S1             1
@<TRIPOS>SET
LONE_PAIRS      STATIC     ATOMS    <user>   **** ""
9 1 3 51 52 53 54 55 56 57
DONOR_HYDROGENS      STATIC     ATOMS    <user>   **** ""
1 41
ATOM$BLUE        STATIC     ATOMS    COLORGROUP SYSTEM
9 1 3 51 52 53 54 55 56 57
ATOM$RED        STATIC     ATOMS    COLORGROUP SYSTEM
1 41
