AV-unprocessed.smi:3265|AV-procd|sdf|12496|dock7
  -GOLD-   2272018393D 1   1.00000     0.00000
 Structure written by MMmdl.
 41 42  0  0  0  0  0  0  0  0  2 V2000
  144.2374  136.0571  152.0189 C   0  0  0  0  0  0  0  0  0  0  0  0
  145.5934  135.3565  151.8539 C   0  0  2  0  0  0  0  0  0  0  0  0
  145.4864  134.1380  150.9220 C   0  0  0  0  0  0  0  0  0  0  0  0
  146.8491  133.4463  150.7953 C   0  0  0  0  0  0  0  0  0  0  0  0
  147.4077  133.0752  152.1781 C   0  0  0  0  0  0  0  0  0  0  0  0
  147.5023  134.2689  153.0580 N   0  3  2  0  0  0  0  0  0  0  0  0
  148.1626  133.9576  154.3512 C   0  0  0  0  0  0  0  0  0  0  0  0
  148.1546  135.1550  155.3212 C   0  0  0  0  0  0  0  0  0  0  0  0
  148.8001  136.3240  154.7362 N   0  0  0  0  0  0  0  0  0  0  0  0
  149.7089  137.0921  155.3590 C   0  0  0  0  0  0  0  0  0  0  0  0
  150.0699  136.9015  156.5201 O   0  0  0  0  0  0  0  0  0  0  0  0
  150.2927  138.2596  154.5586 C   0  0  0  0  0  0  0  0  0  0  0  0
  149.4458  139.4379  154.6311 N   0  0  0  0  0  0  0  0  0  0  0  0
  148.1228  139.5669  154.2618 C   0  0  0  0  0  0  0  0  0  0  0  0
  147.7574  140.8601  154.5033 C   0  0  0  0  0  0  0  0  0  0  0  0
  148.9383  141.4522  155.0319 C   0  0  0  0  0  0  0  0  0  0  0  0
  149.9467  140.5991  155.1075 N   0  0  0  0  0  0  0  0  0  0  0  0
  146.1822  134.9372  153.2163 C   0  0  0  0  0  0  0  0  0  0  0  0
  143.5025  135.3966  152.4803 H   0  0  0  0  0  0  0  0  0  0  0  0
  143.8390  136.3749  151.0548 H   0  0  0  0  0  0  0  0  0  0  0  0
  144.3274  136.9449  152.6454 H   0  0  0  0  0  0  0  0  0  0  0  0
  146.2781  136.0728  151.3970 H   0  0  0  0  0  0  0  0  0  0  0  0
  144.7515  133.4326  151.3123 H   0  0  0  0  0  0  0  0  0  0  0  0
  145.1329  134.4438  149.9366 H   0  0  0  0  0  0  0  0  0  0  0  0
  146.7562  132.5518  150.1787 H   0  0  0  0  0  0  0  0  0  0  0  0
  147.5497  134.1052  150.2805 H   0  0  0  0  0  0  0  0  0  0  0  0
  146.7759  132.3215  152.6510 H   0  0  0  0  0  0  0  0  0  0  0  0
  148.3951  132.6286  152.0531 H   0  0  0  0  0  0  0  0  0  0  0  0
  147.6930  133.0848  154.8073 H   0  0  0  0  0  0  0  0  0  0  0  0
  149.2000  133.6811  154.1580 H   0  0  0  0  0  0  0  0  0  0  0  0
  147.1331  135.4029  155.6157 H   0  0  0  0  0  0  0  0  0  0  0  0
  148.6922  134.9175  156.2384 H   0  0  0  0  0  0  0  0  0  0  0  0
  148.5605  136.5516  153.7817 H   0  0  0  0  0  0  0  0  0  0  0  0
  151.2822  138.5090  154.9435 H   0  0  0  0  0  0  0  0  0  0  0  0
  150.4169  137.9750  153.5123 H   0  0  0  0  0  0  0  0  0  0  0  0
  147.5587  138.7379  153.8600 H   0  0  0  0  0  0  0  0  0  0  0  0
  146.7929  141.3141  154.3301 H   0  0  0  0  0  0  0  0  0  0  0  0
  149.0921  142.4699  155.3597 H   0  0  0  0  0  0  0  0  0  0  0  0
  146.2843  135.8236  153.8412 H   0  0  0  0  0  0  0  0  0  0  0  0
  145.4956  134.2651  153.7338 H   0  0  0  0  0  0  0  0  0  0  0  0
  148.1080  134.9205  152.5797 H   0  0  0  0  0  0  0  0  0  0  0  0
  1  2  1  0  0  0  0
  1 19  1  0  0  0  0
  1 20  1  0  0  0  0
  1 21  1  0  0  0  0
  2 18  1  0  0  0  0
  2  3  1  0  0  0  0
  2 22  1  0  0  0  0
  3  4  1  0  0  0  0
  3 23  1  0  0  0  0
  3 24  1  0  0  0  0
  4  5  1  0  0  0  0
  4 25  1  0  0  0  0
  4 26  1  0  0  0  0
  5  6  1  0  0  0  0
  5 27  1  0  0  0  0
  5 28  1  0  0  0  0
  6  7  1  0  0  0  0
  6 18  1  0  0  0  0
  6 41  1  0  0  0  0
  7  8  1  0  0  0  0
  7 29  1  0  0  0  0
  7 30  1  0  0  0  0
  8  9  1  0  0  0  0
  8 31  1  0  0  0  0
  8 32  1  0  0  0  0
  9 10  1  0  0  0  0
  9 33  1  0  0  0  0
 10 11  2  0  0  0  0
 10 12  1  0  0  0  0
 12 13  1  0  0  0  0
 12 34  1  0  0  0  0
 12 35  1  0  0  0  0
 13 17  1  0  0  0  0
 13 14  1  0  0  0  0
 14 15  2  0  0  0  0
 14 36  1  0  0  0  0
 15 16  1  0  0  0  0
 15 37  1  0  0  0  0
 16 17  2  0  0  0  0
 16 38  1  0  0  0  0
 18 39  1  0  0  0  0
 18 40  1  0  0  0  0
M  CHG  1   6   1
M  END
> <s_m_source_file>
AV-unprocessed.smi

> <i_m_source_file_index>
3265

> <i_lp_mmshare_version>
43012

> <i_f3d_flags>
0

> <s_epik_input>
W0NIM11bQ0BASF0xW0NIMl1bQ0gyXVtDSDJdTihbQ0gyXTEpW0NIMl1bQ0gyXVtOSF1DKD1PKVtDSDJdbjJbY0hdW2NIXVtjSF1uMg==

> <s_epik_cmdline>
J2VwaWtfcHl0aG9uJywgJy1waCcsICc3LjAnLCAnLXRuJywgJzgnLCAnLW1hJywgJzIwMCcsICctbWV0YWxfYmluZGluZycsICctaW1hZScsICc8aW5maWxlLm1hZT4nLCAnLW9tYWUnLCAnPG91dGZpbGUubWFlPic=

> <r_lp_tautomer_probability>
1

> <r_epik_Ionization_Penalty>
0.00231455

> <r_epik_Ionization_Penalty_Charging>
0.00230623

> <r_epik_Ionization_Penalty_Neutral>
8.31727e-06

> <r_epik_State_Penalty>
0.00159065

> <r_epik_Charging_Adjusted_Penalty>
0.00389688

> <i_epik_Tot_Q>
1

> <i_epik_Tot_abs_Q>
1

> <r_epik_Metal_State_Penalty>
-0

> <b_epik_Metal_Only>
0

> <s_lp_Force_Field>
OPLS_2005

> <r_lp_Energy>
16.3652

> <b_lp_Chiralities_Consistent>
1

> <s_lp_Variant>
AV-unprocessed.smi:3265-1

> <Gold.Version>
5.8.1

> <Gold.Id.Protein>
6NUR|6NUR_protein|mol2

> <Gold.PLP.Fitness>
45.7530

> <Gold.PLP.PLP>
-31.7134

> <Gold.PLP.part.hbond>
-3.0000

> <Gold.PLP.part.metal>
0.0000

> <Gold.PLP.part.buried>
-2.6041

> <Gold.PLP.part.nonpolar>
-25.7359

> <Gold.PLP.part.repulsive>
0.0948

> <Gold.PLP.ligand.clash>
0.0000

> <Gold.PLP.ligand.torsion>
0.4784

> <Gold.PLP.Chemscore.Hbond>
4.0000

> <Gold.PLP.Chemscore.CHOScore>
0.9875

> <Gold.PLP.Chemscore.Metal>
0.0000

> <Gold.Chemscore.Hbonds>
donor molecule, donor type, donor heavy atom, donor atom, acceptor molecule, acceptor atom, score
      L1  H     6    41       P1  7948  2.00
      L1  H     9    33       P1  7948  0.91
      P1  H  7989  7998       L1    17  0.17
      L1  C    16    38       P1  8028  1.00

> <Gold.PLP.Chemscore.Internal.Correction>
0.0338

> <Gold.Rescore>
     Score         DG    S(hbond)    S(metal)    S(lipo)     H(rot)  DE(clash)    DE(int)     intcor
     16.63     -17.32       2.73        0.00      63.41       1.84       0.01       0.68       ----

> <Gold.Chemscore.Fitness>
16.6270

> <Gold.Chemscore.DG>
-17.3151

> <Gold.Chemscore.ZeroCoef>
-5.4800

> <Gold.Chemscore.Hbond>
2.7314

> <Gold.Chemscore.Metal>
0.0000

> <Gold.Chemscore.Lipo>
63.4118

> <Gold.Chemscore.Internal_Hbond>
0.0000

> <Gold.Chemscore.DEClash>
0.0106

> <Gold.Chemscore.DEInternal>
0.6774

> <Gold.Chemscore.Rot>
1.8386

> <Gold.Chemscore.Internal.Correction>
   9.000000E+99

> <Gold.Chemscore.Hbonds>
donor molecule, donor type, donor heavy atom, donor atom, acceptor molecule, acceptor atom, score
      L1  H     6    41       P1  7948  0.78
      L1  H     9    33       P1  7948  0.86
      P1  H  7989  7998       L1    17  0.03

> <Gold.Chemscore.Hbond.Weighted>
-9.1228

> <Gold.Chemscore.Metal.Weighted>
-0.0000

> <Gold.Chemscore.Lipo.Weighted>
-7.4192

> <Gold.Chemscore.Internal_Hbond.Weighted>
0.0000

> <Gold.Chemscore.DEClash.Weighted>
0.0106

> <Gold.Chemscore.DEInternal.Weighted>
0.6774

> <Gold.Chemscore.Rot.Weighted>
4.7069

> <Gold.Chemscore.Internal.Correction.Weighted>
   9.000000E+99

> <Gold.Protein.RotatedTorsions>
[ 6907 6896 6895 6894 ] final  128.15 input  -60.11 | X-H torsion
[ 7974 7965 7964 7962 ] final   38.26 input  175.53 | X-H torsion
[ 8008 7997 7996 7995 ] final  128.12 input   59.86 | X-H torsion
[ 10167 10162 10161 10158 ] final   86.28 input  -65.29 | X-H torsion
[ 10718 10713 10712 10709 ] final -175.17 input   66.30 | X-H torsion
[ 10763 10752 10751 10750 ] final   57.16 input  -60.55 | X-H torsion
[ 11005 11000 10999 10996 ] final  -16.08 input  -57.11 | X-H torsion

> <Gold.Protein.ActiveResidues>
 VAL166  LYS551  ARG553  GLY616  TRP617  ASP618  TYR619  PRO620  LYS621  CYS622 
 ASP623  PHE694  ASN695  SER759  ASP760  ASP761  ALA762  ILE779  LEU786  VAL792 
 PHE793  MET794  SER795  GLU796  ALA797  LYS798  CYS799  TRP800  GLU811  SER814 

> <Gold.Protein.RotatedAtoms>
  152.3746  133.6464  159.6113 H   0  0  0  0  0  0  0  0  0  0  0  0  # atno 6907 bound_to 6896
  150.7694  133.9214  159.3408 H   0  0  0  0  0  0  0  0  0  0  0  0  # atno 6908 bound_to 6896
  151.7031  135.0927  160.0305 H   0  0  0  0  0  0  0  0  0  0  0  0  # atno 6909 bound_to 6896
  146.1075  139.5794  142.9374 H   0  0  0  0  0  0  0  0  0  0  0  0  # atno 7974 bound_to 7965
  156.2907  140.2652  156.2384 H   0  0  0  0  0  0  0  0  0  0  0  0  # atno 8008 bound_to 7997
  155.0002  140.0388  157.2375 H   0  0  0  0  0  0  0  0  0  0  0  0  # atno 8009 bound_to 7997
  154.7608  140.2760  155.6220 H   0  0  0  0  0  0  0  0  0  0  0  0  # atno 8010 bound_to 7997
  139.8891  144.6396  150.8758 H   0  0  0  0  0  0  0  0  0  0  0  0  # atno 10167 bound_to 10162
  156.7960  130.9535  151.3119 H   0  0  0  0  0  0  0  0  0  0  0  0  # atno 10718 bound_to 10713
  152.9845  135.5651  154.5346 H   0  0  0  0  0  0  0  0  0  0  0  0  # atno 10763 bound_to 10752
  154.4812  135.2788  155.1571 H   0  0  0  0  0  0  0  0  0  0  0  0  # atno 10764 bound_to 10752
  154.3079  135.6294  153.5506 H   0  0  0  0  0  0  0  0  0  0  0  0  # atno 10765 bound_to 10752
  140.8032  133.8198  155.9490 H   0  0  0  0  0  0  0  0  0  0  0  0  # atno 11005 bound_to 11000
  145.5730  141.0392  143.2163 LP  0  0  0  0  0  0  0  0  0  0  0  0  # atno 17320 bound_to 7965
  144.7483  139.7260  143.7283 LP  0  0  0  0  0  0  0  0  0  0  0  0  # atno 17321 bound_to 7965
  140.7730  143.3524  151.1987 LP  0  0  0  0  0  0  0  0  0  0  0  0  # atno 17342 bound_to 10162
  139.7126  143.9352  152.2953 LP  0  0  0  0  0  0  0  0  0  0  0  0  # atno 17343 bound_to 10162
  157.6577  130.8939  149.9764 LP  0  0  0  0  0  0  0  0  0  0  0  0  # atno 17370 bound_to 10713
  156.1130  130.3649  150.0016 LP  0  0  0  0  0  0  0  0  0  0  0  0  # atno 17371 bound_to 10713
  140.9274  134.2065  157.4887 LP  0  0  0  0  0  0  0  0  0  0  0  0  # atno 17394 bound_to 11000
  139.8720  134.9818  156.5131 LP  0  0  0  0  0  0  0  0  0  0  0  0  # atno 17395 bound_to 11000

$$$$
