AV-unprocessed.smi:1545|AV-procd|sdf|6215|dock2
  -GOLD-   22720 6383D 1   1.00000     0.00000
 Structure written by MMmdl.
 42 44  0  0  0  0  0  0  0  0  2 V2000
  144.2695  136.9010  151.8171 O   0  0  0  0  0  0  0  0  0  0  0  0
  145.2130  137.4964  152.6809 C   0  0  0  0  0  0  0  0  0  0  0  0
  146.2020  138.3465  151.8730 C   0  0  0  0  0  0  0  0  0  0  0  0
  146.4876  139.6108  152.5316 N   0  0  0  0  0  0  0  0  0  0  0  0
  147.6774  139.7468  153.2544 C   0  0  0  0  0  0  0  0  0  0  0  0
  148.7128  138.8654  153.2605 N   0  3  0  0  0  0  0  0  0  0  0  0
  149.7034  139.3565  154.1155 C   0  0  0  0  0  0  0  0  0  0  0  0
  150.9437  138.8312  154.4646 C   0  0  0  0  0  0  0  0  0  0  0  0
  151.7176  139.5835  155.3726 C   0  0  0  0  0  0  0  0  0  0  0  0
  151.2532  140.8071  155.8976 C   0  0  0  0  0  0  0  0  0  0  0  0
  149.9950  141.3330  155.5378 C   0  0  0  0  0  0  0  0  0  0  0  0
  149.2347  140.5853  154.6395 C   0  0  0  0  0  0  0  0  0  0  0  0
  147.9699  140.7897  154.0745 N   0  0  0  0  0  0  0  0  0  0  0  0
  147.1956  141.9881  154.4311 C   0  0  0  0  0  0  0  0  0  0  0  0
  145.8808  141.6440  155.1585 C   0  0  1  0  0  0  0  0  0  0  0  0
  146.1870  140.7892  156.2402 O   0  0  0  0  0  0  0  0  0  0  0  0
  145.1266  142.8906  155.5995 C   0  0  0  0  0  0  0  0  0  0  0  0
  144.9047  143.1532  156.9696 C   0  0  0  0  0  0  0  0  0  0  0  0
  144.2291  144.3231  157.3672 C   0  0  0  0  0  0  0  0  0  0  0  0
  143.7767  145.2396  156.3987 C   0  0  0  0  0  0  0  0  0  0  0  0
  143.9995  144.9856  155.0322 C   0  0  0  0  0  0  0  0  0  0  0  0
  143.5724  145.8701  154.1002 F   0  0  0  0  0  0  0  0  0  0  0  0
  144.6701  143.8133  154.6336 C   0  0  0  0  0  0  0  0  0  0  0  0
  144.1865  137.4400  151.0450 H   0  0  0  0  0  0  0  0  0  0  0  0
  144.6633  138.1344  153.3732 H   0  0  0  0  0  0  0  0  0  0  0  0
  145.7210  136.7378  153.2778 H   0  0  0  0  0  0  0  0  0  0  0  0
  147.1231  137.7943  151.6809 H   0  0  0  0  0  0  0  0  0  0  0  0
  145.7593  138.5749  150.9028 H   0  0  0  0  0  0  0  0  0  0  0  0
  145.7439  140.2846  152.6488 H   0  0  0  0  0  0  0  0  0  0  0  0
  151.3027  137.8938  154.0654 H   0  0  0  0  0  0  0  0  0  0  0  0
  152.6873  139.2140  155.6729 H   0  0  0  0  0  0  0  0  0  0  0  0
  151.8751  141.3543  156.5911 H   0  0  0  0  0  0  0  0  0  0  0  0
  149.6484  142.2708  155.9463 H   0  0  0  0  0  0  0  0  0  0  0  0
  147.8275  142.6289  155.0473 H   0  0  0  0  0  0  0  0  0  0  0  0
  146.9953  142.5456  153.5152 H   0  0  0  0  0  0  0  0  0  0  0  0
  145.2398  141.0708  154.4877 H   0  0  0  0  0  0  0  0  0  0  0  0
  147.1230  140.6594  156.2650 H   0  0  0  0  0  0  0  0  0  0  0  0
  145.2577  142.4620  157.7209 H   0  0  0  0  0  0  0  0  0  0  0  0
  144.0639  144.5216  158.4157 H   0  0  0  0  0  0  0  0  0  0  0  0
  143.2638  146.1395  156.7045 H   0  0  0  0  0  0  0  0  0  0  0  0
  144.8436  143.6303  153.5833 H   0  0  0  0  0  0  0  0  0  0  0  0
  148.7367  138.0041  152.7302 H   0  0  0  0  0  0  0  0  0  0  0  0
  1  2  1  0  0  0  0
  1 24  1  0  0  0  0
  2  3  1  0  0  0  0
  2 25  1  0  0  0  0
  2 26  1  0  0  0  0
  3  4  1  0  0  0  0
  3 27  1  0  0  0  0
  3 28  1  0  0  0  0
  4  5  1  0  0  0  0
  4 29  1  0  0  0  0
  5 13  1  0  0  0  0
  5  6  2  0  0  0  0
  6  7  1  0  0  0  0
  6 42  1  0  0  0  0
  7 12  2  0  0  0  0
  7  8  1  0  0  0  0
  8  9  2  0  0  0  0
  8 30  1  0  0  0  0
  9 10  1  0  0  0  0
  9 31  1  0  0  0  0
 10 11  2  0  0  0  0
 10 32  1  0  0  0  0
 11 12  1  0  0  0  0
 11 33  1  0  0  0  0
 12 13  1  0  0  0  0
 13 14  1  0  0  0  0
 14 15  1  0  0  0  0
 14 34  1  0  0  0  0
 14 35  1  0  0  0  0
 15 16  1  0  0  0  0
 15 17  1  0  0  0  0
 15 36  1  0  0  0  0
 16 37  1  0  0  0  0
 17 23  1  0  0  0  0
 17 18  2  0  0  0  0
 18 19  1  0  0  0  0
 18 38  1  0  0  0  0
 19 20  2  0  0  0  0
 19 39  1  0  0  0  0
 20 21  1  0  0  0  0
 20 40  1  0  0  0  0
 21 22  1  0  0  0  0
 21 23  2  0  0  0  0
 23 41  1  0  0  0  0
M  CHG  1   6   1
M  END
> <s_m_source_file>
AV-unprocessed.smi

> <i_m_source_file_index>
1545

> <i_lp_mmshare_version>
43012

> <i_f3d_flags>
0

> <s_epik_input>
W09IXVtDSDJdW0NIMl1bTkhdYyhuMSluKGMoYzEyKVtjSF1bY0hdW2NIXVtjSF0yKVtDSDJdW0NASF0oW09IXSljM1tjSF1bY0hdW2NIXWMoRilbY0hdMw==

> <s_epik_cmdline>
J2VwaWtfcHl0aG9uJywgJy1waCcsICc3LjAnLCAnLXRuJywgJzgnLCAnLW1hJywgJzIwMCcsICctbWV0YWxfYmluZGluZycsICctaW1hZScsICc8aW5maWxlLm1hZT4nLCAnLW9tYWUnLCAnPG91dGZpbGUubWFlPic=

> <r_epik_Ionization_Penalty>
0.0688114

> <r_epik_Ionization_Penalty_Charging>
0.0688055

> <r_epik_Ionization_Penalty_Neutral>
5.85933e-06

> <r_epik_State_Penalty>
0.0602293

> <r_epik_Charging_Adjusted_Penalty>
0.129035

> <i_epik_Tot_Q>
1

> <i_epik_Tot_abs_Q>
1

> <r_epik_Metal_State_Penalty>
2.77411

> <b_epik_Metal_Only>
0

> <s_lp_Force_Field>
OPLS_2005

> <r_lp_Energy>
23.1511

> <b_lp_Chiralities_Consistent>
1

> <s_lp_Variant>
AV-unprocessed.smi:1545-2

> <Gold.Version>
5.8.1

> <Gold.Id.Protein>
6NUR|6NUR_protein|mol2

> <Gold.PLP.Fitness>
58.6618

> <Gold.PLP.PLP>
-46.0576

> <Gold.PLP.part.hbond>
-4.0000

> <Gold.PLP.part.metal>
0.0000

> <Gold.PLP.part.buried>
-1.7394

> <Gold.PLP.part.nonpolar>
-41.6230

> <Gold.PLP.part.repulsive>
0.1072

> <Gold.PLP.ligand.clash>
0.0000

> <Gold.PLP.ligand.torsion>
0.4885

> <Gold.PLP.Chemscore.Hbond>
4.5142

> <Gold.PLP.Chemscore.CHOScore>
0.0000

> <Gold.PLP.Chemscore.Metal>
0.0000

> <Gold.Chemscore.Hbonds>
donor molecule, donor type, donor heavy atom, donor atom, acceptor molecule, acceptor atom, score
      L1  H     1    24       P1 10171  1.00
      L1  H     4    29       P1 10175  1.49
      L1  H     6    42       P1  7948  2.00

> <Gold.PLP.Chemscore.Internal.Correction>
0.0385

> <Gold.Rescore>
     Score         DG    S(hbond)    S(metal)    S(lipo)     H(rot)  DE(clash)    DE(int)     intcor
     15.82     -16.91       2.67        0.00      90.48       3.15       0.58       0.51       ----

> <Gold.Chemscore.Fitness>
15.8221

> <Gold.Chemscore.DG>
-16.9099

> <Gold.Chemscore.ZeroCoef>
-5.4800

> <Gold.Chemscore.Hbond>
2.6673

> <Gold.Chemscore.Metal>
0.0000

> <Gold.Chemscore.Lipo>
90.4803

> <Gold.Chemscore.Internal_Hbond>
0.0000

> <Gold.Chemscore.DEClash>
0.5780

> <Gold.Chemscore.DEInternal>
0.5098

> <Gold.Chemscore.Rot>
3.1505

> <Gold.Chemscore.Internal.Correction>
   9.000000E+99

> <Gold.Chemscore.Hbonds>
donor molecule, donor type, donor heavy atom, donor atom, acceptor molecule, acceptor atom, score
      L1  H     1    24       P1 10171  1.00
      L1  H     4    29       P1 10175  0.59
      L1  H     6    42       P1  7948  0.99

> <Gold.Chemscore.Hbond.Weighted>
-8.9089

> <Gold.Chemscore.Metal.Weighted>
-0.0000

> <Gold.Chemscore.Lipo.Weighted>
-10.5862

> <Gold.Chemscore.Internal_Hbond.Weighted>
0.0000

> <Gold.Chemscore.DEClash.Weighted>
0.5780

> <Gold.Chemscore.DEInternal.Weighted>
0.5098

> <Gold.Chemscore.Rot.Weighted>
8.0652

> <Gold.Chemscore.Internal.Correction.Weighted>
   9.000000E+99

> <Gold.Protein.RotatedTorsions>
[ 6907 6896 6895 6894 ] final   40.20 input  -60.11 | X-H torsion
[ 7974 7965 7964 7962 ] final   -4.61 input  175.53 | X-H torsion
[ 8008 7997 7996 7995 ] final -134.26 input   59.86 | X-H torsion
[ 10167 10162 10161 10158 ] final  122.91 input  -65.29 | X-H torsion
[ 10718 10713 10712 10709 ] final  -91.97 input   66.30 | X-H torsion
[ 10763 10752 10751 10750 ] final   48.58 input  -60.55 | X-H torsion
[ 11005 11000 10999 10996 ] final  147.62 input  -57.11 | X-H torsion

> <Gold.Protein.ActiveResidues>
 VAL166  LYS551  ARG553  GLY616  TRP617  ASP618  TYR619  PRO620  LYS621  CYS622 
 ASP623  PHE694  ASN695  SER759  ASP760  ASP761  ALA762  ILE779  LEU786  VAL792 
 PHE793  MET794  SER795  GLU796  ALA797  LYS798  CYS799  TRP800  GLU811  SER814 

> <Gold.Protein.RotatedAtoms>
  152.1794  134.8767  160.0527 H   0  0  0  0  0  0  0  0  0  0  0  0  # atno 6907 bound_to 6896
  151.9696  133.3716  159.4074 H   0  0  0  0  0  0  0  0  0  0  0  0  # atno 6908 bound_to 6896
  150.6915  134.4077  159.5191 H   0  0  0  0  0  0  0  0  0  0  0  0  # atno 6909 bound_to 6896
  146.2369  140.1898  142.8332 H   0  0  0  0  0  0  0  0  0  0  0  0  # atno 7974 bound_to 7965
  155.3591  140.0481  157.3046 H   0  0  0  0  0  0  0  0  0  0  0  0  # atno 8008 bound_to 7997
  154.5187  140.2217  155.8980 H   0  0  0  0  0  0  0  0  0  0  0  0  # atno 8009 bound_to 7997
  156.1666  140.3105  155.8905 H   0  0  0  0  0  0  0  0  0  0  0  0  # atno 8010 bound_to 7997
  139.5830  144.6994  151.3479 H   0  0  0  0  0  0  0  0  0  0  0  0  # atno 10167 bound_to 10162
  155.9998  130.4969  150.5555 H   0  0  0  0  0  0  0  0  0  0  0  0  # atno 10718 bound_to 10713
  152.9791  135.5939  154.3949 H   0  0  0  0  0  0  0  0  0  0  0  0  # atno 10763 bound_to 10752
  154.3600  135.2767  155.2327 H   0  0  0  0  0  0  0  0  0  0  0  0  # atno 10764 bound_to 10752
  154.4328  135.6032  153.6134 H   0  0  0  0  0  0  0  0  0  0  0  0  # atno 10765 bound_to 10752
  140.0891  134.9051  157.1623 H   0  0  0  0  0  0  0  0  0  0  0  0  # atno 11005 bound_to 11000
  144.9867  140.8510  143.5364 LP  0  0  0  0  0  0  0  0  0  0  0  0  # atno 17320 bound_to 7965
  145.1898  139.2307  143.5248 LP  0  0  0  0  0  0  0  0  0  0  0  0  # atno 17321 bound_to 7965
  140.7106  143.7400  150.7560 LP  0  0  0  0  0  0  0  0  0  0  0  0  # atno 17342 bound_to 10162
  140.0938  143.4853  152.2464 LP  0  0  0  0  0  0  0  0  0  0  0  0  # atno 17343 bound_to 10162
  157.3472  131.0727  151.1742 LP  0  0  0  0  0  0  0  0  0  0  0  0  # atno 17370 bound_to 10713
  157.2571  130.6641  149.5957 LP  0  0  0  0  0  0  0  0  0  0  0  0  # atno 17371 bound_to 10713
  140.3377  134.2738  155.7217 LP  0  0  0  0  0  0  0  0  0  0  0  0  # atno 17394 bound_to 11000
  141.2072  133.7812  157.0132 LP  0  0  0  0  0  0  0  0  0  0  0  0  # atno 17395 bound_to 11000

$$$$
