#       Name:                AV-unprocessed.smi:534
#       Creating user name   scv26
#       Creation time:       Thu Mar 26 23:34:46 2020


#       File generated by GOLD software.
#

@<TRIPOS>MOLECULE
AV-unprocessed.smi:534
    49    50     1
SMALL
NO_CHARGES


@<TRIPOS>ATOM
      1 ****        -1.4569  -2.2989  -4.7585 C.3            1 S1                 0.0000
      2 ****        -1.4613  -1.9519  -3.3854 O.3            1 S1                 0.0000
      3 ****        -2.6669  -1.3196  -2.9877 C.3            1 S1                 0.0000
      4 ****        -2.5613  -0.9002  -1.5163 C.3            1 S1                 0.0000
      5 ****        -1.6395   0.2069  -1.3475 N.pl3          1 S1                 0.0000
      6 ****        -0.2605   0.2450  -1.1845 C.2            1 S1                 0.0000
      7 ****         0.4535   1.3603  -1.0114 N.2            1 S1                 0.0000
      8 ****         1.7461   0.8758  -0.8654 C.2            1 S1                 0.0000
      9 ****         1.7679  -0.4795  -0.9483 C.2            1 S1                 0.0000
     10 ****         3.0012  -1.2611  -0.8012 C.2            1 S1                 0.0000
     11 ****         3.0362  -2.4883  -0.8606 O.2            1 S1                 0.0000
     12 ****         4.0947  -0.4900  -0.5857 N.am           1 S1                 0.0000
     13 ****         4.1451   0.8744  -0.4931 C.2            1 S1                 0.0000
     14 ****         5.2199   1.4367  -0.2841 O.2            1 S1                 0.0000
     15 ****         2.9701   1.5676  -0.6372 N.am           1 S1                 0.0000
     16 ****         2.9630   3.0283  -0.5385 C.3            1 S1                 0.0000
     17 ****         0.4582  -0.9045  -1.1642 N.pl3          1 S1                 0.0000
     18 ****        -0.0346  -2.2712  -1.3018 C.3            1 S1                 0.0000
     19 ****        -0.3446  -2.9043   0.0625 C.3            1 S1                 0.0000
     20 ****        -1.3232  -2.1278   0.7352 O.3            1 S1                 0.0000
     21 ****        -1.6147  -2.6163   2.0318 C.3            1 S1                 0.0000
     22 ****         4.9718  -0.9777  -0.4757 H              1 S1                 0.0000
     23 ****        -0.5171  -2.7909  -5.0087 H              1 S1                 0.0000
     24 ****        -1.5505  -1.4128  -5.3879 H              1 S1                 0.0000
     25 ****        -2.2705  -2.9857  -4.9951 H              1 S1                 0.0000
     26 ****        -2.8773  -0.4517  -3.6156 H              1 S1                 0.0000
     27 ****        -3.4951  -2.0188  -3.1095 H              1 S1                 0.0000
     28 ****        -3.5384  -0.5817  -1.1535 H              1 S1                 0.0000
     29 ****        -2.2495  -1.7417  -0.8970 H              1 S1                 0.0000
     30 ****        -2.0607   1.1082  -1.5195 H              1 S1                 0.0000
     31 ****         3.7113   3.4674  -1.2001 H              1 S1                 0.0000
     32 ****         3.1860   3.3391   0.4831 H              1 S1                 0.0000
     33 ****         2.0004   3.4604  -0.8126 H              1 S1                 0.0000
     34 ****        -0.9281  -2.2715  -1.9265 H              1 S1                 0.0000
     35 ****         0.7010  -2.8656  -1.8423 H              1 S1                 0.0000
     36 ****        -0.7080  -3.9236  -0.0744 H              1 S1                 0.0000
     37 ****         0.5657  -2.9599   0.6616 H              1 S1                 0.0000
     38 ****        -2.3755  -1.9883   2.4952 H              1 S1                 0.0000
     39 ****        -0.7293  -2.5964   2.6682 H              1 S1                 0.0000
     40 ****        -1.9968  -3.6371   1.9928 H              1 S1                 0.0000
     41 ****        -0.6994  -1.3284  -3.2100 LP             1 S1                 0.0000
     42 ****        -1.3422  -2.7843  -2.8442 LP             1 S1                 0.0000
     43 ****         0.1360   2.3083  -0.9919 LP             1 S1                 0.0000
     44 ****         2.1947  -3.0056  -1.0164 LP             1 S1                 0.0000
     45 ****         3.9062  -2.9695  -0.7532 LP             1 S1                 0.0000
     46 ****         6.0553   0.8965  -0.1822 LP             1 S1                 0.0000
     47 ****         5.2577   2.4336  -0.2163 LP             1 S1                 0.0000
     48 ****        -2.1643  -2.1354   0.1943 LP             1 S1                 0.0000
     49 ****        -0.9869  -1.1895   0.8154 LP             1 S1                 0.0000
@<TRIPOS>BOND
    1    1    2 1     
    2    1   23 1     
    3    1   24 1     
    4    1   25 1     
    5    2    3 1     
    6    3    4 1     
    7    3   26 1     
    8    3   27 1     
    9    4    5 1     
   10    4   28 1     
   11    4   29 1     
   12    5    6 1     
   13    5   30 1     
   14    6   17 1     
   15    6    7 2     
   16    7    8 1     
   17    8   15 1     
   18    8    9 2     
   19    9   10 1     
   20    9   17 1     
   21   10   11 2     
   22   10   12 1     
   23   12   22 1     
   24   12   13 1     
   25   13   14 2     
   26   13   15 1     
   27   15   16 1     
   28   16   31 1     
   29   16   32 1     
   30   16   33 1     
   31   17   18 1     
   32   18   19 1     
   33   18   34 1     
   34   18   35 1     
   35   19   20 1     
   36   19   36 1     
   37   19   37 1     
   38   20   21 1     
   39   21   38 1     
   40   21   39 1     
   41   21   40 1     
   42    2   41 1     
   43    2   42 1     
   44    7   43 1     
   45   11   44 1     
   46   11   45 1     
   47   14   46 1     
   48   14   47 1     
   49   20   48 1     
   50   20   49 1     
@<TRIPOS>SUBSTRUCTURE
      1 S1             1
@<TRIPOS>SET
LONE_PAIRS      STATIC     ATOMS    <user>   **** ""
9 41 42 43 44 45 46 47 48 49
DONOR_HYDROGENS      STATIC     ATOMS    <user>   **** ""
2 30 22
ATOM$BLUE        STATIC     ATOMS    COLORGROUP SYSTEM
9 41 42 43 44 45 46 47 48 49
ATOM$RED        STATIC     ATOMS    COLORGROUP SYSTEM
2 30 22
