#       Name:                AV-unprocessed.smi:817
#       Creating user name   scv26
#       Creation time:       Fri Mar 27 01:27:22 2020


#       File generated by GOLD software.
#

@<TRIPOS>MOLECULE
AV-unprocessed.smi:817
    51    52     1
SMALL
NO_CHARGES


@<TRIPOS>ATOM
      1 ****        -2.9171   1.5826   2.9504 C.3            1 S1                 0.0000
      2 ****        -2.9525   0.7423   1.6661 C.3            1 S1                 0.0000
      3 ****        -3.0501   1.6363   0.4164 C.3            1 S1                 0.0000
      4 ****        -3.0225   0.8100  -0.8777 C.3            1 S1                 0.0000
      5 ****        -1.7914  -0.1134  -0.9184 C.3            1 S1                 0.0000
      6 ****        -1.7292  -1.0893   0.2959 C.3            1 S1                 0.0000
      7 ****        -0.4148  -1.9266   0.2345 C.3            1 S1                 0.0000
      8 ****         0.7949  -1.1015   0.2294 N.am           1 S1                 0.0000
      9 ****         2.0728  -1.5174   0.2109 C.2            1 S1                 0.0000
     10 ****         2.3491  -2.7144   0.2148 O.2            1 S1                 0.0000
     11 ****         2.9764  -0.5173   0.2110 N.am           1 S1                 0.0000
     12 ****         4.3952  -0.5990   0.1925 C.ar           1 S1                 0.0000
     13 ****         5.1263  -1.7306  -0.2442 C.ar           1 S1                 0.0000
     14 ****         6.5335  -1.6782  -0.2270 C.ar           1 S1                 0.0000
     15 ****         7.1582  -0.4965   0.2164 C.ar           1 S1                 0.0000
     16 ****         6.4743   0.5941   0.6219 N.ar           1 S1                 0.0000
     17 ****         5.1257   0.5362   0.6034 C.ar           1 S1                 0.0000
     18 ****        -2.9344  -2.0015   0.3017 N.4            1 S1                 1.0000
     19 ****        -3.1377  -2.8196  -0.9235 C.3            1 S1                 0.0000
     20 ****        -3.1072  -2.8425   1.5161 C.3            1 S1                 0.0000
     21 ****        -1.7200  -0.1844   1.5672 C.3            1 S1                 0.0000
     22 ****        -2.0378   2.2270   2.9786 H              1 S1                 0.0000
     23 ****        -2.8922   0.9465   3.8356 H              1 S1                 0.0000
     24 ****        -3.7987   2.2195   3.0283 H              1 S1                 0.0000
     25 ****        -3.8509   0.1261   1.7118 H              1 S1                 0.0000
     26 ****        -3.9624   2.2327   0.4519 H              1 S1                 0.0000
     27 ****        -2.2206   2.3450   0.4067 H              1 S1                 0.0000
     28 ****        -3.9385   0.2249  -0.9643 H              1 S1                 0.0000
     29 ****        -3.0092   1.4799  -1.7378 H              1 S1                 0.0000
     30 ****        -1.7461  -0.6441  -1.8683 H              1 S1                 0.0000
     31 ****        -0.9080   0.5261  -0.9236 H              1 S1                 0.0000
     32 ****        -0.3532  -2.6023   1.0876 H              1 S1                 0.0000
     33 ****        -0.3961  -2.5430  -0.6644 H              1 S1                 0.0000
     34 ****         0.6486  -0.1023   0.2528 H              1 S1                 0.0000
     35 ****         2.6007   0.4163   0.2877 H              1 S1                 0.0000
     36 ****         4.6432  -2.6263  -0.6019 H              1 S1                 0.0000
     37 ****         7.1210  -2.5243  -0.5514 H              1 S1                 0.0000
     38 ****         8.2355  -0.4238   0.2408 H              1 S1                 0.0000
     39 ****         4.6124   1.4279   0.9326 H              1 S1                 0.0000
     40 ****        -2.3449  -3.5548  -1.0592 H              1 S1                 0.0000
     41 ****        -3.2125  -2.2154  -1.8253 H              1 S1                 0.0000
     42 ****        -4.0775  -3.3687  -0.8558 H              1 S1                 0.0000
     43 ****        -2.2912  -3.5536   1.6400 H              1 S1                 0.0000
     44 ****        -4.0302  -3.4191   1.4471 H              1 S1                 0.0000
     45 ****        -3.1963  -2.2504   2.4248 H              1 S1                 0.0000
     46 ****        -0.8345   0.4523   1.5572 H              1 S1                 0.0000
     47 ****        -1.6133  -0.7774   2.4748 H              1 S1                 0.0000
     48 ****        -3.7231  -1.3703   0.3176 H              1 S1                 0.0000
     49 ****         1.6178  -3.3963   0.2320 LP             1 S1                 0.0000
     50 ****         3.3053  -3.0069   0.2008 LP             1 S1                 0.0000
     51 ****         6.9513   1.4187   0.9263 LP             1 S1                 0.0000
@<TRIPOS>BOND
    1    1    2 1     
    2    1   22 1     
    3    1   23 1     
    4    1   24 1     
    5    2   21 1     
    6    2    3 1     
    7    2   25 1     
    8    3    4 1     
    9    3   26 1     
   10    3   27 1     
   11    4    5 1     
   12    4   28 1     
   13    4   29 1     
   14    5    6 1     
   15    5   30 1     
   16    5   31 1     
   17    6    7 1     
   18    6   18 1     
   19    6   21 1     
   20    7    8 1     
   21    7   32 1     
   22    7   33 1     
   23    8    9 am    
   24    8   34 1     
   25    9   10 2     
   26    9   11 am    
   27   11   12 1     
   28   11   35 1     
   29   12   17 ar    
   30   12   13 ar    
   31   13   14 ar    
   32   13   36 1     
   33   14   15 ar    
   34   14   37 1     
   35   15   16 ar    
   36   15   38 1     
   37   16   17 ar    
   38   17   39 1     
   39   18   19 1     
   40   18   20 1     
   41   18   48 1     
   42   19   40 1     
   43   19   41 1     
   44   19   42 1     
   45   20   43 1     
   46   20   44 1     
   47   20   45 1     
   48   21   46 1     
   49   21   47 1     
   50   10   49 1     
   51   10   50 1     
   52   16   51 1     
@<TRIPOS>SUBSTRUCTURE
      1 S1             1
@<TRIPOS>SET
LONE_PAIRS      STATIC     ATOMS    <user>   **** ""
3 49 50 51
DONOR_HYDROGENS      STATIC     ATOMS    <user>   **** ""
3 34 35 48
ATOM$BLUE        STATIC     ATOMS    COLORGROUP SYSTEM
3 49 50 51
ATOM$RED        STATIC     ATOMS    COLORGROUP SYSTEM
3 34 35 48
