#       Name:                AV-unprocessed.smi:2856
#       Creating user name   scv26
#       Creation time:       Fri Mar 27 15:44:50 2020


#       File generated by GOLD software.
#

@<TRIPOS>MOLECULE
AV-unprocessed.smi:2856
    42    43     1
SMALL
NO_CHARGES


@<TRIPOS>ATOM
      1 ****        -0.4972  -1.2695  -2.9887 C.3            1 S1                 0.0000
      2 ****        -1.9904  -0.3724  -2.4836 S.3            1 S1                 0.0000
      3 ****        -2.3155  -1.1119  -0.8504 C.3            1 S1                 0.0000
      4 ****        -3.8316  -1.3267  -0.6806 C.3            1 S1                 0.0000
      5 ****        -4.1794  -1.9099   0.6963 C.3            1 S1                 0.0000
      6 ****        -3.6402  -1.0156   1.8201 C.3            1 S1                 0.0000
      7 ****        -2.1247  -0.8136   1.6802 C.3            1 S1                 0.0000
      8 ****        -1.7446  -0.2429   0.2980 C.3            1 S1                 0.0000
      9 ****        -0.2890  -0.1637   0.1994 N.am           1 S1                 0.0000
     10 ****         0.4523   0.9249   0.4490 C.2            1 S1                 0.0000
     11 ****        -0.0166   1.9979   0.8296 O.2            1 S1                 0.0000
     12 ****         1.7558   0.6841   0.2286 N.am           1 S1                 0.0000
     13 ****         2.8360   1.5947   0.3498 C.2            1 S1                 0.0000
     14 ****         4.1690   1.1835   0.0826 C.2            1 S1                 0.0000
     15 ****         4.8923   2.3214   0.3046 C.2            1 S1                 0.0000
     16 ****         6.3473   2.6317   0.2186 C.3            1 S1                 0.0000
     17 ****         4.0706   3.3407   0.6749 O.3            1 S1                 0.0000
     18 ****         2.7531   2.8686   0.7017 N.2            1 S1                 0.0000
     19 ****        -0.1907  -0.9491  -3.9842 H              1 S1                 0.0000
     20 ****        -0.6878  -2.3421  -3.0166 H              1 S1                 0.0000
     21 ****         0.3262  -1.0783  -2.3013 H              1 S1                 0.0000
     22 ****        -1.8392  -2.0931  -0.8258 H              1 S1                 0.0000
     23 ****        -4.3533  -0.3776  -0.8117 H              1 S1                 0.0000
     24 ****        -4.2022  -1.9907  -1.4622 H              1 S1                 0.0000
     25 ****        -5.2602  -2.0168   0.7926 H              1 S1                 0.0000
     26 ****        -3.7589  -2.9120   0.7881 H              1 S1                 0.0000
     27 ****        -4.1433  -0.0482   1.7935 H              1 S1                 0.0000
     28 ****        -3.8688  -1.4575   2.7903 H              1 S1                 0.0000
     29 ****        -1.7720  -0.1483   2.4692 H              1 S1                 0.0000
     30 ****        -1.6209  -1.7688   1.8357 H              1 S1                 0.0000
     31 ****        -2.1768   0.7556   0.2075 H              1 S1                 0.0000
     32 ****         0.1870  -1.0009  -0.1026 H              1 S1                 0.0000
     33 ****         2.0007  -0.2481  -0.0702 H              1 S1                 0.0000
     34 ****         4.5376   0.2151  -0.2215 H              1 S1                 0.0000
     35 ****         6.9161   1.7523  -0.0841 H              1 S1                 0.0000
     36 ****         6.7289   2.9651   1.1837 H              1 S1                 0.0000
     37 ****         6.5317   3.4210  -0.5103 H              1 S1                 0.0000
     38 ****        -1.0025   2.0915   0.9688 LP             1 S1                 0.0000
     39 ****         0.5884   2.7758   0.9995 LP             1 S1                 0.0000
     40 ****         4.1462   4.0898   0.0168 LP             1 S1                 0.0000
     41 ****         4.3292   3.6681   1.5837 LP             1 S1                 0.0000
     42 ****         1.9277   3.3823   0.9359 LP             1 S1                 0.0000
@<TRIPOS>BOND
    1    1    2 1     
    2    1   19 1     
    3    1   20 1     
    4    1   21 1     
    5    2    3 1     
    6    3    8 1     
    7    3    4 1     
    8    3   22 1     
    9    4    5 1     
   10    4   23 1     
   11    4   24 1     
   12    5    6 1     
   13    5   25 1     
   14    5   26 1     
   15    6    7 1     
   16    6   27 1     
   17    6   28 1     
   18    7    8 1     
   19    7   29 1     
   20    7   30 1     
   21    8    9 1     
   22    8   31 1     
   23    9   10 am    
   24    9   32 1     
   25   10   11 2     
   26   10   12 am    
   27   12   13 1     
   28   12   33 1     
   29   13   18 2     
   30   13   14 1     
   31   14   15 2     
   32   14   34 1     
   33   15   16 1     
   34   15   17 1     
   35   16   35 1     
   36   16   36 1     
   37   16   37 1     
   38   17   18 1     
   39   11   38 1     
   40   11   39 1     
   41   17   40 1     
   42   17   41 1     
   43   18   42 1     
@<TRIPOS>SUBSTRUCTURE
      1 S1             1
@<TRIPOS>SET
LONE_PAIRS      STATIC     ATOMS    <user>   **** ""
5 38 39 40 41 42
DONOR_HYDROGENS      STATIC     ATOMS    <user>   **** ""
2 32 33
ATOM$BLUE        STATIC     ATOMS    COLORGROUP SYSTEM
5 38 39 40 41 42
ATOM$RED        STATIC     ATOMS    COLORGROUP SYSTEM
2 32 33
