AV-unprocessed.smi:2240|AV-procd|sdf|9057|dock7
  -GOLD-   2272012263D 1   1.00000     0.00000
 Structure written by MMmdl.
 37 38  0  0  0  0  0  0  0  0  1 V2000
  152.1454  131.9916  157.0250 C   0  0  0  0  0  0  0  0  0  0  0  0
  150.9362  132.6236  157.4250 O   0  0  0  0  0  0  0  0  0  0  0  0
  150.2652  133.3854  156.4204 C   0  0  0  0  0  0  0  0  0  0  0  0
  150.0458  132.5721  155.1334 C   0  0  0  0  0  0  0  0  0  0  0  0
  149.1872  133.2804  154.1892 N   0  0  0  0  0  0  0  0  0  0  0  0
  148.1778  132.7396  153.4924 C   0  0  0  0  0  0  0  0  0  0  0  0
  147.8361  131.5607  153.5917 O   0  0  0  0  0  0  0  0  0  0  0  0
  147.6163  133.6454  152.6726 N   0  0  0  0  0  0  0  0  0  0  0  0
  146.5657  133.4568  151.7358 C   0  0  0  0  0  0  0  0  0  0  0  0
  145.7815  134.5540  151.2957 C   0  0  0  0  0  0  0  0  0  0  0  0
  144.7655  134.3400  150.3445 C   0  0  0  0  0  0  0  0  0  0  0  0
  144.5640  133.0397  149.8459 C   0  0  0  0  0  0  0  0  0  0  0  0
  143.4826  132.7594  148.8235 C   0  0  0  0  0  0  0  0  0  0  0  0
  145.3979  132.0111  150.3250 C   0  0  0  0  0  0  0  0  0  0  0  0
  146.3736  132.2144  151.2352 N   0  0  0  0  0  0  0  0  0  0  0  0
  149.0447  134.0642  157.0736 C   0  0  0  0  0  0  0  0  0  0  0  0
  149.4432  135.3644  156.3744 C   0  0  0  0  0  0  0  0  0  0  0  0
  150.8634  134.8024  156.3032 C   0  0  0  0  0  0  0  0  0  0  0  0
  152.6208  131.5455  157.8983 H   0  0  0  0  0  0  0  0  0  0  0  0
  152.8519  132.6979  156.5890 H   0  0  0  0  0  0  0  0  0  0  0  0
  151.9643  131.1898  156.3099 H   0  0  0  0  0  0  0  0  0  0  0  0
  151.0019  132.3250  154.6691 H   0  0  0  0  0  0  0  0  0  0  0  0
  149.5841  131.6105  155.3557 H   0  0  0  0  0  0  0  0  0  0  0  0
  149.3984  134.2555  154.0353 H   0  0  0  0  0  0  0  0  0  0  0  0
  148.0702  134.5459  152.6329 H   0  0  0  0  0  0  0  0  0  0  0  0
  145.9498  135.5558  151.6607 H   0  0  0  0  0  0  0  0  0  0  0  0
  144.1564  135.1634  150.0012 H   0  0  0  0  0  0  0  0  0  0  0  0
  143.6517  131.8048  148.3244 H   0  0  0  0  0  0  0  0  0  0  0  0
  143.4633  133.5409  148.0634 H   0  0  0  0  0  0  0  0  0  0  0  0
  142.5065  132.7257  149.3074 H   0  0  0  0  0  0  0  0  0  0  0  0
  145.2844  130.9975  149.9691 H   0  0  0  0  0  0  0  0  0  0  0  0
  148.0735  133.6735  156.7716 H   0  0  0  0  0  0  0  0  0  0  0  0
  149.1218  134.1351  158.1600 H   0  0  0  0  0  0  0  0  0  0  0  0
  148.9807  135.4781  155.3927 H   0  0  0  0  0  0  0  0  0  0  0  0
  149.3359  136.2633  156.9819 H   0  0  0  0  0  0  0  0  0  0  0  0
  151.4659  135.0913  157.1664 H   0  0  0  0  0  0  0  0  0  0  0  0
  151.3835  135.0047  155.3665 H   0  0  0  0  0  0  0  0  0  0  0  0
  1  2  1  0  0  0  0
  1 19  1  0  0  0  0
  1 20  1  0  0  0  0
  1 21  1  0  0  0  0
  2  3  1  0  0  0  0
  3 18  1  0  0  0  0
  3  4  1  0  0  0  0
  3 16  1  0  0  0  0
  4  5  1  0  0  0  0
  4 22  1  0  0  0  0
  4 23  1  0  0  0  0
  5  6  1  0  0  0  0
  5 24  1  0  0  0  0
  6  7  2  0  0  0  0
  6  8  1  0  0  0  0
  8  9  1  0  0  0  0
  8 25  1  0  0  0  0
  9 15  1  0  0  0  0
  9 10  2  0  0  0  0
 10 11  1  0  0  0  0
 10 26  1  0  0  0  0
 11 12  2  0  0  0  0
 11 27  1  0  0  0  0
 12 13  1  0  0  0  0
 12 14  1  0  0  0  0
 13 28  1  0  0  0  0
 13 29  1  0  0  0  0
 13 30  1  0  0  0  0
 14 15  2  0  0  0  0
 14 31  1  0  0  0  0
 16 17  1  0  0  0  0
 16 32  1  0  0  0  0
 16 33  1  0  0  0  0
 17 18  1  0  0  0  0
 17 34  1  0  0  0  0
 17 35  1  0  0  0  0
 18 36  1  0  0  0  0
 18 37  1  0  0  0  0
M  END
> <s_m_source_file>
AV-unprocessed.smi

> <i_m_source_file_index>
2240

> <i_lp_mmshare_version>
43012

> <i_f3d_flags>
0

> <s_epik_input>
W0NIMl0xW0NIMl1bQ0gyXUMxKE9bQ0gzXSlbQ0gyXVtOSF1DKD1PKVtOSF1jMltjSF1bY0hdYyhbQ0gzXSlbY0hdbjI=

> <s_epik_cmdline>
J2VwaWtfcHl0aG9uJywgJy1waCcsICc3LjAnLCAnLXRuJywgJzgnLCAnLW1hJywgJzIwMCcsICctbWV0YWxfYmluZGluZycsICctaW1hZScsICc8aW5maWxlLm1hZT4nLCAnLW9tYWUnLCAnPG91dGZpbGUubWFlPic=

> <r_lp_tautomer_probability>
1

> <r_epik_Ionization_Penalty>
5.83017e-05

> <r_epik_Ionization_Penalty_Charging>
0

> <r_epik_Ionization_Penalty_Neutral>
5.83017e-05

> <r_epik_State_Penalty>
-0

> <r_epik_Charging_Adjusted_Penalty>
0

> <i_epik_Tot_Q>
0

> <i_epik_Tot_abs_Q>
0

> <r_epik_Metal_State_Penalty>
-0

> <b_epik_Metal_Only>
0

> <s_lp_Force_Field>
OPLS_2005

> <r_lp_Energy>
21.5554

> <b_lp_Chiralities_Consistent>
1

> <s_lp_Variant>
AV-unprocessed.smi:2240-1

> <Gold.Version>
5.8.1

> <Gold.Id.Protein>
6NUR|6NUR_protein|mol2

> <Gold.PLP.Fitness>
35.6702

> <Gold.PLP.PLP>
-30.2788

> <Gold.PLP.part.hbond>
-2.0000

> <Gold.PLP.part.metal>
0.0000

> <Gold.PLP.part.buried>
-4.2249

> <Gold.PLP.part.nonpolar>
-24.5813

> <Gold.PLP.part.repulsive>
1.0625

> <Gold.PLP.ligand.clash>
0.0000

> <Gold.PLP.ligand.torsion>
0.4375

> <Gold.PLP.Chemscore.Hbond>
2.0000

> <Gold.PLP.Chemscore.CHOScore>
0.0000

> <Gold.PLP.Chemscore.Metal>
0.0000

> <Gold.Chemscore.Hbonds>
donor molecule, donor type, donor heavy atom, donor atom, acceptor molecule, acceptor atom, score
      L1  H     8    25       P1  7948  1.00
      P1  H  6896  6909       L1     2  1.00

> <Gold.PLP.Chemscore.Internal.Correction>
0.2664

> <Gold.Rescore>
     Score         DG    S(hbond)    S(metal)    S(lipo)     H(rot)  DE(clash)    DE(int)     intcor
     11.02     -13.89       1.24        0.00      68.23       1.45       0.16       2.72       ----

> <Gold.Chemscore.Fitness>
11.0174

> <Gold.Chemscore.DG>
-13.8921

> <Gold.Chemscore.ZeroCoef>
-5.4800

> <Gold.Chemscore.Hbond>
1.2418

> <Gold.Chemscore.Metal>
0.0000

> <Gold.Chemscore.Lipo>
68.2257

> <Gold.Chemscore.Internal_Hbond>
0.0000

> <Gold.Chemscore.DEClash>
0.1563

> <Gold.Chemscore.DEInternal>
2.7184

> <Gold.Chemscore.Rot>
1.4523

> <Gold.Chemscore.Internal.Correction>
   9.000000E+99

> <Gold.Chemscore.Hbonds>
donor molecule, donor type, donor heavy atom, donor atom, acceptor molecule, acceptor atom, score
      L1  H     8    25       P1  7948  0.47
      P1  H  6896  6909       L1     2  0.33

> <Gold.Chemscore.Hbond.Weighted>
-4.1476

> <Gold.Chemscore.Metal.Weighted>
-0.0000

> <Gold.Chemscore.Lipo.Weighted>
-7.9824

> <Gold.Chemscore.Internal_Hbond.Weighted>
0.0000

> <Gold.Chemscore.DEClash.Weighted>
0.1563

> <Gold.Chemscore.DEInternal.Weighted>
2.7184

> <Gold.Chemscore.Rot.Weighted>
3.7179

> <Gold.Chemscore.Internal.Correction.Weighted>
   9.000000E+99

> <Gold.Protein.RotatedTorsions>
[ 6907 6896 6895 6894 ] final  -46.15 input  -60.11 | X-H torsion
[ 7974 7965 7964 7962 ] final  -47.94 input  175.53 | X-H torsion
[ 8008 7997 7996 7995 ] final  -60.85 input   59.86 | X-H torsion
[ 10167 10162 10161 10158 ] final  -63.33 input  -65.29 | X-H torsion
[ 10718 10713 10712 10709 ] final   36.50 input   66.30 | X-H torsion
[ 10763 10752 10751 10750 ] final -148.66 input  -60.55 | X-H torsion
[ 11005 11000 10999 10996 ] final  -79.19 input  -57.11 | X-H torsion

> <Gold.Protein.ActiveResidues>
 VAL166  LYS551  ARG553  GLY616  TRP617  ASP618  TYR619  PRO620  LYS621  CYS622 
 ASP623  PHE694  ASN695  SER759  ASP760  ASP761  ALA762  ILE779  LEU786  VAL792 
 PHE793  MET794  SER795  GLU796  ALA797  LYS798  CYS799  TRP800  GLU811  SER814 

> <Gold.Protein.RotatedAtoms>
  150.9143  134.8560  159.7445 H   0  0  0  0  0  0  0  0  0  0  0  0  # atno 6907 bound_to 6896
  152.4960  134.4313  159.9523 H   0  0  0  0  0  0  0  0  0  0  0  0  # atno 6908 bound_to 6896
  151.4352  133.3619  159.2809 H   0  0  0  0  0  0  0  0  0  0  0  0  # atno 6909 bound_to 6896
  145.9563  140.7523  142.9479 H   0  0  0  0  0  0  0  0  0  0  0  0  # atno 7974 bound_to 7965
  154.4419  140.1030  156.6338 H   0  0  0  0  0  0  0  0  0  0  0  0  # atno 8008 bound_to 7997
  155.5576  140.3487  155.4465 H   0  0  0  0  0  0  0  0  0  0  0  0  # atno 8009 bound_to 7997
  156.0483  140.1298  157.0068 H   0  0  0  0  0  0  0  0  0  0  0  0  # atno 8010 bound_to 7997
  140.5878  143.2336  151.6205 H   0  0  0  0  0  0  0  0  0  0  0  0  # atno 10167 bound_to 10162
  157.3357  130.7521  149.6877 H   0  0  0  0  0  0  0  0  0  0  0  0  # atno 10718 bound_to 10713
  154.8221  135.3329  154.7008 H   0  0  0  0  0  0  0  0  0  0  0  0  # atno 10763 bound_to 10752
  153.7640  135.6930  153.4924 H   0  0  0  0  0  0  0  0  0  0  0  0  # atno 10764 bound_to 10752
  153.2091  135.4488  155.0307 H   0  0  0  0  0  0  0  0  0  0  0  0  # atno 10765 bound_to 10752
  141.1667  133.7095  156.8085 H   0  0  0  0  0  0  0  0  0  0  0  0  # atno 11005 bound_to 11000
  144.6806  140.2518  143.7330 LP  0  0  0  0  0  0  0  0  0  0  0  0  # atno 17320 bound_to 7965
  145.8101  139.2000  143.1998 LP  0  0  0  0  0  0  0  0  0  0  0  0  # atno 17321 bound_to 7965
  139.5208  144.3211  152.0909 LP  0  0  0  0  0  0  0  0  0  0  0  0  # atno 17342 bound_to 10162
  140.2371  144.4308  150.6275 LP  0  0  0  0  0  0  0  0  0  0  0  0  # atno 17343 bound_to 10162
  155.9701  130.4182  150.4317 LP  0  0  0  0  0  0  0  0  0  0  0  0  # atno 17370 bound_to 10713
  157.2356  131.0514  151.2466 LP  0  0  0  0  0  0  0  0  0  0  0  0  # atno 17371 bound_to 10713
  140.2205  134.8761  157.3371 LP  0  0  0  0  0  0  0  0  0  0  0  0  # atno 17394 bound_to 11000
  140.1993  134.4274  155.7671 LP  0  0  0  0  0  0  0  0  0  0  0  0  # atno 17395 bound_to 11000

$$$$
