AV-unprocessed.smi:1479|AV-procd|sdf|5983|dock1
  -GOLD-   22720 6 73D 1   1.00000     0.00000
 Structure written by MMmdl.
 40 41  0  0  0  0  0  0  0  0  1 V2000
  150.8980  137.5678  158.4335 C   0  0  0  0  0  0  0  0  0  0  0  0
  150.8725  136.3580  157.0490 S   0  0  0  0  0  0  0  0  0  0  0  0
  152.2603  136.1014  156.6347 O   0  0  0  0  0  0  0  0  0  0  0  0
  150.0088  135.2299  157.4297 O   0  0  0  0  0  0  0  0  0  0  0  0
  150.0242  137.3213  155.7205 C   0  0  0  0  0  0  0  0  0  0  0  0
  150.8897  137.4448  154.4577 C   0  0  0  0  0  0  0  0  0  0  0  0
  151.5539  138.7374  154.4190 N   0  0  0  0  0  0  0  0  0  0  0  0
  150.5881  139.7999  154.6437 C   0  0  0  0  0  0  0  0  0  0  0  0
  150.9391  140.6477  155.8489 C   0  0  0  0  0  0  0  0  0  0  0  0
  150.6181  142.0188  155.9151 C   0  0  0  0  0  0  0  0  0  0  0  0
  150.9267  142.7666  156.9960 N   0  0  0  0  0  0  0  0  0  0  0  0
  151.5517  142.1649  158.0176 C   0  0  0  0  0  0  0  0  0  0  0  0
  151.8697  142.9483  159.1352 N   0  0  0  0  0  0  0  0  0  0  0  0
  152.5311  142.3838  160.3146 C   0  0  0  0  0  0  0  0  0  0  0  0
  152.1055  143.1285  161.5912 C   0  0  0  0  0  0  0  0  0  0  0  0
  152.3546  144.5206  161.4428 O   0  0  0  0  0  0  0  0  0  0  0  0
  151.6014  145.0737  160.3711 C   0  0  0  0  0  0  0  0  0  0  0  0
  152.0086  144.4043  159.0477 C   0  0  0  0  0  0  0  0  0  0  0  0
  151.8951  140.8692  158.0489 N   0  0  0  0  0  0  0  0  0  0  0  0
  151.5926  140.1092  156.9747 C   0  0  0  0  0  0  0  0  0  0  0  0
  151.3861  137.1172  159.2976 H   0  0  0  0  0  0  0  0  0  0  0  0
  149.8773  137.8428  158.6982 H   0  0  0  0  0  0  0  0  0  0  0  0
  151.4491  138.4580  158.1312 H   0  0  0  0  0  0  0  0  0  0  0  0
  149.0990  136.7982  155.4791 H   0  0  0  0  0  0  0  0  0  0  0  0
  149.7510  138.3000  156.1164 H   0  0  0  0  0  0  0  0  0  0  0  0
  151.6259  136.6404  154.4301 H   0  0  0  0  0  0  0  0  0  0  0  0
  150.2624  137.3416  153.5716 H   0  0  0  0  0  0  0  0  0  0  0  0
  152.2500  138.7600  155.1504 H   0  0  0  0  0  0  0  0  0  0  0  0
  150.5563  140.4576  153.7740 H   0  0  0  0  0  0  0  0  0  0  0  0
  149.5920  139.3722  154.7631 H   0  0  0  0  0  0  0  0  0  0  0  0
  150.1126  142.5182  155.1016 H   0  0  0  0  0  0  0  0  0  0  0  0
  152.3049  141.3261  160.4469 H   0  0  0  0  0  0  0  0  0  0  0  0
  153.6103  142.4614  160.1785 H   0  0  0  0  0  0  0  0  0  0  0  0
  151.0499  142.9565  161.8085 H   0  0  0  0  0  0  0  0  0  0  0  0
  152.6702  142.7576  162.4465 H   0  0  0  0  0  0  0  0  0  0  0  0
  150.5335  144.9476  160.5577 H   0  0  0  0  0  0  0  0  0  0  0  0
  151.7907  146.1461  160.3220 H   0  0  0  0  0  0  0  0  0  0  0  0
  153.0464  144.6417  158.8118 H   0  0  0  0  0  0  0  0  0  0  0  0
  151.3987  144.8285  158.2508 H   0  0  0  0  0  0  0  0  0  0  0  0
  151.8749  139.0677  157.0174 H   0  0  0  0  0  0  0  0  0  0  0  0
  1  2  1  0  0  0  0
  1 21  1  0  0  0  0
  1 22  1  0  0  0  0
  1 23  1  0  0  0  0
  2  3  2  0  0  0  0
  2  4  2  0  0  0  0
  2  5  1  0  0  0  0
  5  6  1  0  0  0  0
  5 24  1  0  0  0  0
  5 25  1  0  0  0  0
  6  7  1  0  0  0  0
  6 26  1  0  0  0  0
  6 27  1  0  0  0  0
  7  8  1  0  0  0  0
  7 28  1  0  0  0  0
  8  9  1  0  0  0  0
  8 29  1  0  0  0  0
  8 30  1  0  0  0  0
  9 20  1  0  0  0  0
  9 10  2  0  0  0  0
 10 11  1  0  0  0  0
 10 31  1  0  0  0  0
 11 12  2  0  0  0  0
 12 13  1  0  0  0  0
 12 19  1  0  0  0  0
 13 18  1  0  0  0  0
 13 14  1  0  0  0  0
 14 15  1  0  0  0  0
 14 32  1  0  0  0  0
 14 33  1  0  0  0  0
 15 16  1  0  0  0  0
 15 34  1  0  0  0  0
 15 35  1  0  0  0  0
 16 17  1  0  0  0  0
 17 18  1  0  0  0  0
 17 36  1  0  0  0  0
 17 37  1  0  0  0  0
 18 38  1  0  0  0  0
 18 39  1  0  0  0  0
 19 20  2  0  0  0  0
 20 40  1  0  0  0  0
M  END
> <s_m_source_file>
AV-unprocessed.smi

> <i_m_source_file_index>
1479

> <i_lp_mmshare_version>
43012

> <i_f3d_flags>
0

> <s_epik_input>
W0NIM11TKD1PKSg9TylbQ0gyXVtDSDJdW05IXVtDSDJdYzFbY0hdbmMobltjSF0xKU4yW0NIMl1bQ0gyXU9bQ0gyXVtDSDJdMg==

> <s_epik_cmdline>
J2VwaWtfcHl0aG9uJywgJy1waCcsICc3LjAnLCAnLXRuJywgJzgnLCAnLW1hJywgJzIwMCcsICctbWV0YWxfYmluZGluZycsICctaW1hZScsICc8aW5maWxlLm1hZT4nLCAnLW9tYWUnLCAnPG91dGZpbGUubWFlPic=

> <r_lp_tautomer_probability>
1

> <r_epik_Ionization_Penalty>
0.401462

> <r_epik_Ionization_Penalty_Charging>
0

> <r_epik_Ionization_Penalty_Neutral>
0.401462

> <r_epik_State_Penalty>
0.400842

> <r_epik_Charging_Adjusted_Penalty>
0.400842

> <i_epik_Tot_Q>
0

> <i_epik_Tot_abs_Q>
0

> <r_epik_Metal_State_Penalty>
0.400839

> <b_epik_Metal_Only>
0

> <s_lp_Force_Field>
OPLS_2005

> <r_lp_Energy>
7.63479

> <b_lp_Chiralities_Consistent>
1

> <s_lp_Variant>
AV-unprocessed.smi:1479-1

> <Gold.Version>
5.8.1

> <Gold.Id.Protein>
6NUR|6NUR_protein|mol2

> <Gold.PLP.Fitness>
42.6480

> <Gold.PLP.PLP>
-37.9671

> <Gold.PLP.part.hbond>
-2.0342

> <Gold.PLP.part.metal>
0.0000

> <Gold.PLP.part.buried>
-2.5346

> <Gold.PLP.part.nonpolar>
-34.3442

> <Gold.PLP.part.repulsive>
0.3128

> <Gold.PLP.ligand.clash>
0.0000

> <Gold.PLP.ligand.torsion>
1.2008

> <Gold.PLP.Chemscore.Hbond>
1.5920

> <Gold.PLP.Chemscore.CHOScore>
0.6559

> <Gold.PLP.Chemscore.Metal>
0.0000

> <Gold.Chemscore.Hbonds>
donor molecule, donor type, donor heavy atom, donor atom, acceptor molecule, acceptor atom, score
      P1  H  6896  6908       L1     4  0.23
      P1  H 10752 10764       L1     3  1.00
      L1  C    10    31       P1  8028  0.67

> <Gold.PLP.Chemscore.Internal.Correction>
0.3389

> <Gold.Rescore>
     Score         DG    S(hbond)    S(metal)    S(lipo)     H(rot)  DE(clash)    DE(int)     intcor
     14.62     -15.87       1.67        0.00      86.80       2.08       0.12       1.13       ----

> <Gold.Chemscore.Fitness>
14.6241

> <Gold.Chemscore.DG>
-15.8737

> <Gold.Chemscore.ZeroCoef>
-5.4800

> <Gold.Chemscore.Hbond>
1.6664

> <Gold.Chemscore.Metal>
0.0000

> <Gold.Chemscore.Lipo>
86.7967

> <Gold.Chemscore.Internal_Hbond>
0.0000

> <Gold.Chemscore.DEClash>
0.1159

> <Gold.Chemscore.DEInternal>
1.1338

> <Gold.Chemscore.Rot>
2.0810

> <Gold.Chemscore.Internal.Correction>
   9.000000E+99

> <Gold.Chemscore.Hbonds>
donor molecule, donor type, donor heavy atom, donor atom, acceptor molecule, acceptor atom, score
      P1  H  6896  6908       L1     4  0.21
      P1  H 10752 10764       L1     3  0.98

> <Gold.Chemscore.Hbond.Weighted>
-5.5658

> <Gold.Chemscore.Metal.Weighted>
-0.0000

> <Gold.Chemscore.Lipo.Weighted>
-10.1552

> <Gold.Chemscore.Internal_Hbond.Weighted>
0.0000

> <Gold.Chemscore.DEClash.Weighted>
0.1159

> <Gold.Chemscore.DEInternal.Weighted>
1.1338

> <Gold.Chemscore.Rot.Weighted>
5.3273

> <Gold.Chemscore.Internal.Correction.Weighted>
   9.000000E+99

> <Gold.Protein.RotatedTorsions>
[ 6907 6896 6895 6894 ] final  141.35 input  -60.11 | X-H torsion
[ 7974 7965 7964 7962 ] final  -50.93 input  175.53 | X-H torsion
[ 8008 7997 7996 7995 ] final  -94.55 input   59.86 | X-H torsion
[ 10167 10162 10161 10158 ] final  -83.91 input  -65.29 | X-H torsion
[ 10718 10713 10712 10709 ] final  -61.89 input   66.30 | X-H torsion
[ 10763 10752 10751 10750 ] final  -35.18 input  -60.55 | X-H torsion
[ 11005 11000 10999 10996 ] final -144.21 input  -57.11 | X-H torsion

> <Gold.Protein.ActiveResidues>
 VAL166  LYS551  ARG553  GLY616  TRP617  ASP618  TYR619  PRO620  LYS621  CYS622 
 ASP623  PHE694  ASN695  SER759  ASP760  ASP761  ALA762  ILE779  LEU786  VAL792 
 PHE793  MET794  SER795  GLU796  ALA797  LYS798  CYS799  TRP800  GLU811  SER814 

> <Gold.Protein.RotatedAtoms>
  152.2320  133.5066  159.5220 H   0  0  0  0  0  0  0  0  0  0  0  0  # atno 6907 bound_to 6896
  150.7040  134.1203  159.4041 H   0  0  0  0  0  0  0  0  0  0  0  0  # atno 6908 bound_to 6896
  151.9125  135.0333  160.0566 H   0  0  0  0  0  0  0  0  0  0  0  0  # atno 6909 bound_to 6896
  145.9245  140.7804  142.9630 H   0  0  0  0  0  0  0  0  0  0  0  0  # atno 7974 bound_to 7965
  154.7499  140.0488  157.0884 H   0  0  0  0  0  0  0  0  0  0  0  0  # atno 8008 bound_to 7997
  155.0071  140.3131  155.4825 H   0  0  0  0  0  0  0  0  0  0  0  0  # atno 8009 bound_to 7997
  156.2883  140.2191  156.5184 H   0  0  0  0  0  0  0  0  0  0  0  0  # atno 8010 bound_to 7997
  140.4182  143.2595  151.8926 H   0  0  0  0  0  0  0  0  0  0  0  0  # atno 10167 bound_to 10162
  156.0891  130.4203  150.1057 H   0  0  0  0  0  0  0  0  0  0  0  0  # atno 10718 bound_to 10713
  153.8589  135.6842  153.4785 H   0  0  0  0  0  0  0  0  0  0  0  0  # atno 10763 bound_to 10752
  153.1353  135.4680  154.9410 H   0  0  0  0  0  0  0  0  0  0  0  0  # atno 10764 bound_to 10752
  154.7768  135.3256  154.8025 H   0  0  0  0  0  0  0  0  0  0  0  0  # atno 10765 bound_to 10752
  140.8047  134.2815  157.4965 H   0  0  0  0  0  0  0  0  0  0  0  0  # atno 11005 bound_to 11000
  144.6757  140.2028  143.7385 LP  0  0  0  0  0  0  0  0  0  0  0  0  # atno 17320 bound_to 7965
  145.8507  139.2174  143.1774 LP  0  0  0  0  0  0  0  0  0  0  0  0  # atno 17321 bound_to 7965
  139.4782  144.5466  151.8449 LP  0  0  0  0  0  0  0  0  0  0  0  0  # atno 17342 bound_to 10162
  140.4563  144.1784  150.5902 LP  0  0  0  0  0  0  0  0  0  0  0  0  # atno 17343 bound_to 10162
  156.9071  130.9639  151.3568 LP  0  0  0  0  0  0  0  0  0  0  0  0  # atno 17370 bound_to 10713
  157.6035  130.8530  149.8839 LP  0  0  0  0  0  0  0  0  0  0  0  0  # atno 17371 bound_to 10713
  139.8718  134.9449  156.3896 LP  0  0  0  0  0  0  0  0  0  0  0  0  # atno 17394 bound_to 11000
  140.9259  133.7613  155.9964 LP  0  0  0  0  0  0  0  0  0  0  0  0  # atno 17395 bound_to 11000

$$$$
