AV-unprocessed.smi:933|AV-procd|sdf|4203|dock4
  -GOLD-   22720 2113D 1   1.00000     0.00000
 Structure written by MMmdl.
 42 43  0  0  0  0  0  0  0  0  1 V2000
  154.5841  139.7507  162.0086 C   0  0  0  0  0  0  0  0  0  0  0  0
  154.2350  140.4186  160.6743 C   0  0  0  0  0  0  0  0  0  0  0  0
  153.5810  141.7473  160.8553 C   0  0  0  0  0  0  0  0  0  0  0  0
  153.3115  142.5784  159.8454 N   0  0  0  0  0  0  0  0  0  0  0  0
  152.6532  143.7400  160.2625 C   0  0  0  0  0  0  0  0  0  0  0  0
  152.2575  144.7858  159.2598 C   0  0  0  0  0  0  0  0  0  0  0  0
  150.7349  144.9667  159.1301 C   0  0  0  0  0  0  0  0  0  0  0  0
  150.1729  144.1085  158.0881 N   0  0  0  0  0  0  0  0  0  0  0  0
  150.0572  142.7702  158.1091 C   0  0  0  0  0  0  0  0  0  0  0  0
  150.4375  142.0985  159.0660 O   0  0  0  0  0  0  0  0  0  0  0  0
  149.4984  142.2435  157.0069 N   0  0  0  0  0  0  0  0  0  0  0  0
  149.2633  140.8191  156.7762 C   0  0  2  0  0  0  0  0  0  0  0  0
  150.5960  140.0400  156.7375 C   0  0  0  0  0  0  0  0  0  0  0  0
  150.6515  139.3332  155.3795 C   0  0  0  0  0  0  0  0  0  0  0  0
  149.7149  140.1358  154.4806 C   0  0  0  0  0  0  0  0  0  0  0  0
  148.5786  140.5525  155.4158 C   0  0  2  0  0  0  0  0  0  0  0  0
  147.6932  141.6796  154.8549 C   0  0  0  0  0  0  0  0  0  0  0  0
  152.4250  143.7745  161.6157 C   0  0  0  0  0  0  0  0  0  0  0  0
  153.0198  142.3439  162.4125 S   0  0  0  0  0  0  0  0  0  0  0  0
  155.0608  138.7838  161.8465 H   0  0  0  0  0  0  0  0  0  0  0  0
  153.6902  139.5850  162.6110 H   0  0  0  0  0  0  0  0  0  0  0  0
  155.2699  140.3678  162.5898 H   0  0  0  0  0  0  0  0  0  0  0  0
  155.1375  140.5521  160.0774 H   0  0  0  0  0  0  0  0  0  0  0  0
  153.5711  139.7738  160.0973 H   0  0  0  0  0  0  0  0  0  0  0  0
  152.7043  145.7431  159.5304 H   0  0  0  0  0  0  0  0  0  0  0  0
  152.6728  144.5370  158.2822 H   0  0  0  0  0  0  0  0  0  0  0  0
  150.2585  144.7373  160.0848 H   0  0  0  0  0  0  0  0  0  0  0  0
  150.5097  146.0091  158.9000 H   0  0  0  0  0  0  0  0  0  0  0  0
  149.8391  144.5813  157.2600 H   0  0  0  0  0  0  0  0  0  0  0  0
  149.2152  142.8751  156.2722 H   0  0  0  0  0  0  0  0  0  0  0  0
  148.6223  140.4319  157.5705 H   0  0  0  0  0  0  0  0  0  0  0  0
  151.4475  140.7164  156.8287 H   0  0  0  0  0  0  0  0  0  0  0  0
  150.6696  139.3264  157.5585 H   0  0  0  0  0  0  0  0  0  0  0  0
  151.6644  139.2720  154.9804 H   0  0  0  0  0  0  0  0  0  0  0  0
  150.2740  138.3150  155.4814 H   0  0  0  0  0  0  0  0  0  0  0  0
  150.2332  141.0176  154.1010 H   0  0  0  0  0  0  0  0  0  0  0  0
  149.3638  139.5595  153.6240 H   0  0  0  0  0  0  0  0  0  0  0  0
  147.9414  139.6766  155.5495 H   0  0  0  0  0  0  0  0  0  0  0  0
  148.2717  142.5741  154.6223 H   0  0  0  0  0  0  0  0  0  0  0  0
  146.9159  141.9571  155.5672 H   0  0  0  0  0  0  0  0  0  0  0  0
  147.1999  141.3618  153.9359 H   0  0  0  0  0  0  0  0  0  0  0  0
  151.9366  144.5481  162.1892 H   0  0  0  0  0  0  0  0  0  0  0  0
  1  2  1  0  0  0  0
  1 20  1  0  0  0  0
  1 21  1  0  0  0  0
  1 22  1  0  0  0  0
  2  3  1  0  0  0  0
  2 23  1  0  0  0  0
  2 24  1  0  0  0  0
  3 19  1  0  0  0  0
  3  4  2  0  0  0  0
  4  5  1  0  0  0  0
  5  6  1  0  0  0  0
  5 18  2  0  0  0  0
  6  7  1  0  0  0  0
  6 25  1  0  0  0  0
  6 26  1  0  0  0  0
  7  8  1  0  0  0  0
  7 27  1  0  0  0  0
  7 28  1  0  0  0  0
  8  9  1  0  0  0  0
  8 29  1  0  0  0  0
  9 10  2  0  0  0  0
  9 11  1  0  0  0  0
 11 12  1  0  0  0  0
 11 30  1  0  0  0  0
 12 16  1  0  0  0  0
 12 13  1  0  0  0  0
 12 31  1  0  0  0  0
 13 14  1  0  0  0  0
 13 32  1  0  0  0  0
 13 33  1  0  0  0  0
 14 15  1  0  0  0  0
 14 34  1  0  0  0  0
 14 35  1  0  0  0  0
 15 16  1  0  0  0  0
 15 36  1  0  0  0  0
 15 37  1  0  0  0  0
 16 17  1  0  0  0  0
 16 38  1  0  0  0  0
 17 39  1  0  0  0  0
 17 40  1  0  0  0  0
 17 41  1  0  0  0  0
 18 19  1  0  0  0  0
 18 42  1  0  0  0  0
M  END
> <s_m_source_file>
AV-unprocessed.smi

> <i_m_source_file_index>
933

> <i_lp_mmshare_version>
43012

> <i_f3d_flags>
0

> <s_epik_input>
W0NIM11bQ0gyXWMxbmMoW2NIXXMxKVtDSDJdW0NIMl1bTkhdQyg9TylbTkhdW0NAQEhdMltDSDJdW0NIMl1bQ0gyXVtDQEhdMltDSDNd

> <s_epik_cmdline>
J2VwaWtfcHl0aG9uJywgJy1waCcsICc3LjAnLCAnLXRuJywgJzgnLCAnLW1hJywgJzIwMCcsICctbWV0YWxfYmluZGluZycsICctaW1hZScsICc8aW5maWxlLm1hZT4nLCAnLW9tYWUnLCAnPG91dGZpbGUubWFlPic=

> <r_epik_Ionization_Penalty>
0.00203408

> <r_epik_Ionization_Penalty_Charging>
0

> <r_epik_Ionization_Penalty_Neutral>
0.00203408

> <r_epik_State_Penalty>
0.0013452

> <r_epik_Charging_Adjusted_Penalty>
0.0013452

> <i_epik_Tot_Q>
0

> <i_epik_Tot_abs_Q>
0

> <r_epik_Metal_State_Penalty>
-0

> <b_epik_Metal_Only>
0

> <s_lp_Force_Field>
OPLS_2005

> <r_lp_Energy>
20.7198

> <b_lp_Chiralities_Consistent>
1

> <s_lp_Variant>
AV-unprocessed.smi:933-3

> <Gold.Version>
5.8.1

> <Gold.Id.Protein>
6NUR|6NUR_protein|mol2

> <Gold.PLP.Fitness>
50.0860

> <Gold.PLP.PLP>
-44.9474

> <Gold.PLP.part.hbond>
-3.6127

> <Gold.PLP.part.metal>
0.0000

> <Gold.PLP.part.buried>
-3.7072

> <Gold.PLP.part.nonpolar>
-37.9262

> <Gold.PLP.part.repulsive>
0.0940

> <Gold.PLP.ligand.clash>
0.0000

> <Gold.PLP.ligand.torsion>
0.3408

> <Gold.PLP.Chemscore.Hbond>
1.9260

> <Gold.PLP.Chemscore.CHOScore>
0.0000

> <Gold.PLP.Chemscore.Metal>
0.0000

> <Gold.Chemscore.Hbonds>
donor molecule, donor type, donor heavy atom, donor atom, acceptor molecule, acceptor atom, score
      L1  H     8    29       P1  8028  0.90
      L1  H    11    30       P1  8028  0.98

> <Gold.PLP.Chemscore.Internal.Correction>
0.0421

> <Gold.Rescore>
     Score         DG    S(hbond)    S(metal)    S(lipo)     H(rot)  DE(clash)    DE(int)     intcor
     19.42     -19.91       1.20        0.00     122.84       1.55       0.03       0.47       ----

> <Gold.Chemscore.Fitness>
19.4205

> <Gold.Chemscore.DG>
-19.9129

> <Gold.Chemscore.ZeroCoef>
-5.4800

> <Gold.Chemscore.Hbond>
1.2048

> <Gold.Chemscore.Metal>
0.0000

> <Gold.Chemscore.Lipo>
122.8402

> <Gold.Chemscore.Internal_Hbond>
0.0000

> <Gold.Chemscore.DEClash>
0.0270

> <Gold.Chemscore.DEInternal>
0.4655

> <Gold.Chemscore.Rot>
1.5482

> <Gold.Chemscore.Internal.Correction>
   9.000000E+99

> <Gold.Chemscore.Hbonds>
donor molecule, donor type, donor heavy atom, donor atom, acceptor molecule, acceptor atom, score
      L1  H     8    29       P1  8028  0.18
      L1  H    11    30       P1  8028  0.92

> <Gold.Chemscore.Hbond.Weighted>
-4.0241

> <Gold.Chemscore.Metal.Weighted>
-0.0000

> <Gold.Chemscore.Lipo.Weighted>
-14.3723

> <Gold.Chemscore.Internal_Hbond.Weighted>
0.0000

> <Gold.Chemscore.DEClash.Weighted>
0.0270

> <Gold.Chemscore.DEInternal.Weighted>
0.4655

> <Gold.Chemscore.Rot.Weighted>
3.9635

> <Gold.Chemscore.Internal.Correction.Weighted>
   9.000000E+99

> <Gold.Protein.RotatedTorsions>
[ 6907 6896 6895 6894 ] final  -46.34 input  -60.11 | X-H torsion
[ 7974 7965 7964 7962 ] final   67.30 input  175.53 | X-H torsion
[ 8008 7997 7996 7995 ] final   49.31 input   59.86 | X-H torsion
[ 10167 10162 10161 10158 ] final    7.73 input  -65.29 | X-H torsion
[ 10718 10713 10712 10709 ] final   53.47 input   66.30 | X-H torsion
[ 10763 10752 10751 10750 ] final   73.23 input  -60.55 | X-H torsion
[ 11005 11000 10999 10996 ] final -116.90 input  -57.11 | X-H torsion

> <Gold.Protein.ActiveResidues>
 VAL166  LYS551  ARG553  GLY616  TRP617  ASP618  TYR619  PRO620  LYS621  CYS622 
 ASP623  PHE694  ASN695  SER759  ASP760  ASP761  ALA762  ILE779  LEU786  VAL792 
 PHE793  MET794  SER795  GLU796  ALA797  LYS798  CYS799  TRP800  GLU811  SER814 

> <Gold.Protein.RotatedAtoms>
  150.9123  134.8540  159.7433 H   0  0  0  0  0  0  0  0  0  0  0  0  # atno 6907 bound_to 6896
  152.4950  134.4341  159.9532 H   0  0  0  0  0  0  0  0  0  0  0  0  # atno 6908 bound_to 6896
  151.4382  133.3611  159.2813 H   0  0  0  0  0  0  0  0  0  0  0  0  # atno 6909 bound_to 6896
  145.8163  139.3060  143.1070 H   0  0  0  0  0  0  0  0  0  0  0  0  # atno 7974 bound_to 7965
  155.4001  140.3437  155.4256 H   0  0  0  0  0  0  0  0  0  0  0  0  # atno 8008 bound_to 7997
  156.1508  140.1570  156.8804 H   0  0  0  0  0  0  0  0  0  0  0  0  # atno 8009 bound_to 7997
  154.5051  140.0804  156.7859 H   0  0  0  0  0  0  0  0  0  0  0  0  # atno 8010 bound_to 7997
  140.6355  143.7896  150.7353 H   0  0  0  0  0  0  0  0  0  0  0  0  # atno 10167 bound_to 10162
  157.5170  130.8539  149.8508 H   0  0  0  0  0  0  0  0  0  0  0  0  # atno 10718 bound_to 10713
  153.0508  135.5070  154.7862 H   0  0  0  0  0  0  0  0  0  0  0  0  # atno 10763 bound_to 10752
  154.6726  135.2955  154.9724 H   0  0  0  0  0  0  0  0  0  0  0  0  # atno 10764 bound_to 10752
  154.0537  135.6700  153.4856 H   0  0  0  0  0  0  0  0  0  0  0  0  # atno 10765 bound_to 10752
  141.0391  133.9863  157.3023 H   0  0  0  0  0  0  0  0  0  0  0  0  # atno 11005 bound_to 11000
  145.9723  140.8750  143.0156 LP  0  0  0  0  0  0  0  0  0  0  0  0  # atno 17320 bound_to 7965
  144.6752  140.1964  143.7391 LP  0  0  0  0  0  0  0  0  0  0  0  0  # atno 17321 bound_to 7965
  140.1517  143.4352  152.2127 LP  0  0  0  0  0  0  0  0  0  0  0  0  # atno 17342 bound_to 10162
  139.5566  144.7377  151.4278 LP  0  0  0  0  0  0  0  0  0  0  0  0  # atno 17343 bound_to 10162
  156.0327  130.3760  150.1644 LP  0  0  0  0  0  0  0  0  0  0  0  0  # atno 17370 bound_to 10713
  156.9833  130.9871  151.3432 LP  0  0  0  0  0  0  0  0  0  0  0  0  # atno 17371 bound_to 10713
  139.9262  135.0201  156.8244 LP  0  0  0  0  0  0  0  0  0  0  0  0  # atno 17394 bound_to 11000
  140.6267  133.9943  155.7643 LP  0  0  0  0  0  0  0  0  0  0  0  0  # atno 17395 bound_to 11000

$$$$
