AV-unprocessed.smi:3253|AV-procd|sdf|12451|dock6
  -GOLD-   2272018343D 1   1.00000     0.00000
 Structure written by MMmdl.
 36 37  0  0  0  0  0  0  0  0  1 V2000
  149.4395  141.0546  157.8765 C   0  0  0  0  0  0  0  0  0  0  0  0
  150.9756  141.1194  157.8902 C   0  0  2  0  0  0  0  0  0  0  0  0
  151.5336  142.4219  157.2755 C   0  0  0  0  0  0  0  0  0  0  0  0
  151.5997  143.5105  158.2321 N   0  0  0  0  0  0  0  0  0  0  0  0
  152.2334  143.5067  159.4679 C   0  0  0  0  0  0  0  0  0  0  0  0
  152.0278  144.7515  160.0185 C   0  0  0  0  0  0  0  0  0  0  0  0
  151.2702  145.5303  159.1470 N   0  0  0  0  0  0  0  0  0  0  0  0
  151.0521  144.7277  158.1134 C   0  0  0  0  0  0  0  0  0  0  0  0
  151.5095  139.9589  157.1831 N   0  0  0  0  0  0  0  0  0  0  0  0
  151.3848  139.7260  155.8672 C   0  0  0  0  0  0  0  0  0  0  0  0
  150.7878  140.4830  155.1010 O   0  0  0  0  0  0  0  0  0  0  0  0
  152.0339  138.4391  155.3345 C   0  0  1  0  0  0  0  0  0  0  0  0
  152.6429  137.5994  156.4761 C   0  0  0  0  0  0  0  0  0  0  0  0
  151.7808  136.3487  156.5145 C   0  0  0  0  0  0  0  0  0  0  0  0
  151.9117  135.4730  157.3684 O   0  0  0  0  0  0  0  0  0  0  0  0
  150.8888  136.3520  155.5204 N   0  0  0  0  0  0  0  0  0  0  0  0
  149.9023  135.3127  155.2587 C   0  0  0  0  0  0  0  0  0  0  0  0
  151.0128  137.5060  154.6468 C   0  0  0  0  0  0  0  0  0  0  0  0
  148.9995  141.8534  158.4739 H   0  0  0  0  0  0  0  0  0  0  0  0
  149.0836  140.1103  158.2898 H   0  0  0  0  0  0  0  0  0  0  0  0
  149.0483  141.1431  156.8624 H   0  0  0  0  0  0  0  0  0  0  0  0
  151.2931  141.0630  158.9333 H   0  0  0  0  0  0  0  0  0  0  0  0
  152.5379  142.2604  156.8812 H   0  0  0  0  0  0  0  0  0  0  0  0
  150.9157  142.7384  156.4339 H   0  0  0  0  0  0  0  0  0  0  0  0
  152.7658  142.6446  159.8417 H   0  0  0  0  0  0  0  0  0  0  0  0
  152.3627  145.1428  160.9676 H   0  0  0  0  0  0  0  0  0  0  0  0
  150.4829  145.0329  157.2476 H   0  0  0  0  0  0  0  0  0  0  0  0
  152.0152  139.2826  157.7368 H   0  0  0  0  0  0  0  0  0  0  0  0
  152.8158  138.7053  154.6208 H   0  0  0  0  0  0  0  0  0  0  0  0
  153.6741  137.3229  156.2543 H   0  0  0  0  0  0  0  0  0  0  0  0
  152.6302  138.1006  157.4454 H   0  0  0  0  0  0  0  0  0  0  0  0
  150.3957  134.3664  155.0342 H   0  0  0  0  0  0  0  0  0  0  0  0
  149.2703  135.5752  154.4098 H   0  0  0  0  0  0  0  0  0  0  0  0
  149.2588  135.1680  156.1272 H   0  0  0  0  0  0  0  0  0  0  0  0
  150.0392  137.9751  154.4931 H   0  0  0  0  0  0  0  0  0  0  0  0
  151.3793  137.1828  153.6716 H   0  0  0  0  0  0  0  0  0  0  0  0
  1  2  1  0  0  0  0
  1 19  1  0  0  0  0
  1 20  1  0  0  0  0
  1 21  1  0  0  0  0
  2  3  1  0  0  0  0
  2  9  1  0  0  0  0
  2 22  1  0  0  0  0
  3  4  1  0  0  0  0
  3 23  1  0  0  0  0
  3 24  1  0  0  0  0
  4  8  1  0  0  0  0
  4  5  1  0  0  0  0
  5  6  2  0  0  0  0
  5 25  1  0  0  0  0
  6  7  1  0  0  0  0
  6 26  1  0  0  0  0
  7  8  2  0  0  0  0
  8 27  1  0  0  0  0
  9 10  1  0  0  0  0
  9 28  1  0  0  0  0
 10 11  2  0  0  0  0
 10 12  1  0  0  0  0
 12 18  1  0  0  0  0
 12 13  1  0  0  0  0
 12 29  1  0  0  0  0
 13 14  1  0  0  0  0
 13 30  1  0  0  0  0
 13 31  1  0  0  0  0
 14 15  2  0  0  0  0
 14 16  1  0  0  0  0
 16 17  1  0  0  0  0
 16 18  1  0  0  0  0
 17 32  1  0  0  0  0
 17 33  1  0  0  0  0
 17 34  1  0  0  0  0
 18 35  1  0  0  0  0
 18 36  1  0  0  0  0
M  END
> <s_m_source_file>
AV-unprocessed.smi

> <i_m_source_file_index>
3253

> <i_lp_mmshare_version>
43012

> <i_f3d_flags>
0

> <s_epik_input>
W2NIXTFuW2NIXVtjSF1uMVtDSDJdW0NAQEhdKFtDSDNdKVtOSF1DKD1PKVtDQEBIXTJbQ0gyXUMoPU8pTihbQ0gzXSlbQ0gyXTI=

> <s_epik_cmdline>
J2VwaWtfcHl0aG9uJywgJy1waCcsICc3LjAnLCAnLXRuJywgJzgnLCAnLW1hJywgJzIwMCcsICctbWV0YWxfYmluZGluZycsICctaW1hZScsICc8aW5maWxlLm1hZT4nLCAnLW9tYWUnLCAnPG91dGZpbGUubWFlPic=

> <r_lp_tautomer_probability>
1

> <r_epik_Ionization_Penalty>
0.628884

> <r_epik_Ionization_Penalty_Charging>
0.628884

> <r_epik_Ionization_Penalty_Neutral>
2.35084e-08

> <r_epik_State_Penalty>
0.64556

> <r_epik_Charging_Adjusted_Penalty>
1.27444

> <i_epik_Tot_Q>
0

> <i_epik_Tot_abs_Q>
0

> <r_epik_Metal_State_Penalty>
0.308736

> <b_epik_Metal_Only>
0

> <s_lp_Force_Field>
OPLS_2005

> <r_lp_Energy>
12.6609

> <b_lp_Chiralities_Consistent>
1

> <s_lp_Variant>
AV-unprocessed.smi:3253-7

> <Gold.Version>
5.8.1

> <Gold.Id.Protein>
6NUR|6NUR_protein|mol2

> <Gold.PLP.Fitness>
38.6706

> <Gold.PLP.PLP>
-34.7926

> <Gold.PLP.part.hbond>
-2.7408

> <Gold.PLP.part.metal>
0.0000

> <Gold.PLP.part.buried>
-5.7814

> <Gold.PLP.part.nonpolar>
-26.4429

> <Gold.PLP.part.repulsive>
0.2710

> <Gold.PLP.ligand.clash>
1.3946

> <Gold.PLP.ligand.torsion>
0.3793

> <Gold.PLP.Chemscore.Hbond>
1.0000

> <Gold.PLP.Chemscore.CHOScore>
1.0000

> <Gold.PLP.Chemscore.Metal>
0.0000

> <Gold.Chemscore.Hbonds>
donor molecule, donor type, donor heavy atom, donor atom, acceptor molecule, acceptor atom, score
      P1  H  7989  7998       L1    11  1.00
      L1  C     8    27       P1  8028  0.96

> <Gold.PLP.Chemscore.Internal.Correction>
0.0312

> <Gold.Rescore>
     Score         DG    S(hbond)    S(metal)    S(lipo)     H(rot)  DE(clash)    DE(int)     intcor
      9.80     -11.40       0.97        0.00      65.85       1.97       0.49       1.11       ----

> <Gold.Chemscore.Fitness>
9.8019

> <Gold.Chemscore.DG>
-11.3993

> <Gold.Chemscore.ZeroCoef>
-5.4800

> <Gold.Chemscore.Hbond>
0.9731

> <Gold.Chemscore.Metal>
0.0000

> <Gold.Chemscore.Lipo>
65.8504

> <Gold.Chemscore.Internal_Hbond>
0.0000

> <Gold.Chemscore.DEClash>
0.4872

> <Gold.Chemscore.DEInternal>
1.1103

> <Gold.Chemscore.Rot>
1.9669

> <Gold.Chemscore.Internal.Correction>
   9.000000E+99

> <Gold.Chemscore.Hbonds>
donor molecule, donor type, donor heavy atom, donor atom, acceptor molecule, acceptor atom, score
      P1  H  7989  7998       L1    11  0.90

> <Gold.Chemscore.Hbond.Weighted>
-3.2500

> <Gold.Chemscore.Metal.Weighted>
-0.0000

> <Gold.Chemscore.Lipo.Weighted>
-7.7045

> <Gold.Chemscore.Internal_Hbond.Weighted>
0.0000

> <Gold.Chemscore.DEClash.Weighted>
0.4872

> <Gold.Chemscore.DEInternal.Weighted>
1.1103

> <Gold.Chemscore.Rot.Weighted>
5.0352

> <Gold.Chemscore.Internal.Correction.Weighted>
   9.000000E+99

> <Gold.Protein.RotatedTorsions>
[ 6907 6896 6895 6894 ] final  -86.71 input  -60.11 | X-H torsion
[ 7974 7965 7964 7962 ] final   35.08 input  175.53 | X-H torsion
[ 8008 7997 7996 7995 ] final -126.98 input   59.86 | X-H torsion
[ 10167 10162 10161 10158 ] final   83.35 input  -65.29 | X-H torsion
[ 10718 10713 10712 10709 ] final -118.53 input   66.30 | X-H torsion
[ 10763 10752 10751 10750 ] final -154.92 input  -60.55 | X-H torsion
[ 11005 11000 10999 10996 ] final    4.53 input  -57.11 | X-H torsion

> <Gold.Protein.ActiveResidues>
 VAL166  LYS551  ARG553  GLY616  TRP617  ASP618  TYR619  PRO620  LYS621  CYS622 
 ASP623  PHE694  ASN695  SER759  ASP760  ASP761  ALA762  ILE779  LEU786  VAL792 
 PHE793  MET794  SER795  GLU796  ALA797  LYS798  CYS799  TRP800  GLU811  SER814 

> <Gold.Protein.RotatedAtoms>
  150.6866  134.3008  159.4705 H   0  0  0  0  0  0  0  0  0  0  0  0  # atno 6907 bound_to 6896
  152.0904  134.9408  160.0581 H   0  0  0  0  0  0  0  0  0  0  0  0  # atno 6908 bound_to 6896
  152.0726  133.4079  159.4503 H   0  0  0  0  0  0  0  0  0  0  0  0  # atno 6909 bound_to 6896
  146.1308  139.6188  142.9228 H   0  0  0  0  0  0  0  0  0  0  0  0  # atno 7974 bound_to 7965
  155.2387  140.0428  157.2972 H   0  0  0  0  0  0  0  0  0  0  0  0  # atno 8008 bound_to 7997
  154.5842  140.2409  155.7981 H   0  0  0  0  0  0  0  0  0  0  0  0  # atno 8009 bound_to 7997
  156.2214  140.2968  155.9971 H   0  0  0  0  0  0  0  0  0  0  0  0  # atno 8010 bound_to 7997
  139.9193  144.6222  150.8456 H   0  0  0  0  0  0  0  0  0  0  0  0  # atno 10167 bound_to 10162
  156.1113  130.6251  150.9303 H   0  0  0  0  0  0  0  0  0  0  0  0  # atno 10718 bound_to 10713
  154.7824  135.3179  154.7960 H   0  0  0  0  0  0  0  0  0  0  0  0  # atno 10763 bound_to 10752
  153.8668  135.6848  153.4782 H   0  0  0  0  0  0  0  0  0  0  0  0  # atno 10764 bound_to 10752
  153.1465  135.4717  154.9511 H   0  0  0  0  0  0  0  0  0  0  0  0  # atno 10765 bound_to 10752
  140.5809  134.0014  155.8047 H   0  0  0  0  0  0  0  0  0  0  0  0  # atno 11005 bound_to 11000
  145.5265  141.0429  143.2407 LP  0  0  0  0  0  0  0  0  0  0  0  0  # atno 17320 bound_to 7965
  144.7689  139.6781  143.7203 LP  0  0  0  0  0  0  0  0  0  0  0  0  # atno 17321 bound_to 7965
  140.7666  143.3308  151.2414 LP  0  0  0  0  0  0  0  0  0  0  0  0  # atno 17342 bound_to 10162
  139.6875  143.9749  152.2842 LP  0  0  0  0  0  0  0  0  0  0  0  0  # atno 17343 bound_to 10162
  157.6295  131.0922  150.8470 LP  0  0  0  0  0  0  0  0  0  0  0  0  # atno 17370 bound_to 10713
  156.8580  130.5103  149.5306 LP  0  0  0  0  0  0  0  0  0  0  0  0  # atno 17371 bound_to 10713
  141.0997  133.9788  157.3100 LP  0  0  0  0  0  0  0  0  0  0  0  0  # atno 17394 bound_to 11000
  139.9318  135.0199  156.8424 LP  0  0  0  0  0  0  0  0  0  0  0  0  # atno 17395 bound_to 11000

$$$$
