AV-unprocessed.smi:2141|AV-procd|sdf|8719|dock7
  -GOLD-   2272011483D 1   1.00000     0.00000
 Structure written by MMmdl.
 41 42  0  0  0  0  0  0  0  0  2 V2000
  154.3078  132.1043  157.4809 C   0  0  0  0  0  0  0  0  0  0  0  0
  154.7750  133.7158  158.2457 S   0  0  0  0  0  0  0  0  0  0  0  0
  156.2392  133.6640  158.3727 O   0  0  0  0  0  0  0  0  0  0  0  0
  154.2213  134.7628  157.3705 O   0  0  0  0  0  0  0  0  0  0  0  0
  154.0580  133.6252  159.7032 N   0  5  0  0  0  0  0  0  0  0  0  0
  154.8355  133.4039  160.9144 C   0  0  0  0  0  0  0  0  0  0  0  0
  155.8074  134.5841  161.1336 C   0  0  0  0  0  0  0  0  0  0  0  0
  155.1052  135.9460  161.2518 C   0  0  0  0  0  0  0  0  0  0  0  0
  154.5875  136.2809  162.3192 O   0  0  0  0  0  0  0  0  0  0  0  0
  155.0474  136.6740  160.1191 N   0  0  0  0  0  0  0  0  0  0  0  0
  154.4986  137.9692  159.9175 C   0  0  0  0  0  0  0  0  0  0  0  0
  154.5952  139.0328  160.8445 C   0  0  0  0  0  0  0  0  0  0  0  0
  154.0263  140.2781  160.5159 C   0  0  0  0  0  0  0  0  0  0  0  0
  153.3829  140.4390  159.2659 C   0  0  0  0  0  0  0  0  0  0  0  0
  152.8070  141.6801  158.9153 N   0  0  0  0  0  0  0  0  0  0  0  0
  151.4385  141.6262  158.4061 C   0  0  0  0  0  0  0  0  0  0  0  0
  151.0475  142.9740  157.7751 C   0  0  0  0  0  0  0  0  0  0  0  0
  151.2461  144.0237  158.7160 O   0  0  0  0  0  0  0  0  0  0  0  0
  152.6097  144.1287  159.1109 C   0  0  0  0  0  0  0  0  0  0  0  0
  153.0537  142.8235  159.7923 C   0  0  0  0  0  0  0  0  0  0  0  0
  153.2980  139.4182  158.3780 N   0  0  0  0  0  0  0  0  0  0  0  0
  153.8453  138.2268  158.6964 C   0  0  0  0  0  0  0  0  0  0  0  0
  154.8145  132.0051  156.5216 H   0  0  0  0  0  0  0  0  0  0  0  0
  153.2311  132.0634  157.3205 H   0  0  0  0  0  0  0  0  0  0  0  0
  154.6129  131.2888  158.1358 H   0  0  0  0  0  0  0  0  0  0  0  0
  154.1916  133.2969  161.7880 H   0  0  0  0  0  0  0  0  0  0  0  0
  155.4132  132.4806  160.8555 H   0  0  0  0  0  0  0  0  0  0  0  0
  156.4062  134.4096  162.0294 H   0  0  0  0  0  0  0  0  0  0  0  0
  156.5133  134.6393  160.3036 H   0  0  0  0  0  0  0  0  0  0  0  0
  155.4199  136.2293  159.2925 H   0  0  0  0  0  0  0  0  0  0  0  0
  155.0999  138.9259  161.7918 H   0  0  0  0  0  0  0  0  0  0  0  0
  154.0822  141.0864  161.2293 H   0  0  0  0  0  0  0  0  0  0  0  0
  151.3124  140.8400  157.6636 H   0  0  0  0  0  0  0  0  0  0  0  0
  150.7656  141.3928  159.2324 H   0  0  0  0  0  0  0  0  0  0  0  0
  151.6309  143.1643  156.8726 H   0  0  0  0  0  0  0  0  0  0  0  0
  149.9990  142.9583  157.4775 H   0  0  0  0  0  0  0  0  0  0  0  0
  153.2355  144.3470  158.2439 H   0  0  0  0  0  0  0  0  0  0  0  0
  152.7170  144.9669  159.7995 H   0  0  0  0  0  0  0  0  0  0  0  0
  152.5077  142.6864  160.7269 H   0  0  0  0  0  0  0  0  0  0  0  0
  154.1140  142.8895  160.0395 H   0  0  0  0  0  0  0  0  0  0  0  0
  153.7535  137.4518  157.9494 H   0  0  0  0  0  0  0  0  0  0  0  0
  1  2  1  0  0  0  0
  1 23  1  0  0  0  0
  1 24  1  0  0  0  0
  1 25  1  0  0  0  0
  2  3  2  0  0  0  0
  2  4  2  0  0  0  0
  2  5  1  0  0  0  0
  5  6  1  0  0  0  0
  6  7  1  0  0  0  0
  6 26  1  0  0  0  0
  6 27  1  0  0  0  0
  7  8  1  0  0  0  0
  7 28  1  0  0  0  0
  7 29  1  0  0  0  0
  8  9  2  0  0  0  0
  8 10  1  0  0  0  0
 10 11  1  0  0  0  0
 10 30  1  0  0  0  0
 11 22  1  0  0  0  0
 11 12  2  0  0  0  0
 12 13  1  0  0  0  0
 12 31  1  0  0  0  0
 13 14  2  0  0  0  0
 13 32  1  0  0  0  0
 14 15  1  0  0  0  0
 14 21  1  0  0  0  0
 15 20  1  0  0  0  0
 15 16  1  0  0  0  0
 16 17  1  0  0  0  0
 16 33  1  0  0  0  0
 16 34  1  0  0  0  0
 17 18  1  0  0  0  0
 17 35  1  0  0  0  0
 17 36  1  0  0  0  0
 18 19  1  0  0  0  0
 19 20  1  0  0  0  0
 19 37  1  0  0  0  0
 19 38  1  0  0  0  0
 20 39  1  0  0  0  0
 20 40  1  0  0  0  0
 21 22  2  0  0  0  0
 22 41  1  0  0  0  0
M  CHG  1   5  -1
M  END
> <s_m_source_file>
AV-unprocessed.smi

> <i_m_source_file_index>
2141

> <i_lp_mmshare_version>
43012

> <i_f3d_flags>
0

> <s_epik_input>
W0NIM11TKD1PKSg9TylbTkhdW0NIMl1bQ0gyXUMoPU8pW05IXWMxW2NIXVtjSF1jKG5bY0hdMSlOMltDSDJdW0NIMl1PW0NIMl1bQ0gyXTI=

> <s_epik_cmdline>
J2VwaWtfcHl0aG9uJywgJy1waCcsICc3LjAnLCAnLXRuJywgJzgnLCAnLW1hJywgJzIwMCcsICctbWV0YWxfYmluZGluZycsICctaW1hZScsICc8aW5maWxlLm1hZT4nLCAnLW9tYWUnLCAnPG91dGZpbGUubWFlPic=

> <r_lp_tautomer_probability>
1

> <r_epik_Ionization_Penalty>
6.16997

> <r_epik_Ionization_Penalty_Charging>
6.16921

> <r_epik_Ionization_Penalty_Neutral>
0.000766965

> <r_epik_State_Penalty>
6.16956

> <r_epik_Charging_Adjusted_Penalty>
12.3388

> <i_epik_Tot_Q>
-1

> <i_epik_Tot_abs_Q>
1

> <r_epik_Metal_State_Penalty>
2.11159

> <b_epik_Metal_Only>
1

> <s_lp_Force_Field>
OPLS_2005

> <r_lp_Energy>
18.4771

> <b_lp_Chiralities_Consistent>
1

> <s_lp_Variant>
AV-unprocessed.smi:2141-2

> <Gold.Version>
5.8.1

> <Gold.Id.Protein>
6NUR|6NUR_protein|mol2

> <Gold.PLP.Fitness>
40.0269

> <Gold.PLP.PLP>
-29.2102

> <Gold.PLP.part.hbond>
-3.0000

> <Gold.PLP.part.metal>
0.0000

> <Gold.PLP.part.buried>
-4.7553

> <Gold.PLP.part.nonpolar>
-21.7443

> <Gold.PLP.part.repulsive>
0.1453

> <Gold.PLP.ligand.clash>
0.0000

> <Gold.PLP.ligand.torsion>
1.2741

> <Gold.PLP.Chemscore.Hbond>
4.0000

> <Gold.PLP.Chemscore.CHOScore>
0.0000

> <Gold.PLP.Chemscore.Metal>
0.0000

> <Gold.Chemscore.Hbonds>
donor molecule, donor type, donor heavy atom, donor atom, acceptor molecule, acceptor atom, score
      P1  H  6896  6907       L1     5  1.85
      P1  H  7997  8008       L1    21  0.90
      P1  H 10752 10763       L1     4  0.98

> <Gold.PLP.Chemscore.Internal.Correction>
1.3648

> <Gold.Rescore>
     Score         DG    S(hbond)    S(metal)    S(lipo)     H(rot)  DE(clash)    DE(int)     intcor
     16.10     -17.40       2.43        0.00      74.51       1.93       0.00       1.30       ----

> <Gold.Chemscore.Fitness>
16.0965

> <Gold.Chemscore.DG>
-17.3965

> <Gold.Chemscore.ZeroCoef>
-5.4800

> <Gold.Chemscore.Hbond>
2.4337

> <Gold.Chemscore.Metal>
0.0000

> <Gold.Chemscore.Lipo>
74.5064

> <Gold.Chemscore.Internal_Hbond>
0.0000

> <Gold.Chemscore.DEClash>
0.0021

> <Gold.Chemscore.DEInternal>
1.2979

> <Gold.Chemscore.Rot>
1.9255

> <Gold.Chemscore.Internal.Correction>
   9.000000E+99

> <Gold.Chemscore.Hbonds>
donor molecule, donor type, donor heavy atom, donor atom, acceptor molecule, acceptor atom, score
      P1  H  6896  6907       L1     5  0.83
      P1  H  7997  8008       L1    21  0.05
      P1  H 10752 10763       L1     4  0.90

> <Gold.Chemscore.Hbond.Weighted>
-8.1285

> <Gold.Chemscore.Metal.Weighted>
-0.0000

> <Gold.Chemscore.Lipo.Weighted>
-8.7172

> <Gold.Chemscore.Internal_Hbond.Weighted>
0.0000

> <Gold.Chemscore.DEClash.Weighted>
0.0021

> <Gold.Chemscore.DEInternal.Weighted>
1.2979

> <Gold.Chemscore.Rot.Weighted>
4.9292

> <Gold.Chemscore.Internal.Correction.Weighted>
   9.000000E+99

> <Gold.Protein.RotatedTorsions>
[ 6907 6896 6895 6894 ] final  107.61 input  -60.11 | X-H torsion
[ 7974 7965 7964 7962 ] final  120.26 input  175.53 | X-H torsion
[ 8008 7997 7996 7995 ] final  -89.66 input   59.86 | X-H torsion
[ 10167 10162 10161 10158 ] final  -77.56 input  -65.29 | X-H torsion
[ 10718 10713 10712 10709 ] final -138.05 input   66.30 | X-H torsion
[ 10763 10752 10751 10750 ] final  143.04 input  -60.55 | X-H torsion
[ 11005 11000 10999 10996 ] final   76.20 input  -57.11 | X-H torsion

> <Gold.Protein.ActiveResidues>
 VAL166  LYS551  ARG553  GLY616  TRP617  ASP618  TYR619  PRO620  LYS621  CYS622 
 ASP623  PHE694  ASN695  SER759  ASP760  ASP761  ALA762  ILE779  LEU786  VAL792 
 PHE793  MET794  SER795  GLU796  ALA797  LYS798  CYS799  TRP800  GLU811  SER814 

> <Gold.Protein.RotatedAtoms>
  152.5147  133.9209  159.7533 H   0  0  0  0  0  0  0  0  0  0  0  0  # atno 6907 bound_to 6896
  150.9581  133.6467  159.2766 H   0  0  0  0  0  0  0  0  0  0  0  0  # atno 6908 bound_to 6896
  151.3721  135.0930  159.9522 H   0  0  0  0  0  0  0  0  0  0  0  0  # atno 6909 bound_to 6896
  145.1332  139.3314  143.4654 H   0  0  0  0  0  0  0  0  0  0  0  0  # atno 7974 bound_to 7965
  154.6893  140.0539  157.0347 H   0  0  0  0  0  0  0  0  0  0  0  0  # atno 8008 bound_to 7997
  155.0840  140.3212  155.4574 H   0  0  0  0  0  0  0  0  0  0  0  0  # atno 8009 bound_to 7997
  156.2722  140.2060  156.5967 H   0  0  0  0  0  0  0  0  0  0  0  0  # atno 8010 bound_to 7997
  140.4759  143.2414  151.8133 H   0  0  0  0  0  0  0  0  0  0  0  0  # atno 10167 bound_to 10162
  156.2949  130.7396  151.1432 H   0  0  0  0  0  0  0  0  0  0  0  0  # atno 10718 bound_to 10713
  153.9658  135.2955  155.3430 H   0  0  0  0  0  0  0  0  0  0  0  0  # atno 10763 bound_to 10752
  154.7349  135.5051  153.9029 H   0  0  0  0  0  0  0  0  0  0  0  0  # atno 10764 bound_to 10752
  153.0924  135.6711  153.9939 H   0  0  0  0  0  0  0  0  0  0  0  0  # atno 10765 bound_to 10752
  139.9309  134.7581  156.1366 H   0  0  0  0  0  0  0  0  0  0  0  0  # atno 11005 bound_to 11000
  146.3512  140.1340  142.8596 LP  0  0  0  0  0  0  0  0  0  0  0  0  # atno 17320 bound_to 7965
  145.0612  140.9089  143.4937 LP  0  0  0  0  0  0  0  0  0  0  0  0  # atno 17321 bound_to 7965
  139.4825  144.4833  151.9279 LP  0  0  0  0  0  0  0  0  0  0  0  0  # atno 17342 bound_to 10162
  140.3918  144.2605  150.5899 LP  0  0  0  0  0  0  0  0  0  0  0  0  # atno 17343 bound_to 10162
  157.7353  131.0574  150.5479 LP  0  0  0  0  0  0  0  0  0  0  0  0  # atno 17370 bound_to 10713
  156.5600  130.4253  149.6067 LP  0  0  0  0  0  0  0  0  0  0  0  0  # atno 17371 bound_to 10713
  141.0897  133.6719  156.2512 LP  0  0  0  0  0  0  0  0  0  0  0  0  # atno 17394 bound_to 11000
  140.6205  134.5366  157.5547 LP  0  0  0  0  0  0  0  0  0  0  0  0  # atno 17395 bound_to 11000

$$$$
