AV-unprocessed.smi:1830|AV-procd|sdf|7433|dock1
  -GOLD-   22720 9113D 1   1.00000     0.00000
 Structure written by MMmdl.
 53 56  0  0  0  0  0  0  0  0  2 V2000
  151.0943  134.8609  155.6716 O   0  0  0  0  0  0  0  0  0  0  0  0
  150.4097  135.2768  154.7370 C   0  0  0  0  0  0  0  0  0  0  0  0
  150.3092  136.5729  154.4131 N   0  0  0  0  0  0  0  0  0  0  0  0
  150.9667  137.6649  155.1215 C   0  0  0  0  0  0  0  0  0  0  0  0
  150.7320  139.0245  154.4249 C   0  0  1  0  0  0  0  0  0  0  0  0
  149.4303  139.7226  154.8883 C   0  0  0  0  0  0  0  0  0  0  0  0
  149.6386  140.2877  156.2347 N   0  3  2  0  0  0  0  0  0  0  0  0
  148.5169  140.9997  156.8711 C   0  0  0  0  0  0  0  0  0  0  0  0
  149.1779  141.9436  157.8953 C   0  0  0  0  0  0  0  0  0  0  0  0
  150.6934  141.8315  157.6495 C   0  0  0  0  0  0  0  0  0  0  0  0
  150.7737  141.2125  156.2575 C   0  0  1  0  0  0  0  0  0  0  0  0
  152.0495  140.4507  155.8813 C   0  0  0  0  0  0  0  0  0  0  0  0
  151.8628  139.8979  154.5758 O   0  0  0  0  0  0  0  0  0  0  0  0
  149.6538  134.5158  153.9294 N   0  0  0  0  0  0  0  0  0  0  0  0
  149.4301  133.1131  154.0078 C   0  0  0  0  0  0  0  0  0  0  0  0
  150.3042  132.2650  154.7304 C   0  0  0  0  0  0  0  0  0  0  0  0
  150.0835  130.8771  154.7188 C   0  0  0  0  0  0  0  0  0  0  0  0
  149.0031  130.3825  153.9695 C   0  0  0  0  0  0  0  0  0  0  0  0
  148.1697  131.1752  153.2666 N   0  0  0  0  0  0  0  0  0  0  0  0
  148.3604  132.5175  153.2798 C   0  0  0  0  0  0  0  0  0  0  0  0
  147.4443  133.3016  152.5416 N   0  0  0  0  0  0  0  0  0  0  0  0
  146.5446  132.6766  151.5776 C   0  0  0  0  0  0  0  0  0  0  0  0
  145.4806  133.7316  151.2897 C   0  0  0  0  0  0  0  0  0  0  0  0
  145.3213  134.4118  152.6459 C   0  0  0  0  0  0  0  0  0  0  0  0
  146.7304  134.3625  153.2465 C   0  0  0  0  0  0  0  0  0  0  0  0
  149.7220  136.8225  153.6305 H   0  0  0  0  0  0  0  0  0  0  0  0
  150.6048  137.7036  156.1503 H   0  0  0  0  0  0  0  0  0  0  0  0
  152.0299  137.4364  155.1881 H   0  0  0  0  0  0  0  0  0  0  0  0
  150.6327  138.8336  153.3558 H   0  0  0  0  0  0  0  0  0  0  0  0
  149.1682  140.5239  154.1958 H   0  0  0  0  0  0  0  0  0  0  0  0
  148.5944  139.0223  154.8994 H   0  0  0  0  0  0  0  0  0  0  0  0
  147.9715  141.5796  156.1250 H   0  0  0  0  0  0  0  0  0  0  0  0
  147.8205  140.3001  157.3338 H   0  0  0  0  0  0  0  0  0  0  0  0
  148.8337  142.9667  157.7396 H   0  0  0  0  0  0  0  0  0  0  0  0
  148.9282  141.6654  158.9198 H   0  0  0  0  0  0  0  0  0  0  0  0
  151.2059  142.7918  157.7144 H   0  0  0  0  0  0  0  0  0  0  0  0
  151.1389  141.1615  158.3865 H   0  0  0  0  0  0  0  0  0  0  0  0
  150.5979  141.9995  155.5205 H   0  0  0  0  0  0  0  0  0  0  0  0
  152.9040  141.1273  155.8604 H   0  0  0  0  0  0  0  0  0  0  0  0
  152.2793  139.6695  156.6064 H   0  0  0  0  0  0  0  0  0  0  0  0
  149.0757  135.0079  153.2640 H   0  0  0  0  0  0  0  0  0  0  0  0
  151.1527  132.6547  155.2726 H   0  0  0  0  0  0  0  0  0  0  0  0
  150.7354  130.2075  155.2601 H   0  0  0  0  0  0  0  0  0  0  0  0
  148.8051  129.3217  153.9280 H   0  0  0  0  0  0  0  0  0  0  0  0
  147.0755  132.3785  150.6730 H   0  0  0  0  0  0  0  0  0  0  0  0
  146.0709  131.7921  152.0054 H   0  0  0  0  0  0  0  0  0  0  0  0
  145.8516  134.4470  150.5544 H   0  0  0  0  0  0  0  0  0  0  0  0
  144.5509  133.3053  150.9121 H   0  0  0  0  0  0  0  0  0  0  0  0
  144.9285  135.4261  152.5708 H   0  0  0  0  0  0  0  0  0  0  0  0
  144.6376  133.8313  153.2670 H   0  0  0  0  0  0  0  0  0  0  0  0
  146.6976  134.1903  154.3234 H   0  0  0  0  0  0  0  0  0  0  0  0
  147.2416  135.3091  153.0701 H   0  0  0  0  0  0  0  0  0  0  0  0
  149.8786  139.5236  156.8502 H   0  0  0  0  0  0  0  0  0  0  0  0
  1  2  2  0  0  0  0
  2  3  1  0  0  0  0
  2 14  1  0  0  0  0
  3  4  1  0  0  0  0
  3 26  1  0  0  0  0
  4  5  1  0  0  0  0
  4 27  1  0  0  0  0
  4 28  1  0  0  0  0
  5 13  1  0  0  0  0
  5  6  1  0  0  0  0
  5 29  1  0  0  0  0
  6  7  1  0  0  0  0
  6 30  1  0  0  0  0
  6 31  1  0  0  0  0
  7 11  1  0  0  0  0
  7  8  1  0  0  0  0
  7 53  1  0  0  0  0
  8  9  1  0  0  0  0
  8 32  1  0  0  0  0
  8 33  1  0  0  0  0
  9 10  1  0  0  0  0
  9 34  1  0  0  0  0
  9 35  1  0  0  0  0
 10 11  1  0  0  0  0
 10 36  1  0  0  0  0
 10 37  1  0  0  0  0
 11 12  1  0  0  0  0
 11 38  1  0  0  0  0
 12 13  1  0  0  0  0
 12 39  1  0  0  0  0
 12 40  1  0  0  0  0
 14 15  1  0  0  0  0
 14 41  1  0  0  0  0
 15 20  1  0  0  0  0
 15 16  2  0  0  0  0
 16 17  1  0  0  0  0
 16 42  1  0  0  0  0
 17 18  2  0  0  0  0
 17 43  1  0  0  0  0
 18 19  1  0  0  0  0
 18 44  1  0  0  0  0
 19 20  2  0  0  0  0
 20 21  1  0  0  0  0
 21 25  1  0  0  0  0
 21 22  1  0  0  0  0
 22 23  1  0  0  0  0
 22 45  1  0  0  0  0
 22 46  1  0  0  0  0
 23 24  1  0  0  0  0
 23 47  1  0  0  0  0
 23 48  1  0  0  0  0
 24 25  1  0  0  0  0
 24 49  1  0  0  0  0
 24 50  1  0  0  0  0
 25 51  1  0  0  0  0
 25 52  1  0  0  0  0
M  CHG  1   7   1
M  END
> <s_m_source_file>
AV-unprocessed.smi

> <i_m_source_file_index>
1830

> <i_lp_mmshare_version>
43012

> <i_f3d_flags>
0

> <s_epik_input>
W0NIMl0xW0NIMl1bQ0gyXVtDQEhdKE4xMilbQ0gyXU9bQ0BASF0oW0NIMl0yKVtDSDJdW05IXUMoPU8pW05IXWMzW2NIXVtjSF1bY0hdbmMzTjRbQ0gyXVtDSDJdW0NIMl1bQ0gyXTQ=

> <s_epik_cmdline>
J2VwaWtfcHl0aG9uJywgJy1waCcsICc3LjAnLCAnLXRuJywgJzgnLCAnLW1hJywgJzIwMCcsICctbWV0YWxfYmluZGluZycsICctaW1hZScsICc8aW5maWxlLm1hZT4nLCAnLW9tYWUnLCAnPG91dGZpbGUubWFlPic=

> <r_lp_tautomer_probability>
1

> <r_epik_Ionization_Penalty>
0.193547

> <r_epik_Ionization_Penalty_Charging>
0.10673

> <r_epik_Ionization_Penalty_Neutral>
0.0868166

> <r_epik_State_Penalty>
0.173595

> <r_epik_Charging_Adjusted_Penalty>
0.280326

> <i_epik_Tot_Q>
1

> <i_epik_Tot_abs_Q>
1

> <r_epik_Metal_State_Penalty>
0.164683

> <b_epik_Metal_Only>
0

> <s_lp_Force_Field>
OPLS_2005

> <r_lp_Energy>
66.0686

> <b_lp_Chiralities_Consistent>
1

> <s_lp_Variant>
AV-unprocessed.smi:1830-2

> <Gold.Version>
5.8.1

> <Gold.Id.Protein>
6NUR|6NUR_protein|mol2

> <Gold.PLP.Fitness>
47.8029

> <Gold.PLP.PLP>
-39.8541

> <Gold.PLP.part.hbond>
-3.4174

> <Gold.PLP.part.metal>
0.0000

> <Gold.PLP.part.buried>
-6.1707

> <Gold.PLP.part.nonpolar>
-31.3529

> <Gold.PLP.part.repulsive>
0.4896

> <Gold.PLP.ligand.clash>
0.0000

> <Gold.PLP.ligand.torsion>
0.6327

> <Gold.PLP.Chemscore.Hbond>
2.9608

> <Gold.PLP.Chemscore.CHOScore>
0.0000

> <Gold.PLP.Chemscore.Metal>
0.0000

> <Gold.Chemscore.Hbonds>
donor molecule, donor type, donor heavy atom, donor atom, acceptor molecule, acceptor atom, score
      L1  H     3    26       P1  7948  0.90
      L1  H    14    41       P1  7948  0.85
      P1  H  7989  7998       L1    13  0.78
      P1  H 10752 10763       L1     1  0.49

> <Gold.PLP.Chemscore.Internal.Correction>
0.3319

> <Gold.Rescore>
     Score         DG    S(hbond)    S(metal)    S(lipo)     H(rot)  DE(clash)    DE(int)     intcor
     14.78     -17.89       2.10        0.00      77.04       1.41       0.06       3.05       ----

> <Gold.Chemscore.Fitness>
14.7837

> <Gold.Chemscore.DG>
-17.8932

> <Gold.Chemscore.ZeroCoef>
-5.4800

> <Gold.Chemscore.Hbond>
2.0959

> <Gold.Chemscore.Metal>
0.0000

> <Gold.Chemscore.Lipo>
77.0434

> <Gold.Chemscore.Internal_Hbond>
0.0000

> <Gold.Chemscore.DEClash>
0.0560

> <Gold.Chemscore.DEInternal>
3.0535

> <Gold.Chemscore.Rot>
1.4067

> <Gold.Chemscore.Internal.Correction>
   9.000000E+99

> <Gold.Chemscore.Hbonds>
donor molecule, donor type, donor heavy atom, donor atom, acceptor molecule, acceptor atom, score
      L1  H     3    26       P1  7948  0.52
      L1  H    14    41       P1  7948  0.16
      P1  H  7989  7998       L1    13  0.27
      P1  H 10752 10763       L1     1  0.10

> <Gold.Chemscore.Hbond.Weighted>
-7.0002

> <Gold.Chemscore.Metal.Weighted>
-0.0000

> <Gold.Chemscore.Lipo.Weighted>
-9.0141

> <Gold.Chemscore.Internal_Hbond.Weighted>
0.0000

> <Gold.Chemscore.DEClash.Weighted>
0.0560

> <Gold.Chemscore.DEInternal.Weighted>
3.0535

> <Gold.Chemscore.Rot.Weighted>
3.6011

> <Gold.Chemscore.Internal.Correction.Weighted>
   9.000000E+99

> <Gold.Protein.RotatedTorsions>
[ 6907 6896 6895 6894 ] final  -48.05 input  -60.11 | X-H torsion
[ 7974 7965 7964 7962 ] final   42.43 input  175.53 | X-H torsion
[ 8008 7997 7996 7995 ] final  160.96 input   59.86 | X-H torsion
[ 10167 10162 10161 10158 ] final   63.37 input  -65.29 | X-H torsion
[ 10718 10713 10712 10709 ] final -137.20 input   66.30 | X-H torsion
[ 10763 10752 10751 10750 ] final   80.99 input  -60.55 | X-H torsion
[ 11005 11000 10999 10996 ] final   69.61 input  -57.11 | X-H torsion

> <Gold.Protein.ActiveResidues>
 VAL166  LYS551  ARG553  GLY616  TRP617  ASP618  TYR619  PRO620  LYS621  CYS622 
 ASP623  PHE694  ASN695  SER759  ASP760  ASP761  ALA762  ILE779  LEU786  VAL792 
 PHE793  MET794  SER795  GLU796  ALA797  LYS798  CYS799  TRP800  GLU811  SER814 

> <Gold.Protein.RotatedAtoms>
  150.8945  134.8352  159.7316 H   0  0  0  0  0  0  0  0  0  0  0  0  # atno 6907 bound_to 6896
  152.4857  134.4597  159.9611 H   0  0  0  0  0  0  0  0  0  0  0  0  # atno 6908 bound_to 6896
  151.4655  133.3543  159.2851 H   0  0  0  0  0  0  0  0  0  0  0  0  # atno 6909 bound_to 6896
  146.0740  139.5301  142.9579 H   0  0  0  0  0  0  0  0  0  0  0  0  # atno 7974 bound_to 7965
  156.2136  140.1790  156.7639 H   0  0  0  0  0  0  0  0  0  0  0  0  # atno 8008 bound_to 7997
  154.5758  140.0674  156.9062 H   0  0  0  0  0  0  0  0  0  0  0  0  # atno 8009 bound_to 7997
  155.2590  140.3334  155.4277 H   0  0  0  0  0  0  0  0  0  0  0  0  # atno 8010 bound_to 7997
  140.1338  144.4618  150.6849 H   0  0  0  0  0  0  0  0  0  0  0  0  # atno 10167 bound_to 10162
  156.2855  130.7345  151.1355 H   0  0  0  0  0  0  0  0  0  0  0  0  # atno 10718 bound_to 10713
  153.1079  135.4782  154.8984 H   0  0  0  0  0  0  0  0  0  0  0  0  # atno 10763 bound_to 10752
  154.7450  135.3091  154.8663 H   0  0  0  0  0  0  0  0  0  0  0  0  # atno 10764 bound_to 10752
  153.9261  135.6850  153.4800 H   0  0  0  0  0  0  0  0  0  0  0  0  # atno 10765 bound_to 10752
  139.9644  134.7006  156.0577 H   0  0  0  0  0  0  0  0  0  0  0  0  # atno 11005 bound_to 11000
  145.6339  141.0298  143.1848 LP  0  0  0  0  0  0  0  0  0  0  0  0  # atno 17320 bound_to 7965
  144.7250  139.7906  143.7368 LP  0  0  0  0  0  0  0  0  0  0  0  0  # atno 17321 bound_to 7965
  140.6801  143.2323  151.5406 LP  0  0  0  0  0  0  0  0  0  0  0  0  # atno 17342 bound_to 10162
  139.5506  144.2405  152.1523 LP  0  0  0  0  0  0  0  0  0  0  0  0  # atno 17343 bound_to 10162
  157.7327  131.0597  150.5614 LP  0  0  0  0  0  0  0  0  0  0  0  0  # atno 17370 bound_to 10713
  156.5724  130.4283  149.6013 LP  0  0  0  0  0  0  0  0  0  0  0  0  # atno 17371 bound_to 10713
  141.1323  133.6583  156.3498 LP  0  0  0  0  0  0  0  0  0  0  0  0  # atno 17394 bound_to 11000
  140.5429  134.6103  157.5385 LP  0  0  0  0  0  0  0  0  0  0  0  0  # atno 17395 bound_to 11000

$$$$
