AV-unprocessed.smi:1999|AV-procd|sdf|8099|dock6
  -GOLD-   2272010323D 1   1.00000     0.00000
 Structure written by MMmdl.
 38 39  0  0  0  0  0  0  0  0  3 V2000
  151.9532  142.4128  159.2099 C   0  0  0  0  0  0  0  0  0  0  0  0
  151.7806  141.6377  157.9487 C   0  0  0  0  0  0  0  0  0  0  0  0
  152.5329  140.5784  157.6392 N   0  0  0  0  0  0  0  0  0  0  0  0
  152.1801  140.0267  156.4165 N   0  0  0  0  0  0  0  0  0  0  0  0
  151.1610  140.6671  155.8253 C   0  0  0  0  0  0  0  0  0  0  0  0
  150.6644  140.2865  154.6368 N   0  5  0  0  0  0  0  0  0  0  0  0
  149.4805  140.7812  154.2145 C   0  0  0  0  0  0  0  0  0  0  0  0
  149.1384  141.9655  154.2307 O   0  0  0  0  0  0  0  0  0  0  0  0
  148.6279  139.8405  153.7802 N   0  0  0  0  0  0  0  0  0  0  0  0
  147.2360  140.0429  153.3726 C   0  0  1  0  0  0  0  0  0  0  0  0
  146.8200  138.9204  152.4124 C   0  0  0  0  0  0  0  0  0  0  0  0
  146.3100  140.1042  154.6086 C   0  0  0  0  0  0  0  0  0  0  0  0
  145.4244  141.2955  154.5980 N   0  3  0  0  0  0  0  0  0  0  0  0
  144.6573  141.4782  155.8527 C   0  0  0  0  0  0  0  0  0  0  0  0
  143.6843  142.6589  155.7034 C   0  0  0  0  0  0  0  0  0  0  0  0
  144.4133  143.8347  155.3696 O   0  0  0  0  0  0  0  0  0  0  0  0
  145.1038  143.7016  154.1324 C   0  0  0  0  0  0  0  0  0  0  0  0
  146.1184  142.5491  154.2264 C   0  0  0  0  0  0  0  0  0  0  0  0
  150.5626  142.0429  156.7508 S   0  0  0  0  0  0  0  0  0  0  0  0
  151.2041  142.1056  159.9399 H   0  0  0  0  0  0  0  0  0  0  0  0
  151.8360  143.4786  159.0140 H   0  0  0  0  0  0  0  0  0  0  0  0
  152.9446  142.2433  159.6314 H   0  0  0  0  0  0  0  0  0  0  0  0
  148.9652  138.8887  153.7744 H   0  0  0  0  0  0  0  0  0  0  0  0
  147.1515  140.9790  152.8191 H   0  0  0  0  0  0  0  0  0  0  0  0
  145.7941  139.0579  152.0699 H   0  0  0  0  0  0  0  0  0  0  0  0
  146.8826  137.9424  152.8912 H   0  0  0  0  0  0  0  0  0  0  0  0
  147.4612  138.9008  151.5305 H   0  0  0  0  0  0  0  0  0  0  0  0
  145.7125  139.1955  154.6959 H   0  0  0  0  0  0  0  0  0  0  0  0
  146.9399  140.1396  155.4989 H   0  0  0  0  0  0  0  0  0  0  0  0
  144.0998  140.5728  156.0919 H   0  0  0  0  0  0  0  0  0  0  0  0
  145.3432  141.6596  156.6814 H   0  0  0  0  0  0  0  0  0  0  0  0
  142.9331  142.4501  154.9396 H   0  0  0  0  0  0  0  0  0  0  0  0
  143.1506  142.8266  156.6389 H   0  0  0  0  0  0  0  0  0  0  0  0
  144.3927  143.5278  153.3229 H   0  0  0  0  0  0  0  0  0  0  0  0
  145.6166  144.6374  153.9106 H   0  0  0  0  0  0  0  0  0  0  0  0
  146.8868  142.7786  154.9661 H   0  0  0  0  0  0  0  0  0  0  0  0
  146.6195  142.4257  153.2655 H   0  0  0  0  0  0  0  0  0  0  0  0
  144.7476  141.1263  153.8661 H   0  0  0  0  0  0  0  0  0  0  0  0
  1  2  1  0  0  0  0
  1 20  1  0  0  0  0
  1 21  1  0  0  0  0
  1 22  1  0  0  0  0
  2 19  1  0  0  0  0
  2  3  2  0  0  0  0
  3  4  1  0  0  0  0
  4  5  2  0  0  0  0
  5  6  1  0  0  0  0
  5 19  1  0  0  0  0
  6  7  1  0  0  0  0
  7  8  2  0  0  0  0
  7  9  1  0  0  0  0
  9 10  1  0  0  0  0
  9 23  1  0  0  0  0
 10 11  1  0  0  0  0
 10 12  1  0  0  0  0
 10 24  1  0  0  0  0
 11 25  1  0  0  0  0
 11 26  1  0  0  0  0
 11 27  1  0  0  0  0
 12 13  1  0  0  0  0
 12 28  1  0  0  0  0
 12 29  1  0  0  0  0
 13 18  1  0  0  0  0
 13 14  1  0  0  0  0
 13 38  1  0  0  0  0
 14 15  1  0  0  0  0
 14 30  1  0  0  0  0
 14 31  1  0  0  0  0
 15 16  1  0  0  0  0
 15 32  1  0  0  0  0
 15 33  1  0  0  0  0
 16 17  1  0  0  0  0
 17 18  1  0  0  0  0
 17 34  1  0  0  0  0
 17 35  1  0  0  0  0
 18 36  1  0  0  0  0
 18 37  1  0  0  0  0
M  CHG  1   6  -1
M  CHG  1  13   1
M  END
> <s_m_source_file>
AV-unprocessed.smi

> <i_m_source_file_index>
1999

> <i_lp_mmshare_version>
43012

> <i_f3d_flags>
0

> <s_epik_input>
W0NIM11jMW5uYyhzMSlbTkhdQyg9TylbTkhdW0NASF0oW0NIM10pW0NIMl1OMltDSDJdW0NIMl1PW0NIMl1bQ0gyXTI=

> <s_epik_cmdline>
J2VwaWtfcHl0aG9uJywgJy1waCcsICc3LjAnLCAnLXRuJywgJzgnLCAnLW1hJywgJzIwMCcsICctbWV0YWxfYmluZGluZycsICctaW1hZScsICc8aW5maWxlLm1hZT4nLCAnLW9tYWUnLCAnPG91dGZpbGUubWFlPic=

> <r_lp_tautomer_probability>
1

> <r_epik_Ionization_Penalty>
3.39984

> <r_epik_Ionization_Penalty_Charging>
3.28696

> <r_epik_Ionization_Penalty_Neutral>
0.11288

> <r_epik_State_Penalty>
3.47917

> <r_epik_Charging_Adjusted_Penalty>
6.76613

> <i_epik_Tot_Q>
0

> <i_epik_Tot_abs_Q>
2

> <r_epik_Metal_State_Penalty>
1.13142

> <b_epik_Metal_Only>
1

> <s_lp_Force_Field>
OPLS_2005

> <r_lp_Energy>
12.2925

> <b_lp_Chiralities_Consistent>
1

> <s_lp_Variant>
AV-unprocessed.smi:1999-8

> <Gold.Version>
5.8.1

> <Gold.Id.Protein>
6NUR|6NUR_protein|mol2

> <Gold.PLP.Fitness>
40.3505

> <Gold.PLP.PLP>
-33.6101

> <Gold.PLP.part.hbond>
-6.1022

> <Gold.PLP.part.metal>
0.0000

> <Gold.PLP.part.buried>
-1.3091

> <Gold.PLP.part.nonpolar>
-26.2621

> <Gold.PLP.part.repulsive>
0.5289

> <Gold.PLP.ligand.clash>
0.0000

> <Gold.PLP.ligand.torsion>
1.5513

> <Gold.PLP.Chemscore.Hbond>
3.2320

> <Gold.PLP.Chemscore.CHOScore>
0.0000

> <Gold.PLP.Chemscore.Metal>
0.0000

> <Gold.Chemscore.Hbonds>
donor molecule, donor type, donor heavy atom, donor atom, acceptor molecule, acceptor atom, score
      L1  H    13    38       P1 10175  2.00
      P1  H  7989  7998       L1     6  1.00
      P1  H  8011  8017       L1     8  0.33

> <Gold.PLP.Chemscore.Internal.Correction>
0.1469

> <Gold.Rescore>
     Score         DG    S(hbond)    S(metal)    S(lipo)     H(rot)  DE(clash)    DE(int)     intcor
     10.43     -13.35       1.48        0.00      60.22       1.60       0.12       2.80       ----

> <Gold.Chemscore.Fitness>
10.4326

> <Gold.Chemscore.DG>
-13.3513

> <Gold.Chemscore.ZeroCoef>
-5.4800

> <Gold.Chemscore.Hbond>
1.4763

> <Gold.Chemscore.Metal>
0.0000

> <Gold.Chemscore.Lipo>
60.2190

> <Gold.Chemscore.Internal_Hbond>
0.0000

> <Gold.Chemscore.DEClash>
0.1228

> <Gold.Chemscore.DEInternal>
2.7960

> <Gold.Chemscore.Rot>
1.6036

> <Gold.Chemscore.Internal.Correction>
   9.000000E+99

> <Gold.Chemscore.Hbonds>
donor molecule, donor type, donor heavy atom, donor atom, acceptor molecule, acceptor atom, score
      L1  H    13    38       P1 10175  0.65
      P1  H  7989  7998       L1     6  0.16
      P1  H  8011  8017       L1     8  0.05

> <Gold.Chemscore.Hbond.Weighted>
-4.9310

> <Gold.Chemscore.Metal.Weighted>
-0.0000

> <Gold.Chemscore.Lipo.Weighted>
-7.0456

> <Gold.Chemscore.Internal_Hbond.Weighted>
0.0000

> <Gold.Chemscore.DEClash.Weighted>
0.1228

> <Gold.Chemscore.DEInternal.Weighted>
2.7960

> <Gold.Chemscore.Rot.Weighted>
4.1053

> <Gold.Chemscore.Internal.Correction.Weighted>
   9.000000E+99

> <Gold.Protein.RotatedTorsions>
[ 6907 6896 6895 6894 ] final  -42.22 input  -60.11 | X-H torsion
[ 7974 7965 7964 7962 ] final    8.07 input  175.53 | X-H torsion
[ 8008 7997 7996 7995 ] final -164.21 input   59.86 | X-H torsion
[ 10167 10162 10161 10158 ] final  -72.12 input  -65.29 | X-H torsion
[ 10718 10713 10712 10709 ] final  142.19 input   66.30 | X-H torsion
[ 10763 10752 10751 10750 ] final  -97.41 input  -60.55 | X-H torsion
[ 11005 11000 10999 10996 ] final  148.67 input  -57.11 | X-H torsion

> <Gold.Protein.ActiveResidues>
 VAL166  LYS551  ARG553  GLY616  TRP617  ASP618  TYR619  PRO620  LYS621  CYS622 
 ASP623  PHE694  ASN695  SER759  ASP760  ASP761  ALA762  ILE779  LEU786  VAL792 
 PHE793  MET794  SER795  GLU796  ALA797  LYS798  CYS799  TRP800  GLU811  SER814 

> <Gold.Protein.RotatedAtoms>
  150.9577  134.8969  159.7711 H   0  0  0  0  0  0  0  0  0  0  0  0  # atno 6907 bound_to 6896
  152.5144  134.3717  159.9330 H   0  0  0  0  0  0  0  0  0  0  0  0  # atno 6908 bound_to 6896
  151.3730  133.3807  159.2736 H   0  0  0  0  0  0  0  0  0  0  0  0  # atno 6909 bound_to 6896
  146.2420  139.9989  142.8418 H   0  0  0  0  0  0  0  0  0  0  0  0  # atno 7974 bound_to 7965
  155.8323  140.0935  157.1785 H   0  0  0  0  0  0  0  0  0  0  0  0  # atno 8008 bound_to 7997
  154.3980  140.1416  156.3689 H   0  0  0  0  0  0  0  0  0  0  0  0  # atno 8009 bound_to 7997
  155.8153  140.3448  155.5484 H   0  0  0  0  0  0  0  0  0  0  0  0  # atno 8010 bound_to 7997
  140.5218  143.2331  151.7416 H   0  0  0  0  0  0  0  0  0  0  0  0  # atno 10167 bound_to 10162
  157.3834  131.0995  151.0717 H   0  0  0  0  0  0  0  0  0  0  0  0  # atno 10718 bound_to 10713
  154.7325  135.5047  153.8988 H   0  0  0  0  0  0  0  0  0  0  0  0  # atno 10763 bound_to 10752
  153.0964  135.6673  153.9764 H   0  0  0  0  0  0  0  0  0  0  0  0  # atno 10764 bound_to 10752
  153.9562  135.3052  155.3415 H   0  0  0  0  0  0  0  0  0  0  0  0  # atno 10765 bound_to 10752
  140.0980  134.9001  157.1752 H   0  0  0  0  0  0  0  0  0  0  0  0  # atno 11005 bound_to 11000
  145.1434  140.9584  143.4475 LP  0  0  0  0  0  0  0  0  0  0  0  0  # atno 17320 bound_to 7965
  145.0274  139.3371  143.6042 LP  0  0  0  0  0  0  0  0  0  0  0  0  # atno 17321 bound_to 7965
  139.4926  144.4243  151.9943 LP  0  0  0  0  0  0  0  0  0  0  0  0  # atno 17342 bound_to 10162
  140.3340  144.3282  150.5981 LP  0  0  0  0  0  0  0  0  0  0  0  0  # atno 17343 bound_to 10162
  157.1777  130.6295  149.5661 LP  0  0  0  0  0  0  0  0  0  0  0  0  # atno 17370 bound_to 10713
  155.9781  130.4764  150.6634 LP  0  0  0  0  0  0  0  0  0  0  0  0  # atno 17371 bound_to 10713
  140.3260  134.2863  155.7237 LP  0  0  0  0  0  0  0  0  0  0  0  0  # atno 17394 bound_to 11000
  141.2097  133.7740  156.9977 LP  0  0  0  0  0  0  0  0  0  0  0  0  # atno 17395 bound_to 11000

$$$$
