AV-unprocessed.smi:101|AV-procd|sdf|922|dock2
  -GOLD-   2262017423D 1   1.00000     0.00000
 Structure written by MMmdl.
 44 46  0  0  0  0  0  0  0  0  1 V2000
  151.0413  135.1815  155.7011 C   0  0  0  0  0  0  0  0  0  0  0  0
  149.7069  135.7782  156.1190 C   0  0  0  0  0  0  0  0  0  0  0  0
  149.1467  136.8324  155.4728 C   0  0  0  0  0  0  0  0  0  0  0  0
  147.9197  137.3937  155.8132 N   0  0  0  0  0  0  0  0  0  0  0  0
  147.3601  138.5969  155.0639 C   0  0  1  0  0  0  0  0  0  0  0  0
  147.3927  139.7164  155.9063 O   0  0  0  0  0  0  0  0  0  0  0  0
  148.4904  140.5683  155.5900 C   0  0  1  0  0  0  0  0  0  0  0  0
  149.7800  140.0890  156.2893 C   0  0  0  0  0  0  0  0  0  0  0  0
  150.5506  141.2140  156.6784 O   0  0  0  0  0  0  0  0  0  0  0  0
  151.4555  141.1010  157.6712 C   0  0  0  0  0  0  0  0  0  0  0  0
  152.0227  140.0460  157.9619 O   0  0  0  0  0  0  0  0  0  0  0  0
  151.6774  142.3818  158.4007 C   0  0  0  0  0  0  0  0  0  0  0  0
  152.4036  142.3701  159.6144 C   0  0  0  0  0  0  0  0  0  0  0  0
  152.6151  143.5615  160.3348 C   0  0  0  0  0  0  0  0  0  0  0  0
  152.1038  144.7792  159.8496 C   0  0  0  0  0  0  0  0  0  0  0  0
  151.3797  144.8038  158.6434 C   0  0  0  0  0  0  0  0  0  0  0  0
  151.1665  143.6132  157.9218 C   0  0  0  0  0  0  0  0  0  0  0  0
  148.5167  140.4599  154.0649 C   0  0  1  0  0  0  0  0  0  0  0  0
  149.7670  140.8325  153.5173 O   0  0  0  0  0  0  0  0  0  0  0  0
  148.1953  138.9900  153.8148 C   0  0  2  0  0  0  0  0  0  0  0  0
  147.4489  138.8628  152.6209 O   0  0  0  0  0  0  0  0  0  0  0  0
  147.2733  136.9375  156.9842 C   0  0  0  0  0  0  0  0  0  0  0  0
  146.2596  137.4633  157.4410 O   0  0  0  0  0  0  0  0  0  0  0  0
  147.8371  135.8443  157.6393 N   0  0  0  0  0  0  0  0  0  0  0  0
  149.0186  135.1968  157.2731 C   0  0  0  0  0  0  0  0  0  0  0  0
  149.4074  134.2271  157.9219 O   0  0  0  0  0  0  0  0  0  0  0  0
  147.3581  135.4992  158.4584 H   0  0  0  0  0  0  0  0  0  0  0  0
  151.4830  135.7220  154.8634 H   0  0  0  0  0  0  0  0  0  0  0  0
  150.9129  134.1425  155.3956 H   0  0  0  0  0  0  0  0  0  0  0  0
  151.7514  135.2118  156.5282 H   0  0  0  0  0  0  0  0  0  0  0  0
  149.7060  137.2497  154.6492 H   0  0  0  0  0  0  0  0  0  0  0  0
  146.3254  138.3237  154.8491 H   0  0  0  0  0  0  0  0  0  0  0  0
  148.2696  141.5904  155.8997 H   0  0  0  0  0  0  0  0  0  0  0  0
  149.5420  139.4637  157.1504 H   0  0  0  0  0  0  0  0  0  0  0  0
  150.3789  139.4826  155.6094 H   0  0  0  0  0  0  0  0  0  0  0  0
  152.8028  141.4466  160.0086 H   0  0  0  0  0  0  0  0  0  0  0  0
  153.1697  143.5402  161.2612 H   0  0  0  0  0  0  0  0  0  0  0  0
  152.2661  145.6929  160.4021 H   0  0  0  0  0  0  0  0  0  0  0  0
  150.9861  145.7378  158.2704 H   0  0  0  0  0  0  0  0  0  0  0  0
  150.6035  143.6668  157.0014 H   0  0  0  0  0  0  0  0  0  0  0  0
  147.7333  141.0977  153.6512 H   0  0  0  0  0  0  0  0  0  0  0  0
  150.0204  140.1849  152.8773 H   0  0  0  0  0  0  0  0  0  0  0  0
  149.1174  138.4092  153.7659 H   0  0  0  0  0  0  0  0  0  0  0  0
  147.9465  139.2509  151.9169 H   0  0  0  0  0  0  0  0  0  0  0  0
  1  2  1  0  0  0  0
  1 28  1  0  0  0  0
  1 29  1  0  0  0  0
  1 30  1  0  0  0  0
  2 25  1  0  0  0  0
  2  3  2  0  0  0  0
  3  4  1  0  0  0  0
  3 31  1  0  0  0  0
  4  5  1  0  0  0  0
  4 22  1  0  0  0  0
  5 20  1  0  0  0  0
  5  6  1  0  0  0  0
  5 32  1  0  0  0  0
  6  7  1  0  0  0  0
  7  8  1  0  0  0  0
  7 18  1  0  0  0  0
  7 33  1  0  0  0  0
  8  9  1  0  0  0  0
  8 34  1  0  0  0  0
  8 35  1  0  0  0  0
  9 10  1  0  0  0  0
 10 11  2  0  0  0  0
 10 12  1  0  0  0  0
 12 17  1  0  0  0  0
 12 13  2  0  0  0  0
 13 14  1  0  0  0  0
 13 36  1  0  0  0  0
 14 15  2  0  0  0  0
 14 37  1  0  0  0  0
 15 16  1  0  0  0  0
 15 38  1  0  0  0  0
 16 17  2  0  0  0  0
 16 39  1  0  0  0  0
 17 40  1  0  0  0  0
 18 19  1  0  0  0  0
 18 20  1  0  0  0  0
 18 41  1  0  0  0  0
 19 42  1  0  0  0  0
 20 21  1  0  0  0  0
 20 43  1  0  0  0  0
 21 44  1  0  0  0  0
 22 23  2  0  0  0  0
 22 24  1  0  0  0  0
 24 27  1  0  0  0  0
 24 25  1  0  0  0  0
 25 26  2  0  0  0  0
M  END
> <s_m_source_file>
AV-unprocessed.smi

> <i_m_source_file_index>
101

> <i_lp_mmshare_version>
43012

> <i_f3d_flags>
0

> <s_epik_input>
Tz1jMVtuSF1jKD1PKW4oW2NIXWMxW0NIM10pW0NAQEhdMk9bQ0BIXShbQ0BASF0oW09IXSlbQ0BIXTJbT0hdKVtDSDJdT0MoPU8pYzNbY0hdW2NIXVtjSF1bY0hdW2NIXTM=

> <s_epik_cmdline>
J2VwaWtfcHl0aG9uJywgJy1waCcsICc3LjAnLCAnLXRuJywgJzgnLCAnLW1hJywgJzIwMCcsICctbWV0YWxfYmluZGluZycsICctaW1hZScsICc8aW5maWxlLm1hZT4nLCAnLW9tYWUnLCAnPG91dGZpbGUubWFlPic=

> <r_lp_tautomer_probability>
0.999537

> <r_epik_Ionization_Penalty>
0.00263537

> <r_epik_Ionization_Penalty_Charging>
0.00263428

> <r_epik_Ionization_Penalty_Neutral>
1.09111e-06

> <r_epik_State_Penalty>
0.00183335

> <r_epik_Charging_Adjusted_Penalty>
0.00446763

> <i_epik_Tot_Q>
0

> <i_epik_Tot_abs_Q>
0

> <r_epik_Metal_State_Penalty>
1.00528

> <b_epik_Metal_Only>
0

> <s_epik_Chemistry_Notes>
This compound has an ester and may undergo hydrolysis at high or low pH. This compound contains an acetal/aminal-like group ( X-CH(R)-Y where X, Y are N, S, or O) that may be acid/base labile, releasing an aldehyde.

> <s_lp_Force_Field>
OPLS_2005

> <r_lp_Energy>
31.3632

> <b_lp_Chiralities_Consistent>
1

> <s_lp_Variant>
AV-unprocessed.smi:101-10

> <Gold.Version>
5.8.1

> <Gold.Id.Protein>
6NUR|6NUR_protein|mol2

> <Gold.PLP.Fitness>
46.5635

> <Gold.PLP.PLP>
-37.9131

> <Gold.PLP.part.hbond>
-5.1515

> <Gold.PLP.part.metal>
0.0000

> <Gold.PLP.part.buried>
-3.8487

> <Gold.PLP.part.nonpolar>
-27.7791

> <Gold.PLP.part.repulsive>
0.0631

> <Gold.PLP.ligand.clash>
0.0000

> <Gold.PLP.ligand.torsion>
1.1530

> <Gold.PLP.Chemscore.Hbond>
3.5760

> <Gold.PLP.Chemscore.CHOScore>
0.0000

> <Gold.PLP.Chemscore.Metal>
0.0000

> <Gold.Chemscore.Hbonds>
donor molecule, donor type, donor heavy atom, donor atom, acceptor molecule, acceptor atom, score
      L1  H    19    42       P1  7957  0.62
      L1  H    21    44       P1  7957  1.00
      P1  H  6896  6908       L1    26  1.00
      P1  H  8011  8017       L1    19  0.90

> <Gold.PLP.Chemscore.Internal.Correction>
0.2284

> <Gold.Rescore>
     Score         DG    S(hbond)    S(metal)    S(lipo)     H(rot)  DE(clash)    DE(int)     intcor
     16.71     -18.63       2.88        0.00     102.63       3.32       0.51       1.40       ----

> <Gold.Chemscore.Fitness>
16.7111

> <Gold.Chemscore.DG>
-18.6288

> <Gold.Chemscore.ZeroCoef>
-5.4800

> <Gold.Chemscore.Hbond>
2.8841

> <Gold.Chemscore.Metal>
0.0000

> <Gold.Chemscore.Lipo>
102.6330

> <Gold.Chemscore.Internal_Hbond>
0.0000

> <Gold.Chemscore.DEClash>
0.5132

> <Gold.Chemscore.DEInternal>
1.4045

> <Gold.Chemscore.Rot>
3.3172

> <Gold.Chemscore.Internal.Correction>
   9.000000E+99

> <Gold.Chemscore.Hbonds>
donor molecule, donor type, donor heavy atom, donor atom, acceptor molecule, acceptor atom, score
      L1  H    19    42       P1  7957  0.62
      L1  H    21    44       P1  7957  0.96
      P1  H  6896  6908       L1    26  1.00
      P1  H  8011  8017       L1    19  0.16

> <Gold.Chemscore.Hbond.Weighted>
-9.6328

> <Gold.Chemscore.Metal.Weighted>
-0.0000

> <Gold.Chemscore.Lipo.Weighted>
-12.0081

> <Gold.Chemscore.Internal_Hbond.Weighted>
0.0000

> <Gold.Chemscore.DEClash.Weighted>
0.5132

> <Gold.Chemscore.DEInternal.Weighted>
1.4045

> <Gold.Chemscore.Rot.Weighted>
8.4920

> <Gold.Chemscore.Internal.Correction.Weighted>
   9.000000E+99

> <Gold.Protein.RotatedTorsions>
[ 6907 6896 6895 6894 ] final  136.75 input  -60.11 | X-H torsion
[ 7974 7965 7964 7962 ] final -136.33 input  175.53 | X-H torsion
[ 8008 7997 7996 7995 ] final  -20.85 input   59.86 | X-H torsion
[ 10167 10162 10161 10158 ] final   92.16 input  -65.29 | X-H torsion
[ 10718 10713 10712 10709 ] final  115.18 input   66.30 | X-H torsion
[ 10763 10752 10751 10750 ] final  -15.94 input  -60.55 | X-H torsion
[ 11005 11000 10999 10996 ] final   -9.90 input  -57.11 | X-H torsion

> <Gold.Protein.ActiveResidues>
 VAL166  LYS551  ARG553  GLY616  TRP617  ASP618  TYR619  PRO620  LYS621  CYS622 
 ASP623  PHE694  ASN695  SER759  ASP760  ASP761  ALA762  ILE779  LEU786  VAL792 
 PHE793  MET794  SER795  GLU796  ALA797  LYS798  CYS799  TRP800  GLU811  SER814 

> <Gold.Protein.RotatedAtoms>
  152.2858  133.5514  159.5526 H   0  0  0  0  0  0  0  0  0  0  0  0  # atno 6907 bound_to 6896
  150.7214  134.0499  159.3803 H   0  0  0  0  0  0  0  0  0  0  0  0  # atno 6908 bound_to 6896
  151.8407  135.0591  160.0498 H   0  0  0  0  0  0  0  0  0  0  0  0  # atno 6909 bound_to 6896
  144.8936  140.6676  143.5129 H   0  0  0  0  0  0  0  0  0  0  0  0  # atno 7974 bound_to 7965
  154.4743  140.2051  155.9916 H   0  0  0  0  0  0  0  0  0  0  0  0  # atno 8008 bound_to 7997
  156.1063  140.3236  155.7981 H   0  0  0  0  0  0  0  0  0  0  0  0  # atno 8009 bound_to 7997
  155.4711  140.0531  157.2970 H   0  0  0  0  0  0  0  0  0  0  0  0  # atno 8010 bound_to 7997
  139.8304  144.6690  150.9407 H   0  0  0  0  0  0  0  0  0  0  0  0  # atno 10167 bound_to 10162
  157.6237  131.1009  150.7293 H   0  0  0  0  0  0  0  0  0  0  0  0  # atno 10718 bound_to 10713
  153.5510  135.7011  153.5591 H   0  0  0  0  0  0  0  0  0  0  0  0  # atno 10763 bound_to 10752
  153.3515  135.3994  155.1649 H   0  0  0  0  0  0  0  0  0  0  0  0  # atno 10764 bound_to 10752
  154.8661  135.3766  154.5021 H   0  0  0  0  0  0  0  0  0  0  0  0  # atno 10765 bound_to 10752
  140.7390  133.8686  155.8952 H   0  0  0  0  0  0  0  0  0  0  0  0  # atno 11005 bound_to 11000
  145.3739  139.1652  143.4317 LP  0  0  0  0  0  0  0  0  0  0  0  0  # atno 17320 bound_to 7965
  146.3068  140.3813  142.8684 LP  0  0  0  0  0  0  0  0  0  0  0  0  # atno 17321 bound_to 7965
  140.7807  143.4006  151.1155 LP  0  0  0  0  0  0  0  0  0  0  0  0  # atno 17342 bound_to 10162
  139.7660  143.8564  152.3111 LP  0  0  0  0  0  0  0  0  0  0  0  0  # atno 17343 bound_to 10162
  156.7646  130.4809  149.5430 LP  0  0  0  0  0  0  0  0  0  0  0  0  # atno 17370 bound_to 10713
  156.1397  130.6236  151.0449 LP  0  0  0  0  0  0  0  0  0  0  0  0  # atno 17371 bound_to 10713
  140.9854  134.1350  157.4457 LP  0  0  0  0  0  0  0  0  0  0  0  0  # atno 17394 bound_to 11000
  139.8810  135.0024  156.6122 LP  0  0  0  0  0  0  0  0  0  0  0  0  # atno 17395 bound_to 11000

$$$$
