AV-unprocessed.smi:222|AV-procd|sdf|1702|dock1
  -GOLD-   2262020153D 1   1.00000     0.00000
 Structure written by MMmdl.
 59 61  0  0  0  0  0  0  0  0  1 V2000
  147.3818  141.4757  154.0525 C   0  0  0  0  0  0  0  0  0  0  0  0
  148.6856  140.9660  154.2822 O   0  0  0  0  0  0  0  0  0  0  0  0
  148.8965  140.4510  155.5908 C   0  0  0  0  0  0  0  0  0  0  0  0
  150.3891  140.3677  155.9715 C   0  0  0  0  0  0  0  0  0  0  0  0
  150.6063  140.2722  157.4205 N   0  0  0  0  0  0  0  0  0  0  0  0
  151.2906  141.3873  158.0955 C   0  0  0  0  0  0  0  0  0  0  0  0
  152.6973  141.0476  158.6362 C   0  0  0  0  0  0  0  0  0  0  0  0
  153.2729  140.0344  158.2341 O   0  0  0  0  0  0  0  0  0  0  0  0
  153.2634  141.8818  159.5381 N   0  0  0  0  0  0  0  0  0  0  0  0
  154.5807  141.6443  160.1341 C   0  0  0  0  0  0  0  0  0  0  0  0
  152.5649  143.0933  159.9738 C   0  0  0  0  0  0  0  0  0  0  0  0
  150.3173  139.1123  158.0874 C   0  0  0  0  0  0  0  0  0  0  0  0
  151.3500  138.3266  158.4974 N   0  0  0  0  0  0  0  0  0  0  0  0
  151.1319  137.1975  159.1747 C   0  0  0  0  0  0  0  0  0  0  0  0
  149.9702  136.6620  159.5465 N   0  0  0  0  0  0  0  0  0  0  0  0
  148.9214  137.4289  159.1356 C   0  0  0  0  0  0  0  0  0  0  0  0
  149.0004  138.6549  158.4104 C   0  0  0  0  0  0  0  0  0  0  0  0
  147.7131  139.1309  158.1801 N   0  0  0  0  0  0  0  0  0  0  0  0
  146.9298  138.2550  158.7436 C   0  0  0  0  0  0  0  0  0  0  0  0
  147.5710  137.1881  159.3275 N   0  0  0  0  0  0  0  0  0  0  0  0
  146.9473  136.0735  160.0276 C   0  0  0  0  0  0  0  0  0  0  0  0
  146.1815  136.4535  161.3347 C   0  0  0  0  0  0  0  0  0  0  0  0
  145.0775  137.4871  160.9772 C   0  0  0  0  0  0  0  0  0  0  0  0
  144.0903  136.9772  160.1020 O   0  0  0  0  0  0  0  0  0  0  0  0
  145.5429  135.1736  161.9339 C   0  0  0  0  0  0  0  0  0  0  0  0
  146.5862  134.2184  162.5457 C   0  0  0  0  0  0  0  0  0  0  0  0
  147.3680  134.9020  163.5180 O   0  0  0  0  0  0  0  0  0  0  0  0
  148.0998  135.9955  162.9775 C   0  0  0  0  0  0  0  0  0  0  0  0
  147.1268  137.0454  162.4122 C   0  0  0  0  0  0  0  0  0  0  0  0
  147.2993  141.7962  153.0140 H   0  0  0  0  0  0  0  0  0  0  0  0
  147.1639  142.3389  154.6804 H   0  0  0  0  0  0  0  0  0  0  0  0
  146.6221  140.7132  154.2277 H   0  0  0  0  0  0  0  0  0  0  0  0
  148.3550  141.0581  156.3175 H   0  0  0  0  0  0  0  0  0  0  0  0
  148.4499  139.4578  155.6374 H   0  0  0  0  0  0  0  0  0  0  0  0
  150.8661  139.5207  155.4798 H   0  0  0  0  0  0  0  0  0  0  0  0
  150.9147  141.2335  155.5669 H   0  0  0  0  0  0  0  0  0  0  0  0
  151.4110  142.2092  157.3893 H   0  0  0  0  0  0  0  0  0  0  0  0
  150.6463  141.7811  158.8796 H   0  0  0  0  0  0  0  0  0  0  0  0
  154.6665  140.6255  160.5137 H   0  0  0  0  0  0  0  0  0  0  0  0
  154.7819  142.3072  160.9759 H   0  0  0  0  0  0  0  0  0  0  0  0
  155.3661  141.8044  159.3946 H   0  0  0  0  0  0  0  0  0  0  0  0
  152.1949  143.6607  159.1182 H   0  0  0  0  0  0  0  0  0  0  0  0
  153.2051  143.7657  160.5450 H   0  0  0  0  0  0  0  0  0  0  0  0
  151.7122  142.8313  160.6013 H   0  0  0  0  0  0  0  0  0  0  0  0
  152.0150  136.6459  159.4606 H   0  0  0  0  0  0  0  0  0  0  0  0
  145.8550  138.3618  158.7418 H   0  0  0  0  0  0  0  0  0  0  0  0
  146.2652  135.5827  159.3319 H   0  0  0  0  0  0  0  0  0  0  0  0
  147.7295  135.3421  160.2229 H   0  0  0  0  0  0  0  0  0  0  0  0
  144.5636  137.8308  161.8748 H   0  0  0  0  0  0  0  0  0  0  0  0
  145.5196  138.3669  160.5085 H   0  0  0  0  0  0  0  0  0  0  0  0
  144.4125  136.1745  159.7212 H   0  0  0  0  0  0  0  0  0  0  0  0
  144.8423  135.4369  162.7266 H   0  0  0  0  0  0  0  0  0  0  0  0
  144.9559  134.6503  161.1782 H   0  0  0  0  0  0  0  0  0  0  0  0
  146.0802  133.3857  163.0344 H   0  0  0  0  0  0  0  0  0  0  0  0
  147.2316  133.7807  161.7841 H   0  0  0  0  0  0  0  0  0  0  0  0
  148.6993  136.4377  163.7732 H   0  0  0  0  0  0  0  0  0  0  0  0
  148.7999  135.6438  162.2194 H   0  0  0  0  0  0  0  0  0  0  0  0
  147.6757  137.9046  162.0286 H   0  0  0  0  0  0  0  0  0  0  0  0
  146.5404  137.4278  163.2482 H   0  0  0  0  0  0  0  0  0  0  0  0
  1  2  1  0  0  0  0
  1 30  1  0  0  0  0
  1 31  1  0  0  0  0
  1 32  1  0  0  0  0
  2  3  1  0  0  0  0
  3  4  1  0  0  0  0
  3 33  1  0  0  0  0
  3 34  1  0  0  0  0
  4  5  1  0  0  0  0
  4 35  1  0  0  0  0
  4 36  1  0  0  0  0
  5  6  1  0  0  0  0
  5 12  1  0  0  0  0
  6  7  1  0  0  0  0
  6 37  1  0  0  0  0
  6 38  1  0  0  0  0
  7  8  2  0  0  0  0
  7  9  1  0  0  0  0
  9 10  1  0  0  0  0
  9 11  1  0  0  0  0
 10 39  1  0  0  0  0
 10 40  1  0  0  0  0
 10 41  1  0  0  0  0
 11 42  1  0  0  0  0
 11 43  1  0  0  0  0
 11 44  1  0  0  0  0
 12 17  1  0  0  0  0
 12 13  2  0  0  0  0
 13 14  1  0  0  0  0
 14 15  2  0  0  0  0
 14 45  1  0  0  0  0
 15 16  1  0  0  0  0
 16 20  1  0  0  0  0
 16 17  2  0  0  0  0
 17 18  1  0  0  0  0
 18 19  2  0  0  0  0
 19 20  1  0  0  0  0
 19 46  1  0  0  0  0
 20 21  1  0  0  0  0
 21 22  1  0  0  0  0
 21 47  1  0  0  0  0
 21 48  1  0  0  0  0
 22 29  1  0  0  0  0
 22 23  1  0  0  0  0
 22 25  1  0  0  0  0
 23 24  1  0  0  0  0
 23 49  1  0  0  0  0
 23 50  1  0  0  0  0
 24 51  1  0  0  0  0
 25 26  1  0  0  0  0
 25 52  1  0  0  0  0
 25 53  1  0  0  0  0
 26 27  1  0  0  0  0
 26 54  1  0  0  0  0
 26 55  1  0  0  0  0
 27 28  1  0  0  0  0
 28 29  1  0  0  0  0
 28 56  1  0  0  0  0
 28 57  1  0  0  0  0
 29 58  1  0  0  0  0
 29 59  1  0  0  0  0
M  END
> <s_m_source_file>
AV-unprocessed.smi

> <i_m_source_file_index>
222

> <i_lp_mmshare_version>
43012

> <i_f3d_flags>
0

> <s_epik_input>
W0NIM11PW0NIMl1bQ0gyXU4oW0NIMl1DKD1PKU4oW0NIM10pW0NIM10pYyhuW2NIXW4xKWMoYzEyKW5bY0hdbjJbQ0gyXUMzKFtDSDJdW09IXSlbQ0gyXVtDSDJdT1tDSDJdW0NIMl0z

> <s_epik_cmdline>
J2VwaWtfcHl0aG9uJywgJy1waCcsICc3LjAnLCAnLXRuJywgJzgnLCAnLW1hJywgJzIwMCcsICctbWV0YWxfYmluZGluZycsICctaW1hZScsICc8aW5maWxlLm1hZT4nLCAnLW9tYWUnLCAnPG91dGZpbGUubWFlPic=

> <r_lp_tautomer_probability>
1

> <r_epik_Ionization_Penalty>
0.000796957

> <r_epik_Ionization_Penalty_Charging>
0

> <r_epik_Ionization_Penalty_Neutral>
0.000796957

> <r_epik_State_Penalty>
0.000428513

> <r_epik_Charging_Adjusted_Penalty>
0.000428513

> <i_epik_Tot_Q>
0

> <i_epik_Tot_abs_Q>
0

> <r_epik_Metal_State_Penalty>
-0

> <b_epik_Metal_Only>
0

> <s_lp_Force_Field>
OPLS_2005

> <r_lp_Energy>
34.6666

> <b_lp_Chiralities_Consistent>
1

> <s_lp_Variant>
AV-unprocessed.smi:222-1

> <Gold.Version>
5.8.1

> <Gold.Id.Protein>
6NUR|6NUR_protein|mol2

> <Gold.PLP.Fitness>
46.4380

> <Gold.PLP.PLP>
-45.1383

> <Gold.PLP.part.hbond>
-3.2954

> <Gold.PLP.part.metal>
0.0000

> <Gold.PLP.part.buried>
-6.7429

> <Gold.PLP.part.nonpolar>
-36.1131

> <Gold.PLP.part.repulsive>
0.1433

> <Gold.PLP.ligand.clash>
0.0000

> <Gold.PLP.ligand.torsion>
1.8856

> <Gold.PLP.Chemscore.Hbond>
1.5094

> <Gold.PLP.Chemscore.CHOScore>
0.0000

> <Gold.PLP.Chemscore.Metal>
0.0000

> <Gold.Chemscore.Hbonds>
donor molecule, donor type, donor heavy atom, donor atom, acceptor molecule, acceptor atom, score
      P1  H  6896  6908       L1    15  0.55
      P1  H  7997  8009       L1     8  1.00

> <Gold.PLP.Chemscore.Internal.Correction>
0.5425

> <Gold.Rescore>
     Score         DG    S(hbond)    S(metal)    S(lipo)     H(rot)  DE(clash)    DE(int)     intcor
      6.44      -9.76       0.96        0.00      85.46       3.49       0.02       3.31       ----

> <Gold.Chemscore.Fitness>
6.4353

> <Gold.Chemscore.DG>
-9.7625

> <Gold.Chemscore.ZeroCoef>
-5.4800

> <Gold.Chemscore.Hbond>
0.9636

> <Gold.Chemscore.Metal>
0.0000

> <Gold.Chemscore.Lipo>
85.4588

> <Gold.Chemscore.Internal_Hbond>
0.0000

> <Gold.Chemscore.DEClash>
0.0195

> <Gold.Chemscore.DEInternal>
3.3077

> <Gold.Chemscore.Rot>
3.4901

> <Gold.Chemscore.Internal.Correction>
   9.000000E+99

> <Gold.Chemscore.Hbonds>
donor molecule, donor type, donor heavy atom, donor atom, acceptor molecule, acceptor atom, score
      P1  H  6896  6908       L1    15  0.04
      P1  H  7997  8009       L1     8  0.96

> <Gold.Chemscore.Hbond.Weighted>
-3.2185

> <Gold.Chemscore.Metal.Weighted>
-0.0000

> <Gold.Chemscore.Lipo.Weighted>
-9.9987

> <Gold.Chemscore.Internal_Hbond.Weighted>
0.0000

> <Gold.Chemscore.DEClash.Weighted>
0.0195

> <Gold.Chemscore.DEInternal.Weighted>
3.3077

> <Gold.Chemscore.Rot.Weighted>
8.9347

> <Gold.Chemscore.Internal.Correction.Weighted>
   9.000000E+99

> <Gold.Protein.RotatedTorsions>
[ 6907 6896 6895 6894 ] final  179.43 input  -60.11 | X-H torsion
[ 7974 7965 7964 7962 ] final   42.95 input  175.53 | X-H torsion
[ 8008 7997 7996 7995 ] final  153.08 input   59.86 | X-H torsion
[ 10167 10162 10161 10158 ] final -120.58 input  -65.29 | X-H torsion
[ 10718 10713 10712 10709 ] final   45.70 input   66.30 | X-H torsion
[ 10763 10752 10751 10750 ] final   21.12 input  -60.55 | X-H torsion
[ 11005 11000 10999 10996 ] final   40.34 input  -57.11 | X-H torsion

> <Gold.Protein.ActiveResidues>
 VAL166  LYS551  ARG553  GLY616  TRP617  ASP618  TYR619  PRO620  LYS621  CYS622 
 ASP623  PHE694  ASN695  SER759  ASP760  ASP761  ALA762  ILE779  LEU786  VAL792 
 PHE793  MET794  SER795  GLU796  ALA797  LYS798  CYS799  TRP800  GLU811  SER814 

> <Gold.Protein.RotatedAtoms>
  151.6718  133.3314  159.3197 H   0  0  0  0  0  0  0  0  0  0  0  0  # atno 6907 bound_to 6896
  150.7864  134.6856  159.6478 H   0  0  0  0  0  0  0  0  0  0  0  0  # atno 6908 bound_to 6896
  152.3935  134.6407  160.0150 H   0  0  0  0  0  0  0  0  0  0  0  0  # atno 6909 bound_to 6896
  146.0697  139.5242  142.9605 H   0  0  0  0  0  0  0  0  0  0  0  0  # atno 7974 bound_to 7965
  156.2599  140.2003  156.6434 H   0  0  0  0  0  0  0  0  0  0  0  0  # atno 8008 bound_to 7997
  154.6592  140.0563  157.0067 H   0  0  0  0  0  0  0  0  0  0  0  0  # atno 8009 bound_to 7997
  155.1302  140.3233  155.4479 H   0  0  0  0  0  0  0  0  0  0  0  0  # atno 8010 bound_to 7997
  140.0342  143.5217  152.2161 H   0  0  0  0  0  0  0  0  0  0  0  0  # atno 10167 bound_to 10162
  157.4403  130.8077  149.7688 H   0  0  0  0  0  0  0  0  0  0  0  0  # atno 10718 bound_to 10713
  153.1021  135.6675  153.9653 H   0  0  0  0  0  0  0  0  0  0  0  0  # atno 10763 bound_to 10752
  153.9220  135.3013  155.3449 H   0  0  0  0  0  0  0  0  0  0  0  0  # atno 10764 bound_to 10752
  154.7442  135.5065  153.9251 H   0  0  0  0  0  0  0  0  0  0  0  0  # atno 10765 bound_to 10752
  140.1940  134.3951  155.8131 H   0  0  0  0  0  0  0  0  0  0  0  0  # atno 11005 bound_to 11000
  145.6413  141.0283  143.1810 LP  0  0  0  0  0  0  0  0  0  0  0  0  # atno 17320 bound_to 7965
  144.7224  139.7986  143.7377 LP  0  0  0  0  0  0  0  0  0  0  0  0  # atno 17321 bound_to 7965
  139.6056  144.7595  151.3070 LP  0  0  0  0  0  0  0  0  0  0  0  0  # atno 17342 bound_to 10162
  140.7288  143.6924  150.7911 LP  0  0  0  0  0  0  0  0  0  0  0  0  # atno 17343 bound_to 10162
  155.9946  130.3917  150.2852 LP  0  0  0  0  0  0  0  0  0  0  0  0  # atno 17370 bound_to 10713
  157.1016  131.0197  151.3083 LP  0  0  0  0  0  0  0  0  0  0  0  0  # atno 17371 bound_to 10713
  141.2227  133.7061  156.8145 LP  0  0  0  0  0  0  0  0  0  0  0  0  # atno 17394 bound_to 11000
  140.2127  134.8815  157.3292 LP  0  0  0  0  0  0  0  0  0  0  0  0  # atno 17395 bound_to 11000

$$$$
