#       Name:                AV-unprocessed.smi:149
#       Creating user name   scv26
#       Creation time:       Thu Mar 26 18:45:24 2020


#       File generated by GOLD software.
#

@<TRIPOS>MOLECULE
AV-unprocessed.smi:149
    69    73     1
SMALL
NO_CHARGES


@<TRIPOS>ATOM
      1 ****        -4.0147  -0.7178   0.2331 C.3            1 S1                 0.0000
      2 ****        -3.5148   0.6303   0.7926 C.3            1 S1                 0.0000
      3 ****        -2.0094   0.5593   1.0952 C.3            1 S1                 0.0000
      4 ****        -1.3401   1.1795  -0.0390 N.pl3          1 S1                 0.0000
      5 ****        -0.0934   0.7956  -0.4168 C.ar           1 S1                 0.0000
      6 ****         0.2615   0.9193  -1.7236 N.ar           1 S1                 0.0000
      7 ****         1.4806   0.5589  -2.1338 C.ar           1 S1                 0.0000
      8 ****         2.4883   0.0616  -1.4157 N.ar           1 S1                 0.0000
      9 ****         2.1457  -0.0594  -0.1014 C.ar           1 S1                 0.0000
     10 ****         0.8917   0.2862   0.4803 C.ar           1 S1                 0.0000
     11 ****         0.9336   0.0508   1.8506 N.2            1 S1                 0.0000
     12 ****         2.1361  -0.4081   2.0637 C.2            1 S1                 0.0000
     13 ****         2.9222  -0.5335   0.9414 N.pl3          1 S1                 0.0000
     14 ****         4.2875  -0.9674   0.8915 C.3            1 S1                 0.0000
     15 ****         4.7634  -1.9556  -0.1760 C.3            1 S1                 0.0000
     16 ****         5.7900  -2.5315   0.8254 C.3            1 S1                 0.0000
     17 ****         5.9342  -4.0627   0.7776 C.3            1 S1                 0.0000
     18 ****         6.4247  -4.5855   1.9949 O.3            1 S1                 0.0000
     19 ****         7.1879  -1.8843   0.7262 C.3            1 S1                 0.0000
     20 ****         7.9267  -2.0175   1.9232 O.3            1 S1                 0.0000
     21 ****         4.8431  -1.9659   1.9090 C.3            1 S1                 0.0000
     22 ****        -2.3224   1.6414  -1.0071 C.3            1 S1                 0.0000
     23 ****        -3.6176   1.8088  -0.2021 C.3            1 S1                 0.0000
     24 ****        -4.8527   1.8942  -0.9931 N.3            1 S1                 0.0000
     25 ****        -4.8060   2.9781  -1.9740 C.3            1 S1                 0.0000
     26 ****        -6.1069   3.0756  -2.7903 C.3            1 S1                 0.0000
     27 ****        -7.2131   3.2455  -1.9111 O.3            1 S1                 0.0000
     28 ****        -7.3241   2.1897  -0.9633 C.3            1 S1                 0.0000
     29 ****        -6.0263   2.0971  -0.1432 C.3            1 S1                 0.0000
     30 ****        -3.4899  -0.9921  -0.6822 H              1 S1                 0.0000
     31 ****        -5.0805  -0.6955   0.0084 H              1 S1                 0.0000
     32 ****        -3.8565  -1.5193   0.9550 H              1 S1                 0.0000
     33 ****        -4.0669   0.8501   1.7069 H              1 S1                 0.0000
     34 ****        -1.7734   1.1333   1.9919 H              1 S1                 0.0000
     35 ****        -1.6807  -0.4681   1.2565 H              1 S1                 0.0000
     36 ****         1.6769   0.6878  -3.1880 H              1 S1                 0.0000
     37 ****         2.4815  -0.6721   3.0527 H              1 S1                 0.0000
     38 ****         4.8914  -0.0586   0.8743 H              1 S1                 0.0000
     39 ****         3.9843  -2.6678  -0.4552 H              1 S1                 0.0000
     40 ****         5.1959  -1.4888  -1.0617 H              1 S1                 0.0000
     41 ****         4.9708  -4.5363   0.5870 H              1 S1                 0.0000
     42 ****         6.5934  -4.3745  -0.0330 H              1 S1                 0.0000
     43 ****         6.4961  -5.5241   1.9124 H              1 S1                 0.0000
     44 ****         7.7649  -2.3197  -0.0903 H              1 S1                 0.0000
     45 ****         7.1138  -0.8191   0.5060 H              1 S1                 0.0000
     46 ****         8.7724  -1.6144   1.8015 H              1 S1                 0.0000
     47 ****         5.3396  -1.5076   2.7647 H              1 S1                 0.0000
     48 ****         4.0960  -2.6919   2.2356 H              1 S1                 0.0000
     49 ****        -2.0058   2.5808  -1.4617 H              1 S1                 0.0000
     50 ****        -2.4458   0.8991  -1.7973 H              1 S1                 0.0000
     51 ****        -3.5144   2.7290   0.3764 H              1 S1                 0.0000
     52 ****        -4.6240   3.9278  -1.4686 H              1 S1                 0.0000
     53 ****        -3.9765   2.8277  -2.6648 H              1 S1                 0.0000
     54 ****        -6.0625   3.9226  -3.4751 H              1 S1                 0.0000
     55 ****        -6.2496   2.1799  -3.3966 H              1 S1                 0.0000
     56 ****        -8.1733   2.3861  -0.3088 H              1 S1                 0.0000
     57 ****        -7.5250   1.2481  -1.4768 H              1 S1                 0.0000
     58 ****        -6.1237   1.2840   0.5751 H              1 S1                 0.0000
     59 ****        -5.9060   3.0109   0.4409 H              1 S1                 0.0000
     60 ****        -0.3959   1.2833  -2.3834 LP             1 S1                 0.0000
     61 ****         3.3799  -0.1900  -1.7923 LP             1 S1                 0.0000
     62 ****         0.2065   0.1997   2.5208 LP             1 S1                 0.0000
     63 ****         5.7940  -4.3595   2.7372 LP             1 S1                 0.0000
     64 ****         7.3242  -4.1951   2.1913 LP             1 S1                 0.0000
     65 ****         8.0435  -2.9865   2.1411 LP             1 S1                 0.0000
     66 ****         7.4417  -1.5639   2.6708 LP             1 S1                 0.0000
     67 ****        -4.9278   1.0190  -1.4710 LP             1 S1                 0.0000
     68 ****        -8.0521   3.2783  -2.4542 LP             1 S1                 0.0000
     69 ****        -7.1012   4.1083  -1.4182 LP             1 S1                 0.0000
@<TRIPOS>BOND
    1    1    2 1     
    2    1   30 1     
    3    1   31 1     
    4    1   32 1     
    5    2   23 1     
    6    2    3 1     
    7    2   33 1     
    8    3    4 1     
    9    3   34 1     
   10    3   35 1     
   11    4    5 1     
   12    4   22 1     
   13    5   10 ar    
   14    5    6 ar    
   15    6    7 ar    
   16    7    8 ar    
   17    7   36 1     
   18    8    9 ar    
   19    9   13 1     
   20    9   10 ar    
   21   10   11 1     
   22   11   12 2     
   23   12   13 1     
   24   12   37 1     
   25   13   14 1     
   26   14   21 1     
   27   14   15 1     
   28   14   38 1     
   29   15   16 1     
   30   15   39 1     
   31   15   40 1     
   32   16   17 1     
   33   16   19 1     
   34   16   21 1     
   35   17   18 1     
   36   17   41 1     
   37   17   42 1     
   38   18   43 1     
   39   19   20 1     
   40   19   44 1     
   41   19   45 1     
   42   20   46 1     
   43   21   47 1     
   44   21   48 1     
   45   22   23 1     
   46   22   49 1     
   47   22   50 1     
   48   23   24 1     
   49   23   51 1     
   50   24   29 1     
   51   24   25 1     
   52   25   26 1     
   53   25   52 1     
   54   25   53 1     
   55   26   27 1     
   56   26   54 1     
   57   26   55 1     
   58   27   28 1     
   59   28   29 1     
   60   28   56 1     
   61   28   57 1     
   62   29   58 1     
   63   29   59 1     
   64    6   60 1     
   65    8   61 1     
   66   11   62 1     
   67   18   63 1     
   68   18   64 1     
   69   20   65 1     
   70   20   66 1     
   71   24   67 1     
   72   27   68 1     
   73   27   69 1     
@<TRIPOS>SUBSTRUCTURE
      1 S1             1
@<TRIPOS>SET
LONE_PAIRS      STATIC     ATOMS    <user>   **** ""
10 60 61 62 63 64 65 66 67 68 69
DONOR_HYDROGENS      STATIC     ATOMS    <user>   **** ""
2 43 46
ATOM$BLUE        STATIC     ATOMS    COLORGROUP SYSTEM
10 60 61 62 63 64 65 66 67 68 69
ATOM$RED        STATIC     ATOMS    COLORGROUP SYSTEM
2 43 46
