AV-unprocessed.smi:609|AV-procd|sdf|3046|dock5
  -GOLD-   2262023563D 1   1.00000     0.00000
 Structure written by MMmdl.
 43 45  0  0  0  0  0  0  0  0  2 V2000
  142.7158  145.5916  154.9794 C   0  0  0  0  0  0  0  0  0  0  0  0
  143.8357  144.5712  154.8777 C   0  0  0  0  0  0  0  0  0  0  0  0
  144.0195  143.6461  155.9301 C   0  0  0  0  0  0  0  0  0  0  0  0
  145.0477  142.6799  155.8740 C   0  0  0  0  0  0  0  0  0  0  0  0
  145.4073  141.6956  156.7785 N   0  0  0  0  0  0  0  0  0  0  0  0
  146.4395  141.1275  156.1615 C   0  0  0  0  0  0  0  0  0  0  0  0
  146.7944  141.6312  154.9640 N   0  0  0  0  0  0  0  0  0  0  0  0
  147.8868  141.1844  154.1185 C   0  0  0  0  0  0  0  0  0  0  0  0
  149.1396  140.7848  154.9236 C   0  0  1  0  0  0  0  0  0  0  0  0
  150.0985  140.2892  154.0118 O   0  0  0  0  0  0  0  0  0  0  0  0
  149.7545  141.9463  155.7278 C   0  0  0  0  0  0  0  0  0  0  0  0
  151.0494  141.3944  156.8730 S   0  0  0  0  0  0  0  0  0  0  0  0
  151.5052  142.8348  157.7891 C   0  0  0  0  0  0  0  0  0  0  0  0
  150.9605  144.0488  157.6601 N   0  3  0  0  0  0  0  0  0  0  0  0
  151.5577  144.9207  158.5306 C   0  0  0  0  0  0  0  0  0  0  0  0
  152.5054  144.2016  159.2156 C   0  0  0  0  0  0  0  0  0  0  0  0
  152.4494  142.9171  158.7368 N   0  0  0  0  0  0  0  0  0  0  0  0
  153.2679  141.7803  159.1607 C   0  0  0  0  0  0  0  0  0  0  0  0
  145.8933  142.6641  154.7267 C   0  0  0  0  0  0  0  0  0  0  0  0
  145.7202  143.5790  153.6728 C   0  0  0  0  0  0  0  0  0  0  0  0
  144.6888  144.5384  153.7455 C   0  0  0  0  0  0  0  0  0  0  0  0
  144.5094  145.5215  152.6024 C   0  0  0  0  0  0  0  0  0  0  0  0
  142.1404  145.4613  155.8964 H   0  0  0  0  0  0  0  0  0  0  0  0
  142.0292  145.4913  154.1384 H   0  0  0  0  0  0  0  0  0  0  0  0
  143.1199  146.6041  154.9786 H   0  0  0  0  0  0  0  0  0  0  0  0
  143.3699  143.6708  156.7926 H   0  0  0  0  0  0  0  0  0  0  0  0
  146.9723  140.3004  156.6076 H   0  0  0  0  0  0  0  0  0  0  0  0
  147.5353  140.3403  153.5233 H   0  0  0  0  0  0  0  0  0  0  0  0
  148.1254  141.9821  153.4138 H   0  0  0  0  0  0  0  0  0  0  0  0
  148.8782  139.9761  155.6074 H   0  0  0  0  0  0  0  0  0  0  0  0
  150.5028  139.5222  154.3882 H   0  0  0  0  0  0  0  0  0  0  0  0
  150.1705  142.6976  155.0555 H   0  0  0  0  0  0  0  0  0  0  0  0
  148.9880  142.4401  156.3247 H   0  0  0  0  0  0  0  0  0  0  0  0
  151.2716  145.9603  158.5959 H   0  0  0  0  0  0  0  0  0  0  0  0
  153.1971  144.5027  159.9891 H   0  0  0  0  0  0  0  0  0  0  0  0
  153.9497  142.0949  159.9512 H   0  0  0  0  0  0  0  0  0  0  0  0
  153.8440  141.4135  158.3107 H   0  0  0  0  0  0  0  0  0  0  0  0
  152.6188  140.9891  159.5369 H   0  0  0  0  0  0  0  0  0  0  0  0
  146.3765  143.5423  152.8160 H   0  0  0  0  0  0  0  0  0  0  0  0
  145.2534  145.3639  151.8210 H   0  0  0  0  0  0  0  0  0  0  0  0
  144.6106  146.5464  152.9595 H   0  0  0  0  0  0  0  0  0  0  0  0
  143.5231  145.4070  152.1522 H   0  0  0  0  0  0  0  0  0  0  0  0
  150.2173  144.2845  157.0150 H   0  0  0  0  0  0  0  0  0  0  0  0
  1  2  1  0  0  0  0
  1 23  1  0  0  0  0
  1 24  1  0  0  0  0
  1 25  1  0  0  0  0
  2 21  1  0  0  0  0
  2  3  2  0  0  0  0
  3  4  1  0  0  0  0
  3 26  1  0  0  0  0
  4 19  2  0  0  0  0
  4  5  1  0  0  0  0
  5  6  2  0  0  0  0
  6  7  1  0  0  0  0
  6 27  1  0  0  0  0
  7  8  1  0  0  0  0
  7 19  1  0  0  0  0
  8  9  1  0  0  0  0
  8 28  1  0  0  0  0
  8 29  1  0  0  0  0
  9 10  1  0  0  0  0
  9 11  1  0  0  0  0
  9 30  1  0  0  0  0
 10 31  1  0  0  0  0
 11 12  1  0  0  0  0
 11 32  1  0  0  0  0
 11 33  1  0  0  0  0
 12 13  1  0  0  0  0
 13 17  1  0  0  0  0
 13 14  2  0  0  0  0
 14 15  1  0  0  0  0
 14 43  1  0  0  0  0
 15 16  2  0  0  0  0
 15 34  1  0  0  0  0
 16 17  1  0  0  0  0
 16 35  1  0  0  0  0
 17 18  1  0  0  0  0
 18 36  1  0  0  0  0
 18 37  1  0  0  0  0
 18 38  1  0  0  0  0
 19 20  1  0  0  0  0
 20 21  2  0  0  0  0
 20 39  1  0  0  0  0
 21 22  1  0  0  0  0
 22 40  1  0  0  0  0
 22 41  1  0  0  0  0
 22 42  1  0  0  0  0
M  CHG  1  14   1
M  END
> <s_m_source_file>
AV-unprocessed.smi

> <i_m_source_file_index>
609

> <i_lp_mmshare_version>
43012

> <i_f3d_flags>
0

> <s_epik_input>
W0NIM11jKFtjSF0xKWMoW0NIM10pW2NIXWMoYzEyKW4oW2NIXW4yKVtDSDJdW0NASF0oW09IXSlbQ0gyXVNjM25bY0hdW2NIXW4zW0NIM10=

> <s_epik_cmdline>
J2VwaWtfcHl0aG9uJywgJy1waCcsICc3LjAnLCAnLXRuJywgJzgnLCAnLW1hJywgJzIwMCcsICctbWV0YWxfYmluZGluZycsICctaW1hZScsICc8aW5maWxlLm1hZT4nLCAnLW9tYWUnLCAnPG91dGZpbGUubWFlPic=

> <r_lp_tautomer_probability>
1

> <r_epik_Ionization_Penalty>
0.215713

> <r_epik_Ionization_Penalty_Charging>
0

> <r_epik_Ionization_Penalty_Neutral>
0.215713

> <r_epik_State_Penalty>
0.19579

> <r_epik_Charging_Adjusted_Penalty>
0.19579

> <i_epik_Tot_Q>
1

> <i_epik_Tot_abs_Q>
1

> <r_epik_Metal_State_Penalty>
0.429751

> <b_epik_Metal_Only>
0

> <s_lp_Force_Field>
OPLS_2005

> <r_lp_Energy>
9.84341

> <b_lp_Chiralities_Consistent>
1

> <s_lp_Variant>
AV-unprocessed.smi:609-2

> <Gold.Version>
5.8.1

> <Gold.Id.Protein>
6NUR|6NUR_protein|mol2

> <Gold.PLP.Fitness>
60.7669

> <Gold.PLP.PLP>
-52.6490

> <Gold.PLP.part.hbond>
-3.0000

> <Gold.PLP.part.metal>
0.0000

> <Gold.PLP.part.buried>
-3.4033

> <Gold.PLP.part.nonpolar>
-47.0422

> <Gold.PLP.part.repulsive>
0.0876

> <Gold.PLP.ligand.clash>
0.0000

> <Gold.PLP.ligand.torsion>
0.3678

> <Gold.PLP.Chemscore.Hbond>
2.9440

> <Gold.PLP.Chemscore.CHOScore>
0.0000

> <Gold.PLP.Chemscore.Metal>
0.0000

> <Gold.Chemscore.Hbonds>
donor molecule, donor type, donor heavy atom, donor atom, acceptor molecule, acceptor atom, score
      L1  H    14    43       P1  8028  2.00
      P1  H  7989  7998       L1    10  0.51

> <Gold.PLP.Chemscore.Internal.Correction>
0.0215

> <Gold.Rescore>
     Score         DG    S(hbond)    S(metal)    S(lipo)     H(rot)  DE(clash)    DE(int)     intcor
     16.08     -18.95       1.64        0.00     123.25       2.52       2.25       0.62       ----

> <Gold.Chemscore.Fitness>
16.0847

> <Gold.Chemscore.DG>
-18.9529

> <Gold.Chemscore.ZeroCoef>
-5.4800

> <Gold.Chemscore.Hbond>
1.6444

> <Gold.Chemscore.Metal>
0.0000

> <Gold.Chemscore.Lipo>
123.2467

> <Gold.Chemscore.Internal_Hbond>
0.0000

> <Gold.Chemscore.DEClash>
2.2518

> <Gold.Chemscore.DEInternal>
0.6164

> <Gold.Chemscore.Rot>
2.5153

> <Gold.Chemscore.Internal.Correction>
   9.000000E+99

> <Gold.Chemscore.Hbonds>
donor molecule, donor type, donor heavy atom, donor atom, acceptor molecule, acceptor atom, score
      L1  H    14    43       P1  8028  0.88
      P1  H  7989  7998       L1    10  0.04

> <Gold.Chemscore.Hbond.Weighted>
-5.4922

> <Gold.Chemscore.Metal.Weighted>
-0.0000

> <Gold.Chemscore.Lipo.Weighted>
-14.4199

> <Gold.Chemscore.Internal_Hbond.Weighted>
0.0000

> <Gold.Chemscore.DEClash.Weighted>
2.2518

> <Gold.Chemscore.DEInternal.Weighted>
0.6164

> <Gold.Chemscore.Rot.Weighted>
6.4391

> <Gold.Chemscore.Internal.Correction.Weighted>
   9.000000E+99

> <Gold.Protein.RotatedTorsions>
[ 6907 6896 6895 6894 ] final  -21.58 input  -60.11 | X-H torsion
[ 7974 7965 7964 7962 ] final   57.03 input  175.53 | X-H torsion
[ 8008 7997 7996 7995 ] final  178.58 input   59.86 | X-H torsion
[ 10167 10162 10161 10158 ] final  -65.85 input  -65.29 | X-H torsion
[ 10718 10713 10712 10709 ] final  -14.87 input   66.30 | X-H torsion
[ 10763 10752 10751 10750 ] final   87.74 input  -60.55 | X-H torsion
[ 11005 11000 10999 10996 ] final -129.42 input  -57.11 | X-H torsion

> <Gold.Protein.ActiveResidues>
 VAL166  LYS551  ARG553  GLY616  TRP617  ASP618  TYR619  PRO620  LYS621  CYS622 
 ASP623  PHE694  ASN695  SER759  ASP760  ASP761  ALA762  ILE779  LEU786  VAL792 
 PHE793  MET794  SER795  GLU796  ALA797  LYS798  CYS799  TRP800  GLU811  SER814 

> <Gold.Protein.RotatedAtoms>
  151.2312  135.0555  159.8987 H   0  0  0  0  0  0  0  0  0  0  0  0  # atno 6907 bound_to 6896
  152.5404  134.0535  159.8131 H   0  0  0  0  0  0  0  0  0  0  0  0  # atno 6908 bound_to 6896
  151.0715  133.5413  159.2658 H   0  0  0  0  0  0  0  0  0  0  0  0  # atno 6909 bound_to 6896
  145.9334  139.3827  143.0407 H   0  0  0  0  0  0  0  0  0  0  0  0  # atno 7974 bound_to 7965
  156.0530  140.1330  157.0028 H   0  0  0  0  0  0  0  0  0  0  0  0  # atno 8008 bound_to 7997
  154.4444  140.1007  156.6475 H   0  0  0  0  0  0  0  0  0  0  0  0  # atno 8009 bound_to 7997
  155.5494  140.3462  155.4467 H   0  0  0  0  0  0  0  0  0  0  0  0  # atno 8010 bound_to 7997
  140.5700  143.2317  151.6558 H   0  0  0  0  0  0  0  0  0  0  0  0  # atno 10167 bound_to 10162
  156.6097  130.4846  149.6206 H   0  0  0  0  0  0  0  0  0  0  0  0  # atno 10718 bound_to 10713
  153.1699  135.4532  154.9887 H   0  0  0  0  0  0  0  0  0  0  0  0  # atno 10763 bound_to 10752
  154.7958  135.3237  154.7672 H   0  0  0  0  0  0  0  0  0  0  0  0  # atno 10764 bound_to 10752
  153.8150  135.6951  153.4890 H   0  0  0  0  0  0  0  0  0  0  0  0  # atno 10765 bound_to 10752
  140.9433  134.1164  157.4131 H   0  0  0  0  0  0  0  0  0  0  0  0  # atno 11005 bound_to 11000
  145.8396  140.9588  143.0806 LP  0  0  0  0  0  0  0  0  0  0  0  0  # atno 17320 bound_to 7965
  144.6768  140.0267  143.7483 LP  0  0  0  0  0  0  0  0  0  0  0  0  # atno 17321 bound_to 7965
  139.5112  144.3516  152.0647 LP  0  0  0  0  0  0  0  0  0  0  0  0  # atno 17342 bound_to 10162
  140.2652  144.4024  150.6171 LP  0  0  0  0  0  0  0  0  0  0  0  0  # atno 17343 bound_to 10162
  156.2400  130.6845  151.1546 LP  0  0  0  0  0  0  0  0  0  0  0  0  # atno 17370 bound_to 10713
  157.7257  131.0651  150.5940 LP  0  0  0  0  0  0  0  0  0  0  0  0  # atno 17371 bound_to 10713
  139.8826  135.0043  156.6242 LP  0  0  0  0  0  0  0  0  0  0  0  0  # atno 17394 bound_to 11000
  140.7704  133.8743  155.8487 LP  0  0  0  0  0  0  0  0  0  0  0  0  # atno 17395 bound_to 11000

$$$$
