AV-unprocessed.smi:2337|AV-procd|sdf|9333|dock10
  -GOLD-   2272012553D 1   1.00000     0.00000
 Structure written by MMmdl.
 45 46  0  0  0  0  0  0  0  0  1 V2000
  154.2811  133.6304  164.5944 C   0  0  0  0  0  0  0  0  0  0  0  0
  154.4529  134.1645  163.2882 O   0  0  0  0  0  0  0  0  0  0  0  0
  154.6300  135.5794  163.2096 C   0  0  0  0  0  0  0  0  0  0  0  0
  154.7783  136.0576  161.7585 C   0  0  0  0  0  0  0  0  0  0  0  0
  154.8581  137.5111  161.7007 N   0  0  0  0  0  0  0  0  0  0  0  0
  154.0277  138.2895  160.9956 C   0  0  0  0  0  0  0  0  0  0  0  0
  153.1036  137.8491  160.3113 O   0  0  0  0  0  0  0  0  0  0  0  0
  154.3371  139.5893  161.1427 N   0  0  0  0  0  0  0  0  0  0  0  0
  153.7116  140.7111  160.5381 C   0  0  0  0  0  0  0  0  0  0  0  0
  152.3968  140.4956  160.0789 C   0  0  0  0  0  0  0  0  0  0  0  0
  151.7145  141.5640  159.4733 C   0  0  0  0  0  0  0  0  0  0  0  0
  152.3922  142.7991  159.3624 C   0  0  0  0  0  0  0  0  0  0  0  0
  151.7614  144.0524  158.7290 C   0  0  0  0  0  0  0  0  0  0  0  0
  152.5348  144.4375  157.4506 C   0  0  0  0  0  0  0  0  0  0  0  0
  151.8009  145.2199  159.7366 C   0  0  0  0  0  0  0  0  0  0  0  0
  150.2849  143.8325  158.3289 C   0  0  0  0  0  0  0  0  0  0  0  0
  153.6579  142.9454  159.8250 N   0  0  0  0  0  0  0  0  0  0  0  0
  154.3020  141.9245  160.3982 N   0  0  0  0  0  0  0  0  0  0  0  0
  153.5416  136.2443  164.0736 C   0  0  0  0  0  0  0  0  0  0  0  0
  154.6220  137.1475  164.6714 C   0  0  0  0  0  0  0  0  0  0  0  0
  155.6384  136.0799  164.2634 C   0  0  0  0  0  0  0  0  0  0  0  0
  154.0579  132.5664  164.5185 H   0  0  0  0  0  0  0  0  0  0  0  0
  153.4542  134.1042  165.1237 H   0  0  0  0  0  0  0  0  0  0  0  0
  155.1848  133.7295  165.1950 H   0  0  0  0  0  0  0  0  0  0  0  0
  155.6805  135.6333  161.3151 H   0  0  0  0  0  0  0  0  0  0  0  0
  153.9499  135.7137  161.1390 H   0  0  0  0  0  0  0  0  0  0  0  0
  155.5908  137.9485  162.2405 H   0  0  0  0  0  0  0  0  0  0  0  0
  155.1128  139.8002  161.7527 H   0  0  0  0  0  0  0  0  0  0  0  0
  151.9174  139.5335  160.1869 H   0  0  0  0  0  0  0  0  0  0  0  0
  150.7072  141.4151  159.1172 H   0  0  0  0  0  0  0  0  0  0  0  0
  152.0978  145.3136  156.9702 H   0  0  0  0  0  0  0  0  0  0  0  0
  152.5257  143.6247  156.7234 H   0  0  0  0  0  0  0  0  0  0  0  0
  153.5776  144.6761  157.6631 H   0  0  0  0  0  0  0  0  0  0  0  0
  152.8228  145.4813  160.0137 H   0  0  0  0  0  0  0  0  0  0  0  0
  151.2664  144.9682  160.6534 H   0  0  0  0  0  0  0  0  0  0  0  0
  151.3411  146.1181  159.3235 H   0  0  0  0  0  0  0  0  0  0  0  0
  149.8586  144.7312  157.8814 H   0  0  0  0  0  0  0  0  0  0  0  0
  149.6658  143.5836  159.1917 H   0  0  0  0  0  0  0  0  0  0  0  0
  150.1807  143.0317  157.5957 H   0  0  0  0  0  0  0  0  0  0  0  0
  152.7698  136.7752  163.5154 H   0  0  0  0  0  0  0  0  0  0  0  0
  153.1058  135.5696  164.8128 H   0  0  0  0  0  0  0  0  0  0  0  0
  154.7451  138.0830  164.1234 H   0  0  0  0  0  0  0  0  0  0  0  0
  154.5379  137.3131  165.7458 H   0  0  0  0  0  0  0  0  0  0  0  0
  155.8247  135.3598  165.0622 H   0  0  0  0  0  0  0  0  0  0  0  0
  156.5693  136.4746  163.8550 H   0  0  0  0  0  0  0  0  0  0  0  0
  1  2  1  0  0  0  0
  1 22  1  0  0  0  0
  1 23  1  0  0  0  0
  1 24  1  0  0  0  0
  2  3  1  0  0  0  0
  3 21  1  0  0  0  0
  3  4  1  0  0  0  0
  3 19  1  0  0  0  0
  4  5  1  0  0  0  0
  4 25  1  0  0  0  0
  4 26  1  0  0  0  0
  5  6  1  0  0  0  0
  5 27  1  0  0  0  0
  6  7  2  0  0  0  0
  6  8  1  0  0  0  0
  8  9  1  0  0  0  0
  8 28  1  0  0  0  0
  9 18  1  0  0  0  0
  9 10  2  0  0  0  0
 10 11  1  0  0  0  0
 10 29  1  0  0  0  0
 11 12  2  0  0  0  0
 11 30  1  0  0  0  0
 12 13  1  0  0  0  0
 12 17  1  0  0  0  0
 13 14  1  0  0  0  0
 13 15  1  0  0  0  0
 13 16  1  0  0  0  0
 14 31  1  0  0  0  0
 14 32  1  0  0  0  0
 14 33  1  0  0  0  0
 15 34  1  0  0  0  0
 15 35  1  0  0  0  0
 15 36  1  0  0  0  0
 16 37  1  0  0  0  0
 16 38  1  0  0  0  0
 16 39  1  0  0  0  0
 17 18  2  0  0  0  0
 19 20  1  0  0  0  0
 19 40  1  0  0  0  0
 19 41  1  0  0  0  0
 20 21  1  0  0  0  0
 20 42  1  0  0  0  0
 20 43  1  0  0  0  0
 21 44  1  0  0  0  0
 21 45  1  0  0  0  0
M  END
> <s_m_source_file>
AV-unprocessed.smi

> <i_m_source_file_index>
2337

> <i_lp_mmshare_version>
43012

> <i_f3d_flags>
0

> <s_epik_input>
W0NIMl0xW0NIMl1bQ0gyXUMxKE9bQ0gzXSlbQ0gyXVtOSF1DKD1PKVtOSF1jMltjSF1bY0hdYyhubjIpQyhbQ0gzXSkoW0NIM10pW0NIM10=

> <s_epik_cmdline>
J2VwaWtfcHl0aG9uJywgJy1waCcsICc3LjAnLCAnLXRuJywgJzgnLCAnLW1hJywgJzIwMCcsICctbWV0YWxfYmluZGluZycsICctaW1hZScsICc8aW5maWxlLm1hZT4nLCAnLW9tYWUnLCAnPG91dGZpbGUubWFlPic=

> <r_lp_tautomer_probability>
1

> <r_epik_Ionization_Penalty>
0.00977348

> <r_epik_Ionization_Penalty_Charging>
0

> <r_epik_Ionization_Penalty_Neutral>
0.00977348

> <r_epik_State_Penalty>
-0

> <r_epik_Charging_Adjusted_Penalty>
0

> <i_epik_Tot_Q>
0

> <i_epik_Tot_abs_Q>
0

> <r_epik_Metal_State_Penalty>
-0

> <b_epik_Metal_Only>
0

> <s_lp_Force_Field>
OPLS_2005

> <r_lp_Energy>
23.2497

> <b_lp_Chiralities_Consistent>
1

> <s_lp_Variant>
AV-unprocessed.smi:2337-1

> <Gold.Version>
5.8.1

> <Gold.Id.Protein>
6NUR|6NUR_protein|mol2

> <Gold.PLP.Fitness>
37.4320

> <Gold.PLP.PLP>
-37.7666

> <Gold.PLP.part.hbond>
-0.1966

> <Gold.PLP.part.metal>
0.0000

> <Gold.PLP.part.buried>
-3.6008

> <Gold.PLP.part.nonpolar>
-34.0781

> <Gold.PLP.part.repulsive>
0.0250

> <Gold.PLP.ligand.clash>
0.0321

> <Gold.PLP.ligand.torsion>
0.2911

> <Gold.PLP.Chemscore.Hbond>
0.0000

> <Gold.PLP.Chemscore.CHOScore>
0.0000

> <Gold.PLP.Chemscore.Metal>
0.0000

> <Gold.PLP.Chemscore.Internal.Correction>
0.2798

> <Gold.Rescore>
     Score         DG    S(hbond)    S(metal)    S(lipo)     H(rot)  DE(clash)    DE(int)     intcor
     11.78     -15.19       0.00        0.00     117.12       1.56       0.67       2.75       ----

> <Gold.Chemscore.Fitness>
11.7763

> <Gold.Chemscore.DG>
-15.1895

> <Gold.Chemscore.ZeroCoef>
-5.4800

> <Gold.Chemscore.Hbond>
0.0000

> <Gold.Chemscore.Metal>
0.0000

> <Gold.Chemscore.Lipo>
117.1186

> <Gold.Chemscore.Internal_Hbond>
0.0000

> <Gold.Chemscore.DEClash>
0.6662

> <Gold.Chemscore.DEInternal>
2.7470

> <Gold.Chemscore.Rot>
1.5599

> <Gold.Chemscore.Internal.Correction>
   9.000000E+99

> <Gold.Chemscore.Hbond.Weighted>
-0.0000

> <Gold.Chemscore.Metal.Weighted>
-0.0000

> <Gold.Chemscore.Lipo.Weighted>
-13.7029

> <Gold.Chemscore.Internal_Hbond.Weighted>
0.0000

> <Gold.Chemscore.DEClash.Weighted>
0.6662

> <Gold.Chemscore.DEInternal.Weighted>
2.7470

> <Gold.Chemscore.Rot.Weighted>
3.9933

> <Gold.Chemscore.Internal.Correction.Weighted>
   9.000000E+99

> <Gold.Protein.RotatedTorsions>
[ 6907 6896 6895 6894 ] final  126.10 input  -60.11 | X-H torsion
[ 7974 7965 7964 7962 ] final  -46.46 input  175.53 | X-H torsion
[ 8008 7997 7996 7995 ] final -121.57 input   59.86 | X-H torsion
[ 10167 10162 10161 10158 ] final  -19.02 input  -65.29 | X-H torsion
[ 10718 10713 10712 10709 ] final  131.01 input   66.30 | X-H torsion
[ 10763 10752 10751 10750 ] final -159.30 input  -60.55 | X-H torsion
[ 11005 11000 10999 10996 ] final  -61.02 input  -57.11 | X-H torsion

> <Gold.Protein.ActiveResidues>
 VAL166  LYS551  ARG553  GLY616  TRP617  ASP618  TYR619  PRO620  LYS621  CYS622 
 ASP623  PHE694  ASN695  SER759  ASP760  ASP761  ALA762  ILE779  LEU786  VAL792 
 PHE793  MET794  SER795  GLU796  ALA797  LYS798  CYS799  TRP800  GLU811  SER814 

> <Gold.Protein.RotatedAtoms>
  152.3933  133.6710  159.6255 H   0  0  0  0  0  0  0  0  0  0  0  0  # atno 6907 bound_to 6896
  150.7837  133.8917  159.3324 H   0  0  0  0  0  0  0  0  0  0  0  0  # atno 6908 bound_to 6896
  151.6699  135.0979  160.0247 H   0  0  0  0  0  0  0  0  0  0  0  0  # atno 6909 bound_to 6896
  145.9717  140.7376  142.9407 H   0  0  0  0  0  0  0  0  0  0  0  0  # atno 7974 bound_to 7965
  155.1501  140.0403  157.2819 H   0  0  0  0  0  0  0  0  0  0  0  0  # atno 8008 bound_to 7997
  154.6410  140.2547  155.7295 H   0  0  0  0  0  0  0  0  0  0  0  0  # atno 8009 bound_to 7997
  156.2532  140.2855  156.0804 H   0  0  0  0  0  0  0  0  0  0  0  0  # atno 8010 bound_to 7997
  140.7264  143.4859  151.0056 H   0  0  0  0  0  0  0  0  0  0  0  0  # atno 10167 bound_to 10162
  157.5008  131.1094  150.9429 H   0  0  0  0  0  0  0  0  0  0  0  0  # atno 10718 bound_to 10713
  154.7486  135.3086  154.8600 H   0  0  0  0  0  0  0  0  0  0  0  0  # atno 10763 bound_to 10752
  153.9394  135.6776  153.4748 H   0  0  0  0  0  0  0  0  0  0  0  0  # atno 10764 bound_to 10752
  153.1082  135.4879  154.8915 H   0  0  0  0  0  0  0  0  0  0  0  0  # atno 10765 bound_to 10752
  141.1309  133.6626  156.5311 H   0  0  0  0  0  0  0  0  0  0  0  0  # atno 11005 bound_to 11000
  144.6838  140.2759  143.7299 LP  0  0  0  0  0  0  0  0  0  0  0  0  # atno 17320 bound_to 7965
  145.7897  139.1922  143.2110 LP  0  0  0  0  0  0  0  0  0  0  0  0  # atno 17321 bound_to 7965
  139.8560  143.7376  152.3176 LP  0  0  0  0  0  0  0  0  0  0  0  0  # atno 17342 bound_to 10162
  139.7575  144.7516  151.0414 LP  0  0  0  0  0  0  0  0  0  0  0  0  # atno 17343 bound_to 10162
  157.0101  130.5633  149.5320 LP  0  0  0  0  0  0  0  0  0  0  0  0  # atno 17370 bound_to 10713
  156.0228  130.5322  150.8323 LP  0  0  0  0  0  0  0  0  0  0  0  0  # atno 17371 bound_to 10713
  140.4215  134.7183  157.4892 LP  0  0  0  0  0  0  0  0  0  0  0  0  # atno 17394 bound_to 11000
  140.0357  134.6341  155.9047 LP  0  0  0  0  0  0  0  0  0  0  0  0  # atno 17395 bound_to 11000

$$$$
