AV-unprocessed.smi:120|AV-procd|sdf|1137|dock10
  -GOLD-   2262018263D 1   1.00000     0.00000
 Structure written by MMmdl.
 45 48  0  0  0  0  0  0  0  0  1 V2000
  151.8191  145.3402  159.0323 C   0  0  0  0  0  0  0  0  0  0  0  0
  152.1934  144.6792  160.2325 O   0  0  0  0  0  0  0  0  0  0  0  0
  152.5505  143.3496  160.1587 C   0  0  0  0  0  0  0  0  0  0  0  0
  153.1655  142.7886  161.2944 C   0  0  0  0  0  0  0  0  0  0  0  0
  153.5544  141.4377  161.3018 C   0  0  0  0  0  0  0  0  0  0  0  0
  153.3310  140.6343  160.1692 C   0  0  0  0  0  0  0  0  0  0  0  0
  152.7196  141.1663  159.0106 C   0  0  0  0  0  0  0  0  0  0  0  0
  152.4852  140.3247  157.8170 C   0  0  0  0  0  0  0  0  0  0  0  0
  153.1998  139.2322  157.5785 N   0  0  0  0  0  0  0  0  0  0  0  0
  152.6438  138.7516  156.3831 O   0  0  0  0  0  0  0  0  0  0  0  0
  151.6589  139.6236  156.0499 C   0  0  0  0  0  0  0  0  0  0  0  0
  150.8698  139.3703  154.8001 C   0  0  0  0  0  0  0  0  0  0  0  0
  149.9302  138.2755  154.9857 N   0  0  0  0  0  0  0  0  0  0  0  0
  148.5590  138.6063  155.1136 C   0  0  0  0  0  0  0  0  0  0  0  0
  148.1649  139.7737  155.1038 O   0  0  0  0  0  0  0  0  0  0  0  0
  147.6677  137.4581  155.2377 C   0  0  0  0  0  0  0  0  0  0  0  0
  146.3442  137.6548  155.3615 F   0  0  0  0  0  0  0  0  0  0  0  0
  148.1490  136.1964  155.2216 C   0  0  0  0  0  0  0  0  0  0  0  0
  149.4964  135.9031  155.0916 N   0  0  0  0  0  0  0  0  0  0  0  0
  149.9917  134.4742  155.0503 C   0  0  2  0  0  0  0  0  0  0  0  0
  149.3138  133.7124  153.9054 C   0  0  0  0  0  0  0  0  0  0  0  0
  148.1454  133.0626  154.6136 C   0  0  0  0  0  0  0  0  0  0  0  0
  148.7471  132.7593  155.9807 C   0  0  0  0  0  0  0  0  0  0  0  0
  149.6453  133.8341  156.2450 O   0  0  0  0  0  0  0  0  0  0  0  0
  150.4315  136.9521  154.9545 C   0  0  0  0  0  0  0  0  0  0  0  0
  151.6305  136.7114  154.7953 O   0  0  0  0  0  0  0  0  0  0  0  0
  151.5188  140.6319  156.9102 N   0  0  0  0  0  0  0  0  0  0  0  0
  152.3358  142.5288  159.0229 C   0  0  0  0  0  0  0  0  0  0  0  0
  151.5515  146.3722  159.2585 H   0  0  0  0  0  0  0  0  0  0  0  0
  150.9501  144.8682  158.5716 H   0  0  0  0  0  0  0  0  0  0  0  0
  152.6410  145.3625  158.3154 H   0  0  0  0  0  0  0  0  0  0  0  0
  153.3390  143.3991  162.1684 H   0  0  0  0  0  0  0  0  0  0  0  0
  154.0252  141.0165  162.1780 H   0  0  0  0  0  0  0  0  0  0  0  0
  153.6411  139.6000  160.1969 H   0  0  0  0  0  0  0  0  0  0  0  0
  150.3258  140.2658  154.4982 H   0  0  0  0  0  0  0  0  0  0  0  0
  151.5247  139.1158  153.9649 H   0  0  0  0  0  0  0  0  0  0  0  0
  147.4372  135.3889  155.3075 H   0  0  0  0  0  0  0  0  0  0  0  0
  151.0782  134.5305  154.9651 H   0  0  0  0  0  0  0  0  0  0  0  0
  149.0276  134.3654  153.0798 H   0  0  0  0  0  0  0  0  0  0  0  0
  150.0048  132.9547  153.5339 H   0  0  0  0  0  0  0  0  0  0  0  0
  147.3214  133.7707  154.7102 H   0  0  0  0  0  0  0  0  0  0  0  0
  147.7751  132.1731  154.1035 H   0  0  0  0  0  0  0  0  0  0  0  0
  147.9919  132.6664  156.7615 H   0  0  0  0  0  0  0  0  0  0  0  0
  149.3164  131.8294  155.9456 H   0  0  0  0  0  0  0  0  0  0  0  0
  151.8647  142.9350  158.1411 H   0  0  0  0  0  0  0  0  0  0  0  0
  1  2  1  0  0  0  0
  1 29  1  0  0  0  0
  1 30  1  0  0  0  0
  1 31  1  0  0  0  0
  2  3  1  0  0  0  0
  3 28  1  0  0  0  0
  3  4  2  0  0  0  0
  4  5  1  0  0  0  0
  4 32  1  0  0  0  0
  5  6  2  0  0  0  0
  5 33  1  0  0  0  0
  6  7  1  0  0  0  0
  6 34  1  0  0  0  0
  7  8  1  0  0  0  0
  7 28  2  0  0  0  0
  8 27  1  0  0  0  0
  8  9  2  0  0  0  0
  9 10  1  0  0  0  0
 10 11  1  0  0  0  0
 11 12  1  0  0  0  0
 11 27  2  0  0  0  0
 12 13  1  0  0  0  0
 12 35  1  0  0  0  0
 12 36  1  0  0  0  0
 13 25  1  0  0  0  0
 13 14  1  0  0  0  0
 14 15  2  0  0  0  0
 14 16  1  0  0  0  0
 16 17  1  0  0  0  0
 16 18  2  0  0  0  0
 18 19  1  0  0  0  0
 18 37  1  0  0  0  0
 19 20  1  0  0  0  0
 19 25  1  0  0  0  0
 20 24  1  0  0  0  0
 20 21  1  0  0  0  0
 20 38  1  0  0  0  0
 21 22  1  0  0  0  0
 21 39  1  0  0  0  0
 21 40  1  0  0  0  0
 22 23  1  0  0  0  0
 22 41  1  0  0  0  0
 22 42  1  0  0  0  0
 23 24  1  0  0  0  0
 23 43  1  0  0  0  0
 23 44  1  0  0  0  0
 25 26  2  0  0  0  0
 28 45  1  0  0  0  0
M  END
> <s_m_source_file>
AV-unprocessed.smi

> <i_m_source_file_index>
120

> <i_lp_mmshare_version>
43012

> <i_f3d_flags>
0

> <s_epik_input>
W0NIM11PYzFbY0hdW2NIXVtjSF1jKFtjSF0xKS1jMm5vYyhuMilbQ0gyXW4zYyg9TyljKEYpW2NIXW4oYzM9TylbQ0BASF00W0NIMl1bQ0gyXVtDSDJdTzQ=

> <s_epik_cmdline>
J2VwaWtfcHl0aG9uJywgJy1waCcsICc3LjAnLCAnLXRuJywgJzgnLCAnLW1hJywgJzIwMCcsICctbWV0YWxfYmluZGluZycsICctaW1hZScsICc8aW5maWxlLm1hZT4nLCAnLW9tYWUnLCAnPG91dGZpbGUubWFlPic=

> <r_lp_tautomer_probability>
1

> <r_epik_Ionization_Penalty>
4.93314e-09

> <r_epik_Ionization_Penalty_Charging>
4.92654e-09

> <r_epik_Ionization_Penalty_Neutral>
6.60436e-12

> <r_epik_State_Penalty>
-0

> <r_epik_Charging_Adjusted_Penalty>
4.92654e-09

> <i_epik_Tot_Q>
0

> <i_epik_Tot_abs_Q>
0

> <r_epik_Metal_State_Penalty>
-0

> <b_epik_Metal_Only>
0

> <s_epik_Chemistry_Notes>
This compound contains an acetal/aminal-like group ( X-CH(R)-Y where X, Y are N, S, or O) that may be acid/base labile, releasing an aldehyde.

> <s_lp_Force_Field>
OPLS_2005

> <r_lp_Energy>
37.1389

> <b_lp_Chiralities_Consistent>
1

> <s_lp_Variant>
AV-unprocessed.smi:120-1

> <Gold.Version>
5.8.1

> <Gold.Id.Protein>
6NUR|6NUR_protein|mol2

> <Gold.PLP.Fitness>
51.1484

> <Gold.PLP.PLP>
-46.6303

> <Gold.PLP.part.hbond>
-2.9016

> <Gold.PLP.part.metal>
0.0000

> <Gold.PLP.part.buried>
-5.2569

> <Gold.PLP.part.nonpolar>
-37.9456

> <Gold.PLP.part.repulsive>
0.2767

> <Gold.PLP.ligand.clash>
0.0000

> <Gold.PLP.ligand.torsion>
0.7568

> <Gold.PLP.Chemscore.Hbond>
2.0000

> <Gold.PLP.Chemscore.CHOScore>
0.0000

> <Gold.PLP.Chemscore.Metal>
0.0000

> <Gold.Chemscore.Hbonds>
donor molecule, donor type, donor heavy atom, donor atom, acceptor molecule, acceptor atom, score
      P1  H  7997  8008       L1     9  0.85
      P1  H 10752 10763       L1    26  1.00

> <Gold.PLP.Chemscore.Internal.Correction>
0.0316

> <Gold.Rescore>
     Score         DG    S(hbond)    S(metal)    S(lipo)     H(rot)  DE(clash)    DE(int)     intcor
     15.31     -17.75       1.74        0.00      98.66       1.99       0.07       2.37       ----

> <Gold.Chemscore.Fitness>
15.3108

> <Gold.Chemscore.DG>
-17.7481

> <Gold.Chemscore.ZeroCoef>
-5.4800

> <Gold.Chemscore.Hbond>
1.7405

> <Gold.Chemscore.Metal>
0.0000

> <Gold.Chemscore.Lipo>
98.6638

> <Gold.Chemscore.Internal_Hbond>
0.0000

> <Gold.Chemscore.DEClash>
0.0687

> <Gold.Chemscore.DEInternal>
2.3686

> <Gold.Chemscore.Rot>
1.9879

> <Gold.Chemscore.Internal.Correction>
   9.000000E+99

> <Gold.Chemscore.Hbonds>
donor molecule, donor type, donor heavy atom, donor atom, acceptor molecule, acceptor atom, score
      P1  H  7997  8008       L1     9  0.06
      P1  H 10752 10763       L1    26  1.00

> <Gold.Chemscore.Hbond.Weighted>
-5.8134

> <Gold.Chemscore.Metal.Weighted>
-0.0000

> <Gold.Chemscore.Lipo.Weighted>
-11.5437

> <Gold.Chemscore.Internal_Hbond.Weighted>
0.0000

> <Gold.Chemscore.DEClash.Weighted>
0.0687

> <Gold.Chemscore.DEInternal.Weighted>
2.3686

> <Gold.Chemscore.Rot.Weighted>
5.0890

> <Gold.Chemscore.Internal.Correction.Weighted>
   9.000000E+99

> <Gold.Protein.RotatedTorsions>
[ 6907 6896 6895 6894 ] final   10.67 input  -60.11 | X-H torsion
[ 7974 7965 7964 7962 ] final    4.05 input  175.53 | X-H torsion
[ 8008 7997 7996 7995 ] final  -90.96 input   59.86 | X-H torsion
[ 10167 10162 10161 10158 ] final  -77.44 input  -65.29 | X-H torsion
[ 10718 10713 10712 10709 ] final  115.01 input   66.30 | X-H torsion
[ 10763 10752 10751 10750 ] final   51.63 input  -60.55 | X-H torsion
[ 11005 11000 10999 10996 ] final    3.25 input  -57.11 | X-H torsion

> <Gold.Protein.ActiveResidues>
 VAL166  LYS551  ARG553  GLY616  TRP617  ASP618  TYR619  PRO620  LYS621  CYS622 
 ASP623  PHE694  ASN695  SER759  ASP760  ASP761  ALA762  ILE779  LEU786  VAL792 
 PHE793  MET794  SER795  GLU796  ALA797  LYS798  CYS799  TRP800  GLU811  SER814 

> <Gold.Protein.RotatedAtoms>
  151.7421  135.0852  160.0317 H   0  0  0  0  0  0  0  0  0  0  0  0  # atno 6907 bound_to 6896
  152.3473  133.6133  159.5927 H   0  0  0  0  0  0  0  0  0  0  0  0  # atno 6908 bound_to 6896
  150.7517  133.9546  159.3538 H   0  0  0  0  0  0  0  0  0  0  0  0  # atno 6909 bound_to 6896
  146.2444  140.0593  142.8369 H   0  0  0  0  0  0  0  0  0  0  0  0  # atno 7974 bound_to 7965
  154.7049  140.0524  157.0494 H   0  0  0  0  0  0  0  0  0  0  0  0  # atno 8008 bound_to 7997
  155.0634  140.3192  155.4634 H   0  0  0  0  0  0  0  0  0  0  0  0  # atno 8009 bound_to 7997
  156.2771  140.2095  156.5761 H   0  0  0  0  0  0  0  0  0  0  0  0  # atno 8010 bound_to 7997
  140.4770  143.2412  151.8117 H   0  0  0  0  0  0  0  0  0  0  0  0  # atno 10167 bound_to 10162
  157.6247  131.1006  150.7269 H   0  0  0  0  0  0  0  0  0  0  0  0  # atno 10718 bound_to 10713
  152.9786  135.5839  154.4447 H   0  0  0  0  0  0  0  0  0  0  0  0  # atno 10763 bound_to 10752
  154.4043  135.2769  155.2079 H   0  0  0  0  0  0  0  0  0  0  0  0  # atno 10764 bound_to 10752
  154.3896  135.6128  153.5890 H   0  0  0  0  0  0  0  0  0  0  0  0  # atno 10765 bound_to 10752
  140.5952  133.9887  155.8106 H   0  0  0  0  0  0  0  0  0  0  0  0  # atno 11005 bound_to 11000
  145.0914  140.9287  143.4767 LP  0  0  0  0  0  0  0  0  0  0  0  0  # atno 17320 bound_to 7965
  145.0767  139.2990  143.5804 LP  0  0  0  0  0  0  0  0  0  0  0  0  # atno 17321 bound_to 7965
  139.4827  144.4820  151.9294 LP  0  0  0  0  0  0  0  0  0  0  0  0  # atno 17342 bound_to 10162
  140.3906  144.2621  150.5900 LP  0  0  0  0  0  0  0  0  0  0  0  0  # atno 17343 bound_to 10162
  156.7619  130.4801  149.5435 LP  0  0  0  0  0  0  0  0  0  0  0  0  # atno 17370 bound_to 10713
  156.1412  130.6246  151.0470 LP  0  0  0  0  0  0  0  0  0  0  0  0  # atno 17371 bound_to 10713
  141.0909  133.9918  157.3239 LP  0  0  0  0  0  0  0  0  0  0  0  0  # atno 17394 bound_to 11000
  139.9257  135.0201  156.8224 LP  0  0  0  0  0  0  0  0  0  0  0  0  # atno 17395 bound_to 11000

$$$$
