AV-unprocessed.smi:2871|AV-procd|sdf|11031|dock4
  -GOLD-   2272015493D 1   1.00000     0.00000
 Structure written by MMmdl.
 38 40  0  0  0  0  0  0  0  0  1 V2000
  152.2326  144.4962  158.4255 C   0  0  0  0  0  0  0  0  0  0  0  0
  152.3499  143.7536  159.6762 N   0  0  0  0  0  0  0  0  0  0  0  0
  152.0683  144.4090  160.9471 C   0  0  0  0  0  0  0  0  0  0  0  0
  152.7357  142.3954  159.6500 C   0  0  0  0  0  0  0  0  0  0  0  0
  153.6110  141.8433  160.6170 C   0  0  0  0  0  0  0  0  0  0  0  0
  153.9240  140.4712  160.4899 C   0  0  0  0  0  0  0  0  0  0  0  0
  154.8537  139.7606  161.4621 C   0  0  0  0  0  0  0  0  0  0  0  0
  156.0031  139.4709  160.8520 F   0  0  0  0  0  0  0  0  0  0  0  0
  155.1199  140.5151  162.5289 F   0  0  0  0  0  0  0  0  0  0  0  0
  154.2896  138.6265  161.8781 F   0  0  0  0  0  0  0  0  0  0  0  0
  153.4120  139.7190  159.4900 N   0  0  0  0  0  0  0  0  0  0  0  0
  152.5961  140.3280  158.6308 C   0  0  0  0  0  0  0  0  0  0  0  0
  152.0824  139.5266  157.6281 N   0  0  0  0  0  0  0  0  0  0  0  0
  151.8974  139.9512  156.2449 C   0  0  1  0  0  0  0  0  0  0  0  0
  152.4930  138.9731  155.2299 C   0  0  0  0  0  0  0  0  0  0  0  0
  151.2930  138.7055  154.3100 C   0  0  1  0  0  0  0  0  0  0  0  0
  150.2654  137.7832  154.9784 C   0  0  0  0  0  0  0  0  0  0  0  0
  149.6447  138.7131  156.0190 C   0  0  0  0  0  0  0  0  0  0  0  0
  150.4266  140.0174  155.7875 C   0  0  2  0  0  0  0  0  0  0  0  0
  150.6120  139.9471  154.3839 O   0  0  0  0  0  0  0  0  0  0  0  0
  152.2386  141.6153  158.6602 N   0  0  0  0  0  0  0  0  0  0  0  0
  153.1940  144.5360  157.9125 H   0  0  0  0  0  0  0  0  0  0  0  0
  151.9042  145.5208  158.5997 H   0  0  0  0  0  0  0  0  0  0  0  0
  151.5071  144.0211  157.7640 H   0  0  0  0  0  0  0  0  0  0  0  0
  152.9408  144.3706  161.6002 H   0  0  0  0  0  0  0  0  0  0  0  0
  151.2329  143.9226  161.4515 H   0  0  0  0  0  0  0  0  0  0  0  0
  151.8066  145.4577  160.8044 H   0  0  0  0  0  0  0  0  0  0  0  0
  154.0276  142.4311  161.4208 H   0  0  0  0  0  0  0  0  0  0  0  0
  151.6984  138.6353  157.9057 H   0  0  0  0  0  0  0  0  0  0  0  0
  152.3637  140.9279  156.1079 H   0  0  0  0  0  0  0  0  0  0  0  0
  153.3068  139.4481  154.6810 H   0  0  0  0  0  0  0  0  0  0  0  0
  152.8774  138.0544  155.6757 H   0  0  0  0  0  0  0  0  0  0  0  0
  151.5678  138.4019  153.2996 H   0  0  0  0  0  0  0  0  0  0  0  0
  149.5120  137.4554  154.2613 H   0  0  0  0  0  0  0  0  0  0  0  0
  150.7254  136.8987  155.4199 H   0  0  0  0  0  0  0  0  0  0  0  0
  148.5848  138.8611  155.8090 H   0  0  0  0  0  0  0  0  0  0  0  0
  149.7340  138.3343  157.0374 H   0  0  0  0  0  0  0  0  0  0  0  0
  149.8988  140.9120  156.1194 H   0  0  0  0  0  0  0  0  0  0  0  0
  1  2  1  0  0  0  0
  1 22  1  0  0  0  0
  1 23  1  0  0  0  0
  1 24  1  0  0  0  0
  2  3  1  0  0  0  0
  2  4  1  0  0  0  0
  3 25  1  0  0  0  0
  3 26  1  0  0  0  0
  3 27  1  0  0  0  0
  4 21  1  0  0  0  0
  4  5  2  0  0  0  0
  5  6  1  0  0  0  0
  5 28  1  0  0  0  0
  6  7  1  0  0  0  0
  6 11  2  0  0  0  0
  7  8  1  0  0  0  0
  7  9  1  0  0  0  0
  7 10  1  0  0  0  0
 11 12  1  0  0  0  0
 12 13  1  0  0  0  0
 12 21  2  0  0  0  0
 13 14  1  0  0  0  0
 13 29  1  0  0  0  0
 14 19  1  0  0  0  0
 14 15  1  0  0  0  0
 14 30  1  0  0  0  0
 15 16  1  0  0  0  0
 15 31  1  0  0  0  0
 15 32  1  0  0  0  0
 16 20  1  0  0  0  0
 16 17  1  0  0  0  0
 16 33  1  0  0  0  0
 17 18  1  0  0  0  0
 17 34  1  0  0  0  0
 17 35  1  0  0  0  0
 18 19  1  0  0  0  0
 18 36  1  0  0  0  0
 18 37  1  0  0  0  0
 19 20  1  0  0  0  0
 19 38  1  0  0  0  0
M  END
> <s_m_source_file>
AV-unprocessed.smi

> <i_m_source_file_index>
2871

> <i_lp_mmshare_version>
43012

> <i_f3d_flags>
0

> <s_epik_input>
W0NIM11OKFtDSDNdKWMxW2NIXWMoQyhGKShGKUYpbmMobjEpW05IXVtDQEhdKFtDSDJdW0NAQEhdMjMpW0NAQEhdKE8zKVtDSDJdW0NIMl0y

> <s_epik_cmdline>
J2VwaWtfcHl0aG9uJywgJy1waCcsICc3LjAnLCAnLXRuJywgJzgnLCAnLW1hJywgJzIwMCcsICctbWV0YWxfYmluZGluZycsICctaW1hZScsICc8aW5maWxlLm1hZT4nLCAnLW9tYWUnLCAnPG91dGZpbGUubWFlPic=

> <r_lp_tautomer_probability>
1

> <r_epik_Ionization_Penalty>
0.00695968

> <r_epik_Ionization_Penalty_Charging>
0

> <r_epik_Ionization_Penalty_Neutral>
0.00695968

> <r_epik_State_Penalty>
0.0050343

> <r_epik_Charging_Adjusted_Penalty>
0.0050343

> <i_epik_Tot_Q>
0

> <i_epik_Tot_abs_Q>
0

> <r_epik_Metal_State_Penalty>
-0

> <b_epik_Metal_Only>
0

> <s_lp_Force_Field>
OPLS_2005

> <r_lp_Energy>
32.958

> <b_lp_Chiralities_Consistent>
1

> <s_lp_Variant>
AV-unprocessed.smi:2871-2

> <Gold.Version>
5.8.1

> <Gold.Id.Protein>
6NUR|6NUR_protein|mol2

> <Gold.PLP.Fitness>
46.0842

> <Gold.PLP.PLP>
-45.5974

> <Gold.PLP.part.hbond>
-1.0000

> <Gold.PLP.part.metal>
0.0000

> <Gold.PLP.part.buried>
-4.4777

> <Gold.PLP.part.nonpolar>
-40.6397

> <Gold.PLP.part.repulsive>
0.1907

> <Gold.PLP.ligand.clash>
0.0000

> <Gold.PLP.ligand.torsion>
1.2751

> <Gold.PLP.Chemscore.Hbond>
1.0000

> <Gold.PLP.Chemscore.CHOScore>
0.0000

> <Gold.PLP.Chemscore.Metal>
0.0000

> <Gold.Chemscore.Hbonds>
donor molecule, donor type, donor heavy atom, donor atom, acceptor molecule, acceptor atom, score
      P1  H  7989  7998       L1    20  1.00

> <Gold.PLP.Chemscore.Internal.Correction>
0.0371

> <Gold.Rescore>
     Score         DG    S(hbond)    S(metal)    S(lipo)     H(rot)  DE(clash)    DE(int)     intcor
     15.39     -16.75       0.95        0.00      91.21       1.00       0.02       1.35       ----

> <Gold.Chemscore.Fitness>
15.3903

> <Gold.Chemscore.DG>
-16.7512

> <Gold.Chemscore.ZeroCoef>
-5.4800

> <Gold.Chemscore.Hbond>
0.9460

> <Gold.Chemscore.Metal>
0.0000

> <Gold.Chemscore.Lipo>
91.2110

> <Gold.Chemscore.Internal_Hbond>
0.0000

> <Gold.Chemscore.DEClash>
0.0156

> <Gold.Chemscore.DEInternal>
1.3452

> <Gold.Chemscore.Rot>
1.0000

> <Gold.Chemscore.Internal.Correction>
   9.000000E+99

> <Gold.Chemscore.Hbonds>
donor molecule, donor type, donor heavy atom, donor atom, acceptor molecule, acceptor atom, score
      P1  H  7989  7998       L1    20  0.25

> <Gold.Chemscore.Hbond.Weighted>
-3.1595

> <Gold.Chemscore.Metal.Weighted>
-0.0000

> <Gold.Chemscore.Lipo.Weighted>
-10.6717

> <Gold.Chemscore.Internal_Hbond.Weighted>
0.0000

> <Gold.Chemscore.DEClash.Weighted>
0.0156

> <Gold.Chemscore.DEInternal.Weighted>
1.3452

> <Gold.Chemscore.Rot.Weighted>
2.5600

> <Gold.Chemscore.Internal.Correction.Weighted>
   9.000000E+99

> <Gold.Protein.RotatedTorsions>
[ 6907 6896 6895 6894 ] final -107.85 input  -60.11 | X-H torsion
[ 7974 7965 7964 7962 ] final -123.45 input  175.53 | X-H torsion
[ 8008 7997 7996 7995 ] final   55.04 input   59.86 | X-H torsion
[ 10167 10162 10161 10158 ] final  146.07 input  -65.29 | X-H torsion
[ 10718 10713 10712 10709 ] final -155.68 input   66.30 | X-H torsion
[ 10763 10752 10751 10750 ] final   88.76 input  -60.55 | X-H torsion
[ 11005 11000 10999 10996 ] final  174.26 input  -57.11 | X-H torsion

> <Gold.Protein.ActiveResidues>
 VAL166  LYS551  ARG553  GLY616  TRP617  ASP618  TYR619  PRO620  LYS621  CYS622 
 ASP623  PHE694  ASN695  SER759  ASP760  ASP761  ALA762  ILE779  LEU786  VAL792 
 PHE793  MET794  SER795  GLU796  ALA797  LYS798  CYS799  TRP800  GLU811  SER814 

> <Gold.Protein.RotatedAtoms>
  150.7468  133.9765  159.3562 H   0  0  0  0  0  0  0  0  0  0  0  0  # atno 6907 bound_to 6896
  151.7702  135.0786  160.0368 H   0  0  0  0  0  0  0  0  0  0  0  0  # atno 6908 bound_to 6896
  152.3344  133.5958  159.5868 H   0  0  0  0  0  0  0  0  0  0  0  0  # atno 6909 bound_to 6896
  145.0185  140.7968  143.4395 H   0  0  0  0  0  0  0  0  0  0  0  0  # atno 7974 bound_to 7965
  155.4946  140.3472  155.4361 H   0  0  0  0  0  0  0  0  0  0  0  0  # atno 8008 bound_to 7997
  156.0954  140.1421  156.9566 H   0  0  0  0  0  0  0  0  0  0  0  0  # atno 8009 bound_to 7997
  154.4660  140.0917  156.6999 H   0  0  0  0  0  0  0  0  0  0  0  0  # atno 8010 bound_to 7997
  139.4914  144.5856  151.6785 H   0  0  0  0  0  0  0  0  0  0  0  0  # atno 10167 bound_to 10162
  156.5162  130.8457  151.2665 H   0  0  0  0  0  0  0  0  0  0  0  0  # atno 10718 bound_to 10713
  153.1801  135.4495  155.0017 H   0  0  0  0  0  0  0  0  0  0  0  0  # atno 10763 bound_to 10752
  154.8024  135.3261  154.7518 H   0  0  0  0  0  0  0  0  0  0  0  0  # atno 10764 bound_to 10752
  153.7984  135.6964  153.4915 H   0  0  0  0  0  0  0  0  0  0  0  0  # atno 10765 bound_to 10752
  140.3494  134.7208  157.4257 H   0  0  0  0  0  0  0  0  0  0  0  0  # atno 11005 bound_to 11000
  145.1927  139.2293  143.5234 LP  0  0  0  0  0  0  0  0  0  0  0  0  # atno 17320 bound_to 7965
  146.3482  140.1726  142.8589 LP  0  0  0  0  0  0  0  0  0  0  0  0  # atno 17321 bound_to 7965
  140.5471  144.0485  150.6111 LP  0  0  0  0  0  0  0  0  0  0  0  0  # atno 17342 bound_to 10162
  140.3527  143.2953  152.0469 LP  0  0  0  0  0  0  0  0  0  0  0  0  # atno 17343 bound_to 10162
  157.7443  130.9933  150.2666 LP  0  0  0  0  0  0  0  0  0  0  0  0  # atno 17370 bound_to 10713
  156.3193  130.3783  149.7590 LP  0  0  0  0  0  0  0  0  0  0  0  0  # atno 17371 bound_to 10713
  140.0715  134.5855  155.8636 LP  0  0  0  0  0  0  0  0  0  0  0  0  # atno 17394 bound_to 11000
  141.2016  133.6620  156.5961 LP  0  0  0  0  0  0  0  0  0  0  0  0  # atno 17395 bound_to 11000

$$$$
