AV-unprocessed.smi:1434|AV-procd|sdf|5856|dock3
  -GOLD-   22720 5523D 1   1.00000     0.00000
 Structure written by MMmdl.
 44 45  0  0  0  0  0  0  0  0  3 V2000
  151.6200  138.9971  156.8162 C   0  0  0  0  0  0  0  0  0  0  0  0
  152.1539  138.7296  155.0723 S   0  0  0  0  0  0  0  0  0  0  0  0
  153.5749  139.1120  155.0129 O   0  0  0  0  0  0  0  0  0  0  0  0
  151.8349  137.3222  154.7894 O   0  0  0  0  0  0  0  0  0  0  0  0
  151.1635  139.7291  154.2553 N   0  5  0  0  0  0  0  0  0  0  0  0
  149.7718  139.9144  154.6484 C   0  0  1  0  0  0  0  0  0  0  0  0
  149.5231  141.3769  155.1012 C   0  0  0  0  0  0  0  0  0  0  0  0
  148.0205  141.7177  155.2860 C   0  0  0  0  0  0  0  0  0  0  0  0
  147.1666  141.3234  154.0588 C   0  0  0  0  0  0  0  0  0  0  0  0
  147.4167  139.8892  153.7841 N   0  0  0  0  0  0  0  0  0  0  0  0
  146.4960  138.8919  153.8758 C   0  0  0  0  0  0  0  0  0  0  0  0
  145.4575  138.9855  154.5315 O   0  0  0  0  0  0  0  0  0  0  0  0
  146.8046  137.7726  153.2006 N   0  0  0  0  0  0  0  0  0  0  0  0
  145.9748  136.5769  153.1533 C   0  0  0  0  0  0  0  0  0  0  0  0
  145.4426  136.3446  151.7326 C   0  0  0  0  0  0  0  0  0  0  0  0
  145.4988  134.8836  151.3304 C   0  0  0  0  0  0  0  0  0  0  0  0
  144.3489  134.1715  150.9252 C   0  0  0  0  0  0  0  0  0  0  0  0
  144.4731  132.8163  150.5538 C   0  0  0  0  0  0  0  0  0  0  0  0
  145.7419  132.2022  150.5960 C   0  0  0  0  0  0  0  0  0  0  0  0
  146.8569  132.9609  151.0061 C   0  0  0  0  0  0  0  0  0  0  0  0
  146.6982  134.2576  151.3520 N   0  3  0  0  0  0  0  0  0  0  0  0
  148.8336  139.6130  153.4476 C   0  0  0  0  0  0  0  0  0  0  0  0
  152.1598  138.3080  157.4648 H   0  0  0  0  0  0  0  0  0  0  0  0
  150.5500  138.8094  156.9011 H   0  0  0  0  0  0  0  0  0  0  0  0
  151.8371  140.0199  157.1219 H   0  0  0  0  0  0  0  0  0  0  0  0
  149.4900  139.2463  155.4632 H   0  0  0  0  0  0  0  0  0  0  0  0
  150.0610  141.5818  156.0272 H   0  0  0  0  0  0  0  0  0  0  0  0
  149.9364  142.0579  154.3552 H   0  0  0  0  0  0  0  0  0  0  0  0
  147.6317  141.2130  156.1728 H   0  0  0  0  0  0  0  0  0  0  0  0
  147.9124  142.7853  155.4793 H   0  0  0  0  0  0  0  0  0  0  0  0
  146.1240  141.5827  154.2403 H   0  0  0  0  0  0  0  0  0  0  0  0
  147.4696  141.9083  153.1891 H   0  0  0  0  0  0  0  0  0  0  0  0
  147.6717  137.7561  152.6838 H   0  0  0  0  0  0  0  0  0  0  0  0
  146.5579  135.7128  153.4768 H   0  0  0  0  0  0  0  0  0  0  0  0
  145.1475  136.6910  153.8554 H   0  0  0  0  0  0  0  0  0  0  0  0
  144.4112  136.6927  151.6572 H   0  0  0  0  0  0  0  0  0  0  0  0
  146.0189  136.9330  151.0172 H   0  0  0  0  0  0  0  0  0  0  0  0
  143.3838  134.6562  150.8953 H   0  0  0  0  0  0  0  0  0  0  0  0
  143.6053  132.2549  150.2394 H   0  0  0  0  0  0  0  0  0  0  0  0
  145.8580  131.1651  150.3161 H   0  0  0  0  0  0  0  0  0  0  0  0
  147.8635  132.5731  151.0664 H   0  0  0  0  0  0  0  0  0  0  0  0
  149.1084  140.2357  152.5946 H   0  0  0  0  0  0  0  0  0  0  0  0
  148.9872  138.5852  153.1146 H   0  0  0  0  0  0  0  0  0  0  0  0
  147.5198  134.7875  151.6437 H   0  0  0  0  0  0  0  0  0  0  0  0
  1  2  1  0  0  0  0
  1 23  1  0  0  0  0
  1 24  1  0  0  0  0
  1 25  1  0  0  0  0
  2  3  2  0  0  0  0
  2  4  2  0  0  0  0
  2  5  1  0  0  0  0
  5  6  1  0  0  0  0
  6 22  1  0  0  0  0
  6  7  1  0  0  0  0
  6 26  1  0  0  0  0
  7  8  1  0  0  0  0
  7 27  1  0  0  0  0
  7 28  1  0  0  0  0
  8  9  1  0  0  0  0
  8 29  1  0  0  0  0
  8 30  1  0  0  0  0
  9 10  1  0  0  0  0
  9 31  1  0  0  0  0
  9 32  1  0  0  0  0
 10 11  1  0  0  0  0
 10 22  1  0  0  0  0
 11 12  2  0  0  0  0
 11 13  1  0  0  0  0
 13 14  1  0  0  0  0
 13 33  1  0  0  0  0
 14 15  1  0  0  0  0
 14 34  1  0  0  0  0
 14 35  1  0  0  0  0
 15 16  1  0  0  0  0
 15 36  1  0  0  0  0
 15 37  1  0  0  0  0
 16 21  1  0  0  0  0
 16 17  2  0  0  0  0
 17 18  1  0  0  0  0
 17 38  1  0  0  0  0
 18 19  2  0  0  0  0
 18 39  1  0  0  0  0
 19 20  1  0  0  0  0
 19 40  1  0  0  0  0
 20 21  2  0  0  0  0
 20 41  1  0  0  0  0
 21 44  1  0  0  0  0
 22 42  1  0  0  0  0
 22 43  1  0  0  0  0
M  CHG  1   5  -1
M  CHG  1  21   1
M  END
> <s_m_source_file>
AV-unprocessed.smi

> <i_m_source_file_index>
1434

> <i_lp_mmshare_version>
43012

> <i_f3d_flags>
0

> <s_epik_input>
W0NIM11TKD1PKSg9TylbTkhdW0NAQEhdMVtDSDJdW0NIMl1bQ0gyXU4oW0NIMl0xKUMoPU8pW05IXVtDSDJdW0NIMl1jMltjSF1bY0hdW2NIXVtjSF1uMg==

> <s_epik_cmdline>
J2VwaWtfcHl0aG9uJywgJy1waCcsICc3LjAnLCAnLXRuJywgJzgnLCAnLW1hJywgJzIwMCcsICctbWV0YWxfYmluZGluZycsICctaW1hZScsICc8aW5maWxlLm1hZT4nLCAnLW9tYWUnLCAnPG91dGZpbGUubWFlPic=

> <r_epik_Ionization_Penalty>
8.07847

> <r_epik_Ionization_Penalty_Charging>
8.0784

> <r_epik_Ionization_Penalty_Neutral>
6.25603e-05

> <r_epik_State_Penalty>
8.17261

> <r_epik_Charging_Adjusted_Penalty>
16.251

> <i_epik_Tot_Q>
0

> <i_epik_Tot_abs_Q>
2

> <r_epik_Metal_State_Penalty>
4.14042

> <b_epik_Metal_Only>
1

> <s_lp_Force_Field>
OPLS_2005

> <r_lp_Energy>
28.6508

> <b_lp_Chiralities_Consistent>
1

> <s_lp_Variant>
AV-unprocessed.smi:1434-8

> <Gold.Version>
5.8.1

> <Gold.Id.Protein>
6NUR|6NUR_protein|mol2

> <Gold.PLP.Fitness>
51.8144

> <Gold.PLP.PLP>
-35.7630

> <Gold.PLP.part.hbond>
-5.0000

> <Gold.PLP.part.metal>
0.0000

> <Gold.PLP.part.buried>
1.0209

> <Gold.PLP.part.nonpolar>
-33.1361

> <Gold.PLP.part.repulsive>
1.2252

> <Gold.PLP.ligand.clash>
0.0000

> <Gold.PLP.ligand.torsion>
1.1169

> <Gold.PLP.Chemscore.Hbond>
5.7389

> <Gold.PLP.Chemscore.CHOScore>
0.0000

> <Gold.PLP.Chemscore.Metal>
0.0000

> <Gold.Chemscore.Hbonds>
donor molecule, donor type, donor heavy atom, donor atom, acceptor molecule, acceptor atom, score
      L1  H    13    33       P1  7948  0.53
      L1  H    21    44       P1  7948  2.00
      P1  H  7989  7998       L1     5  0.78
      P1  H  7997  8009       L1     3  1.00
      P1  H 10752 10763       L1     4  0.94

> <Gold.PLP.Chemscore.Internal.Correction>
1.0685

> <Gold.Rescore>
     Score         DG    S(hbond)    S(metal)    S(lipo)     H(rot)  DE(clash)    DE(int)     intcor
     20.04     -22.88       3.69        0.00      81.96       1.77       1.69       1.15       ----

> <Gold.Chemscore.Fitness>
20.0363

> <Gold.Chemscore.DG>
-22.8773

> <Gold.Chemscore.ZeroCoef>
-5.4800

> <Gold.Chemscore.Hbond>
3.6915

> <Gold.Chemscore.Metal>
0.0000

> <Gold.Chemscore.Lipo>
81.9551

> <Gold.Chemscore.Internal_Hbond>
0.0000

> <Gold.Chemscore.DEClash>
1.6895

> <Gold.Chemscore.DEInternal>
1.1516

> <Gold.Chemscore.Rot>
1.7661

> <Gold.Chemscore.Internal.Correction>
   9.000000E+99

> <Gold.Chemscore.Hbonds>
donor molecule, donor type, donor heavy atom, donor atom, acceptor molecule, acceptor atom, score
      L1  H    13    33       P1  7948  0.52
      L1  H    21    44       P1  7948  0.48
      P1  H  7989  7998       L1     5  0.60
      P1  H  7997  8009       L1     3  0.97
      P1  H 10752 10763       L1     4  0.84

> <Gold.Chemscore.Hbond.Weighted>
-12.3297

> <Gold.Chemscore.Metal.Weighted>
-0.0000

> <Gold.Chemscore.Lipo.Weighted>
-9.5887

> <Gold.Chemscore.Internal_Hbond.Weighted>
0.0000

> <Gold.Chemscore.DEClash.Weighted>
1.6895

> <Gold.Chemscore.DEInternal.Weighted>
1.1516

> <Gold.Chemscore.Rot.Weighted>
4.5211

> <Gold.Chemscore.Internal.Correction.Weighted>
   9.000000E+99

> <Gold.Protein.RotatedTorsions>
[ 6907 6896 6895 6894 ] final -109.95 input  -60.11 | X-H torsion
[ 7974 7965 7964 7962 ] final -165.45 input  175.53 | X-H torsion
[ 8008 7997 7996 7995 ] final -136.88 input   59.86 | X-H torsion
[ 10167 10162 10161 10158 ] final  -28.49 input  -65.29 | X-H torsion
[ 10718 10713 10712 10709 ] final -179.05 input   66.30 | X-H torsion
[ 10763 10752 10751 10750 ] final   53.81 input  -60.55 | X-H torsion
[ 11005 11000 10999 10996 ] final  -69.60 input  -57.11 | X-H torsion

> <Gold.Protein.ActiveResidues>
 VAL166  LYS551  ARG553  GLY616  TRP617  ASP618  TYR619  PRO620  LYS621  CYS622 
 ASP623  PHE694  ASN695  SER759  ASP760  ASP761  ALA762  ILE779  LEU786  VAL792 
 PHE793  MET794  SER795  GLU796  ALA797  LYS798  CYS799  TRP800  GLU811  SER814 

> <Gold.Protein.RotatedAtoms>
  150.7594  133.9454  159.3468 H   0  0  0  0  0  0  0  0  0  0  0  0  # atno 6907 bound_to 6896
  151.7366  135.0861  160.0318 H   0  0  0  0  0  0  0  0  0  0  0  0  # atno 6908 bound_to 6896
  152.3555  133.6195  159.6012 H   0  0  0  0  0  0  0  0  0  0  0  0  # atno 6909 bound_to 6896
  144.7270  140.2813  143.6235 H   0  0  0  0  0  0  0  0  0  0  0  0  # atno 7974 bound_to 7965
  155.4025  140.0507  157.3036 H   0  0  0  0  0  0  0  0  0  0  0  0  # atno 8008 bound_to 7997
  154.4984  140.2147  155.9359 H   0  0  0  0  0  0  0  0  0  0  0  0  # atno 8009 bound_to 7997
  156.1435  140.3150  155.8538 H   0  0  0  0  0  0  0  0  0  0  0  0  # atno 8010 bound_to 7997
  140.7269  143.4006  151.1272 H   0  0  0  0  0  0  0  0  0  0  0  0  # atno 10167 bound_to 10162
  156.8534  130.9727  151.3090 H   0  0  0  0  0  0  0  0  0  0  0  0  # atno 10718 bound_to 10713
  152.9798  135.5766  154.4802 H   0  0  0  0  0  0  0  0  0  0  0  0  # atno 10763 bound_to 10752
  154.4352  135.2774  155.1887 H   0  0  0  0  0  0  0  0  0  0  0  0  # atno 10764 bound_to 10752
  154.3579  135.6195  153.5729 H   0  0  0  0  0  0  0  0  0  0  0  0  # atno 10765 bound_to 10752
  141.1557  133.6768  156.6624 H   0  0  0  0  0  0  0  0  0  0  0  0  # atno 11005 bound_to 11000
  145.7947  139.1940  143.2083 LP  0  0  0  0  0  0  0  0  0  0  0  0  # atno 17320 bound_to 7965
  146.0727  140.7851  142.9680 LP  0  0  0  0  0  0  0  0  0  0  0  0  # atno 17321 bound_to 7965
  139.7625  143.8614  152.3103 LP  0  0  0  0  0  0  0  0  0  0  0  0  # atno 17342 bound_to 10162
  139.8505  144.7167  150.9220 LP  0  0  0  0  0  0  0  0  0  0  0  0  # atno 17343 bound_to 10162
  157.6291  130.8715  149.9241 LP  0  0  0  0  0  0  0  0  0  0  0  0  # atno 17370 bound_to 10713
  156.0816  130.3672  150.0570 LP  0  0  0  0  0  0  0  0  0  0  0  0  # atno 17371 bound_to 10713
  140.3237  134.7986  157.4272 LP  0  0  0  0  0  0  0  0  0  0  0  0  # atno 17394 bound_to 11000
  140.1075  134.5390  155.8296 LP  0  0  0  0  0  0  0  0  0  0  0  0  # atno 17395 bound_to 11000

$$$$
