#       Name:                AV-unprocessed.smi:1610
#       Creating user name   scv26
#       Creation time:       Fri Mar 27 07:13:13 2020


#       File generated by GOLD software.
#

@<TRIPOS>MOLECULE
AV-unprocessed.smi:1610
    47    48     1
SMALL
NO_CHARGES


@<TRIPOS>ATOM
      1 ****        -4.8280  -0.3229   0.1860 C.3            1 S1                 0.0000
      2 ****        -3.4968   0.1355  -0.9926 S.o2           1 S1                 0.0000
      3 ****        -2.8883  -1.1345  -1.4207 O.2            1 S1                 0.0000
      4 ****        -4.1430   0.9588  -2.0269 O.2            1 S1                 0.0000
      5 ****        -2.5183   0.9865  -0.0173 N.pl3          1 S1                -1.0000
      6 ****        -1.4269   1.7958  -0.5531 C.3            1 S1                 0.0000
      7 ****        -0.5506   0.9961  -1.5661 C.3            1 S1                 0.0000
      8 ****         0.8200   1.6552  -1.8807 C.3            1 S1                 0.0000
      9 ****         1.5661   1.8800  -0.6275 N.am           1 S1                 0.0000
     10 ****         2.4947   1.0541  -0.0843 C.2            1 S1                 0.0000
     11 ****         2.9554   1.2137   1.0470 O.2            1 S1                 0.0000
     12 ****         2.8284   0.0039  -0.8556 N.am           1 S1                 0.0000
     13 ****         3.6036  -1.1571  -0.4214 C.3            1 S1                 0.0000
     14 ****         2.7099  -2.3956  -0.1976 C.3            1 S1                 0.0000
     15 ****         1.4890  -2.1355   0.6729 C.ar           1 S1                 0.0000
     16 ****         1.6332  -1.7339   2.0198 C.ar           1 S1                 0.0000
     17 ****         0.4830  -1.4472   2.7844 C.ar           1 S1                 0.0000
     18 ****        -0.7878  -1.5737   2.1874 C.ar           1 S1                 0.0000
     19 ****        -0.8878  -1.9772   0.9028 N.pl3          1 S1                 1.0000
     20 ****         0.1882  -2.2640   0.1387 C.ar           1 S1                 0.0000
     21 ****         0.8386   2.8697   0.1833 C.3            1 S1                 0.0000
     22 ****        -0.5291   2.2756   0.6253 C.3            1 S1                 0.0000
     23 ****        -5.5734  -0.9275  -0.3297 H              1 S1                 0.0000
     24 ****        -5.2991   0.5812   0.5709 H              1 S1                 0.0000
     25 ****        -4.4050  -0.8940   1.0116 H              1 S1                 0.0000
     26 ****        -1.8032   2.6808  -1.0668 H              1 S1                 0.0000
     27 ****        -0.3589  -0.0008  -1.1764 H              1 S1                 0.0000
     28 ****        -1.0990   0.8547  -2.4980 H              1 S1                 0.0000
     29 ****         1.3716   1.0441  -2.5953 H              1 S1                 0.0000
     30 ****         0.6770   2.6097  -2.3919 H              1 S1                 0.0000
     31 ****         2.4175  -0.0458  -1.7766 H              1 S1                 0.0000
     32 ****         4.3568  -1.3774  -1.1782 H              1 S1                 0.0000
     33 ****         4.1553  -0.9337   0.4929 H              1 S1                 0.0000
     34 ****         2.3757  -2.7722  -1.1652 H              1 S1                 0.0000
     35 ****         3.2968  -3.1973   0.2517 H              1 S1                 0.0000
     36 ****         2.6151  -1.6245   2.4566 H              1 S1                 0.0000
     37 ****         0.5753  -1.1236   3.8107 H              1 S1                 0.0000
     38 ****        -1.7197  -1.3609   2.6904 H              1 S1                 0.0000
     39 ****        -0.0266  -2.5543  -0.8795 H              1 S1                 0.0000
     40 ****         1.4090   3.1728   1.0624 H              1 S1                 0.0000
     41 ****         0.6975   3.7872  -0.3921 H              1 S1                 0.0000
     42 ****        -1.0703   3.0112   1.2212 H              1 S1                 0.0000
     43 ****        -0.3294   1.4367   1.2946 H              1 S1                 0.0000
     44 ****        -1.8158  -2.0500   0.4830 H              1 S1                 0.0000
     45 ****        -2.6656   0.9562   0.9713 LP             1 S1                 0.0000
     46 ****         2.6457   1.9804   1.6094 LP             1 S1                 0.0000
     47 ****         3.6390   0.5766   1.4029 LP             1 S1                 0.0000
@<TRIPOS>BOND
    1    1    2 1     
    2    1   23 1     
    3    1   24 1     
    4    1   25 1     
    5    2    3 2     
    6    2    4 2     
    7    2    5 1     
    8    5    6 1     
    9    6   22 1     
   10    6    7 1     
   11    6   26 1     
   12    7    8 1     
   13    7   27 1     
   14    7   28 1     
   15    8    9 1     
   16    8   29 1     
   17    8   30 1     
   18    9   10 am    
   19    9   21 1     
   20   10   11 2     
   21   10   12 am    
   22   12   13 1     
   23   12   31 1     
   24   13   14 1     
   25   13   32 1     
   26   13   33 1     
   27   14   15 1     
   28   14   34 1     
   29   14   35 1     
   30   15   20 ar    
   31   15   16 ar    
   32   16   17 ar    
   33   16   36 1     
   34   17   18 ar    
   35   17   37 1     
   36   18   19 ar    
   37   18   38 1     
   38   19   20 ar    
   39   19   44 1     
   40   20   39 1     
   41   21   22 1     
   42   21   40 1     
   43   21   41 1     
   44   22   42 1     
   45   22   43 1     
   46    5   45 1     
   47   11   46 1     
   48   11   47 1     
@<TRIPOS>SUBSTRUCTURE
      1 S1             1
@<TRIPOS>SET
LONE_PAIRS      STATIC     ATOMS    <user>   **** ""
5 3 4 45 46 47
DONOR_HYDROGENS      STATIC     ATOMS    <user>   **** ""
2 31 44
ATOM$BLUE        STATIC     ATOMS    COLORGROUP SYSTEM
5 3 4 45 46 47
ATOM$RED        STATIC     ATOMS    COLORGROUP SYSTEM
2 31 44
