AV-unprocessed.smi:3158|AV-procd|sdf|12046|dock9
  -GOLD-   2272017473D 1   1.00000     0.00000
 Structure written by MMmdl.
 39 39  0  0  0  0  0  0  0  0  1 V2000
  147.5158  139.2417  152.7197 C   0  0  0  0  0  0  0  0  0  0  0  0
  148.4692  139.0449  153.9075 C   0  0  0  0  0  0  0  0  0  0  0  0
  149.4119  140.2429  154.1577 C   0  0  1  0  0  0  0  0  0  0  0  0
  148.7171  141.5965  153.9244 C   0  0  0  0  0  0  0  0  0  0  0  0
  150.0641  140.1920  155.4687 N   0  0  0  0  0  0  0  0  0  0  0  0
  151.3237  139.8085  155.7399 C   0  0  0  0  0  0  0  0  0  0  0  0
  152.1246  139.4360  154.8822 O   0  0  0  0  0  0  0  0  0  0  0  0
  151.7358  139.8186  157.2210 C   0  0  2  0  0  0  0  0  0  0  0  0
  150.9353  138.7688  158.0077 C   0  0  0  0  0  0  0  0  0  0  0  0
  151.5813  141.1399  157.8541 N   0  0  0  0  0  0  0  0  0  0  0  0
  152.0521  141.2073  159.2347 C   0  0  0  0  0  0  0  0  0  0  0  0
  153.0456  142.3688  159.3988 C   0  0  0  0  0  0  0  0  0  0  0  0
  152.3959  143.6633  159.2895 N   0  0  0  0  0  0  0  0  0  0  0  0
  152.3926  144.6977  160.2015 C   0  0  0  0  0  0  0  0  0  0  0  0
  151.6607  145.7153  159.6596 C   0  0  0  0  0  0  0  0  0  0  0  0
  151.2509  145.2014  158.3975 C   0  0  0  0  0  0  0  0  0  0  0  0
  151.6923  143.9732  158.1789 N   0  0  0  0  0  0  0  0  0  0  0  0
  146.8365  138.3943  152.6262 H   0  0  0  0  0  0  0  0  0  0  0  0
  148.0594  139.3307  151.7787 H   0  0  0  0  0  0  0  0  0  0  0  0
  146.9110  140.1401  152.8451 H   0  0  0  0  0  0  0  0  0  0  0  0
  147.8722  138.8743  154.8040 H   0  0  0  0  0  0  0  0  0  0  0  0
  149.0459  138.1315  153.7590 H   0  0  0  0  0  0  0  0  0  0  0  0
  150.2220  140.1742  153.4308 H   0  0  0  0  0  0  0  0  0  0  0  0
  148.3502  141.6735  152.9006 H   0  0  0  0  0  0  0  0  0  0  0  0
  149.4059  142.4257  154.0893 H   0  0  0  0  0  0  0  0  0  0  0  0
  147.8632  141.7355  154.5879 H   0  0  0  0  0  0  0  0  0  0  0  0
  149.4948  140.4720  156.2543 H   0  0  0  0  0  0  0  0  0  0  0  0
  152.7891  139.5392  157.2855 H   0  0  0  0  0  0  0  0  0  0  0  0
  151.0441  137.7765  157.5681 H   0  0  0  0  0  0  0  0  0  0  0  0
  149.8711  139.0078  158.0314 H   0  0  0  0  0  0  0  0  0  0  0  0
  151.2818  138.7072  159.0398 H   0  0  0  0  0  0  0  0  0  0  0  0
  152.0211  141.8672  157.3074 H   0  0  0  0  0  0  0  0  0  0  0  0
  151.1975  141.3582  159.8951 H   0  0  0  0  0  0  0  0  0  0  0  0
  152.5349  140.2783  159.5395 H   0  0  0  0  0  0  0  0  0  0  0  0
  153.5693  142.3020  160.3541 H   0  0  0  0  0  0  0  0  0  0  0  0
  153.8087  142.3117  158.6219 H   0  0  0  0  0  0  0  0  0  0  0  0
  152.9087  144.6251  161.1474 H   0  0  0  0  0  0  0  0  0  0  0  0
  151.4507  146.6798  160.0974 H   0  0  0  0  0  0  0  0  0  0  0  0
  150.6502  145.6811  157.6388 H   0  0  0  0  0  0  0  0  0  0  0  0
  1  2  1  0  0  0  0
  1 18  1  0  0  0  0
  1 19  1  0  0  0  0
  1 20  1  0  0  0  0
  2  3  1  0  0  0  0
  2 21  1  0  0  0  0
  2 22  1  0  0  0  0
  3  4  1  0  0  0  0
  3  5  1  0  0  0  0
  3 23  1  0  0  0  0
  4 24  1  0  0  0  0
  4 25  1  0  0  0  0
  4 26  1  0  0  0  0
  5  6  1  0  0  0  0
  5 27  1  0  0  0  0
  6  7  2  0  0  0  0
  6  8  1  0  0  0  0
  8  9  1  0  0  0  0
  8 10  1  0  0  0  0
  8 28  1  0  0  0  0
  9 29  1  0  0  0  0
  9 30  1  0  0  0  0
  9 31  1  0  0  0  0
 10 11  1  0  0  0  0
 10 32  1  0  0  0  0
 11 12  1  0  0  0  0
 11 33  1  0  0  0  0
 11 34  1  0  0  0  0
 12 13  1  0  0  0  0
 12 35  1  0  0  0  0
 12 36  1  0  0  0  0
 13 17  1  0  0  0  0
 13 14  1  0  0  0  0
 14 15  2  0  0  0  0
 14 37  1  0  0  0  0
 15 16  1  0  0  0  0
 15 38  1  0  0  0  0
 16 17  2  0  0  0  0
 16 39  1  0  0  0  0
M  END
> <s_m_source_file>
AV-unprocessed.smi

> <i_m_source_file_index>
3158

> <i_lp_mmshare_version>
43012

> <i_f3d_flags>
0

> <s_epik_input>
W0NIM11bQ0gyXVtDQEhdKFtDSDNdKVtOSF1DKD1PKVtDQEhdKFtDSDNdKVtOSF1bQ0gyXVtDSDJdbjFbY0hdW2NIXVtjSF1uMQ==

> <s_epik_cmdline>
J2VwaWtfcHl0aG9uJywgJy1waCcsICc3LjAnLCAnLXRuJywgJzgnLCAnLW1hJywgJzIwMCcsICctbWV0YWxfYmluZGluZycsICctaW1hZScsICc8aW5maWxlLm1hZT4nLCAnLW9tYWUnLCAnPG91dGZpbGUubWFlPic=

> <r_lp_tautomer_probability>
1

> <r_epik_Ionization_Penalty>
0.724013

> <r_epik_Ionization_Penalty_Charging>
0

> <r_epik_Ionization_Penalty_Neutral>
0.724013

> <r_epik_State_Penalty>
0.74758

> <r_epik_Charging_Adjusted_Penalty>
0.74758

> <i_epik_Tot_Q>
0

> <i_epik_Tot_abs_Q>
0

> <r_epik_Metal_State_Penalty>
0.746846

> <b_epik_Metal_Only>
0

> <s_lp_Force_Field>
OPLS_2005

> <r_lp_Energy>
6.38515

> <b_lp_Chiralities_Consistent>
1

> <s_lp_Variant>
AV-unprocessed.smi:3158-6

> <Gold.Version>
5.8.1

> <Gold.Id.Protein>
6NUR|6NUR_protein|mol2

> <Gold.PLP.Fitness>
43.3403

> <Gold.PLP.PLP>
-38.8209

> <Gold.PLP.part.hbond>
-1.0000

> <Gold.PLP.part.metal>
0.0000

> <Gold.PLP.part.buried>
-5.6385

> <Gold.PLP.part.nonpolar>
-32.8775

> <Gold.PLP.part.repulsive>
0.2250

> <Gold.PLP.ligand.clash>
0.0000

> <Gold.PLP.ligand.torsion>
0.7944

> <Gold.PLP.Chemscore.Hbond>
0.9920

> <Gold.PLP.Chemscore.CHOScore>
1.0010

> <Gold.PLP.Chemscore.Metal>
0.0000

> <Gold.Chemscore.Hbonds>
donor molecule, donor type, donor heavy atom, donor atom, acceptor molecule, acceptor atom, score
      P1  H  7989  7998       L1     7  0.73
      L1  C    16    39       P1  8028  0.17
      L1  C    16    39       P1  8029  0.18

> <Gold.PLP.Chemscore.Internal.Correction>
0.1292

> <Gold.Rescore>
     Score         DG    S(hbond)    S(metal)    S(lipo)     H(rot)  DE(clash)    DE(int)     intcor
     11.30     -13.84       0.95        0.00      90.64       2.12       0.13       2.41       ----

> <Gold.Chemscore.Fitness>
11.2990

> <Gold.Chemscore.DG>
-13.8365

> <Gold.Chemscore.ZeroCoef>
-5.4800

> <Gold.Chemscore.Hbond>
0.9543

> <Gold.Chemscore.Metal>
0.0000

> <Gold.Chemscore.Lipo>
90.6412

> <Gold.Chemscore.Internal_Hbond>
0.0000

> <Gold.Chemscore.DEClash>
0.1257

> <Gold.Chemscore.DEInternal>
2.4118

> <Gold.Chemscore.Rot>
2.1234

> <Gold.Chemscore.Internal.Correction>
   9.000000E+99

> <Gold.Chemscore.Hbonds>
donor molecule, donor type, donor heavy atom, donor atom, acceptor molecule, acceptor atom, score
      P1  H  7989  7998       L1     7  0.11

> <Gold.Chemscore.Hbond.Weighted>
-3.1873

> <Gold.Chemscore.Metal.Weighted>
-0.0000

> <Gold.Chemscore.Lipo.Weighted>
-10.6050

> <Gold.Chemscore.Internal_Hbond.Weighted>
0.0000

> <Gold.Chemscore.DEClash.Weighted>
0.1257

> <Gold.Chemscore.DEInternal.Weighted>
2.4118

> <Gold.Chemscore.Rot.Weighted>
5.4359

> <Gold.Chemscore.Internal.Correction.Weighted>
   9.000000E+99

> <Gold.Protein.RotatedTorsions>
[ 6907 6896 6895 6894 ] final -126.86 input  -60.11 | X-H torsion
[ 7974 7965 7964 7962 ] final  -21.62 input  175.53 | X-H torsion
[ 8008 7997 7996 7995 ] final  177.19 input   59.86 | X-H torsion
[ 10167 10162 10161 10158 ] final -125.38 input  -65.29 | X-H torsion
[ 10718 10713 10712 10709 ] final -115.18 input   66.30 | X-H torsion
[ 10763 10752 10751 10750 ] final   99.71 input  -60.55 | X-H torsion
[ 11005 11000 10999 10996 ] final  -15.28 input  -57.11 | X-H torsion

> <Gold.Protein.ActiveResidues>
 VAL166  LYS551  ARG553  GLY616  TRP617  ASP618  TYR619  PRO620  LYS621  CYS622 
 ASP623  PHE694  ASN695  SER759  ASP760  ASP761  ALA762  ILE779  LEU786  VAL792 
 PHE793  MET794  SER795  GLU796  ALA797  LYS798  CYS799  TRP800  GLU811  SER814 

> <Gold.Protein.RotatedAtoms>
  150.9012  133.7116  159.2878 H   0  0  0  0  0  0  0  0  0  0  0  0  # atno 6907 bound_to 6896
  151.4633  135.1039  159.9740 H   0  0  0  0  0  0  0  0  0  0  0  0  # atno 6908 bound_to 6896
  152.4878  133.8370  159.7188 H   0  0  0  0  0  0  0  0  0  0  0  0  # atno 6909 bound_to 6896
  146.1723  140.4366  142.8527 H   0  0  0  0  0  0  0  0  0  0  0  0  # atno 7974 bound_to 7965
  156.0683  140.1364  156.9859 H   0  0  0  0  0  0  0  0  0  0  0  0  # atno 8008 bound_to 7997
  154.4518  140.0977  156.6692 H   0  0  0  0  0  0  0  0  0  0  0  0  # atno 8009 bound_to 7997
  155.5268  140.3457  155.4420 H   0  0  0  0  0  0  0  0  0  0  0  0  # atno 8010 bound_to 7997
  139.9828  143.5724  152.2372 H   0  0  0  0  0  0  0  0  0  0  0  0  # atno 10167 bound_to 10162
  156.0879  130.6067  150.8872 H   0  0  0  0  0  0  0  0  0  0  0  0  # atno 10718 bound_to 10713
  153.3048  135.4104  155.1284 H   0  0  0  0  0  0  0  0  0  0  0  0  # atno 10763 bound_to 10752
  154.8559  135.3550  154.5803 H   0  0  0  0  0  0  0  0  0  0  0  0  # atno 10764 bound_to 10752
  153.6230  135.7063  153.5362 H   0  0  0  0  0  0  0  0  0  0  0  0  # atno 10765 bound_to 10752
  140.7950  133.8258  155.9415 H   0  0  0  0  0  0  0  0  0  0  0  0  # atno 11005 bound_to 11000
  144.8181  140.6503  143.6371 LP  0  0  0  0  0  0  0  0  0  0  0  0  # atno 17320 bound_to 7965
  145.4308  139.1549  143.4023 LP  0  0  0  0  0  0  0  0  0  0  0  0  # atno 17321 bound_to 7965
  139.6397  144.7653  151.2364 LP  0  0  0  0  0  0  0  0  0  0  0  0  # atno 17342 bound_to 10162
  140.7483  143.6337  150.8399 LP  0  0  0  0  0  0  0  0  0  0  0  0  # atno 17343 bound_to 10162
  157.6019  131.0941  150.8946 LP  0  0  0  0  0  0  0  0  0  0  0  0  # atno 17370 bound_to 10713
  156.9102  130.5278  149.5280 LP  0  0  0  0  0  0  0  0  0  0  0  0  # atno 17371 bound_to 10713
  140.9352  134.1971  157.4836 LP  0  0  0  0  0  0  0  0  0  0  0  0  # atno 17394 bound_to 11000
  139.8727  134.9849  156.5259 LP  0  0  0  0  0  0  0  0  0  0  0  0  # atno 17395 bound_to 11000

$$$$
