#       Name:                AV-unprocessed.smi:251
#       Creating user name   scv26
#       Creation time:       Thu Mar 26 21:05:41 2020


#       File generated by GOLD software.
#

@<TRIPOS>MOLECULE
AV-unprocessed.smi:251
    57    61     1
SMALL
NO_CHARGES


@<TRIPOS>ATOM
      1 ****        -3.6984  -0.1764  -2.3821 O.3            1 S1                 0.0000
      2 ****        -3.4080  -0.9824  -1.2576 C.3            1 S1                 0.0000
      3 ****        -2.4627  -2.1620  -1.6074 C.3            1 S1                 0.0000
      4 ****        -1.0887  -1.6306  -2.1286 C.3            1 S1                 0.0000
      5 ****        -0.3258  -0.8434  -1.1686 N.pl3          1 S1                 0.0000
      6 ****         0.5778  -1.3235  -0.2484 C.2            1 S1                 0.0000
      7 ****         1.1393  -0.4194   0.5044 N.2            1 S1                 0.0000
      8 ****         0.6075   0.7849   0.0566 C.ar           1 S1                 0.0000
      9 ****         0.7807   2.1541   0.4216 C.ar           1 S1                 0.0000
     10 ****         1.6033   2.5912   1.4113 N.pl3          1 S1                 0.0000
     11 ****         1.8971   4.0127   1.5878 C.3            1 S1                 0.0000
     12 ****         3.0006   4.0682   2.6158 C.3            1 S1                 0.0000
     13 ****         2.8535   3.4283   3.9818 C.3            1 S1                 0.0000
     14 ****         3.4934   2.6716   2.8368 C.3            1 S1                 0.0000
     15 ****         4.9697   2.3000   2.8810 C.3            1 S1                 0.0000
     16 ****         5.1103   1.0898   3.4206 F              1 S1                 0.0000
     17 ****         5.4806   2.2889   1.6496 F              1 S1                 0.0000
     18 ****         5.6611   3.1739   3.6131 F              1 S1                 0.0000
     19 ****         2.6584   1.7512   1.9703 C.3            1 S1                 0.0000
     20 ****         0.0562   3.0750  -0.2680 N.ar           1 S1                 0.0000
     21 ****        -0.7663   2.6976  -1.2500 C.ar           1 S1                 0.0000
     22 ****        -1.0203   1.4678  -1.6969 N.ar           1 S1                 0.0000
     23 ****        -0.3111   0.5322  -1.0042 C.ar           1 S1                 0.0000
     24 ****        -2.3095  -3.0339  -0.3350 C.3            1 S1                 0.0000
     25 ****        -1.6258  -4.3824  -0.6208 C.3            1 S1                 0.0000
     26 ****        -2.3693  -5.0974  -1.5987 O.3            1 S1                 0.0000
     27 ****        -2.4339  -4.4205  -2.8476 C.3            1 S1                 0.0000
     28 ****        -3.1327  -3.0577  -2.6799 C.3            1 S1                 0.0000
     29 ****        -4.2508   0.5385  -2.1052 H              1 S1                 0.0000
     30 ****        -2.9797  -0.3552  -0.4757 H              1 S1                 0.0000
     31 ****        -4.3556  -1.3523  -0.8645 H              1 S1                 0.0000
     32 ****        -0.4484  -2.4520  -2.4466 H              1 S1                 0.0000
     33 ****        -1.2344  -1.0236  -3.0227 H              1 S1                 0.0000
     34 ****         0.8038  -2.3744  -0.1442 H              1 S1                 0.0000
     35 ****         2.2438   4.4536   0.6524 H              1 S1                 0.0000
     36 ****         1.0235   4.5620   1.9400 H              1 S1                 0.0000
     37 ****         3.7230   4.8759   2.5185 H              1 S1                 0.0000
     38 ****         3.4957   3.7976   4.7784 H              1 S1                 0.0000
     39 ****         1.8573   3.1235   4.2967 H              1 S1                 0.0000
     40 ****         2.2454   0.9464   2.5786 H              1 S1                 0.0000
     41 ****         3.2627   1.3204   1.1715 H              1 S1                 0.0000
     42 ****        -1.2987   3.4949  -1.7470 H              1 S1                 0.0000
     43 ****        -1.7787  -2.4989   0.4516 H              1 S1                 0.0000
     44 ****        -3.2964  -3.2460   0.0786 H              1 S1                 0.0000
     45 ****        -0.5953  -4.2512  -0.9516 H              1 S1                 0.0000
     46 ****        -1.5876  -4.9788   0.2908 H              1 S1                 0.0000
     47 ****        -1.4341  -4.3114  -3.2681 H              1 S1                 0.0000
     48 ****        -2.9963  -5.0396  -3.5466 H              1 S1                 0.0000
     49 ****        -4.1711  -3.2428  -2.4013 H              1 S1                 0.0000
     50 ****        -3.1664  -2.5445  -3.6416 H              1 S1                 0.0000
     51 ****        -4.1731  -0.7209  -3.0735 LP             1 S1                 0.0000
     52 ****        -2.8487   0.1838  -2.7671 LP             1 S1                 0.0000
     53 ****         1.8032  -0.5602   1.2388 LP             1 S1                 0.0000
     54 ****         0.1401   4.0445  -0.0376 LP             1 S1                 0.0000
     55 ****        -1.6504   1.2583  -2.4446 LP             1 S1                 0.0000
     56 ****        -3.3003  -5.2292  -1.2585 LP             1 S1                 0.0000
     57 ****        -1.9370  -5.9879  -1.7402 LP             1 S1                 0.0000
@<TRIPOS>BOND
    1    1    2 1     
    2    1   29 1     
    3    2    3 1     
    4    2   30 1     
    5    2   31 1     
    6    3   28 1     
    7    3    4 1     
    8    3   24 1     
    9    4    5 1     
   10    4   32 1     
   11    4   33 1     
   12    5   23 1     
   13    5    6 1     
   14    6    7 2     
   15    6   34 1     
   16    7    8 1     
   17    8   23 ar    
   18    8    9 ar    
   19    9   10 1     
   20    9   20 ar    
   21   10   19 1     
   22   10   11 1     
   23   11   12 1     
   24   11   35 1     
   25   11   36 1     
   26   12   14 1     
   27   12   13 1     
   28   12   37 1     
   29   13   14 1     
   30   13   38 1     
   31   13   39 1     
   32   14   15 1     
   33   14   19 1     
   34   15   16 1     
   35   15   17 1     
   36   15   18 1     
   37   19   40 1     
   38   19   41 1     
   39   20   21 ar    
   40   21   22 ar    
   41   21   42 1     
   42   22   23 ar    
   43   24   25 1     
   44   24   43 1     
   45   24   44 1     
   46   25   26 1     
   47   25   45 1     
   48   25   46 1     
   49   26   27 1     
   50   27   28 1     
   51   27   47 1     
   52   27   48 1     
   53   28   49 1     
   54   28   50 1     
   55    1   51 1     
   56    1   52 1     
   57    7   53 1     
   58   20   54 1     
   59   22   55 1     
   60   26   56 1     
   61   26   57 1     
@<TRIPOS>SUBSTRUCTURE
      1 S1             1
@<TRIPOS>SET
LONE_PAIRS      STATIC     ATOMS    <user>   **** ""
7 51 52 53 54 55 56 57
DONOR_HYDROGENS      STATIC     ATOMS    <user>   **** ""
1 29
ATOM$BLUE        STATIC     ATOMS    COLORGROUP SYSTEM
7 51 52 53 54 55 56 57
ATOM$RED        STATIC     ATOMS    COLORGROUP SYSTEM
1 29
