AV-unprocessed.smi:1664|AV-procd|sdf|6668|dock3
  -GOLD-   22720 7383D 1   1.00000     0.00000
 Structure written by MMmdl.
 35 36  0  0  0  0  0  0  0  0  3 V2000
  149.1591  141.4670  154.8858 C   0  0  0  0  0  0  0  0  0  0  0  0
  150.1059  140.7353  155.8578 C   0  0  2  0  0  0  0  0  0  0  0  0
  149.3021  139.9976  156.8547 C   0  0  0  0  0  0  0  0  0  0  0  0
  148.6718  139.4197  157.6350 N   0  0  0  0  0  0  0  0  0  0  0  0
  150.9729  141.7132  156.5172 N   0  0  0  0  0  0  0  0  0  0  0  0
  150.6199  142.6680  157.3978 C   0  0  0  0  0  0  0  0  0  0  0  0
  149.4597  142.8444  157.7655 O   0  0  0  0  0  0  0  0  0  0  0  0
  151.7252  143.5744  157.9670 C   0  0  0  0  0  0  0  0  0  0  0  0
  152.2439  143.1705  159.2871 N   0  0  0  0  0  0  0  0  0  0  0  0
  153.0687  142.0289  159.3257 C   0  0  0  0  0  0  0  0  0  0  0  0
  153.6038  141.5702  160.4742 C   0  0  0  0  0  0  0  0  0  0  0  0
  154.4587  140.4038  160.4933 N   0  3  0  0  0  0  0  0  0  0  0  0
  154.5196  139.7027  159.4884 O   0  0  0  0  0  0  0  0  0  0  0  0
  155.0955  140.1488  161.5111 O   0  5  0  0  0  0  0  0  0  0  0  0
  153.2999  142.2922  161.6946 C   0  0  0  0  0  0  0  0  0  0  0  0
  152.5169  143.3887  161.6634 C   0  0  0  0  0  0  0  0  0  0  0  0
  151.9448  143.8920  160.4106 C   0  0  0  0  0  0  0  0  0  0  0  0
  151.2460  144.9045  160.3720 O   0  0  0  0  0  0  0  0  0  0  0  0
  150.9558  139.7513  155.0566 C   0  0  0  0  0  0  0  0  0  0  0  0
  150.4836  138.3553  154.7161 C   0  0  0  0  0  0  0  0  0  0  0  0
  151.6291  138.5519  155.6851 C   0  0  0  0  0  0  0  0  0  0  0  0
  148.5414  140.7579  154.3339 H   0  0  0  0  0  0  0  0  0  0  0  0
  149.7155  142.0562  154.1557 H   0  0  0  0  0  0  0  0  0  0  0  0
  148.4806  142.1420  155.4079 H   0  0  0  0  0  0  0  0  0  0  0  0
  151.9531  141.6507  156.2845 H   0  0  0  0  0  0  0  0  0  0  0  0
  152.5365  143.6273  157.2388 H   0  0  0  0  0  0  0  0  0  0  0  0
  151.3319  144.5909  158.0178 H   0  0  0  0  0  0  0  0  0  0  0  0
  153.2392  141.5676  158.3633 H   0  0  0  0  0  0  0  0  0  0  0  0
  153.6974  141.9592  162.6421 H   0  0  0  0  0  0  0  0  0  0  0  0
  152.3038  143.9113  162.5844 H   0  0  0  0  0  0  0  0  0  0  0  0
  151.5324  140.2408  154.2731 H   0  0  0  0  0  0  0  0  0  0  0  0
  149.5333  138.0170  155.1235 H   0  0  0  0  0  0  0  0  0  0  0  0
  150.7242  137.9733  153.7260 H   0  0  0  0  0  0  0  0  0  0  0  0
  152.6289  138.3012  155.3369 H   0  0  0  0  0  0  0  0  0  0  0  0
  151.4411  138.3446  156.7364 H   0  0  0  0  0  0  0  0  0  0  0  0
  1  2  1  0  0  0  0
  1 22  1  0  0  0  0
  1 23  1  0  0  0  0
  1 24  1  0  0  0  0
  2  3  1  0  0  0  0
  2  5  1  0  0  0  0
  2 19  1  0  0  0  0
  3  4  3  0  0  0  0
  5  6  1  0  0  0  0
  5 25  1  0  0  0  0
  6  7  2  0  0  0  0
  6  8  1  0  0  0  0
  8  9  1  0  0  0  0
  8 26  1  0  0  0  0
  8 27  1  0  0  0  0
  9 17  1  0  0  0  0
  9 10  1  0  0  0  0
 10 11  2  0  0  0  0
 10 28  1  0  0  0  0
 11 12  1  0  0  0  0
 11 15  1  0  0  0  0
 12 13  2  0  0  0  0
 12 14  1  0  0  0  0
 15 16  2  0  0  0  0
 15 29  1  0  0  0  0
 16 17  1  0  0  0  0
 16 30  1  0  0  0  0
 17 18  2  0  0  0  0
 19 21  1  0  0  0  0
 19 20  1  0  0  0  0
 19 31  1  0  0  0  0
 20 21  1  0  0  0  0
 20 32  1  0  0  0  0
 20 33  1  0  0  0  0
 21 34  1  0  0  0  0
 21 35  1  0  0  0  0
M  CHG  1  12   1
M  CHG  1  14  -1
M  END
> <s_m_source_file>
AV-unprocessed.smi

> <i_m_source_file_index>
1664

> <i_lp_mmshare_version>
43012

> <i_f3d_flags>
0

> <s_epik_input>
W0NIMl0xW0NIMl1bQ0hdMVtDQF0oW0NIM10pKEMjTilbTkhdQyg9TylbQ0gyXW4yW2NIXWMoW04rXSg9TylbTy1dKVtjSF1bY0hdYzI9Tw==

> <s_epik_cmdline>
J2VwaWtfcHl0aG9uJywgJy1waCcsICc3LjAnLCAnLXRuJywgJzgnLCAnLW1hJywgJzIwMCcsICctbWV0YWxfYmluZGluZycsICctaW1hZScsICc8aW5maWxlLm1hZT4nLCAnLW9tYWUnLCAnPG91dGZpbGUubWFlPic=

> <r_lp_tautomer_probability>
1

> <r_epik_Ionization_Penalty>
4.65324e-07

> <r_epik_Ionization_Penalty_Charging>
6.17383e-11

> <r_epik_Ionization_Penalty_Neutral>
4.65262e-07

> <r_epik_State_Penalty>
-0

> <r_epik_Charging_Adjusted_Penalty>
6.17383e-11

> <i_epik_Tot_Q>
0

> <i_epik_Tot_abs_Q>
2

> <r_epik_Metal_State_Penalty>
-0

> <b_epik_Metal_Only>
0

> <s_lp_Force_Field>
OPLS_2005

> <r_lp_Energy>
24.1204

> <b_lp_Chiralities_Consistent>
1

> <s_lp_Variant>
AV-unprocessed.smi:1664-2

> <Gold.Version>
5.8.1

> <Gold.Id.Protein>
6NUR|6NUR_protein|mol2

> <Gold.PLP.Fitness>
48.6166

> <Gold.PLP.PLP>
-46.7835

> <Gold.PLP.part.hbond>
-2.0000

> <Gold.PLP.part.metal>
0.0000

> <Gold.PLP.part.buried>
-2.3346

> <Gold.PLP.part.nonpolar>
-43.0592

> <Gold.PLP.part.repulsive>
0.6529

> <Gold.PLP.ligand.clash>
0.0000

> <Gold.PLP.ligand.torsion>
1.3430

> <Gold.PLP.Chemscore.Hbond>
1.0000

> <Gold.PLP.Chemscore.CHOScore>
0.0000

> <Gold.PLP.Chemscore.Metal>
0.0000

> <Gold.Chemscore.Hbonds>
donor molecule, donor type, donor heavy atom, donor atom, acceptor molecule, acceptor atom, score
      P1  H  7997  8010       L1    13  0.44

> <Gold.PLP.Chemscore.Internal.Correction>
1.5191

> <Gold.Rescore>
     Score         DG    S(hbond)    S(metal)    S(lipo)     H(rot)  DE(clash)    DE(int)     intcor
     11.64     -14.86       0.95        0.00      95.37       1.94       1.41       1.81       ----

> <Gold.Chemscore.Fitness>
11.6398

> <Gold.Chemscore.DG>
-14.8615

> <Gold.Chemscore.ZeroCoef>
-5.4800

> <Gold.Chemscore.Hbond>
0.9537

> <Gold.Chemscore.Metal>
0.0000

> <Gold.Chemscore.Lipo>
95.3741

> <Gold.Chemscore.Internal_Hbond>
0.0000

> <Gold.Chemscore.DEClash>
1.4127

> <Gold.Chemscore.DEInternal>
1.8090

> <Gold.Chemscore.Rot>
1.9386

> <Gold.Chemscore.Internal.Correction>
   9.000000E+99

> <Gold.Chemscore.Hbonds>
donor molecule, donor type, donor heavy atom, donor atom, acceptor molecule, acceptor atom, score
      P1  H  7997  8010       L1    13  0.43

> <Gold.Chemscore.Hbond.Weighted>
-3.1854

> <Gold.Chemscore.Metal.Weighted>
-0.0000

> <Gold.Chemscore.Lipo.Weighted>
-11.1588

> <Gold.Chemscore.Internal_Hbond.Weighted>
0.0000

> <Gold.Chemscore.DEClash.Weighted>
1.4127

> <Gold.Chemscore.DEInternal.Weighted>
1.8090

> <Gold.Chemscore.Rot.Weighted>
4.9627

> <Gold.Chemscore.Internal.Correction.Weighted>
   9.000000E+99

> <Gold.Protein.RotatedTorsions>
[ 6907 6896 6895 6894 ] final    5.82 input  -60.11 | X-H torsion
[ 7974 7965 7964 7962 ] final  -61.95 input  175.53 | X-H torsion
[ 8008 7997 7996 7995 ] final   -4.22 input   59.86 | X-H torsion
[ 10167 10162 10161 10158 ] final   57.37 input  -65.29 | X-H torsion
[ 10718 10713 10712 10709 ] final -144.71 input   66.30 | X-H torsion
[ 10763 10752 10751 10750 ] final  -91.66 input  -60.55 | X-H torsion
[ 11005 11000 10999 10996 ] final  -85.09 input  -57.11 | X-H torsion

> <Gold.Protein.ActiveResidues>
 VAL166  LYS551  ARG553  GLY616  TRP617  ASP618  TYR619  PRO620  LYS621  CYS622 
 ASP623  PHE694  ASN695  SER759  ASP760  ASP761  ALA762  ILE779  LEU786  VAL792 
 PHE793  MET794  SER795  GLU796  ALA797  LYS798  CYS799  TRP800  GLU811  SER814 

> <Gold.Protein.RotatedAtoms>
  151.6637  135.0986  160.0184 H   0  0  0  0  0  0  0  0  0  0  0  0  # atno 6907 bound_to 6896
  152.3932  133.6704  159.6263 H   0  0  0  0  0  0  0  0  0  0  0  0  # atno 6908 bound_to 6896
  150.7843  133.8836  159.3334 H   0  0  0  0  0  0  0  0  0  0  0  0  # atno 6909 bound_to 6896
  145.7973  140.8675  143.0250 H   0  0  0  0  0  0  0  0  0  0  0  0  # atno 7974 bound_to 7965
  154.6166  140.2489  155.7602 H   0  0  0  0  0  0  0  0  0  0  0  0  # atno 8008 bound_to 7997
  156.2402  140.2935  156.0372 H   0  0  0  0  0  0  0  0  0  0  0  0  # atno 8009 bound_to 7997
  155.1966  140.0393  157.2900 H   0  0  0  0  0  0  0  0  0  0  0  0  # atno 8010 bound_to 7997
  140.1987  144.4010  150.6538 H   0  0  0  0  0  0  0  0  0  0  0  0  # atno 10167 bound_to 10162
  156.3735  130.7800  151.1984 H   0  0  0  0  0  0  0  0  0  0  0  0  # atno 10718 bound_to 10713
  154.6783  135.5259  153.8229 H   0  0  0  0  0  0  0  0  0  0  0  0  # atno 10763 bound_to 10752
  153.0547  135.6546  154.0616 H   0  0  0  0  0  0  0  0  0  0  0  0  # atno 10764 bound_to 10752
  154.0506  135.2969  155.3321 H   0  0  0  0  0  0  0  0  0  0  0  0  # atno 10765 bound_to 10752
  141.1644  133.7380  156.8963 H   0  0  0  0  0  0  0  0  0  0  0  0  # atno 11005 bound_to 11000
  144.6773  140.0208  143.7484 LP  0  0  0  0  0  0  0  0  0  0  0  0  # atno 17320 bound_to 7965
  145.9915  139.3018  143.0982 LP  0  0  0  0  0  0  0  0  0  0  0  0  # atno 17321 bound_to 7965
  140.6405  143.2203  151.6300 LP  0  0  0  0  0  0  0  0  0  0  0  0  # atno 17342 bound_to 10162
  139.5226  144.3158  152.0953 LP  0  0  0  0  0  0  0  0  0  0  0  0  # atno 17343 bound_to 10162
  157.7486  131.0365  150.4413 LP  0  0  0  0  0  0  0  0  0  0  0  0  # atno 17370 bound_to 10713
  156.4644  130.4039  149.6556 LP  0  0  0  0  0  0  0  0  0  0  0  0  # atno 17371 bound_to 10713
  140.1613  134.9163  157.2718 LP  0  0  0  0  0  0  0  0  0  0  0  0  # atno 17394 bound_to 11000
  140.2608  134.3574  155.7407 LP  0  0  0  0  0  0  0  0  0  0  0  0  # atno 17395 bound_to 11000

$$$$
