#       Name:                AV-unprocessed.smi:1381
#       Creating user name   scv26
#       Creation time:       Fri Mar 27 05:21:54 2020


#       File generated by GOLD software.
#

@<TRIPOS>MOLECULE
AV-unprocessed.smi:1381
    50    51     1
SMALL
NO_CHARGES


@<TRIPOS>ATOM
      1 ****        -6.4634   5.3502   0.9269 C.3            1 S1                 0.0000
      2 ****        -5.4482   4.5384   0.1982 C.2            1 S1                 0.0000
      3 ****        -4.1509   4.2112   0.4736 C.2            1 S1                 0.0000
      4 ****        -3.7774   3.4025  -0.6345 C.2            1 S1                 0.0000
      5 ****        -2.5749   2.8409  -0.8334 N.pl3          1 S1                -1.0000
      6 ****        -2.2617   1.6689  -0.2336 C.2            1 S1                 0.0000
      7 ****        -2.9808   1.0236   0.5327 O.2            1 S1                 0.0000
      8 ****        -1.0384   1.2162  -0.5398 N.am           1 S1                 0.0000
      9 ****        -0.4479  -0.0193  -0.0430 C.3            1 S1                 0.0000
     10 ****         0.8527  -0.3263  -0.8022 C.3            1 S1                 0.0000
     11 ****         1.4905  -1.5941  -0.4505 N.3            1 S1                 0.0000
     12 ****         2.0280  -1.5928   0.9078 C.3            1 S1                 0.0000
     13 ****         2.7216  -2.9243   1.2561 C.3            1 S1                 0.0000
     14 ****         3.3676  -2.8948   2.6454 C.3            1 S1                 0.0000
     15 ****         3.7402  -3.1889   0.2951 O.3            1 S1                 0.0000
     16 ****         3.2509  -3.2484  -1.0416 C.3            1 S1                 0.0000
     17 ****         4.4290  -3.5511  -1.9737 C.3            1 S1                 0.0000
     18 ****         2.5655  -1.9119  -1.3832 C.3            1 S1                 0.0000
     19 ****        -4.7558   3.2675  -1.5139 N.2            1 S1                 0.0000
     20 ****        -5.8337   3.9864  -0.9836 O.3            1 S1                 0.0000
     21 ****        -6.0092   6.2454   1.3517 H              1 S1                 0.0000
     22 ****        -6.9027   4.7743   1.7413 H              1 S1                 0.0000
     23 ****        -7.2677   5.6635   0.2610 H              1 S1                 0.0000
     24 ****        -3.5634   4.4980   1.3327 H              1 S1                 0.0000
     25 ****        -0.4785   1.7735  -1.1681 H              1 S1                 0.0000
     26 ****        -0.2651   0.0924   1.0258 H              1 S1                 0.0000
     27 ****        -1.1533  -0.8422  -0.1700 H              1 S1                 0.0000
     28 ****         0.6150  -0.3385  -1.8671 H              1 S1                 0.0000
     29 ****         1.5599   0.4929  -0.6627 H              1 S1                 0.0000
     30 ****         2.7380  -0.7720   1.0220 H              1 S1                 0.0000
     31 ****         1.2298  -1.4176   1.6284 H              1 S1                 0.0000
     32 ****         1.9903  -3.7338   1.2271 H              1 S1                 0.0000
     33 ****         2.6237  -2.7059   3.4196 H              1 S1                 0.0000
     34 ****         4.1259  -2.1143   2.7114 H              1 S1                 0.0000
     35 ****         3.8486  -3.8465   2.8717 H              1 S1                 0.0000
     36 ****         2.5265  -4.0613  -1.1177 H              1 S1                 0.0000
     37 ****         4.1001  -3.6254  -3.0105 H              1 S1                 0.0000
     38 ****         4.9036  -4.4956  -1.7071 H              1 S1                 0.0000
     39 ****         5.1874  -2.7697  -1.9181 H              1 S1                 0.0000
     40 ****         2.1690  -1.9605  -2.3981 H              1 S1                 0.0000
     41 ****         3.3072  -1.1115  -1.3769 H              1 S1                 0.0000
     42 ****        -1.9075   3.2903  -1.4272 LP             1 S1                 0.0000
     43 ****        -3.8939   1.3597   0.7634 LP             1 S1                 0.0000
     44 ****        -2.6507   0.1643   0.9234 LP             1 S1                 0.0000
     45 ****         0.7744  -2.2900  -0.5037 LP             1 S1                 0.0000
     46 ****         4.1658  -4.0662   0.5168 LP             1 S1                 0.0000
     47 ****         4.4254  -2.4626   0.3504 LP             1 S1                 0.0000
     48 ****        -4.7309   2.7597  -2.3750 LP             1 S1                 0.0000
     49 ****        -6.1029   4.7086  -1.6207 LP             1 S1                 0.0000
     50 ****        -6.6069   3.3708  -0.8315 LP             1 S1                 0.0000
@<TRIPOS>BOND
    1    1    2 1     
    2    1   21 1     
    3    1   22 1     
    4    1   23 1     
    5    2   20 1     
    6    2    3 2     
    7    3    4 1     
    8    3   24 1     
    9    4    5 1     
   10    4   19 2     
   11    5    6 1     
   12    6    7 2     
   13    6    8 am    
   14    8    9 1     
   15    8   25 1     
   16    9   10 1     
   17    9   26 1     
   18    9   27 1     
   19   10   11 1     
   20   10   28 1     
   21   10   29 1     
   22   11   18 1     
   23   11   12 1     
   24   12   13 1     
   25   12   30 1     
   26   12   31 1     
   27   13   14 1     
   28   13   15 1     
   29   13   32 1     
   30   14   33 1     
   31   14   34 1     
   32   14   35 1     
   33   15   16 1     
   34   16   17 1     
   35   16   18 1     
   36   16   36 1     
   37   17   37 1     
   38   17   38 1     
   39   17   39 1     
   40   18   40 1     
   41   18   41 1     
   42   19   20 1     
   43    5   42 1     
   44    7   43 1     
   45    7   44 1     
   46   11   45 1     
   47   15   46 1     
   48   15   47 1     
   49   19   48 1     
   50   20   49 1     
   51   20   50 1     
@<TRIPOS>SUBSTRUCTURE
      1 S1             1
@<TRIPOS>SET
LONE_PAIRS      STATIC     ATOMS    <user>   **** ""
9 42 43 44 45 46 47 48 49 50
DONOR_HYDROGENS      STATIC     ATOMS    <user>   **** ""
1 25
ATOM$BLUE        STATIC     ATOMS    COLORGROUP SYSTEM
9 42 43 44 45 46 47 48 49 50
ATOM$RED        STATIC     ATOMS    COLORGROUP SYSTEM
1 25
