#       Name:                AV-unprocessed.smi:2083
#       Creating user name   scv26
#       Creation time:       Fri Mar 27 11:21:47 2020


#       File generated by GOLD software.
#

@<TRIPOS>MOLECULE
AV-unprocessed.smi:2083
    50    51     1
SMALL
NO_CHARGES


@<TRIPOS>ATOM
      1 ****        -2.1429   6.7307  -2.8756 C.3            1 S1                 0.0000
      2 ****        -2.5033   5.5616  -2.0240 C.2            1 S1                 0.0000
      3 ****        -1.8246   4.8725  -1.0594 C.2            1 S1                 0.0000
      4 ****        -2.7526   3.8719  -0.6610 C.2            1 S1                 0.0000
      5 ****        -2.5513   2.9414   0.2847 N.pl3          1 S1                -1.0000
      6 ****        -1.9241   1.7836  -0.0220 C.2            1 S1                 0.0000
      7 ****        -1.4840   1.4588  -1.1273 O.2            1 S1                 0.0000
      8 ****        -1.7907   0.9511   1.0204 N.am           1 S1                 0.0000
      9 ****        -1.1342  -0.3526   0.9919 C.3            1 S1                 0.0000
     10 ****         0.4163  -0.2455   0.9491 C.3            1 S1                 0.0000
     11 ****         0.9304   0.5862   2.1453 C.3            1 S1                 0.0000
     12 ****         1.1301  -1.5640   0.9086 N.4            1 S1                 1.0000
     13 ****         2.4831  -1.4421   0.2950 C.3            1 S1                 0.0000
     14 ****         3.2925  -2.7380   0.4460 C.3            1 S1                 0.0000
     15 ****         2.5460  -3.9174  -0.1834 C.3            1 S1                 0.0000
     16 ****         1.1433  -4.0357   0.4305 C.3            1 S1                 0.0000
     17 ****         0.3562  -5.1963  -0.1948 C.3            1 S1                 0.0000
     18 ****         0.3770  -2.7021   0.3035 C.3            1 S1                 0.0000
     19 ****        -3.8995   3.9568  -1.3140 N.2            1 S1                 0.0000
     20 ****        -3.7457   5.0345  -2.1944 O.3            1 S1                 0.0000
     21 ****        -2.0272   7.6285  -2.2684 H              1 S1                 0.0000
     22 ****        -2.9119   6.9247  -3.6237 H              1 S1                 0.0000
     23 ****        -1.2030   6.5517  -3.3976 H              1 S1                 0.0000
     24 ****        -0.8235   5.0525  -0.6978 H              1 S1                 0.0000
     25 ****        -2.1707   1.2540   1.9055 H              1 S1                 0.0000
     26 ****        -1.4503  -0.9009   1.8799 H              1 S1                 0.0000
     27 ****        -1.5229  -0.8951   0.1289 H              1 S1                 0.0000
     28 ****         0.6716   0.2861   0.0311 H              1 S1                 0.0000
     29 ****         0.4952   1.5854   2.1593 H              1 S1                 0.0000
     30 ****         2.0099   0.7261   2.1243 H              1 S1                 0.0000
     31 ****         0.6802   0.1060   3.0917 H              1 S1                 0.0000
     32 ****         2.3796  -1.1910  -0.7621 H              1 S1                 0.0000
     33 ****         3.0451  -0.6288   0.7512 H              1 S1                 0.0000
     34 ****         4.2693  -2.6235  -0.0249 H              1 S1                 0.0000
     35 ****         3.4782  -2.9366   1.5025 H              1 S1                 0.0000
     36 ****         2.4719  -3.7731  -1.2623 H              1 S1                 0.0000
     37 ****         3.1082  -4.8391  -0.0282 H              1 S1                 0.0000
     38 ****         1.2594  -4.2546   1.4932 H              1 S1                 0.0000
     39 ****         0.2001  -5.0398  -1.2627 H              1 S1                 0.0000
     40 ****        -0.6232  -5.3040   0.2722 H              1 S1                 0.0000
     41 ****         0.8850  -6.1417  -0.0704 H              1 S1                 0.0000
     42 ****        -0.5776  -2.8379   0.8106 H              1 S1                 0.0000
     43 ****         0.1621  -2.4819  -0.7436 H              1 S1                 0.0000
     44 ****         1.2716  -1.8235   1.8741 H              1 S1                 0.0000
     45 ****        -2.8663   3.1049   1.2196 LP             1 S1                 0.0000
     46 ****        -1.5767   2.0808  -1.9049 LP             1 S1                 0.0000
     47 ****        -1.0344   0.5735  -1.2461 LP             1 S1                 0.0000
     48 ****        -4.7052   3.3750  -1.2027 LP             1 S1                 0.0000
     49 ****        -3.8503   4.7170  -3.1369 LP             1 S1                 0.0000
     50 ****        -4.4365   5.7305  -1.9986 LP             1 S1                 0.0000
@<TRIPOS>BOND
    1    1    2 1     
    2    1   21 1     
    3    1   22 1     
    4    1   23 1     
    5    2   20 1     
    6    2    3 2     
    7    3    4 1     
    8    3   24 1     
    9    4    5 1     
   10    4   19 2     
   11    5    6 1     
   12    6    7 2     
   13    6    8 am    
   14    8    9 1     
   15    8   25 1     
   16    9   10 1     
   17    9   26 1     
   18    9   27 1     
   19   10   11 1     
   20   10   12 1     
   21   10   28 1     
   22   11   29 1     
   23   11   30 1     
   24   11   31 1     
   25   12   18 1     
   26   12   13 1     
   27   12   44 1     
   28   13   14 1     
   29   13   32 1     
   30   13   33 1     
   31   14   15 1     
   32   14   34 1     
   33   14   35 1     
   34   15   16 1     
   35   15   36 1     
   36   15   37 1     
   37   16   17 1     
   38   16   18 1     
   39   16   38 1     
   40   17   39 1     
   41   17   40 1     
   42   17   41 1     
   43   18   42 1     
   44   18   43 1     
   45   19   20 1     
   46    5   45 1     
   47    7   46 1     
   48    7   47 1     
   49   19   48 1     
   50   20   49 1     
   51   20   50 1     
@<TRIPOS>SUBSTRUCTURE
      1 S1             1
@<TRIPOS>SET
LONE_PAIRS      STATIC     ATOMS    <user>   **** ""
6 45 46 47 48 49 50
DONOR_HYDROGENS      STATIC     ATOMS    <user>   **** ""
2 25 44
ATOM$BLUE        STATIC     ATOMS    COLORGROUP SYSTEM
6 45 46 47 48 49 50
ATOM$RED        STATIC     ATOMS    COLORGROUP SYSTEM
2 25 44
