#       Name:                AV-unprocessed.smi:1707
#       Creating user name   scv26
#       Creation time:       Fri Mar 27 08:09:33 2020


#       File generated by GOLD software.
#

@<TRIPOS>MOLECULE
AV-unprocessed.smi:1707
    45    46     1
SMALL
NO_CHARGES


@<TRIPOS>ATOM
      1 ****        -0.8542   1.2132   0.1815 O.2            1 S1                 0.0000
      2 ****        -1.3590   0.2265   0.7171 C.2            1 S1                 0.0000
      3 ****        -0.6431  -0.8300   1.1283 N.am           1 S1                 0.0000
      4 ****         0.8041  -0.9591   1.0049 C.3            1 S1                 0.0000
      5 ****         1.2118  -1.4045  -0.4104 C.3            1 S1                 0.0000
      6 ****         2.7115  -1.5997  -0.5574 C.2            1 S1                 0.0000
      7 ****         3.2540  -2.8099  -0.7949 C.2            1 S1                 0.0000
      8 ****         4.7443  -3.0636  -0.9398 C.3            1 S1                 0.0000
      9 ****         5.5910  -1.8761  -0.4522 C.3            1 S1                 0.0000
     10 ****         5.0057  -0.5433  -0.9354 C.3            1 S1                 0.0000
     11 ****         3.5677  -0.3449  -0.4241 C.3            1 S1                 0.0000
     12 ****        -2.6691   0.0382   0.9593 N.am           1 S1                 0.0000
     13 ****        -3.7609   0.8877   0.7091 C.2            1 S1                 0.0000
     14 ****        -3.6670   2.2045   0.3732 C.2            1 S1                 0.0000
     15 ****        -4.8408   3.0362   0.1391 C.2            1 S1                 0.0000
     16 ****        -4.7711   4.4785  -0.3307 C.3            1 S1                 0.0000
     17 ****        -5.7857   4.7676  -1.1460 F              1 S1                 0.0000
     18 ****        -4.8326   5.2998   0.7164 F              1 S1                 0.0000
     19 ****        -3.6305   4.7156  -0.9784 F              1 S1                 0.0000
     20 ****        -6.0199   2.3322   0.2871 C.2            1 S1                 0.0000
     21 ****        -6.2012   1.0412   0.6411 N.pl3          1 S1                -1.0000
     22 ****        -5.0966   0.2732   0.8594 C.2            1 S1                 0.0000
     23 ****        -5.1904  -0.9126   1.1786 O.2            1 S1                 0.0000
     24 ****        -1.1354  -1.5997   1.5576 H              1 S1                 0.0000
     25 ****         1.2809  -0.0145   1.2714 H              1 S1                 0.0000
     26 ****         1.1410  -1.6945   1.7359 H              1 S1                 0.0000
     27 ****         0.6988  -2.3347  -0.6595 H              1 S1                 0.0000
     28 ****         0.8875  -0.6698  -1.1484 H              1 S1                 0.0000
     29 ****         2.6145  -3.6736  -0.9041 H              1 S1                 0.0000
     30 ****         5.0126  -3.9628  -0.3848 H              1 S1                 0.0000
     31 ****         4.9497  -3.2667  -1.9912 H              1 S1                 0.0000
     32 ****         5.6252  -1.8765   0.6381 H              1 S1                 0.0000
     33 ****         6.6206  -1.9864  -0.7937 H              1 S1                 0.0000
     34 ****         5.6334   0.2870  -0.6107 H              1 S1                 0.0000
     35 ****         5.0099  -0.5247  -2.0260 H              1 S1                 0.0000
     36 ****         3.0992   0.4768  -0.9667 H              1 S1                 0.0000
     37 ****         3.5898  -0.0568   0.6273 H              1 S1                 0.0000
     38 ****        -2.9256  -0.8538   1.3565 H              1 S1                 0.0000
     39 ****        -2.7094   2.6890   0.2849 H              1 S1                 0.0000
     40 ****        -6.9597   2.8894   0.0862 H              1 S1                 0.0000
     41 ****         0.1343   1.2520   0.0354 LP             1 S1                 0.0000
     42 ****        -1.4326   1.9761  -0.1074 LP             1 S1                 0.0000
     43 ****        -7.1202   0.6597   0.7403 LP             1 S1                 0.0000
     44 ****        -4.3651  -1.4551   1.3349 LP             1 S1                 0.0000
     45 ****        -6.0920  -1.3328   1.2816 LP             1 S1                 0.0000
@<TRIPOS>BOND
    1    1    2 2     
    2    2    3 am    
    3    2   12 am    
    4    3    4 1     
    5    3   24 1     
    6    4    5 1     
    7    4   25 1     
    8    4   26 1     
    9    5    6 1     
   10    5   27 1     
   11    5   28 1     
   12    6   11 1     
   13    6    7 2     
   14    7    8 1     
   15    7   29 1     
   16    8    9 1     
   17    8   30 1     
   18    8   31 1     
   19    9   10 1     
   20    9   32 1     
   21    9   33 1     
   22   10   11 1     
   23   10   34 1     
   24   10   35 1     
   25   11   36 1     
   26   11   37 1     
   27   12   13 1     
   28   12   38 1     
   29   13   22 1     
   30   13   14 2     
   31   14   15 1     
   32   14   39 1     
   33   15   16 1     
   34   15   20 2     
   35   16   17 1     
   36   16   18 1     
   37   16   19 1     
   38   20   21 1     
   39   20   40 1     
   40   21   22 1     
   41   22   23 2     
   42    1   41 1     
   43    1   42 1     
   44   21   43 1     
   45   23   44 1     
   46   23   45 1     
@<TRIPOS>SUBSTRUCTURE
      1 S1             1
@<TRIPOS>SET
LONE_PAIRS      STATIC     ATOMS    <user>   **** ""
5 41 42 43 44 45
DONOR_HYDROGENS      STATIC     ATOMS    <user>   **** ""
2 24 38
ATOM$BLUE        STATIC     ATOMS    COLORGROUP SYSTEM
5 41 42 43 44 45
ATOM$RED        STATIC     ATOMS    COLORGROUP SYSTEM
2 24 38
