AV-unprocessed.smi:793|AV-procd|sdf|3752|dock9
  -GOLD-   22720 1183D 1   1.00000     0.00000
 Structure written by MMmdl.
 39 40  0  0  0  0  0  0  0  0  1 V2000
  147.0465  135.6778  155.7057 C   0  0  0  0  0  0  0  0  0  0  0  0
  146.7583  137.1360  155.3281 C   0  0  0  0  0  0  0  0  0  0  0  0
  146.7769  137.3726  153.8062 C   0  0  2  0  0  0  0  0  0  0  0  0
  146.4865  138.7508  153.5752 O   0  0  0  0  0  0  0  0  0  0  0  0
  147.2725  139.6951  154.2976 C   0  0  0  0  0  0  0  0  0  0  0  0
  147.1596  141.1194  153.7438 C   0  0  0  0  0  0  0  0  0  0  0  0
  148.4848  141.8055  154.1040 C   0  0  0  0  0  0  0  0  0  0  0  0
  149.4642  140.6857  154.4878 C   0  0  0  0  0  0  0  0  0  0  0  0
  148.7569  139.3745  154.1396 C   0  0  0  0  0  0  0  0  0  0  0  0
  145.7406  136.4907  153.0901 C   0  0  0  0  0  0  0  0  0  0  0  0
  144.5796  136.4691  153.4977 O   0  0  0  0  0  0  0  0  0  0  0  0
  146.2019  135.8099  152.0227 N   0  0  0  0  0  0  0  0  0  0  0  0
  145.5239  134.9238  151.1703 C   0  0  0  0  0  0  0  0  0  0  0  0
  144.3998  135.2069  150.4634 C   0  0  0  0  0  0  0  0  0  0  0  0
  143.7554  134.2955  149.6390 N   0  0  0  0  0  0  0  0  0  0  0  0
  144.2708  133.0147  149.5240 C   0  0  0  0  0  0  0  0  0  0  0  0
  145.3771  132.6034  150.1741 C   0  0  0  0  0  0  0  0  0  0  0  0
  146.0917  133.5506  151.0594 C   0  0  0  0  0  0  0  0  0  0  0  0
  147.1052  133.2082  151.6684 O   0  0  0  0  0  0  0  0  0  0  0  0
  147.0204  135.5457  156.7874 H   0  0  0  0  0  0  0  0  0  0  0  0
  148.0317  135.3665  155.3574 H   0  0  0  0  0  0  0  0  0  0  0  0
  146.3080  135.0044  155.2701 H   0  0  0  0  0  0  0  0  0  0  0  0
  145.7836  137.4129  155.7329 H   0  0  0  0  0  0  0  0  0  0  0  0
  147.4876  137.7840  155.8161 H   0  0  0  0  0  0  0  0  0  0  0  0
  147.7751  137.1318  153.4366 H   0  0  0  0  0  0  0  0  0  0  0  0
  147.0344  139.6907  155.3621 H   0  0  0  0  0  0  0  0  0  0  0  0
  147.0568  141.0825  152.6581 H   0  0  0  0  0  0  0  0  0  0  0  0
  146.2953  141.6545  154.1383 H   0  0  0  0  0  0  0  0  0  0  0  0
  148.8574  142.3890  153.2615 H   0  0  0  0  0  0  0  0  0  0  0  0
  148.3512  142.4913  154.9415 H   0  0  0  0  0  0  0  0  0  0  0  0
  150.4236  140.7801  153.9786 H   0  0  0  0  0  0  0  0  0  0  0  0
  149.6579  140.7227  155.5606 H   0  0  0  0  0  0  0  0  0  0  0  0
  149.0767  138.5428  154.7678 H   0  0  0  0  0  0  0  0  0  0  0  0
  148.9698  139.1100  153.1026 H   0  0  0  0  0  0  0  0  0  0  0  0
  147.1689  135.9682  151.7779 H   0  0  0  0  0  0  0  0  0  0  0  0
  143.8968  136.1603  150.4846 H   0  0  0  0  0  0  0  0  0  0  0  0
  143.7081  132.3689  148.8660 H   0  0  0  0  0  0  0  0  0  0  0  0
  145.7551  131.5976  150.0642 H   0  0  0  0  0  0  0  0  0  0  0  0
  142.9194  134.5604  149.1372 H   0  0  0  0  0  0  0  0  0  0  0  0
  1  2  1  0  0  0  0
  1 20  1  0  0  0  0
  1 21  1  0  0  0  0
  1 22  1  0  0  0  0
  2  3  1  0  0  0  0
  2 23  1  0  0  0  0
  2 24  1  0  0  0  0
  3  4  1  0  0  0  0
  3 10  1  0  0  0  0
  3 25  1  0  0  0  0
  4  5  1  0  0  0  0
  5  9  1  0  0  0  0
  5  6  1  0  0  0  0
  5 26  1  0  0  0  0
  6  7  1  0  0  0  0
  6 27  1  0  0  0  0
  6 28  1  0  0  0  0
  7  8  1  0  0  0  0
  7 29  1  0  0  0  0
  7 30  1  0  0  0  0
  8  9  1  0  0  0  0
  8 31  1  0  0  0  0
  8 32  1  0  0  0  0
  9 33  1  0  0  0  0
  9 34  1  0  0  0  0
 10 11  2  0  0  0  0
 10 12  1  0  0  0  0
 12 35  1  0  0  0  0
 12 13  1  0  0  0  0
 13 18  1  0  0  0  0
 13 14  2  0  0  0  0
 14 36  1  0  0  0  0
 14 15  1  0  0  0  0
 15 39  1  0  0  0  0
 15 16  1  0  0  0  0
 16 37  1  0  0  0  0
 16 17  2  0  0  0  0
 17 18  1  0  0  0  0
 17 38  1  0  0  0  0
 18 19  2  0  0  0  0
M  END
> <s_m_source_file>
AV-unprocessed.smi

> <i_m_source_file_index>
793

> <i_lp_mmshare_version>
43012

> <i_f3d_flags>
0

> <s_epik_input>
W0NIMl0xW0NIMl1bQ0gyXVtDSDJdW0NIXTFPW0NAQEhdKFtDSDJdW0NIM10pQyg9TylbTkhdYzJbY0hdbltjSF1bY0hdYzJbT0hd

> <s_epik_cmdline>
J2VwaWtfcHl0aG9uJywgJy1waCcsICc3LjAnLCAnLXRuJywgJzgnLCAnLW1hJywgJzIwMCcsICctbWV0YWxfYmluZGluZycsICctaW1hZScsICc8aW5maWxlLm1hZT4nLCAnLW9tYWUnLCAnPG91dGZpbGUubWFlPic=

> <r_lp_tautomer_probability>
1

> <r_epik_Ionization_Penalty>
0.000234492

> <r_epik_Ionization_Penalty_Charging>
0.000234447

> <r_epik_Ionization_Penalty_Neutral>
4.48517e-08

> <r_epik_State_Penalty>
-0

> <r_epik_Charging_Adjusted_Penalty>
0.000234447

> <i_epik_Tot_Q>
0

> <i_epik_Tot_abs_Q>
0

> <r_epik_Metal_State_Penalty>
0.110344

> <b_epik_Metal_Only>
0

> <s_lp_Force_Field>
OPLS_2005

> <r_lp_Energy>
24.985

> <b_lp_Chiralities_Consistent>
1

> <s_lp_Variant>
AV-unprocessed.smi:793-1

> <Gold.Version>
5.8.1

> <Gold.Id.Protein>
6NUR|6NUR_protein|mol2

> <Gold.PLP.Fitness>
35.0968

> <Gold.PLP.PLP>
-28.6264

> <Gold.PLP.part.hbond>
-2.6238

> <Gold.PLP.part.metal>
0.0000

> <Gold.PLP.part.buried>
-1.9178

> <Gold.PLP.part.nonpolar>
-24.2306

> <Gold.PLP.part.repulsive>
0.5886

> <Gold.PLP.ligand.clash>
0.0000

> <Gold.PLP.ligand.torsion>
0.8297

> <Gold.PLP.Chemscore.Hbond>
1.6880

> <Gold.PLP.Chemscore.CHOScore>
1.0000

> <Gold.PLP.Chemscore.Metal>
0.0000

> <Gold.Chemscore.Hbonds>
donor molecule, donor type, donor heavy atom, donor atom, acceptor molecule, acceptor atom, score
      L1  H    12    35       P1  7948  1.00
      L1  H    15    39       P1 10186  0.69
      L1  C    14    36       P1 10171  1.00

> <Gold.PLP.Chemscore.Internal.Correction>
0.0659

> <Gold.Rescore>
     Score         DG    S(hbond)    S(metal)    S(lipo)     H(rot)  DE(clash)    DE(int)     intcor
     14.53     -15.81       1.97        0.00      67.34       1.61       0.48       0.80       ----

> <Gold.Chemscore.Fitness>
14.5296

> <Gold.Chemscore.DG>
-15.8109

> <Gold.Chemscore.ZeroCoef>
-5.4800

> <Gold.Chemscore.Hbond>
1.9652

> <Gold.Chemscore.Metal>
0.0000

> <Gold.Chemscore.Lipo>
67.3381

> <Gold.Chemscore.Internal_Hbond>
0.0000

> <Gold.Chemscore.DEClash>
0.4779

> <Gold.Chemscore.DEInternal>
0.8034

> <Gold.Chemscore.Rot>
1.6061

> <Gold.Chemscore.Internal.Correction>
   9.000000E+99

> <Gold.Chemscore.Hbonds>
donor molecule, donor type, donor heavy atom, donor atom, acceptor molecule, acceptor atom, score
      L1  H    12    35       P1  7948  1.00
      L1  H    15    39       P1 10186  0.67

> <Gold.Chemscore.Hbond.Weighted>
-6.5639

> <Gold.Chemscore.Metal.Weighted>
-0.0000

> <Gold.Chemscore.Lipo.Weighted>
-7.8786

> <Gold.Chemscore.Internal_Hbond.Weighted>
0.0000

> <Gold.Chemscore.DEClash.Weighted>
0.4779

> <Gold.Chemscore.DEInternal.Weighted>
0.8034

> <Gold.Chemscore.Rot.Weighted>
4.1116

> <Gold.Chemscore.Internal.Correction.Weighted>
   9.000000E+99

> <Gold.Protein.RotatedTorsions>
[ 6907 6896 6895 6894 ] final   25.92 input  -60.11 | X-H torsion
[ 7974 7965 7964 7962 ] final   13.72 input  175.53 | X-H torsion
[ 8008 7997 7996 7995 ] final    3.06 input   59.86 | X-H torsion
[ 10167 10162 10161 10158 ] final -101.73 input  -65.29 | X-H torsion
[ 10718 10713 10712 10709 ] final  124.91 input   66.30 | X-H torsion
[ 10763 10752 10751 10750 ] final  -66.56 input  -60.55 | X-H torsion
[ 11005 11000 10999 10996 ] final  138.55 input  -57.11 | X-H torsion

> <Gold.Protein.ActiveResidues>
 VAL166  LYS551  ARG553  GLY616  TRP617  ASP618  TYR619  PRO620  LYS621  CYS622 
 ASP623  PHE694  ASN695  SER759  ASP760  ASP761  ALA762  ILE779  LEU786  VAL792 
 PHE793  MET794  SER795  GLU796  ALA797  LYS798  CYS799  TRP800  GLU811  SER814 

> <Gold.Protein.RotatedAtoms>
  151.9798  135.0034  160.0556 H   0  0  0  0  0  0  0  0  0  0  0  0  # atno 6907 bound_to 6896
  152.1707  133.4637  159.4916 H   0  0  0  0  0  0  0  0  0  0  0  0  # atno 6908 bound_to 6896
  150.6901  134.1874  159.4315 H   0  0  0  0  0  0  0  0  0  0  0  0  # atno 6909 bound_to 6896
  146.2322  139.9146  142.8519 H   0  0  0  0  0  0  0  0  0  0  0  0  # atno 7974 bound_to 7965
  154.6990  140.2669  155.6738 H   0  0  0  0  0  0  0  0  0  0  0  0  # atno 8008 bound_to 7997
  156.2758  140.2776  156.1518 H   0  0  0  0  0  0  0  0  0  0  0  0  # atno 8009 bound_to 7997
  155.0790  140.0372  157.2623 H   0  0  0  0  0  0  0  0  0  0  0  0  # atno 8010 bound_to 7997
  140.2382  143.3558  152.0826 H   0  0  0  0  0  0  0  0  0  0  0  0  # atno 10167 bound_to 10162
  157.5546  131.1092  150.8643 H   0  0  0  0  0  0  0  0  0  0  0  0  # atno 10718 bound_to 10713
  154.3616  135.6114  153.5694 H   0  0  0  0  0  0  0  0  0  0  0  0  # atno 10763 bound_to 10752
  152.9793  135.5816  154.4626 H   0  0  0  0  0  0  0  0  0  0  0  0  # atno 10764 bound_to 10752
  154.4365  135.2849  155.1854 H   0  0  0  0  0  0  0  0  0  0  0  0  # atno 10765 bound_to 10752
  140.0192  134.9404  157.0439 H   0  0  0  0  0  0  0  0  0  0  0  0  # atno 11005 bound_to 11000
  145.2196  140.9929  143.4053 LP  0  0  0  0  0  0  0  0  0  0  0  0  # atno 17320 bound_to 7965
  144.9622  139.3968  143.6350 LP  0  0  0  0  0  0  0  0  0  0  0  0  # atno 17321 bound_to 7965
  139.5086  144.6853  151.5903 LP  0  0  0  0  0  0  0  0  0  0  0  0  # atno 17342 bound_to 10162
  140.6134  143.9394  150.6470 LP  0  0  0  0  0  0  0  0  0  0  0  0  # atno 17343 bound_to 10162
  156.9158  130.5297  149.5279 LP  0  0  0  0  0  0  0  0  0  0  0  0  # atno 17370 bound_to 10713
  156.0607  130.5660  150.9187 LP  0  0  0  0  0  0  0  0  0  0  0  0  # atno 17371 bound_to 10713
  140.4417  134.1674  155.7174 LP  0  0  0  0  0  0  0  0  0  0  0  0  # atno 17394 bound_to 11000
  141.1762  133.8508  157.1411 LP  0  0  0  0  0  0  0  0  0  0  0  0  # atno 17395 bound_to 11000

$$$$
