#       Name:                AV-unprocessed.smi:2468
#       Creating user name   scv26
#       Creation time:       Fri Mar 27 13:37:08 2020


#       File generated by GOLD software.
#

@<TRIPOS>MOLECULE
AV-unprocessed.smi:2468
    37    38     1
SMALL
NO_CHARGES


@<TRIPOS>ATOM
      1 ****        -4.7646   2.6398   0.7816 C.3            1 S1                 0.0000
      2 ****        -3.9748   1.3515   0.6457 C.ar           1 S1                 0.0000
      3 ****        -4.7104   0.2221   0.5522 N.ar           1 S1                 0.0000
      4 ****        -4.0577  -0.9525   0.4382 C.ar           1 S1                 0.0000
      5 ****        -2.6542  -1.0592   0.4059 C.ar           1 S1                 0.0000
      6 ****        -1.8806   0.1236   0.4866 C.ar           1 S1                 0.0000
      7 ****        -0.4584   0.1287   0.4860 N.am           1 S1                 0.0000
      8 ****         0.3912  -0.7746  -0.0373 C.2            1 S1                 0.0000
      9 ****         0.0423  -1.7975  -0.6268 O.2            1 S1                 0.0000
     10 ****         1.8838  -0.4545   0.1363 C.3            1 S1                 0.0000
     11 ****         2.1012   0.9459  -0.0397 O.3            1 S1                 0.0000
     12 ****         3.3140   1.1750  -0.7515 C.3            1 S1                 0.0000
     13 ****         4.0056  -0.1809  -0.8497 C.3            1 S1                 0.0000
     14 ****         2.8308  -1.1379  -0.8633 C.3            1 S1                 0.0000
     15 ****         3.2110  -2.5839  -0.5069 C.3            1 S1                 0.0000
     16 ****        -2.5602   1.3568   0.6232 C.ar           1 S1                 0.0000
     17 ****        -1.6803   2.8432   0.7534 Cl             1 S1                 0.0000
     18 ****        -4.5405   3.3109  -0.0479 H              1 S1                 0.0000
     19 ****        -4.5090   3.1448   1.7134 H              1 S1                 0.0000
     20 ****        -5.8393   2.4534   0.7836 H              1 S1                 0.0000
     21 ****        -4.6736  -1.8376   0.3784 H              1 S1                 0.0000
     22 ****        -2.2043  -2.0373   0.3347 H              1 S1                 0.0000
     23 ****        -0.0303   0.9634   0.8607 H              1 S1                 0.0000
     24 ****         2.1791  -0.7067   1.1560 H              1 S1                 0.0000
     25 ****         3.0642   1.5477  -1.7456 H              1 S1                 0.0000
     26 ****         3.9331   1.9228  -0.2557 H              1 S1                 0.0000
     27 ****         4.6418  -0.2693  -1.7309 H              1 S1                 0.0000
     28 ****         4.6226  -0.3482   0.0346 H              1 S1                 0.0000
     29 ****         2.3861  -1.1215  -1.8603 H              1 S1                 0.0000
     30 ****         3.6564  -2.6448   0.4864 H              1 S1                 0.0000
     31 ****         3.9331  -2.9827  -1.2199 H              1 S1                 0.0000
     32 ****         2.3404  -3.2393  -0.5207 H              1 S1                 0.0000
     33 ****        -5.7097   0.2561   0.5671 LP             1 S1                 0.0000
     34 ****        -0.9299  -2.0013  -0.7421 LP             1 S1                 0.0000
     35 ****         0.7312  -2.4247  -0.9904 LP             1 S1                 0.0000
     36 ****         2.1572   1.3858   0.8566 LP             1 S1                 0.0000
     37 ****         1.3381   1.3355  -0.5552 LP             1 S1                 0.0000
@<TRIPOS>BOND
    1    1    2 1     
    2    1   18 1     
    3    1   19 1     
    4    1   20 1     
    5    2   16 ar    
    6    2    3 ar    
    7    3    4 ar    
    8    4    5 ar    
    9    4   21 1     
   10    5    6 ar    
   11    5   22 1     
   12    6    7 1     
   13    6   16 ar    
   14    7    8 am    
   15    7   23 1     
   16    8    9 2     
   17    8   10 1     
   18   10   14 1     
   19   10   11 1     
   20   10   24 1     
   21   11   12 1     
   22   12   13 1     
   23   12   25 1     
   24   12   26 1     
   25   13   14 1     
   26   13   27 1     
   27   13   28 1     
   28   14   15 1     
   29   14   29 1     
   30   15   30 1     
   31   15   31 1     
   32   15   32 1     
   33   16   17 1     
   34    3   33 1     
   35    9   34 1     
   36    9   35 1     
   37   11   36 1     
   38   11   37 1     
@<TRIPOS>SUBSTRUCTURE
      1 S1             1
@<TRIPOS>SET
LONE_PAIRS      STATIC     ATOMS    <user>   **** ""
5 33 34 35 36 37
DONOR_HYDROGENS      STATIC     ATOMS    <user>   **** ""
1 23
ATOM$BLUE        STATIC     ATOMS    COLORGROUP SYSTEM
5 33 34 35 36 37
ATOM$RED        STATIC     ATOMS    COLORGROUP SYSTEM
1 23
