AV-unprocessed.smi:1259|AV-procd|sdf|5292|dock3
  -GOLD-   22720 4413D 1   1.00000     0.00000
 Structure written by MMmdl.
 34 35  0  0  0  0  0  0  0  0  1 V2000
  151.8144  145.7299  160.1642 C   0  0  0  0  0  0  0  0  0  0  0  0
  152.0725  144.3187  159.7251 C   0  0  0  0  0  0  0  0  0  0  0  0
  151.6011  143.6653  158.5495 C   0  0  0  0  0  0  0  0  0  0  0  0
  152.1396  142.4128  158.6646 C   0  0  0  0  0  0  0  0  0  0  0  0
  152.0276  141.3529  157.8205 N   0  0  0  0  0  0  0  0  0  0  0  0
  151.3021  141.2482  156.6936 C   0  0  0  0  0  0  0  0  0  0  0  0
  150.5959  142.1354  156.2143 O   0  0  0  0  0  0  0  0  0  0  0  0
  151.4419  140.0340  156.1416 N   0  0  0  0  0  0  0  0  0  0  0  0
  150.7839  139.5778  154.9214 C   0  0  1  0  0  0  0  0  0  0  0  0
  151.2764  138.1604  154.5986 C   0  0  0  0  0  0  0  0  0  0  0  0
  149.2668  139.6181  155.0022 C   0  0  0  0  0  0  0  0  0  0  0  0
  148.4146  139.1943  153.8294 C   0  0  0  0  0  0  0  0  0  0  0  0
  148.4645  140.6475  154.2413 C   0  0  0  0  0  0  0  0  0  0  0  0
  152.8719  142.3487  159.8295 N   0  0  0  0  0  0  0  0  0  0  0  0
  153.6294  141.2440  160.3846 C   0  0  0  0  0  0  0  0  0  0  0  0
  152.8286  143.5307  160.4813 N   0  0  0  0  0  0  0  0  0  0  0  0
  151.1397  146.2395  159.4760 H   0  0  0  0  0  0  0  0  0  0  0  0
  152.7408  146.3031  160.2058 H   0  0  0  0  0  0  0  0  0  0  0  0
  151.3597  145.7564  161.1548 H   0  0  0  0  0  0  0  0  0  0  0  0
  150.9762  144.0679  157.7666 H   0  0  0  0  0  0  0  0  0  0  0  0
  152.5552  140.5346  158.0865 H   0  0  0  0  0  0  0  0  0  0  0  0
  152.0445  139.3696  156.6049 H   0  0  0  0  0  0  0  0  0  0  0  0
  151.0956  140.2230  154.0978 H   0  0  0  0  0  0  0  0  0  0  0  0
  150.8492  137.8001  153.6622 H   0  0  0  0  0  0  0  0  0  0  0  0
  150.9996  137.4549  155.3827 H   0  0  0  0  0  0  0  0  0  0  0  0
  152.3616  138.1348  154.4938 H   0  0  0  0  0  0  0  0  0  0  0  0
  148.8782  139.3440  155.9815 H   0  0  0  0  0  0  0  0  0  0  0  0
  148.9214  138.9177  152.9072 H   0  0  0  0  0  0  0  0  0  0  0  0
  147.5033  138.6405  154.0455 H   0  0  0  0  0  0  0  0  0  0  0  0
  147.5876  141.0631  154.7335 H   0  0  0  0  0  0  0  0  0  0  0  0
  149.0020  141.3335  153.5896 H   0  0  0  0  0  0  0  0  0  0  0  0
  154.5755  141.1466  159.8519 H   0  0  0  0  0  0  0  0  0  0  0  0
  153.0638  140.3179  160.2818 H   0  0  0  0  0  0  0  0  0  0  0  0
  153.8321  141.4137  161.4429 H   0  0  0  0  0  0  0  0  0  0  0  0
  1  2  1  0  0  0  0
  1 17  1  0  0  0  0
  1 18  1  0  0  0  0
  1 19  1  0  0  0  0
  2 16  2  0  0  0  0
  2  3  1  0  0  0  0
  3  4  2  0  0  0  0
  3 20  1  0  0  0  0
  4  5  1  0  0  0  0
  4 14  1  0  0  0  0
  5  6  1  0  0  0  0
  5 21  1  0  0  0  0
  6  7  2  0  0  0  0
  6  8  1  0  0  0  0
  8  9  1  0  0  0  0
  8 22  1  0  0  0  0
  9 10  1  0  0  0  0
  9 11  1  0  0  0  0
  9 23  1  0  0  0  0
 10 24  1  0  0  0  0
 10 25  1  0  0  0  0
 10 26  1  0  0  0  0
 11 13  1  0  0  0  0
 11 12  1  0  0  0  0
 11 27  1  0  0  0  0
 12 13  1  0  0  0  0
 12 28  1  0  0  0  0
 12 29  1  0  0  0  0
 13 30  1  0  0  0  0
 13 31  1  0  0  0  0
 14 15  1  0  0  0  0
 14 16  1  0  0  0  0
 15 32  1  0  0  0  0
 15 33  1  0  0  0  0
 15 34  1  0  0  0  0
M  END
> <s_m_source_file>
AV-unprocessed.smi

> <i_m_source_file_index>
1259

> <i_lp_mmshare_version>
43012

> <i_f3d_flags>
0

> <s_epik_input>
W0NIM11jMVtjSF1jKG4objEpW0NIM10pW05IXUMoPU8pW05IXVtDQEhdKFtDSDNdKVtDSF0yW0NIMl1bQ0gyXTI=

> <s_epik_cmdline>
J2VwaWtfcHl0aG9uJywgJy1waCcsICc3LjAnLCAnLXRuJywgJzgnLCAnLW1hJywgJzIwMCcsICctbWV0YWxfYmluZGluZycsICctaW1hZScsICc8aW5maWxlLm1hZT4nLCAnLW9tYWUnLCAnPG91dGZpbGUubWFlPic=

> <r_lp_tautomer_probability>
1

> <r_epik_Ionization_Penalty>
0.000100032

> <r_epik_Ionization_Penalty_Charging>
0

> <r_epik_Ionization_Penalty_Neutral>
0.000100032

> <r_epik_State_Penalty>
-0

> <r_epik_Charging_Adjusted_Penalty>
0

> <i_epik_Tot_Q>
0

> <i_epik_Tot_abs_Q>
0

> <r_epik_Metal_State_Penalty>
-0

> <b_epik_Metal_Only>
0

> <s_lp_Force_Field>
OPLS_2005

> <r_lp_Energy>
14.2964

> <b_lp_Chiralities_Consistent>
1

> <s_lp_Variant>
AV-unprocessed.smi:1259-2

> <Gold.Version>
5.8.1

> <Gold.Id.Protein>
6NUR|6NUR_protein|mol2

> <Gold.PLP.Fitness>
35.6723

> <Gold.PLP.PLP>
-36.0067

> <Gold.PLP.part.hbond>
0.0000

> <Gold.PLP.part.metal>
0.0000

> <Gold.PLP.part.buried>
-2.9529

> <Gold.PLP.part.nonpolar>
-33.3941

> <Gold.PLP.part.repulsive>
0.3361

> <Gold.PLP.ligand.clash>
0.0000

> <Gold.PLP.ligand.torsion>
0.6988

> <Gold.PLP.Chemscore.Hbond>
0.0000

> <Gold.PLP.Chemscore.CHOScore>
0.0000

> <Gold.PLP.Chemscore.Metal>
0.0000

> <Gold.PLP.Chemscore.Internal.Correction>
1.0631

> <Gold.Rescore>
     Score         DG    S(hbond)    S(metal)    S(lipo)     H(rot)  DE(clash)    DE(int)     intcor
      9.68     -11.55       0.00        0.00      78.11       1.20       0.03       1.84       ----

> <Gold.Chemscore.Fitness>
9.6838

> <Gold.Chemscore.DG>
-11.5490

> <Gold.Chemscore.ZeroCoef>
-5.4800

> <Gold.Chemscore.Hbond>
0.0000

> <Gold.Chemscore.Metal>
0.0000

> <Gold.Chemscore.Lipo>
78.1072

> <Gold.Chemscore.Internal_Hbond>
0.0000

> <Gold.Chemscore.DEClash>
0.0266

> <Gold.Chemscore.DEInternal>
1.8385

> <Gold.Chemscore.Rot>
1.1990

> <Gold.Chemscore.Internal.Correction>
   9.000000E+99

> <Gold.Chemscore.Hbond.Weighted>
-0.0000

> <Gold.Chemscore.Metal.Weighted>
-0.0000

> <Gold.Chemscore.Lipo.Weighted>
-9.1385

> <Gold.Chemscore.Internal_Hbond.Weighted>
0.0000

> <Gold.Chemscore.DEClash.Weighted>
0.0266

> <Gold.Chemscore.DEInternal.Weighted>
1.8385

> <Gold.Chemscore.Rot.Weighted>
3.0695

> <Gold.Chemscore.Internal.Correction.Weighted>
   9.000000E+99

> <Gold.Protein.RotatedTorsions>
[ 6907 6896 6895 6894 ] final  -48.81 input  -60.11 | X-H torsion
[ 7974 7965 7964 7962 ] final -161.64 input  175.53 | X-H torsion
[ 8008 7997 7996 7995 ] final -165.27 input   59.86 | X-H torsion
[ 10167 10162 10161 10158 ] final  -61.27 input  -65.29 | X-H torsion
[ 10718 10713 10712 10709 ] final  158.51 input   66.30 | X-H torsion
[ 10763 10752 10751 10750 ] final   45.99 input  -60.55 | X-H torsion
[ 11005 11000 10999 10996 ] final -176.62 input  -57.11 | X-H torsion

> <Gold.Protein.ActiveResidues>
 VAL166  LYS551  ARG553  GLY616  TRP617  ASP618  TYR619  PRO620  LYS621  CYS622 
 ASP623  PHE694  ASN695  SER759  ASP760  ASP761  ALA762  ILE779  LEU786  VAL792 
 PHE793  MET794  SER795  GLU796  ALA797  LYS798  CYS799  TRP800  GLU811  SER814 

> <Gold.Protein.RotatedAtoms>
  150.8868  134.8266  159.7264 H   0  0  0  0  0  0  0  0  0  0  0  0  # atno 6907 bound_to 6896
  152.4812  134.4711  159.9645 H   0  0  0  0  0  0  0  0  0  0  0  0  # atno 6908 bound_to 6896
  151.4778  133.3515  159.2869 H   0  0  0  0  0  0  0  0  0  0  0  0  # atno 6909 bound_to 6896
  144.7384  140.3368  143.6142 H   0  0  0  0  0  0  0  0  0  0  0  0  # atno 7974 bound_to 7965
  155.8475  140.0958  157.1696 H   0  0  0  0  0  0  0  0  0  0  0  0  # atno 8008 bound_to 7997
  154.3984  140.1389  156.3865 H   0  0  0  0  0  0  0  0  0  0  0  0  # atno 8009 bound_to 7997
  155.7998  140.3453  155.5398 H   0  0  0  0  0  0  0  0  0  0  0  0  # atno 8010 bound_to 7997
  140.6017  143.2363  151.5914 H   0  0  0  0  0  0  0  0  0  0  0  0  # atno 10167 bound_to 10162
  157.1769  131.0623  151.2153 H   0  0  0  0  0  0  0  0  0  0  0  0  # atno 10718 bound_to 10713
  152.9816  135.6022  154.3527 H   0  0  0  0  0  0  0  0  0  0  0  0  # atno 10763 bound_to 10752
  154.3215  135.2769  155.2519 H   0  0  0  0  0  0  0  0  0  0  0  0  # atno 10764 bound_to 10752
  154.4683  135.5948  153.6359 H   0  0  0  0  0  0  0  0  0  0  0  0  # atno 10765 bound_to 10752
  140.4501  134.6351  157.4797 H   0  0  0  0  0  0  0  0  0  0  0  0  # atno 11005 bound_to 11000
  145.7415  139.1766  143.2373 LP  0  0  0  0  0  0  0  0  0  0  0  0  # atno 17320 bound_to 7965
  146.1130  140.7404  142.9494 LP  0  0  0  0  0  0  0  0  0  0  0  0  # atno 17321 bound_to 7965
  139.5295  144.2957  152.1115 LP  0  0  0  0  0  0  0  0  0  0  0  0  # atno 17342 bound_to 10162
  140.2139  144.4535  150.6373 LP  0  0  0  0  0  0  0  0  0  0  0  0  # atno 17343 bound_to 10162
  157.3990  130.7323  149.6753 LP  0  0  0  0  0  0  0  0  0  0  0  0  # atno 17370 bound_to 10713
  155.9730  130.4126  150.4040 LP  0  0  0  0  0  0  0  0  0  0  0  0  # atno 17371 bound_to 10713
  140.0013  134.6833  155.9526 LP  0  0  0  0  0  0  0  0  0  0  0  0  # atno 17394 bound_to 11000
  141.1668  133.6537  156.4508 LP  0  0  0  0  0  0  0  0  0  0  0  0  # atno 17395 bound_to 11000

$$$$
