AV-unprocessed.smi:2766|AV-procd|sdf|10645|dock10
  -GOLD-   2272015 93D 1   1.00000     0.00000
 Structure written by MMmdl.
 32 33  0  0  0  0  0  0  0  0  1 V2000
  150.3099  138.6176  154.5550 C   0  0  0  0  0  0  0  0  0  0  0  0
  150.9746  139.8442  154.8003 O   0  0  0  0  0  0  0  0  0  0  0  0
  150.1668  140.7702  155.5087 C   0  0  0  0  0  0  0  0  0  0  0  0
  150.4253  140.6184  157.0166 C   0  0  1  0  0  0  0  0  0  0  0  0
  149.7254  139.4787  157.4755 O   0  0  0  0  0  0  0  0  0  0  0  0
  151.9294  140.4585  157.3273 C   0  0  0  0  0  0  0  0  0  0  0  0
  152.3029  140.9725  158.6399 N   0  0  0  0  0  0  0  0  0  0  0  0
  152.8335  140.2935  159.6912 C   0  0  0  0  0  0  0  0  0  0  0  0
  153.0917  138.8119  159.6486 C   0  0  0  0  0  0  0  0  0  0  0  0
  153.9213  138.5012  158.6512 F   0  0  0  0  0  0  0  0  0  0  0  0
  153.6519  138.4045  160.7876 F   0  0  0  0  0  0  0  0  0  0  0  0
  151.9626  138.1306  159.4604 F   0  0  0  0  0  0  0  0  0  0  0  0
  153.0748  141.0228  160.7835 N   0  0  0  0  0  0  0  0  0  0  0  0
  152.6605  142.2850  160.4098 C   0  0  0  0  0  0  0  0  0  0  0  0
  152.6569  143.5001  161.1315 C   0  0  0  0  0  0  0  0  0  0  0  0
  152.1678  144.6817  160.5373 C   0  0  0  0  0  0  0  0  0  0  0  0
  151.6754  144.6648  159.2162 C   0  0  0  0  0  0  0  0  0  0  0  0
  151.6712  143.4644  158.4799 C   0  0  0  0  0  0  0  0  0  0  0  0
  152.1640  142.2876  159.0762 C   0  0  0  0  0  0  0  0  0  0  0  0
  150.0391  141.4932  157.5394 H   0  0  0  0  0  0  0  0  0  0  0  0
  150.9736  137.9435  154.0139 H   0  0  0  0  0  0  0  0  0  0  0  0
  149.4164  138.7687  153.9479 H   0  0  0  0  0  0  0  0  0  0  0  0
  150.0222  138.1297  155.4873 H   0  0  0  0  0  0  0  0  0  0  0  0
  150.3493  141.7946  155.1784 H   0  0  0  0  0  0  0  0  0  0  0  0
  149.1218  140.5431  155.2907 H   0  0  0  0  0  0  0  0  0  0  0  0
  150.3440  138.8842  157.8708 H   0  0  0  0  0  0  0  0  0  0  0  0
  152.2144  139.4068  157.2755 H   0  0  0  0  0  0  0  0  0  0  0  0
  152.5255  140.9646  156.5686 H   0  0  0  0  0  0  0  0  0  0  0  0
  153.0297  143.5223  162.1448 H   0  0  0  0  0  0  0  0  0  0  0  0
  152.1690  145.6049  161.0981 H   0  0  0  0  0  0  0  0  0  0  0  0
  151.3016  145.5739  158.7682 H   0  0  0  0  0  0  0  0  0  0  0  0
  151.2956  143.4497  157.4677 H   0  0  0  0  0  0  0  0  0  0  0  0
  1  2  1  0  0  0  0
  1 21  1  0  0  0  0
  1 22  1  0  0  0  0
  1 23  1  0  0  0  0
  2  3  1  0  0  0  0
  3  4  1  0  0  0  0
  3 24  1  0  0  0  0
  3 25  1  0  0  0  0
  4 20  1  0  0  0  0
  4  5  1  0  0  0  0
  4  6  1  0  0  0  0
  5 26  1  0  0  0  0
  6  7  1  0  0  0  0
  6 27  1  0  0  0  0
  6 28  1  0  0  0  0
  7 19  1  0  0  0  0
  7  8  1  0  0  0  0
  8  9  1  0  0  0  0
  8 13  2  0  0  0  0
  9 10  1  0  0  0  0
  9 11  1  0  0  0  0
  9 12  1  0  0  0  0
 13 14  1  0  0  0  0
 14 19  2  0  0  0  0
 14 15  1  0  0  0  0
 15 16  2  0  0  0  0
 15 29  1  0  0  0  0
 16 17  1  0  0  0  0
 16 30  1  0  0  0  0
 17 18  2  0  0  0  0
 17 31  1  0  0  0  0
 18 19  1  0  0  0  0
 18 32  1  0  0  0  0
M  END
> <s_m_source_file>
AV-unprocessed.smi

> <i_m_source_file_index>
2766

> <i_lp_mmshare_version>
43012

> <i_f3d_flags>
0

> <s_epik_input>
W0NIM11PW0NIMl1bQ0BASF0oW09IXSlbQ0gyXW4oYyhuMSlDKEYpKEYpRiljKGMxMilbY0hdW2NIXVtjSF1bY0hdMg==

> <s_epik_cmdline>
J2VwaWtfcHl0aG9uJywgJy1waCcsICc3LjAnLCAnLXRuJywgJzgnLCAnLW1hJywgJzIwMCcsICctbWV0YWxfYmluZGluZycsICctaW1hZScsICc8aW5maWxlLm1hZT4nLCAnLW9tYWUnLCAnPG91dGZpbGUubWFlPic=

> <r_epik_Ionization_Penalty>
0.00044827

> <r_epik_Ionization_Penalty_Charging>
0

> <r_epik_Ionization_Penalty_Neutral>
0.00044827

> <r_epik_State_Penalty>
0.000276591

> <r_epik_Charging_Adjusted_Penalty>
0.000276591

> <i_epik_Tot_Q>
0

> <i_epik_Tot_abs_Q>
0

> <r_epik_Metal_State_Penalty>
-0

> <b_epik_Metal_Only>
0

> <s_lp_Force_Field>
OPLS_2005

> <r_lp_Energy>
13.5685

> <b_lp_Chiralities_Consistent>
1

> <s_lp_Variant>
AV-unprocessed.smi:2766-1

> <Gold.Version>
5.8.1

> <Gold.Id.Protein>
6NUR|6NUR_protein|mol2

> <Gold.PLP.Fitness>
41.5798

> <Gold.PLP.PLP>
-40.0485

> <Gold.PLP.part.hbond>
-1.0000

> <Gold.PLP.part.metal>
0.0000

> <Gold.PLP.part.buried>
-4.9629

> <Gold.PLP.part.nonpolar>
-33.8679

> <Gold.PLP.part.repulsive>
0.0753

> <Gold.PLP.ligand.clash>
0.0000

> <Gold.PLP.ligand.torsion>
0.7437

> <Gold.PLP.Chemscore.Hbond>
1.0000

> <Gold.PLP.Chemscore.CHOScore>
0.0000

> <Gold.PLP.Chemscore.Metal>
0.0000

> <Gold.Chemscore.Hbonds>
donor molecule, donor type, donor heavy atom, donor atom, acceptor molecule, acceptor atom, score
      P1  H  7989  7998       L1     2  1.00

> <Gold.PLP.Chemscore.Internal.Correction>
0.0187

> <Gold.Rescore>
     Score         DG    S(hbond)    S(metal)    S(lipo)     H(rot)  DE(clash)    DE(int)     intcor
     13.31     -14.10       0.89        0.00      98.91       2.32       0.06       0.73       ----

> <Gold.Chemscore.Fitness>
13.3131

> <Gold.Chemscore.DG>
-14.0978

> <Gold.Chemscore.ZeroCoef>
-5.4800

> <Gold.Chemscore.Hbond>
0.8909

> <Gold.Chemscore.Metal>
0.0000

> <Gold.Chemscore.Lipo>
98.9065

> <Gold.Chemscore.Internal_Hbond>
0.0000

> <Gold.Chemscore.DEClash>
0.0587

> <Gold.Chemscore.DEInternal>
0.7259

> <Gold.Chemscore.Rot>
2.3164

> <Gold.Chemscore.Internal.Correction>
   9.000000E+99

> <Gold.Chemscore.Hbonds>
donor molecule, donor type, donor heavy atom, donor atom, acceptor molecule, acceptor atom, score
      P1  H  7989  7998       L1     2  0.34

> <Gold.Chemscore.Hbond.Weighted>
-2.9756

> <Gold.Chemscore.Metal.Weighted>
-0.0000

> <Gold.Chemscore.Lipo.Weighted>
-11.5721

> <Gold.Chemscore.Internal_Hbond.Weighted>
0.0000

> <Gold.Chemscore.DEClash.Weighted>
0.0587

> <Gold.Chemscore.DEInternal.Weighted>
0.7259

> <Gold.Chemscore.Rot.Weighted>
5.9299

> <Gold.Chemscore.Internal.Correction.Weighted>
   9.000000E+99

> <Gold.Protein.RotatedTorsions>
[ 6907 6896 6895 6894 ] final   74.37 input  -60.11 | X-H torsion
[ 7974 7965 7964 7962 ] final   26.31 input  175.53 | X-H torsion
[ 8008 7997 7996 7995 ] final  154.02 input   59.86 | X-H torsion
[ 10167 10162 10161 10158 ] final  -61.81 input  -65.29 | X-H torsion
[ 10718 10713 10712 10709 ] final  -37.62 input   66.30 | X-H torsion
[ 10763 10752 10751 10750 ] final   40.98 input  -60.55 | X-H torsion
[ 11005 11000 10999 10996 ] final -109.19 input  -57.11 | X-H torsion

> <Gold.Protein.ActiveResidues>
 VAL166  LYS551  ARG553  GLY616  TRP617  ASP618  TYR619  PRO620  LYS621  CYS622 
 ASP623  PHE694  ASN695  SER759  ASP760  ASP761  ALA762  ILE779  LEU786  VAL792 
 PHE793  MET794  SER795  GLU796  ALA797  LYS798  CYS799  TRP800  GLU811  SER814 

> <Gold.Protein.RotatedAtoms>
  152.4972  134.4282  159.9502 H   0  0  0  0  0  0  0  0  0  0  0  0  # atno 6907 bound_to 6896
  151.4258  133.3678  159.2770 H   0  0  0  0  0  0  0  0  0  0  0  0  # atno 6908 bound_to 6896
  150.9190  134.8630  159.7535 H   0  0  0  0  0  0  0  0  0  0  0  0  # atno 6909 bound_to 6896
  146.1844  139.7345  142.8877 H   0  0  0  0  0  0  0  0  0  0  0  0  # atno 7974 bound_to 7965
  156.2552  140.1978  156.6581 H   0  0  0  0  0  0  0  0  0  0  0  0  # atno 8008 bound_to 7997
  154.6485  140.0575  156.9953 H   0  0  0  0  0  0  0  0  0  0  0  0  # atno 8009 bound_to 7997
  155.1454  140.3246  155.4445 H   0  0  0  0  0  0  0  0  0  0  0  0  # atno 8010 bound_to 7997
  140.5981  143.2355  151.5991 H   0  0  0  0  0  0  0  0  0  0  0  0  # atno 10167 bound_to 10162
  156.3132  130.4255  149.8031 H   0  0  0  0  0  0  0  0  0  0  0  0  # atno 10718 bound_to 10713
  152.9921  135.6175  154.2713 H   0  0  0  0  0  0  0  0  0  0  0  0  # atno 10763 bound_to 10752
  154.2446  135.2787  155.2842 H   0  0  0  0  0  0  0  0  0  0  0  0  # atno 10764 bound_to 10752
  154.5340  135.5780  153.6841 H   0  0  0  0  0  0  0  0  0  0  0  0  # atno 10765 bound_to 10752
  141.0861  133.9136  157.2182 H   0  0  0  0  0  0  0  0  0  0  0  0  # atno 11005 bound_to 11000
  145.3983  141.0382  143.3085 LP  0  0  0  0  0  0  0  0  0  0  0  0  # atno 17320 bound_to 7965
  144.8371  139.5533  143.6917 LP  0  0  0  0  0  0  0  0  0  0  0  0  # atno 17321 bound_to 7965
  139.5272  144.3024  152.1062 LP  0  0  0  0  0  0  0  0  0  0  0  0  # atno 17342 bound_to 10162
  140.2200  144.4476  150.6346 LP  0  0  0  0  0  0  0  0  0  0  0  0  # atno 17343 bound_to 10162
  156.5366  130.8281  151.3255 LP  0  0  0  0  0  0  0  0  0  0  0  0  # atno 17370 bound_to 10713
  157.7395  130.9834  150.2321 LP  0  0  0  0  0  0  0  0  0  0  0  0  # atno 17371 bound_to 10713
  139.9679  135.0136  156.9436 LP  0  0  0  0  0  0  0  0  0  0  0  0  # atno 17394 bound_to 11000
  140.5360  134.0767  155.7328 LP  0  0  0  0  0  0  0  0  0  0  0  0  # atno 17395 bound_to 11000

$$$$
