AV-unprocessed.smi:1006|AV-procd|sdf|4395|dock7
  -GOLD-   22720 2323D 1   1.00000     0.00000
 Structure written by MMmdl.
 46 48  0  0  0  0  0  0  0  0  2 V2000
  149.0666  133.0460  153.1747 C   0  0  0  0  0  0  0  0  0  0  0  0
  149.6120  133.2655  154.5695 C   0  0  0  0  0  0  0  0  0  0  0  0
  149.6176  132.2319  155.5308 C   0  0  0  0  0  0  0  0  0  0  0  0
  150.1495  132.5600  156.7952 C   0  0  0  0  0  0  0  0  0  0  0  0
  150.2033  131.6117  157.8133 N   0  0  0  0  0  0  0  0  0  0  0  0
  150.6256  133.7933  157.0690 N   0  0  0  0  0  0  0  0  0  0  0  0
  150.5712  134.6880  156.0798 C   0  0  0  0  0  0  0  0  0  0  0  0
  151.2108  136.3043  156.4836 S   0  0  0  0  0  0  0  0  0  0  0  0
  151.1219  137.1754  154.8884 C   0  0  0  0  0  0  0  0  0  0  0  0
  150.7482  138.6563  155.0590 C   0  0  1  0  0  0  0  0  0  0  0  0
  149.4022  138.7503  155.4855 O   0  0  0  0  0  0  0  0  0  0  0  0
  151.6697  139.3681  156.0685 C   0  0  0  0  0  0  0  0  0  0  0  0
  151.2226  140.7331  156.3813 N   0  0  0  0  0  0  0  0  0  0  0  0
  150.4288  141.5706  155.6606 C   0  0  0  0  0  0  0  0  0  0  0  0
  150.2970  142.7250  156.3708 N   0  3  0  0  0  0  0  0  0  0  0  0
  151.0160  142.6230  157.5635 C   0  0  0  0  0  0  0  0  0  0  0  0
  151.1830  143.5283  158.6048 C   0  0  0  0  0  0  0  0  0  0  0  0
  151.9816  143.1167  159.6955 C   0  0  0  0  0  0  0  0  0  0  0  0
  152.1827  144.0815  160.8520 C   0  0  0  0  0  0  0  0  0  0  0  0
  152.5822  141.8313  159.7164 C   0  0  0  0  0  0  0  0  0  0  0  0
  153.4357  141.3976  160.8961 C   0  0  0  0  0  0  0  0  0  0  0  0
  152.4021  140.9261  158.6461 C   0  0  0  0  0  0  0  0  0  0  0  0
  151.6127  141.3470  157.5779 C   0  0  0  0  0  0  0  0  0  0  0  0
  150.0902  134.4987  154.8470 N   0  0  0  0  0  0  0  0  0  0  0  0
  148.8752  131.9886  152.9899 H   0  0  0  0  0  0  0  0  0  0  0  0
  149.7778  133.3978  152.4268 H   0  0  0  0  0  0  0  0  0  0  0  0
  148.1315  133.5913  153.0449 H   0  0  0  0  0  0  0  0  0  0  0  0
  149.2357  131.2456  155.3103 H   0  0  0  0  0  0  0  0  0  0  0  0
  149.8661  130.6697  157.6777 H   0  0  0  0  0  0  0  0  0  0  0  0
  150.5903  131.8359  158.7187 H   0  0  0  0  0  0  0  0  0  0  0  0
  152.0799  137.0868  154.3742 H   0  0  0  0  0  0  0  0  0  0  0  0
  150.3759  136.6777  154.2679 H   0  0  0  0  0  0  0  0  0  0  0  0
  150.8291  139.1586  154.0940 H   0  0  0  0  0  0  0  0  0  0  0  0
  148.8394  138.5772  154.7466 H   0  0  0  0  0  0  0  0  0  0  0  0
  151.7651  138.7965  156.9918 H   0  0  0  0  0  0  0  0  0  0  0  0
  152.6764  139.4491  155.6563 H   0  0  0  0  0  0  0  0  0  0  0  0
  149.9821  141.3572  154.7002 H   0  0  0  0  0  0  0  0  0  0  0  0
  150.7207  144.5044  158.5831 H   0  0  0  0  0  0  0  0  0  0  0  0
  153.2429  144.2884  161.0001 H   0  0  0  0  0  0  0  0  0  0  0  0
  151.7787  143.6621  161.7738 H   0  0  0  0  0  0  0  0  0  0  0  0
  151.6807  145.0322  160.6701 H   0  0  0  0  0  0  0  0  0  0  0  0
  153.7970  140.3760  160.7737 H   0  0  0  0  0  0  0  0  0  0  0  0
  152.8608  141.4374  161.8213 H   0  0  0  0  0  0  0  0  0  0  0  0
  154.3044  142.0479  160.9987 H   0  0  0  0  0  0  0  0  0  0  0  0
  152.8571  139.9472  158.6663 H   0  0  0  0  0  0  0  0  0  0  0  0
  149.7532  143.5210  156.0631 H   0  0  0  0  0  0  0  0  0  0  0  0
  1  2  1  0  0  0  0
  1 25  1  0  0  0  0
  1 26  1  0  0  0  0
  1 27  1  0  0  0  0
  2 24  1  0  0  0  0
  2  3  2  0  0  0  0
  3  4  1  0  0  0  0
  3 28  1  0  0  0  0
  4  5  1  0  0  0  0
  4  6  2  0  0  0  0
  5 29  1  0  0  0  0
  5 30  1  0  0  0  0
  6  7  1  0  0  0  0
  7  8  1  0  0  0  0
  7 24  2  0  0  0  0
  8  9  1  0  0  0  0
  9 10  1  0  0  0  0
  9 31  1  0  0  0  0
  9 32  1  0  0  0  0
 10 11  1  0  0  0  0
 10 12  1  0  0  0  0
 10 33  1  0  0  0  0
 11 34  1  0  0  0  0
 12 13  1  0  0  0  0
 12 35  1  0  0  0  0
 12 36  1  0  0  0  0
 13 23  1  0  0  0  0
 13 14  1  0  0  0  0
 14 15  2  0  0  0  0
 14 37  1  0  0  0  0
 15 16  1  0  0  0  0
 15 46  1  0  0  0  0
 16 23  2  0  0  0  0
 16 17  1  0  0  0  0
 17 18  2  0  0  0  0
 17 38  1  0  0  0  0
 18 19  1  0  0  0  0
 18 20  1  0  0  0  0
 19 39  1  0  0  0  0
 19 40  1  0  0  0  0
 19 41  1  0  0  0  0
 20 21  1  0  0  0  0
 20 22  2  0  0  0  0
 21 42  1  0  0  0  0
 21 43  1  0  0  0  0
 21 44  1  0  0  0  0
 22 23  1  0  0  0  0
 22 45  1  0  0  0  0
M  CHG  1  15   1
M  END
> <s_m_source_file>
AV-unprocessed.smi

> <i_m_source_file_index>
1006

> <i_lp_mmshare_version>
43012

> <i_f3d_flags>
0

> <s_epik_input>
W0NIM11jMVtjSF1jKFtOSDJdKW5jKG4xKVNbQ0gyXVtDQEhdKFtPSF0pW0NIMl1uKFtjSF1uMiljKGMyMylbY0hdYyhbQ0gzXSljKFtjSF0zKVtDSDNd

> <s_epik_cmdline>
J2VwaWtfcHl0aG9uJywgJy1waCcsICc3LjAnLCAnLXRuJywgJzgnLCAnLW1hJywgJzIwMCcsICctbWV0YWxfYmluZGluZycsICctaW1hZScsICc8aW5maWxlLm1hZT4nLCAnLW9tYWUnLCAnPG91dGZpbGUubWFlPic=

> <r_epik_Ionization_Penalty>
1.4378

> <r_epik_Ionization_Penalty_Charging>
1.06724

> <r_epik_Ionization_Penalty_Neutral>
0.370564

> <r_epik_State_Penalty>
1.48666

> <r_epik_Charging_Adjusted_Penalty>
2.5539

> <i_epik_Tot_Q>
1

> <i_epik_Tot_abs_Q>
1

> <r_epik_Metal_State_Penalty>
1.38026

> <b_epik_Metal_Only>
0

> <s_lp_Force_Field>
OPLS_2005

> <r_lp_Energy>
7.15152

> <b_lp_Chiralities_Consistent>
1

> <s_lp_Variant>
AV-unprocessed.smi:1006-6

> <Gold.Version>
5.8.1

> <Gold.Id.Protein>
6NUR|6NUR_protein|mol2

> <Gold.PLP.Fitness>
54.2652

> <Gold.PLP.PLP>
-47.6223

> <Gold.PLP.part.hbond>
-2.0000

> <Gold.PLP.part.metal>
0.0000

> <Gold.PLP.part.buried>
-7.0037

> <Gold.PLP.part.nonpolar>
-40.5841

> <Gold.PLP.part.repulsive>
0.3041

> <Gold.PLP.ligand.clash>
0.0000

> <Gold.PLP.ligand.torsion>
0.6691

> <Gold.PLP.Chemscore.Hbond>
2.6552

> <Gold.PLP.Chemscore.CHOScore>
0.0000

> <Gold.PLP.Chemscore.Metal>
0.0000

> <Gold.Chemscore.Hbonds>
donor molecule, donor type, donor heavy atom, donor atom, acceptor molecule, acceptor atom, score
      L1  H    15    46       P1  8028  2.00
      P1  H  6896  6907       L1     6  0.49

> <Gold.PLP.Chemscore.Internal.Correction>
0.0155

> <Gold.Rescore>
     Score         DG    S(hbond)    S(metal)    S(lipo)     H(rot)  DE(clash)    DE(int)     intcor
     15.40     -16.97       1.64        0.00     114.60       2.89       0.00       1.57       ----

> <Gold.Chemscore.Fitness>
15.3975

> <Gold.Chemscore.DG>
-16.9676

> <Gold.Chemscore.ZeroCoef>
-5.4800

> <Gold.Chemscore.Hbond>
1.6408

> <Gold.Chemscore.Metal>
0.0000

> <Gold.Chemscore.Lipo>
114.5999

> <Gold.Chemscore.Internal_Hbond>
0.0000

> <Gold.Chemscore.DEClash>
0.0000

> <Gold.Chemscore.DEInternal>
1.5702

> <Gold.Chemscore.Rot>
2.8910

> <Gold.Chemscore.Internal.Correction>
   9.000000E+99

> <Gold.Chemscore.Hbonds>
donor molecule, donor type, donor heavy atom, donor atom, acceptor molecule, acceptor atom, score
      L1  H    15    46       P1  8028  0.93
      P1  H  6896  6907       L1     6  0.17

> <Gold.Chemscore.Hbond.Weighted>
-5.4804

> <Gold.Chemscore.Metal.Weighted>
-0.0000

> <Gold.Chemscore.Lipo.Weighted>
-13.4082

> <Gold.Chemscore.Internal_Hbond.Weighted>
0.0000

> <Gold.Chemscore.DEClash.Weighted>
0.0000

> <Gold.Chemscore.DEInternal.Weighted>
1.5702

> <Gold.Chemscore.Rot.Weighted>
7.4009

> <Gold.Chemscore.Internal.Correction.Weighted>
   9.000000E+99

> <Gold.Protein.RotatedTorsions>
[ 6907 6896 6895 6894 ] final -128.21 input  -60.11 | X-H torsion
[ 7974 7965 7964 7962 ] final   92.60 input  175.53 | X-H torsion
[ 8008 7997 7996 7995 ] final  -86.33 input   59.86 | X-H torsion
[ 10167 10162 10161 10158 ] final  -77.76 input  -65.29 | X-H torsion
[ 10718 10713 10712 10709 ] final -173.70 input   66.30 | X-H torsion
[ 10763 10752 10751 10750 ] final  -72.84 input  -60.55 | X-H torsion
[ 11005 11000 10999 10996 ] final  -74.43 input  -57.11 | X-H torsion

> <Gold.Protein.ActiveResidues>
 VAL166  LYS551  ARG553  GLY616  TRP617  ASP618  TYR619  PRO620  LYS621  CYS622 
 ASP623  PHE694  ASN695  SER759  ASP760  ASP761  ALA762  ILE779  LEU786  VAL792 
 PHE793  MET794  SER795  GLU796  ALA797  LYS798  CYS799  TRP800  GLU811  SER814 

> <Gold.Protein.RotatedAtoms>
  150.9155  133.6945  159.2844 H   0  0  0  0  0  0  0  0  0  0  0  0  # atno 6907 bound_to 6896
  151.4417  135.1019  159.9682 H   0  0  0  0  0  0  0  0  0  0  0  0  # atno 6908 bound_to 6896
  152.4952  133.8561  159.7282 H   0  0  0  0  0  0  0  0  0  0  0  0  # atno 6909 bound_to 6896
  145.4901  139.2276  143.2835 H   0  0  0  0  0  0  0  0  0  0  0  0  # atno 7974 bound_to 7965
  154.6507  140.0580  156.9952 H   0  0  0  0  0  0  0  0  0  0  0  0  # atno 8008 bound_to 7997
  155.1375  140.3262  155.4441 H   0  0  0  0  0  0  0  0  0  0  0  0  # atno 8009 bound_to 7997
  156.2575  140.1970  156.6492 H   0  0  0  0  0  0  0  0  0  0  0  0  # atno 8010 bound_to 7997
  140.4742  143.2419  151.8159 H   0  0  0  0  0  0  0  0  0  0  0  0  # atno 10167 bound_to 10162
  156.7742  130.9460  151.3120 H   0  0  0  0  0  0  0  0  0  0  0  0  # atno 10718 bound_to 10713
  154.4512  135.5917  153.6193 H   0  0  0  0  0  0  0  0  0  0  0  0  # atno 10763 bound_to 10752
  152.9814  135.6021  154.3602 H   0  0  0  0  0  0  0  0  0  0  0  0  # atno 10764 bound_to 10752
  154.3464  135.2841  155.2374 H   0  0  0  0  0  0  0  0  0  0  0  0  # atno 10765 bound_to 10752
  141.1635  133.6911  156.7364 H   0  0  0  0  0  0  0  0  0  0  0  0  # atno 11005 bound_to 11000
  146.2289  140.5694  142.8984 LP  0  0  0  0  0  0  0  0  0  0  0  0  # atno 17320 bound_to 7965
  144.7839  140.5896  143.6587 LP  0  0  0  0  0  0  0  0  0  0  0  0  # atno 17321 bound_to 7965
  139.4823  144.4854  151.9253 LP  0  0  0  0  0  0  0  0  0  0  0  0  # atno 17342 bound_to 10162
  140.3939  144.2580  150.5897 LP  0  0  0  0  0  0  0  0  0  0  0  0  # atno 17343 bound_to 10162
  157.6677  130.9022  149.9968 LP  0  0  0  0  0  0  0  0  0  0  0  0  # atno 17370 bound_to 10713
  156.1259  130.3644  149.9811 LP  0  0  0  0  0  0  0  0  0  0  0  0  # atno 17371 bound_to 10713
  140.2707  134.8394  157.3844 LP  0  0  0  0  0  0  0  0  0  0  0  0  # atno 17394 bound_to 11000
  140.1524  134.4833  155.7952 LP  0  0  0  0  0  0  0  0  0  0  0  0  # atno 17395 bound_to 11000

$$$$
