#       Name:                AV-unprocessed.smi:1492
#       Creating user name   scv26
#       Creation time:       Fri Mar 27 06:15:20 2020


#       File generated by GOLD software.
#

@<TRIPOS>MOLECULE
AV-unprocessed.smi:1492
    60    61     1
SMALL
NO_CHARGES


@<TRIPOS>ATOM
      1 ****        -3.3925   0.5462   2.5793 C.3            1 S1                 0.0000
      2 ****        -2.7006   0.3336   1.2187 C.3            1 S1                 0.0000
      3 ****        -1.6946   1.4310   0.7337 C.3            1 S1                 0.0000
      4 ****        -2.4655   2.7609   0.5421 C.3            1 S1                 0.0000
      5 ****        -0.5954   1.6463   1.8235 C.3            1 S1                 0.0000
      6 ****         0.3768   0.5556   1.8632 N.am           1 S1                 0.0000
      7 ****         0.3990  -0.4622   2.7368 C.2            1 S1                 0.0000
      8 ****        -0.3346  -0.5293   3.7208 O.2            1 S1                 0.0000
      9 ****         1.3803  -1.5999   2.4414 C.3            1 S1                 0.0000
     10 ****         1.6465  -1.8870   0.9625 C.2            1 S1                 0.0000
     11 ****         2.7228  -1.4034   0.2916 C.2            1 S1                 0.0000
     12 ****         3.8018  -0.5355   0.9139 C.3            1 S1                 0.0000
     13 ****         2.9077  -1.6730  -1.0530 N.pl3          1 S1                 0.0000
     14 ****         1.9495  -2.4365  -1.6990 C.2            1 S1                 0.0000
     15 ****         2.2340  -2.6524  -3.1689 C.3            1 S1                 0.0000
     16 ****         0.8841  -2.9326  -1.1478 N.2            1 S1                 0.0000
     17 ****         0.6552  -2.6973   0.2168 C.2            1 S1                 0.0000
     18 ****        -0.3522  -3.1423   0.7650 O.2            1 S1                 0.0000
     19 ****        -1.0425   0.9935  -0.5623 N.4            1 S1                 1.0000
     20 ****        -1.9552   0.5180  -1.6426 C.3            1 S1                 0.0000
     21 ****        -1.1581  -0.0332  -2.8379 C.3            1 S1                 0.0000
     22 ****        -0.2569   0.9500  -3.3231 O.3            1 S1                 0.0000
     23 ****         0.6847   1.3272  -2.3308 C.3            1 S1                 0.0000
     24 ****        -0.0539   1.9521  -1.1381 C.3            1 S1                 0.0000
     25 ****         3.7292  -1.3048  -1.5117 H              1 S1                 0.0000
     26 ****        -4.0984  -0.2628   2.7680 H              1 S1                 0.0000
     27 ****        -3.9618   1.4743   2.6098 H              1 S1                 0.0000
     28 ****        -2.6959   0.5490   3.4147 H              1 S1                 0.0000
     29 ****        -2.2050  -0.6380   1.2315 H              1 S1                 0.0000
     30 ****        -3.5195   0.2447   0.5066 H              1 S1                 0.0000
     31 ****        -2.9069   3.1051   1.4768 H              1 S1                 0.0000
     32 ****        -3.2765   2.6619  -0.1794 H              1 S1                 0.0000
     33 ****        -1.8196   3.5709   0.2057 H              1 S1                 0.0000
     34 ****        -0.0367   2.5595   1.6207 H              1 S1                 0.0000
     35 ****        -1.0251   1.8263   2.8082 H              1 S1                 0.0000
     36 ****         1.0515   0.5307   1.1126 H              1 S1                 0.0000
     37 ****         2.3146  -1.3668   2.9514 H              1 S1                 0.0000
     38 ****         1.0202  -2.5111   2.9217 H              1 S1                 0.0000
     39 ****         3.3636   0.3591   1.3573 H              1 S1                 0.0000
     40 ****         4.5382  -0.2162   0.1753 H              1 S1                 0.0000
     41 ****         4.3285  -1.0858   1.6938 H              1 S1                 0.0000
     42 ****         1.4340  -3.2237  -3.6414 H              1 S1                 0.0000
     43 ****         3.1676  -3.2005  -3.2986 H              1 S1                 0.0000
     44 ****         2.3179  -1.6951  -3.6842 H              1 S1                 0.0000
     45 ****        -2.5960  -0.2932  -1.3046 H              1 S1                 0.0000
     46 ****        -2.6018   1.3315  -1.9726 H              1 S1                 0.0000
     47 ****        -0.6129  -0.9349  -2.5581 H              1 S1                 0.0000
     48 ****        -1.8379  -0.3142  -3.6425 H              1 S1                 0.0000
     49 ****         1.2753   0.4666  -2.0173 H              1 S1                 0.0000
     50 ****         1.3790   2.0487  -2.7617 H              1 S1                 0.0000
     51 ****        -0.5566   2.8589  -1.4741 H              1 S1                 0.0000
     52 ****         0.6927   2.2514  -0.4056 H              1 S1                 0.0000
     53 ****        -0.5034   0.1786  -0.3064 H              1 S1                 0.0000
     54 ****        -0.9931   0.2006   3.9042 LP             1 S1                 0.0000
     55 ****        -0.2729  -1.3138   4.3379 LP             1 S1                 0.0000
     56 ****         0.2376  -3.4731  -1.6862 LP             1 S1                 0.0000
     57 ****        -0.5160  -2.9595   1.7344 LP             1 S1                 0.0000
     58 ****        -1.0073  -3.6868   0.2412 LP             1 S1                 0.0000
     59 ****        -0.7764   1.7577  -3.6019 LP             1 S1                 0.0000
     60 ****         0.2333   0.5802  -4.1124 LP             1 S1                 0.0000
@<TRIPOS>BOND
    1    1    2 1     
    2    1   26 1     
    3    1   27 1     
    4    1   28 1     
    5    2    3 1     
    6    2   29 1     
    7    2   30 1     
    8    3    4 1     
    9    3    5 1     
   10    3   19 1     
   11    4   31 1     
   12    4   32 1     
   13    4   33 1     
   14    5    6 1     
   15    5   34 1     
   16    5   35 1     
   17    6    7 am    
   18    6   36 1     
   19    7    8 2     
   20    7    9 1     
   21    9   37 1     
   22    9   38 1     
   23    9   10 1     
   24   10   17 1     
   25   10   11 2     
   26   11   12 1     
   27   11   13 1     
   28   12   39 1     
   29   12   40 1     
   30   12   41 1     
   31   13   25 1     
   32   13   14 1     
   33   14   15 1     
   34   14   16 2     
   35   15   42 1     
   36   15   43 1     
   37   15   44 1     
   38   16   17 1     
   39   17   18 2     
   40   19   24 1     
   41   19   20 1     
   42   19   53 1     
   43   20   21 1     
   44   20   45 1     
   45   20   46 1     
   46   21   22 1     
   47   21   47 1     
   48   21   48 1     
   49   22   23 1     
   50   23   24 1     
   51   23   49 1     
   52   23   50 1     
   53   24   51 1     
   54   24   52 1     
   55    8   54 1     
   56    8   55 1     
   57   16   56 1     
   58   18   57 1     
   59   18   58 1     
   60   22   59 1     
   61   22   60 1     
@<TRIPOS>SUBSTRUCTURE
      1 S1             1
@<TRIPOS>SET
LONE_PAIRS      STATIC     ATOMS    <user>   **** ""
7 54 55 56 57 58 59 60
DONOR_HYDROGENS      STATIC     ATOMS    <user>   **** ""
3 36 25 53
ATOM$BLUE        STATIC     ATOMS    COLORGROUP SYSTEM
7 54 55 56 57 58 59 60
ATOM$RED        STATIC     ATOMS    COLORGROUP SYSTEM
3 36 25 53
