AV-unprocessed.smi:2923|AV-procd|sdf|11211|dock1
  -GOLD-   2272016103D 1   1.00000     0.00000
 Structure written by MMmdl.
 46 48  0  0  0  0  0  0  0  0  1 V2000
  152.1688  140.7733  157.9000 C   0  0  0  0  0  0  0  0  0  0  0  0
  151.1612  141.2223  156.9514 N   0  0  0  0  0  0  0  0  0  0  0  0
  150.2599  142.2664  157.4146 C   0  0  0  0  0  0  0  0  0  0  0  0
  150.4906  140.1635  156.3254 C   0  0  0  0  0  0  0  0  0  0  0  0
  149.6320  139.3066  157.0506 C   0  0  0  0  0  0  0  0  0  0  0  0
  148.9858  138.2585  156.3681 C   0  0  0  0  0  0  0  0  0  0  0  0
  149.2244  138.0949  154.9828 C   0  0  0  0  0  0  0  0  0  0  0  0
  148.6183  137.0906  154.1812 N   0  0  0  0  0  0  0  0  0  0  0  0
  147.5454  136.3325  154.4634 C   0  0  0  0  0  0  0  0  0  0  0  0
  146.9114  136.3584  155.5182 O   0  0  0  0  0  0  0  0  0  0  0  0
  147.2553  135.5075  153.4492 N   0  0  0  0  0  0  0  0  0  0  0  0
  146.1732  134.5308  153.4711 C   0  0  1  0  0  0  0  0  0  0  0  0
  145.6492  134.2016  152.0735 C   0  0  2  0  0  0  0  0  0  0  0  0
  144.3623  134.4230  151.3618 C   0  0  0  0  0  0  0  0  0  0  0  0
  144.1964  132.9957  150.7747 C   0  0  0  0  0  0  0  0  0  0  0  0
  145.1985  132.1781  151.4281 O   0  0  0  0  0  0  0  0  0  0  0  0
  145.4061  132.8267  152.6660 C   0  0  1  0  0  0  0  0  0  0  0  0
  146.6770  133.0394  153.5129 C   0  0  0  0  0  0  0  0  0  0  0  0
  148.0342  132.6731  152.8775 C   0  0  0  0  0  0  0  0  0  0  0  0
  146.6610  132.3858  154.8950 C   0  0  0  0  0  0  0  0  0  0  0  0
  150.0876  139.0149  154.3525 C   0  0  0  0  0  0  0  0  0  0  0  0
  150.7107  140.0215  155.0005 N   0  0  0  0  0  0  0  0  0  0  0  0
  152.8050  140.0069  157.4552 H   0  0  0  0  0  0  0  0  0  0  0  0
  151.7070  140.3610  158.7979 H   0  0  0  0  0  0  0  0  0  0  0  0
  152.8053  141.6074  158.1964 H   0  0  0  0  0  0  0  0  0  0  0  0
  149.5492  142.5404  156.6340 H   0  0  0  0  0  0  0  0  0  0  0  0
  150.8248  143.1594  157.6827 H   0  0  0  0  0  0  0  0  0  0  0  0
  149.7003  141.9400  158.2920 H   0  0  0  0  0  0  0  0  0  0  0  0
  149.4651  139.4490  158.1083 H   0  0  0  0  0  0  0  0  0  0  0  0
  148.3144  137.6156  156.9154 H   0  0  0  0  0  0  0  0  0  0  0  0
  149.0885  136.8892  153.3108 H   0  0  0  0  0  0  0  0  0  0  0  0
  147.8272  135.5430  152.6183 H   0  0  0  0  0  0  0  0  0  0  0  0
  145.3758  134.7572  154.1852 H   0  0  0  0  0  0  0  0  0  0  0  0
  146.4659  134.2176  151.3480 H   0  0  0  0  0  0  0  0  0  0  0  0
  143.5548  134.6801  152.0491 H   0  0  0  0  0  0  0  0  0  0  0  0
  144.4305  135.1888  150.5888 H   0  0  0  0  0  0  0  0  0  0  0  0
  143.1970  132.6080  150.9753 H   0  0  0  0  0  0  0  0  0  0  0  0
  144.3570  132.9772  149.6966 H   0  0  0  0  0  0  0  0  0  0  0  0
  144.5059  132.7660  153.2887 H   0  0  0  0  0  0  0  0  0  0  0  0
  148.1361  131.5934  152.7658 H   0  0  0  0  0  0  0  0  0  0  0  0
  148.8655  133.0132  153.4959 H   0  0  0  0  0  0  0  0  0  0  0  0
  148.1869  133.1027  151.8892 H   0  0  0  0  0  0  0  0  0  0  0  0
  146.7457  131.3008  154.8258 H   0  0  0  0  0  0  0  0  0  0  0  0
  145.7371  132.6039  155.4313 H   0  0  0  0  0  0  0  0  0  0  0  0
  147.4827  132.7438  155.5163 H   0  0  0  0  0  0  0  0  0  0  0  0
  150.2903  138.9399  153.2939 H   0  0  0  0  0  0  0  0  0  0  0  0
  1  2  1  0  0  0  0
  1 23  1  0  0  0  0
  1 24  1  0  0  0  0
  1 25  1  0  0  0  0
  2  3  1  0  0  0  0
  2  4  1  0  0  0  0
  3 26  1  0  0  0  0
  3 27  1  0  0  0  0
  3 28  1  0  0  0  0
  4 22  1  0  0  0  0
  4  5  2  0  0  0  0
  5  6  1  0  0  0  0
  5 29  1  0  0  0  0
  6  7  2  0  0  0  0
  6 30  1  0  0  0  0
  7  8  1  0  0  0  0
  7 21  1  0  0  0  0
  8  9  1  0  0  0  0
  8 31  1  0  0  0  0
  9 10  2  0  0  0  0
  9 11  1  0  0  0  0
 11 12  1  0  0  0  0
 11 32  1  0  0  0  0
 12 18  1  0  0  0  0
 12 13  1  0  0  0  0
 12 33  1  0  0  0  0
 13 17  1  0  0  0  0
 13 14  1  0  0  0  0
 13 34  1  0  0  0  0
 14 15  1  0  0  0  0
 14 35  1  0  0  0  0
 14 36  1  0  0  0  0
 15 16  1  0  0  0  0
 15 37  1  0  0  0  0
 15 38  1  0  0  0  0
 16 17  1  0  0  0  0
 17 18  1  0  0  0  0
 17 39  1  0  0  0  0
 18 19  1  0  0  0  0
 18 20  1  0  0  0  0
 19 40  1  0  0  0  0
 19 41  1  0  0  0  0
 19 42  1  0  0  0  0
 20 43  1  0  0  0  0
 20 44  1  0  0  0  0
 20 45  1  0  0  0  0
 21 22  2  0  0  0  0
 21 46  1  0  0  0  0
M  END
> <s_m_source_file>
AV-unprocessed.smi

> <i_m_source_file_index>
2923

> <i_lp_mmshare_version>
43012

> <i_f3d_flags>
0

> <s_epik_input>
W0NIM11OKFtDSDNdKWMxW2NIXVtjSF1jKFtjSF1uMSlbTkhdQyg9TylbTkhdW0NASF0yQyhbQ0gzXSkoW0NIM10pW0NAQEhdKFtDQEhdMjMpT1tDSDJdW0NIMl0z

> <s_epik_cmdline>
J2VwaWtfcHl0aG9uJywgJy1waCcsICc3LjAnLCAnLXRuJywgJzgnLCAnLW1hJywgJzIwMCcsICctbWV0YWxfYmluZGluZycsICctaW1hZScsICc8aW5maWxlLm1hZT4nLCAnLW9tYWUnLCAnPG91dGZpbGUubWFlPic=

> <r_lp_tautomer_probability>
1

> <r_epik_Ionization_Penalty>
0.628785

> <r_epik_Ionization_Penalty_Charging>
0

> <r_epik_Ionization_Penalty_Neutral>
0.628785

> <r_epik_State_Penalty>
0.644286

> <r_epik_Charging_Adjusted_Penalty>
0.644286

> <i_epik_Tot_Q>
0

> <i_epik_Tot_abs_Q>
0

> <r_epik_Metal_State_Penalty>
0.308404

> <b_epik_Metal_Only>
0

> <s_lp_Force_Field>
OPLS_2005

> <r_lp_Energy>
66.101

> <b_lp_Chiralities_Consistent>
1

> <s_lp_Variant>
AV-unprocessed.smi:2923-10

> <Gold.Version>
5.8.1

> <Gold.Id.Protein>
6NUR|6NUR_protein|mol2

> <Gold.PLP.Fitness>
37.2684

> <Gold.PLP.PLP>
-25.6639

> <Gold.PLP.part.hbond>
-2.6865

> <Gold.PLP.part.metal>
0.0000

> <Gold.PLP.part.buried>
-4.5161

> <Gold.PLP.part.nonpolar>
-19.3727

> <Gold.PLP.part.repulsive>
0.2321

> <Gold.PLP.ligand.clash>
0.0000

> <Gold.PLP.ligand.torsion>
0.3853

> <Gold.PLP.Chemscore.Hbond>
2.9680

> <Gold.PLP.Chemscore.CHOScore>
1.0000

> <Gold.PLP.Chemscore.Metal>
0.0000

> <Gold.Chemscore.Hbonds>
donor molecule, donor type, donor heavy atom, donor atom, acceptor molecule, acceptor atom, score
      L1  H     8    31       P1  7948  0.94
      L1  H    11    32       P1  7948  0.92
      P1  H  7989  7998       L1    22  1.00
      L1  C    21    46       P1  7957  1.00

> <Gold.PLP.Chemscore.Internal.Correction>
0.4710

> <Gold.Rescore>
     Score         DG    S(hbond)    S(metal)    S(lipo)     H(rot)  DE(clash)    DE(int)     intcor
     16.04     -17.70       2.50        0.00      59.30       1.19       0.08       1.59       ----

> <Gold.Chemscore.Fitness>
16.0351

> <Gold.Chemscore.DG>
-17.7028

> <Gold.Chemscore.ZeroCoef>
-5.4800

> <Gold.Chemscore.Hbond>
2.4971

> <Gold.Chemscore.Metal>
0.0000

> <Gold.Chemscore.Lipo>
59.3025

> <Gold.Chemscore.Internal_Hbond>
0.0000

> <Gold.Chemscore.DEClash>
0.0750

> <Gold.Chemscore.DEInternal>
1.5927

> <Gold.Chemscore.Rot>
1.1937

> <Gold.Chemscore.Internal.Correction>
   9.000000E+99

> <Gold.Chemscore.Hbonds>
donor molecule, donor type, donor heavy atom, donor atom, acceptor molecule, acceptor atom, score
      L1  H     8    31       P1  7948  0.88
      L1  H    11    32       P1  7948  0.83
      P1  H  7989  7998       L1    22  0.25

> <Gold.Chemscore.Hbond.Weighted>
-8.3403

> <Gold.Chemscore.Metal.Weighted>
-0.0000

> <Gold.Chemscore.Lipo.Weighted>
-6.9384

> <Gold.Chemscore.Internal_Hbond.Weighted>
0.0000

> <Gold.Chemscore.DEClash.Weighted>
0.0750

> <Gold.Chemscore.DEInternal.Weighted>
1.5927

> <Gold.Chemscore.Rot.Weighted>
3.0559

> <Gold.Chemscore.Internal.Correction.Weighted>
   9.000000E+99

> <Gold.Protein.RotatedTorsions>
[ 6907 6896 6895 6894 ] final  -47.92 input  -60.11 | X-H torsion
[ 7974 7965 7964 7962 ] final -133.68 input  175.53 | X-H torsion
[ 8008 7997 7996 7995 ] final   72.62 input   59.86 | X-H torsion
[ 10167 10162 10161 10158 ] final  171.94 input  -65.29 | X-H torsion
[ 10718 10713 10712 10709 ] final -137.49 input   66.30 | X-H torsion
[ 10763 10752 10751 10750 ] final -112.24 input  -60.55 | X-H torsion
[ 11005 11000 10999 10996 ] final   53.12 input  -57.11 | X-H torsion

> <Gold.Protein.ActiveResidues>
 VAL166  LYS551  ARG553  GLY616  TRP617  ASP618  TYR619  PRO620  LYS621  CYS622 
 ASP623  PHE694  ASN695  SER759  ASP760  ASP761  ALA762  ILE779  LEU786  VAL792 
 PHE793  MET794  SER795  GLU796  ALA797  LYS798  CYS799  TRP800  GLU811  SER814 

> <Gold.Protein.RotatedAtoms>
  150.8958  134.8366  159.7325 H   0  0  0  0  0  0  0  0  0  0  0  0  # atno 6907 bound_to 6896
  152.4864  134.4578  159.9605 H   0  0  0  0  0  0  0  0  0  0  0  0  # atno 6908 bound_to 6896
  151.4636  133.3547  159.2848 H   0  0  0  0  0  0  0  0  0  0  0  0  # atno 6909 bound_to 6896
  144.9171  140.6968  143.4988 H   0  0  0  0  0  0  0  0  0  0  0  0  # atno 7974 bound_to 7965
  155.7715  140.3484  155.5249 H   0  0  0  0  0  0  0  0  0  0  0  0  # atno 8008 bound_to 7997
  155.8817  140.1003  157.1501 H   0  0  0  0  0  0  0  0  0  0  0  0  # atno 8009 bound_to 7997
  154.4025  140.1321  156.4192 H   0  0  0  0  0  0  0  0  0  0  0  0  # atno 8010 bound_to 7997
  139.5061  144.3429  152.0000 H   0  0  0  0  0  0  0  0  0  0  0  0  # atno 10167 bound_to 10162
  156.2887  130.7362  151.1381 H   0  0  0  0  0  0  0  0  0  0  0  0  # atno 10718 bound_to 10713
  154.8340  135.4498  154.1163 H   0  0  0  0  0  0  0  0  0  0  0  0  # atno 10763 bound_to 10752
  153.2412  135.6916  153.7788 H   0  0  0  0  0  0  0  0  0  0  0  0  # atno 10764 bound_to 10752
  153.7135  135.3353  155.3227 H   0  0  0  0  0  0  0  0  0  0  0  0  # atno 10765 bound_to 10752
  140.0793  134.5361  155.8963 H   0  0  0  0  0  0  0  0  0  0  0  0  # atno 11005 bound_to 11000
  145.3357  139.1746  143.4513 LP  0  0  0  0  0  0  0  0  0  0  0  0  # atno 17320 bound_to 7965
  146.3187  140.3392  142.8646 LP  0  0  0  0  0  0  0  0  0  0  0  0  # atno 17321 bound_to 7965
  140.2867  144.3799  150.6101 LP  0  0  0  0  0  0  0  0  0  0  0  0  # atno 17342 bound_to 10162
  140.5977  143.2167  151.7132 LP  0  0  0  0  0  0  0  0  0  0  0  0  # atno 17343 bound_to 10162
  157.7336  131.0589  150.5568 LP  0  0  0  0  0  0  0  0  0  0  0  0  # atno 17370 bound_to 10713
  156.5682  130.4273  149.6031 LP  0  0  0  0  0  0  0  0  0  0  0  0  # atno 17371 bound_to 10713
  141.2041  133.6636  156.6100 LP  0  0  0  0  0  0  0  0  0  0  0  0  # atno 17394 bound_to 11000
  140.3512  134.7767  157.4468 LP  0  0  0  0  0  0  0  0  0  0  0  0  # atno 17395 bound_to 11000

$$$$
