AV-unprocessed.smi:1579|AV-procd|sdf|6357|dock4
  -GOLD-   22720 6583D 1   1.00000     0.00000
 Structure written by MMmdl.
 47 48  0  0  0  0  0  0  0  0  2 V2000
  149.9688  143.0325  158.0067 C   0  0  0  0  0  0  0  0  0  0  0  0
  150.8748  141.8760  158.3343 C   0  0  0  0  0  0  0  0  0  0  0  0
  150.7333  140.8071  157.6209 N   0  0  0  0  0  0  0  0  0  0  0  0
  151.5162  139.6908  157.8362 N   0  0  0  0  0  0  0  0  0  0  0  0
  151.2232  138.5736  156.9305 C   0  0  0  0  0  0  0  0  0  0  0  0
  151.7328  138.8382  155.4964 C   0  0  1  0  0  0  0  0  0  0  0  0
  153.1462  138.7904  155.5131 O   0  0  0  0  0  0  0  0  0  0  0  0
  151.2453  137.7522  154.5155 C   0  0  0  0  0  0  0  0  0  0  0  0
  149.7832  137.8233  154.2612 N   0  3  2  0  0  0  0  0  0  0  0  0
  149.2948  139.2066  154.0149 C   0  0  0  0  0  0  0  0  0  0  0  0
  147.8049  139.2096  153.6286 C   0  0  0  0  0  0  0  0  0  0  0  0
  146.9280  138.5082  154.6818 C   0  0  2  0  0  0  0  0  0  0  0  0
  146.7428  139.3480  155.9579 C   0  0  0  0  0  0  0  0  0  0  0  0
  147.4968  137.1067  154.9680 C   0  0  0  0  0  0  0  0  0  0  0  0
  148.9945  137.1466  155.3228 C   0  0  0  0  0  0  0  0  0  0  0  0
  152.4839  139.5925  158.7922 C   0  0  0  0  0  0  0  0  0  0  0  0
  153.1502  138.5688  158.9553 O   0  0  0  0  0  0  0  0  0  0  0  0
  152.6397  140.8064  159.5966 C   0  0  0  0  0  0  0  0  0  0  0  0
  153.6456  140.7480  160.6075 C   0  0  0  0  0  0  0  0  0  0  0  0
  154.4472  140.7037  161.4414 N   0  0  0  0  0  0  0  0  0  0  0  0
  151.8776  141.9104  159.3942 C   0  0  0  0  0  0  0  0  0  0  0  0
  151.9985  143.1952  160.2022 C   0  0  0  0  0  0  0  0  0  0  0  0
  150.5487  143.9237  157.7660 H   0  0  0  0  0  0  0  0  0  0  0  0
  149.3212  143.2673  158.8518 H   0  0  0  0  0  0  0  0  0  0  0  0
  149.3273  142.8175  157.1508 H   0  0  0  0  0  0  0  0  0  0  0  0
  151.6297  137.6364  157.3170 H   0  0  0  0  0  0  0  0  0  0  0  0
  150.1425  138.4197  156.9166 H   0  0  0  0  0  0  0  0  0  0  0  0
  151.4132  139.8238  155.1606 H   0  0  0  0  0  0  0  0  0  0  0  0
  153.4163  137.8842  155.5194 H   0  0  0  0  0  0  0  0  0  0  0  0
  151.7924  137.8641  153.5777 H   0  0  0  0  0  0  0  0  0  0  0  0
  151.4909  136.7574  154.8908 H   0  0  0  0  0  0  0  0  0  0  0  0
  149.4590  139.8175  154.9035 H   0  0  0  0  0  0  0  0  0  0  0  0
  149.8630  139.6730  153.2113 H   0  0  0  0  0  0  0  0  0  0  0  0
  147.4605  140.2322  153.4700 H   0  0  0  0  0  0  0  0  0  0  0  0
  147.6880  138.7006  152.6707 H   0  0  0  0  0  0  0  0  0  0  0  0
  145.9340  138.3796  154.2510 H   0  0  0  0  0  0  0  0  0  0  0  0
  147.6863  139.5350  156.4701 H   0  0  0  0  0  0  0  0  0  0  0  0
  146.0806  138.8450  156.6629 H   0  0  0  0  0  0  0  0  0  0  0  0
  146.2971  140.3158  155.7264 H   0  0  0  0  0  0  0  0  0  0  0  0
  146.9343  136.6263  155.7692 H   0  0  0  0  0  0  0  0  0  0  0  0
  147.3600  136.4793  154.0859 H   0  0  0  0  0  0  0  0  0  0  0  0
  149.3533  136.1244  155.4498 H   0  0  0  0  0  0  0  0  0  0  0  0
  149.1505  137.6541  156.2757 H   0  0  0  0  0  0  0  0  0  0  0  0
  152.7330  143.1123  161.0025 H   0  0  0  0  0  0  0  0  0  0  0  0
  151.0438  143.4518  160.6619 H   0  0  0  0  0  0  0  0  0  0  0  0
  152.3044  144.0217  159.5600 H   0  0  0  0  0  0  0  0  0  0  0  0
  149.6215  137.2963  153.4144 H   0  0  0  0  0  0  0  0  0  0  0  0
  1  2  1  0  0  0  0
  1 23  1  0  0  0  0
  1 24  1  0  0  0  0
  1 25  1  0  0  0  0
  2 21  1  0  0  0  0
  2  3  2  0  0  0  0
  3  4  1  0  0  0  0
  4  5  1  0  0  0  0
  4 16  1  0  0  0  0
  5  6  1  0  0  0  0
  5 26  1  0  0  0  0
  5 27  1  0  0  0  0
  6  7  1  0  0  0  0
  6  8  1  0  0  0  0
  6 28  1  0  0  0  0
  7 29  1  0  0  0  0
  8  9  1  0  0  0  0
  8 30  1  0  0  0  0
  8 31  1  0  0  0  0
  9 15  1  0  0  0  0
  9 10  1  0  0  0  0
  9 47  1  0  0  0  0
 10 11  1  0  0  0  0
 10 32  1  0  0  0  0
 10 33  1  0  0  0  0
 11 12  1  0  0  0  0
 11 34  1  0  0  0  0
 11 35  1  0  0  0  0
 12 13  1  0  0  0  0
 12 14  1  0  0  0  0
 12 36  1  0  0  0  0
 13 37  1  0  0  0  0
 13 38  1  0  0  0  0
 13 39  1  0  0  0  0
 14 15  1  0  0  0  0
 14 40  1  0  0  0  0
 14 41  1  0  0  0  0
 15 42  1  0  0  0  0
 15 43  1  0  0  0  0
 16 17  2  0  0  0  0
 16 18  1  0  0  0  0
 18 19  1  0  0  0  0
 18 21  2  0  0  0  0
 19 20  3  0  0  0  0
 21 22  1  0  0  0  0
 22 44  1  0  0  0  0
 22 45  1  0  0  0  0
 22 46  1  0  0  0  0
M  CHG  1   9   1
M  END
> <s_m_source_file>
AV-unprocessed.smi

> <i_m_source_file_index>
1579

> <i_lp_mmshare_version>
43012

> <i_f3d_flags>
0

> <s_epik_input>
TiNDYyhjMVtDSDNdKWMoPU8pbihuYzFbQ0gzXSlbQ0gyXVtDQEhdKFtPSF0pW0NIMl1OMltDSDJdW0NIMl1bQ0hdKFtDSDNdKVtDSDJdW0NIMl0y

> <s_epik_cmdline>
J2VwaWtfcHl0aG9uJywgJy1waCcsICc3LjAnLCAnLXRuJywgJzgnLCAnLW1hJywgJzIwMCcsICctbWV0YWxfYmluZGluZycsICctaW1hZScsICc8aW5maWxlLm1hZT4nLCAnLW9tYWUnLCAnPG91dGZpbGUubWFlPic=

> <r_epik_Ionization_Penalty>
0.00136816

> <r_epik_Ionization_Penalty_Charging>
0.00136813

> <r_epik_Ionization_Penalty_Neutral>
3.19884e-08

> <r_epik_State_Penalty>
0.000910892

> <r_epik_Charging_Adjusted_Penalty>
0.00227902

> <i_epik_Tot_Q>
1

> <i_epik_Tot_abs_Q>
1

> <r_epik_Metal_State_Penalty>
-0

> <b_epik_Metal_Only>
0

> <s_lp_Force_Field>
OPLS_2005

> <r_lp_Energy>
39.3397

> <b_lp_Chiralities_Consistent>
1

> <s_lp_Variant>
AV-unprocessed.smi:1579-4

> <Gold.Version>
5.8.1

> <Gold.Id.Protein>
6NUR|6NUR_protein|mol2

> <Gold.PLP.Fitness>
44.2536

> <Gold.PLP.PLP>
-34.3864

> <Gold.PLP.part.hbond>
-4.0000

> <Gold.PLP.part.metal>
0.0000

> <Gold.PLP.part.buried>
-3.6005

> <Gold.PLP.part.nonpolar>
-26.7927

> <Gold.PLP.part.repulsive>
0.0554

> <Gold.PLP.ligand.clash>
0.0000

> <Gold.PLP.ligand.torsion>
0.4001

> <Gold.PLP.Chemscore.Hbond>
3.5472

> <Gold.PLP.Chemscore.CHOScore>
0.0000

> <Gold.PLP.Chemscore.Metal>
0.0000

> <Gold.Chemscore.Hbonds>
donor molecule, donor type, donor heavy atom, donor atom, acceptor molecule, acceptor atom, score
      L1  H     9    47       P1  7948  2.00
      P1  H  7997  8010       L1     7  0.85

> <Gold.PLP.Chemscore.Internal.Correction>
0.0258

> <Gold.Rescore>
     Score         DG    S(hbond)    S(metal)    S(lipo)     H(rot)  DE(clash)    DE(int)     intcor
     15.22     -15.55       1.81        0.00      81.79       2.17       0.00       0.33       ----

> <Gold.Chemscore.Fitness>
15.2174

> <Gold.Chemscore.DG>
-15.5512

> <Gold.Chemscore.ZeroCoef>
-5.4800

> <Gold.Chemscore.Hbond>
1.8147

> <Gold.Chemscore.Metal>
0.0000

> <Gold.Chemscore.Lipo>
81.7873

> <Gold.Chemscore.Internal_Hbond>
0.0000

> <Gold.Chemscore.DEClash>
0.0000

> <Gold.Chemscore.DEInternal>
0.3338

> <Gold.Chemscore.Rot>
2.1715

> <Gold.Chemscore.Internal.Correction>
   9.000000E+99

> <Gold.Chemscore.Hbonds>
donor molecule, donor type, donor heavy atom, donor atom, acceptor molecule, acceptor atom, score
      L1  H     9    47       P1  7948  0.77
      P1  H  7997  8010       L1     7  0.76

> <Gold.Chemscore.Hbond.Weighted>
-6.0612

> <Gold.Chemscore.Metal.Weighted>
-0.0000

> <Gold.Chemscore.Lipo.Weighted>
-9.5691

> <Gold.Chemscore.Internal_Hbond.Weighted>
0.0000

> <Gold.Chemscore.DEClash.Weighted>
0.0000

> <Gold.Chemscore.DEInternal.Weighted>
0.3338

> <Gold.Chemscore.Rot.Weighted>
5.5591

> <Gold.Chemscore.Internal.Correction.Weighted>
   9.000000E+99

> <Gold.Protein.RotatedTorsions>
[ 6907 6896 6895 6894 ] final  -96.20 input  -60.11 | X-H torsion
[ 7974 7965 7964 7962 ] final   24.39 input  175.53 | X-H torsion
[ 8008 7997 7996 7995 ] final  113.96 input   59.86 | X-H torsion
[ 10167 10162 10161 10158 ] final  110.74 input  -65.29 | X-H torsion
[ 10718 10713 10712 10709 ] final  130.21 input   66.30 | X-H torsion
[ 10763 10752 10751 10750 ] final  112.66 input  -60.55 | X-H torsion
[ 11005 11000 10999 10996 ] final -129.04 input  -57.11 | X-H torsion

> <Gold.Protein.ActiveResidues>
 VAL166  LYS551  ARG553  GLY616  TRP617  ASP618  TYR619  PRO620  LYS621  CYS622 
 ASP623  PHE694  ASN695  SER759  ASP760  ASP761  ALA762  ILE779  LEU786  VAL792 
 PHE793  MET794  SER795  GLU796  ALA797  LYS798  CYS799  TRP800  GLU811  SER814 

> <Gold.Protein.RotatedAtoms>
  150.6982  134.1540  159.4150 H   0  0  0  0  0  0  0  0  0  0  0  0  # atno 6907 bound_to 6896
  151.9522  135.0161  160.0552 H   0  0  0  0  0  0  0  0  0  0  0  0  # atno 6908 bound_to 6896
  152.2001  133.4799  159.5090 H   0  0  0  0  0  0  0  0  0  0  0  0  # atno 6909 bound_to 6896
  146.1940  139.7612  142.8811 H   0  0  0  0  0  0  0  0  0  0  0  0  # atno 7974 bound_to 7965
  156.2291  140.2969  156.0143 H   0  0  0  0  0  0  0  0  0  0  0  0  # atno 8008 bound_to 7997
  155.2274  140.0418  157.2974 H   0  0  0  0  0  0  0  0  0  0  0  0  # atno 8009 bound_to 7997
  154.5966  140.2415  155.7857 H   0  0  0  0  0  0  0  0  0  0  0  0  # atno 8010 bound_to 7997
  139.6665  144.7127  151.1767 H   0  0  0  0  0  0  0  0  0  0  0  0  # atno 10167 bound_to 10162
  157.5083  131.1096  150.9329 H   0  0  0  0  0  0  0  0  0  0  0  0  # atno 10718 bound_to 10713
  153.4811  135.3679  155.2442 H   0  0  0  0  0  0  0  0  0  0  0  0  # atno 10763 bound_to 10752
  154.8755  135.3954  154.3699 H   0  0  0  0  0  0  0  0  0  0  0  0  # atno 10764 bound_to 10752
  153.4303  135.7082  153.6300 H   0  0  0  0  0  0  0  0  0  0  0  0  # atno 10765 bound_to 10752
  140.9466  134.1122  157.4102 H   0  0  0  0  0  0  0  0  0  0  0  0  # atno 11005 bound_to 11000
  145.3703  141.0341  143.3235 LP  0  0  0  0  0  0  0  0  0  0  0  0  # atno 17320 bound_to 7965
  144.8542  139.5274  143.6842 LP  0  0  0  0  0  0  0  0  0  0  0  0  # atno 17321 bound_to 7965
  140.7601  143.5911  150.8795 LP  0  0  0  0  0  0  0  0  0  0  0  0  # atno 17342 bound_to 10162
  139.9573  143.6204  152.3012 LP  0  0  0  0  0  0  0  0  0  0  0  0  # atno 17343 bound_to 10162
  156.9978  130.5588  149.5308 LP  0  0  0  0  0  0  0  0  0  0  0  0  # atno 17370 bound_to 10713
  156.0272  130.5366  150.8440 LP  0  0  0  0  0  0  0  0  0  0  0  0  # atno 17371 bound_to 10713
  139.8835  135.0053  156.6305 LP  0  0  0  0  0  0  0  0  0  0  0  0  # atno 17394 bound_to 11000
  140.7661  133.8777  155.8455 LP  0  0  0  0  0  0  0  0  0  0  0  0  # atno 17395 bound_to 11000

$$$$
