AV-unprocessed.smi:196|AV-procd|sdf|1538|dock1
  -GOLD-   2262019393D 1   1.00000     0.00000
 Structure written by MMmdl.
 47 50  0  0  0  0  0  0  0  0  1 V2000
  145.3620  137.9838  161.7632 C   0  0  0  0  0  0  0  0  0  0  0  0
  145.5434  136.4576  161.7296 C   0  0  2  0  0  0  0  0  0  0  0  0
  144.7894  135.8400  162.7625 O   0  0  0  0  0  0  0  0  0  0  0  0
  145.2957  134.5263  162.9141 C   0  0  0  0  0  0  0  0  0  0  0  0
  146.8038  134.7431  162.8767 C   0  0  0  0  0  0  0  0  0  0  0  0
  146.9861  135.9115  161.9027 C   0  0  2  0  0  0  0  0  0  0  0  0
  147.8405  136.8650  162.5132 O   0  0  0  0  0  0  0  0  0  0  0  0
  147.6347  135.4626  160.5701 C   0  0  0  0  0  0  0  0  0  0  0  0
  147.6907  136.5163  159.5678 N   0  0  0  0  0  0  0  0  0  0  0  0
  146.6273  137.0595  158.8812 C   0  0  0  0  0  0  0  0  0  0  0  0
  146.9350  137.9924  158.0221 N   0  0  0  0  0  0  0  0  0  0  0  0
  148.3141  138.1086  158.1335 C   0  0  0  0  0  0  0  0  0  0  0  0
  149.2860  138.9270  157.5004 C   0  0  0  0  0  0  0  0  0  0  0  0
  148.9314  139.8249  156.5435 N   0  0  0  0  0  0  0  0  0  0  0  0
  149.5243  139.4895  155.2532 C   0  0  0  0  0  0  0  0  0  0  0  0
  150.7353  140.4196  155.0737 C   0  0  2  0  0  0  0  0  0  0  0  0
  151.8807  139.7510  155.2097 F   0  0  0  0  0  0  0  0  0  0  0  0
  150.6003  141.4767  156.1769 C   0  0  0  0  0  0  0  0  0  0  0  0
  149.1747  141.2647  156.7125 C   0  0  2  0  0  0  0  0  0  0  0  0
  148.8849  141.8761  158.1003 C   0  0  0  0  0  0  0  0  0  0  0  0
  148.9686  143.2046  158.2078 N   0  0  0  0  0  0  0  0  0  0  0  0
  148.5463  141.1742  159.0520 O   0  0  0  0  0  0  0  0  0  0  0  0
  150.5865  138.7529  157.8590 N   0  0  0  0  0  0  0  0  0  0  0  0
  150.9105  137.8537  158.7925 C   0  0  0  0  0  0  0  0  0  0  0  0
  150.1093  137.0319  159.4735 N   0  0  0  0  0  0  0  0  0  0  0  0
  148.8061  137.1923  159.1042 C   0  0  0  0  0  0  0  0  0  0  0  0
  150.7402  140.8671  154.0793 H   0  0  0  0  0  0  0  0  0  0  0  0
  148.4821  141.7618  156.0307 H   0  0  0  0  0  0  0  0  0  0  0  0
  145.9426  138.4664  160.9765 H   0  0  0  0  0  0  0  0  0  0  0  0
  145.6714  138.4046  162.7201 H   0  0  0  0  0  0  0  0  0  0  0  0
  144.3160  138.2502  161.6116 H   0  0  0  0  0  0  0  0  0  0  0  0
  145.1258  136.0823  160.7950 H   0  0  0  0  0  0  0  0  0  0  0  0
  144.9575  134.0671  163.8431 H   0  0  0  0  0  0  0  0  0  0  0  0
  144.9672  133.9042  162.0796 H   0  0  0  0  0  0  0  0  0  0  0  0
  147.1426  135.0111  163.8792 H   0  0  0  0  0  0  0  0  0  0  0  0
  147.3430  133.8419  162.5827 H   0  0  0  0  0  0  0  0  0  0  0  0
  147.7662  136.7774  163.4510 H   0  0  0  0  0  0  0  0  0  0  0  0
  148.6499  135.1024  160.7432 H   0  0  0  0  0  0  0  0  0  0  0  0
  147.0823  134.6207  160.1508 H   0  0  0  0  0  0  0  0  0  0  0  0
  145.6083  136.7344  159.0328 H   0  0  0  0  0  0  0  0  0  0  0  0
  149.8030  138.4375  155.1604 H   0  0  0  0  0  0  0  0  0  0  0  0
  148.7808  139.6859  154.4798 H   0  0  0  0  0  0  0  0  0  0  0  0
  151.3422  141.3109  156.9595 H   0  0  0  0  0  0  0  0  0  0  0  0
  150.7499  142.4860  155.7921 H   0  0  0  0  0  0  0  0  0  0  0  0
  148.7832  143.6521  159.0936 H   0  0  0  0  0  0  0  0  0  0  0  0
  149.2128  143.7571  157.3988 H   0  0  0  0  0  0  0  0  0  0  0  0
  151.9626  137.7812  159.0255 H   0  0  0  0  0  0  0  0  0  0  0  0
  1  2  1  0  0  0  0
  1 29  1  0  0  0  0
  1 30  1  0  0  0  0
  1 31  1  0  0  0  0
  2  6  1  0  0  0  0
  2  3  1  0  0  0  0
  2 32  1  0  0  0  0
  3  4  1  0  0  0  0
  4  5  1  0  0  0  0
  4 33  1  0  0  0  0
  4 34  1  0  0  0  0
  5  6  1  0  0  0  0
  5 35  1  0  0  0  0
  5 36  1  0  0  0  0
  6  7  1  0  0  0  0
  6  8  1  0  0  0  0
  7 37  1  0  0  0  0
  8  9  1  0  0  0  0
  8 38  1  0  0  0  0
  8 39  1  0  0  0  0
  9 26  1  0  0  0  0
  9 10  1  0  0  0  0
 10 11  2  0  0  0  0
 10 40  1  0  0  0  0
 11 12  1  0  0  0  0
 12 26  2  0  0  0  0
 12 13  1  0  0  0  0
 13 14  1  0  0  0  0
 13 23  2  0  0  0  0
 14 19  1  0  0  0  0
 14 15  1  0  0  0  0
 15 16  1  0  0  0  0
 15 41  1  0  0  0  0
 15 42  1  0  0  0  0
 16 27  1  0  0  0  0
 16 17  1  0  0  0  0
 16 18  1  0  0  0  0
 18 19  1  0  0  0  0
 18 43  1  0  0  0  0
 18 44  1  0  0  0  0
 19 28  1  0  0  0  0
 19 20  1  0  0  0  0
 20 21  1  0  0  0  0
 20 22  2  0  0  0  0
 21 45  1  0  0  0  0
 21 46  1  0  0  0  0
 23 24  1  0  0  0  0
 24 25  2  0  0  0  0
 24 47  1  0  0  0  0
 25 26  1  0  0  0  0
M  END
> <s_m_source_file>
AV-unprocessed.smi

> <i_m_source_file_index>
196

> <i_lp_mmshare_version>
43012

> <i_f3d_flags>
0

> <s_epik_input>
W0NIMl0xW0NIMl1PW0NAQEhdKFtDSDNdKVtDQEBdMShbT0hdKVtDSDJdbihbY0hdbjIpYyhjMjMpbltjSF1uYzNONFtDSDJdW0NASF0oRilbQ0gyXVtDQEhdNEMoPU8pW05IMl0=

> <s_epik_cmdline>
J2VwaWtfcHl0aG9uJywgJy1waCcsICc3LjAnLCAnLXRuJywgJzgnLCAnLW1hJywgJzIwMCcsICctbWV0YWxfYmluZGluZycsICctaW1hZScsICc8aW5maWxlLm1hZT4nLCAnLW9tYWUnLCAnPG91dGZpbGUubWFlPic=

> <r_lp_tautomer_probability>
1

> <r_epik_Ionization_Penalty>
0.000857933

> <r_epik_Ionization_Penalty_Charging>
0

> <r_epik_Ionization_Penalty_Neutral>
0.000857933

> <r_epik_State_Penalty>
0.000462053

> <r_epik_Charging_Adjusted_Penalty>
0.000462053

> <i_epik_Tot_Q>
0

> <i_epik_Tot_abs_Q>
0

> <r_epik_Metal_State_Penalty>
-0

> <b_epik_Metal_Only>
0

> <s_lp_Force_Field>
OPLS_2005

> <r_lp_Energy>
50.5725

> <b_lp_Chiralities_Consistent>
1

> <s_lp_Variant>
AV-unprocessed.smi:196-11

> <Gold.Version>
5.8.1

> <Gold.Id.Protein>
6NUR|6NUR_protein|mol2

> <Gold.PLP.Fitness>
43.8003

> <Gold.PLP.PLP>
-35.4121

> <Gold.PLP.part.hbond>
-4.4872

> <Gold.PLP.part.metal>
0.0000

> <Gold.PLP.part.buried>
0.2535

> <Gold.PLP.part.nonpolar>
-31.1430

> <Gold.PLP.part.repulsive>
0.0699

> <Gold.PLP.ligand.clash>
0.0000

> <Gold.PLP.ligand.torsion>
0.1777

> <Gold.PLP.Chemscore.Hbond>
2.8800

> <Gold.PLP.Chemscore.CHOScore>
0.0000

> <Gold.PLP.Chemscore.Metal>
0.0000

> <Gold.Chemscore.Hbonds>
donor molecule, donor type, donor heavy atom, donor atom, acceptor molecule, acceptor atom, score
      L1  H    21    46       P1  8028  1.00
      P1  H  6896  6909       L1    25  0.49
      P1  H  6931  6943       L1     7  1.00

> <Gold.PLP.Chemscore.Internal.Correction>
0.1036

> <Gold.Rescore>
     Score         DG    S(hbond)    S(metal)    S(lipo)     H(rot)  DE(clash)    DE(int)     intcor
      7.30     -10.75       1.62        0.00      65.28       3.04       1.38       2.07       ----

> <Gold.Chemscore.Fitness>
7.2986

> <Gold.Chemscore.DG>
-10.7477

> <Gold.Chemscore.ZeroCoef>
-5.4800

> <Gold.Chemscore.Hbond>
1.6215

> <Gold.Chemscore.Metal>
0.0000

> <Gold.Chemscore.Lipo>
65.2770

> <Gold.Chemscore.Internal_Hbond>
0.0000

> <Gold.Chemscore.DEClash>
1.3785

> <Gold.Chemscore.DEInternal>
2.0707

> <Gold.Chemscore.Rot>
3.0413

> <Gold.Chemscore.Internal.Correction>
   9.000000E+99

> <Gold.Chemscore.Hbonds>
donor molecule, donor type, donor heavy atom, donor atom, acceptor molecule, acceptor atom, score
      L1  H    21    46       P1  8028  0.29
      P1  H  6896  6909       L1    25  0.37
      P1  H  6931  6943       L1     7  0.84

> <Gold.Chemscore.Hbond.Weighted>
-5.4159

> <Gold.Chemscore.Metal.Weighted>
-0.0000

> <Gold.Chemscore.Lipo.Weighted>
-7.6374

> <Gold.Chemscore.Internal_Hbond.Weighted>
0.0000

> <Gold.Chemscore.DEClash.Weighted>
1.3785

> <Gold.Chemscore.DEInternal.Weighted>
2.0707

> <Gold.Chemscore.Rot.Weighted>
7.7856

> <Gold.Chemscore.Internal.Correction.Weighted>
   9.000000E+99

> <Gold.Protein.RotatedTorsions>
[ 6907 6896 6895 6894 ] final   95.13 input  -60.11 | X-H torsion
[ 7974 7965 7964 7962 ] final   38.62 input  175.53 | X-H torsion
[ 8008 7997 7996 7995 ] final -106.05 input   59.86 | X-H torsion
[ 10167 10162 10161 10158 ] final  123.82 input  -65.29 | X-H torsion
[ 10718 10713 10712 10709 ] final -147.05 input   66.30 | X-H torsion
[ 10763 10752 10751 10750 ] final -143.69 input  -60.55 | X-H torsion
[ 11005 11000 10999 10996 ] final  176.94 input  -57.11 | X-H torsion

> <Gold.Protein.ActiveResidues>
 VAL166  LYS551  ARG553  GLY616  TRP617  ASP618  TYR619  PRO620  LYS621  CYS622 
 ASP623  PHE694  ASN695  SER759  ASP760  ASP761  ALA762  ILE779  LEU786  VAL792 
 PHE793  MET794  SER795  GLU796  ALA797  LYS798  CYS799  TRP800  GLU811  SER814 

> <Gold.Protein.RotatedAtoms>
  152.5445  134.1087  159.8348 H   0  0  0  0  0  0  0  0  0  0  0  0  # atno 6907 bound_to 6896
  151.1156  133.5134  159.2611 H   0  0  0  0  0  0  0  0  0  0  0  0  # atno 6908 bound_to 6896
  151.1836  135.0381  159.8857 H   0  0  0  0  0  0  0  0  0  0  0  0  # atno 6909 bound_to 6896
  146.1048  139.5750  142.9391 H   0  0  0  0  0  0  0  0  0  0  0  0  # atno 7974 bound_to 7965
  154.9088  140.0410  157.1935 H   0  0  0  0  0  0  0  0  0  0  0  0  # atno 8008 bound_to 7997
  154.8369  140.2908  155.5664 H   0  0  0  0  0  0  0  0  0  0  0  0  # atno 8009 bound_to 7997
  156.2990  140.2490  156.3304 H   0  0  0  0  0  0  0  0  0  0  0  0  # atno 8010 bound_to 7997
  139.5777  144.6971  151.3609 H   0  0  0  0  0  0  0  0  0  0  0  0  # atno 10167 bound_to 10162
  156.4027  130.7942  151.2153 H   0  0  0  0  0  0  0  0  0  0  0  0  # atno 10718 bound_to 10713
  154.8459  135.3461  154.6228 H   0  0  0  0  0  0  0  0  0  0  0  0  # atno 10763 bound_to 10752
  153.6837  135.6978  153.5115 H   0  0  0  0  0  0  0  0  0  0  0  0  # atno 10764 bound_to 10752
  153.2648  135.4311  155.0886 H   0  0  0  0  0  0  0  0  0  0  0  0  # atno 10765 bound_to 10752
  140.3787  134.6966  157.4437 H   0  0  0  0  0  0  0  0  0  0  0  0  # atno 11005 bound_to 11000
  145.5783  141.0386  143.2136 LP  0  0  0  0  0  0  0  0  0  0  0  0  # atno 17320 bound_to 7965
  144.7462  139.7315  143.7291 LP  0  0  0  0  0  0  0  0  0  0  0  0  # atno 17321 bound_to 7965
  140.7058  143.7516  150.7480 LP  0  0  0  0  0  0  0  0  0  0  0  0  # atno 17342 bound_to 10162
  140.1041  143.4760  152.2408 LP  0  0  0  0  0  0  0  0  0  0  0  0  # atno 17343 bound_to 10162
  157.7504  131.0282  150.4038 LP  0  0  0  0  0  0  0  0  0  0  0  0  # atno 17370 bound_to 10713
  156.4320  130.3974  149.6754 LP  0  0  0  0  0  0  0  0  0  0  0  0  # atno 17371 bound_to 10713
  140.0495  134.6150  155.8879 LP  0  0  0  0  0  0  0  0  0  0  0  0  # atno 17394 bound_to 11000
  141.1931  133.6577  156.5531 LP  0  0  0  0  0  0  0  0  0  0  0  0  # atno 17395 bound_to 11000

$$$$
