AV-unprocessed.smi:1552|AV-procd|sdf|6236|dock2
  -GOLD-   22720 6413D 1   1.00000     0.00000
 Structure written by MMmdl.
 49 50  0  0  0  0  0  0  0  0  3 V2000
  145.2795  135.6694  150.7362 C   0  0  0  0  0  0  0  0  0  0  0  0
  146.0811  135.8932  151.9621 N   0  3  0  0  0  0  0  0  0  0  0  0
  145.8926  137.2600  152.5049 C   0  0  0  0  0  0  0  0  0  0  0  0
  145.9967  134.7743  152.9538 C   0  0  2  0  0  0  0  0  0  0  0  0
  147.0042  134.9270  154.1271 C   0  0  0  0  0  0  0  0  0  0  0  0
  146.4036  134.6468  155.4293 N   0  0  0  0  0  0  0  0  0  0  0  0
  146.7357  135.1567  156.6270 C   0  0  0  0  0  0  0  0  0  0  0  0
  147.6713  135.9480  156.7257 O   0  0  0  0  0  0  0  0  0  0  0  0
  145.9781  134.7346  157.8990 C   0  0  0  0  0  0  0  0  0  0  0  0
  146.5112  135.4063  159.0946 N   0  0  0  0  0  0  0  0  0  0  0  0
  147.0664  134.6029  160.1069 C   0  0  0  0  0  0  0  0  0  0  0  0
  147.5883  135.1333  161.2294 C   0  0  0  0  0  0  0  0  0  0  0  0
  147.5694  136.5828  161.3816 C   0  0  0  0  0  0  0  0  0  0  0  0
  148.0407  137.0852  162.3998 O   0  0  0  0  0  0  0  0  0  0  0  0
  147.0220  137.3196  160.3709 N   0  5  0  0  0  0  0  0  0  0  0  0
  146.4949  136.7664  159.2355 C   0  0  0  0  0  0  0  0  0  0  0  0
  146.0076  137.4528  158.3367 O   0  0  0  0  0  0  0  0  0  0  0  0
  146.0112  133.3797  152.2573 C   0  0  0  0  0  0  0  0  0  0  0  0
  144.5933  132.9455  151.8088 C   0  0  0  0  0  0  0  0  0  0  0  0
  144.5950  131.5676  151.1273 C   0  0  0  0  0  0  0  0  0  0  0  0
  145.2044  130.4959  152.0402 C   0  0  0  0  0  0  0  0  0  0  0  0
  146.6155  130.9008  152.4857 C   0  0  0  0  0  0  0  0  0  0  0  0
  146.6127  132.2792  153.1659 C   0  0  0  0  0  0  0  0  0  0  0  0
  144.2095  135.7154  150.9372 H   0  0  0  0  0  0  0  0  0  0  0  0
  145.5041  134.6997  150.2912 H   0  0  0  0  0  0  0  0  0  0  0  0
  145.5098  136.4308  149.9904 H   0  0  0  0  0  0  0  0  0  0  0  0
  144.8560  137.4409  152.7871 H   0  0  0  0  0  0  0  0  0  0  0  0
  146.1608  138.0020  151.7525 H   0  0  0  0  0  0  0  0  0  0  0  0
  146.5241  137.4386  153.3741 H   0  0  0  0  0  0  0  0  0  0  0  0
  145.0059  134.8602  153.4027 H   0  0  0  0  0  0  0  0  0  0  0  0
  147.8692  134.2954  153.9410 H   0  0  0  0  0  0  0  0  0  0  0  0
  147.3867  135.9476  154.1545 H   0  0  0  0  0  0  0  0  0  0  0  0
  145.6673  133.9558  155.4305 H   0  0  0  0  0  0  0  0  0  0  0  0
  144.9015  134.8797  157.8306 H   0  0  0  0  0  0  0  0  0  0  0  0
  146.0917  133.6545  157.9987 H   0  0  0  0  0  0  0  0  0  0  0  0
  147.0484  133.5402  159.9142 H   0  0  0  0  0  0  0  0  0  0  0  0
  148.0133  134.5021  161.9958 H   0  0  0  0  0  0  0  0  0  0  0  0
  146.6338  133.4377  151.3641 H   0  0  0  0  0  0  0  0  0  0  0  0
  143.9251  132.9216  152.6708 H   0  0  0  0  0  0  0  0  0  0  0  0
  144.1701  133.6701  151.1130 H   0  0  0  0  0  0  0  0  0  0  0  0
  143.5771  131.2867  150.8550 H   0  0  0  0  0  0  0  0  0  0  0  0
  145.1606  131.6199  150.1963 H   0  0  0  0  0  0  0  0  0  0  0  0
  144.5691  130.3537  152.9155 H   0  0  0  0  0  0  0  0  0  0  0  0
  145.2370  129.5375  151.5210 H   0  0  0  0  0  0  0  0  0  0  0  0
  147.0180  130.1512  153.1676 H   0  0  0  0  0  0  0  0  0  0  0  0
  147.2809  130.9209  151.6216 H   0  0  0  0  0  0  0  0  0  0  0  0
  147.6383  132.5229  153.4412 H   0  0  0  0  0  0  0  0  0  0  0  0
  146.0495  132.2227  154.0984 H   0  0  0  0  0  0  0  0  0  0  0  0
  147.0388  135.8690  151.6429 H   0  0  0  0  0  0  0  0  0  0  0  0
  1  2  1  0  0  0  0
  1 24  1  0  0  0  0
  1 25  1  0  0  0  0
  1 26  1  0  0  0  0
  2  3  1  0  0  0  0
  2  4  1  0  0  0  0
  2 49  1  0  0  0  0
  3 27  1  0  0  0  0
  3 28  1  0  0  0  0
  3 29  1  0  0  0  0
  4  5  1  0  0  0  0
  4 18  1  0  0  0  0
  4 30  1  0  0  0  0
  5  6  1  0  0  0  0
  5 31  1  0  0  0  0
  5 32  1  0  0  0  0
  6  7  1  0  0  0  0
  6 33  1  0  0  0  0
  7  8  2  0  0  0  0
  7  9  1  0  0  0  0
  9 10  1  0  0  0  0
  9 34  1  0  0  0  0
  9 35  1  0  0  0  0
 10 16  1  0  0  0  0
 10 11  1  0  0  0  0
 11 12  2  0  0  0  0
 11 36  1  0  0  0  0
 12 13  1  0  0  0  0
 12 37  1  0  0  0  0
 13 14  2  0  0  0  0
 13 15  1  0  0  0  0
 15 16  1  0  0  0  0
 16 17  2  0  0  0  0
 18 23  1  0  0  0  0
 18 19  1  0  0  0  0
 18 38  1  0  0  0  0
 19 20  1  0  0  0  0
 19 39  1  0  0  0  0
 19 40  1  0  0  0  0
 20 21  1  0  0  0  0
 20 41  1  0  0  0  0
 20 42  1  0  0  0  0
 21 22  1  0  0  0  0
 21 43  1  0  0  0  0
 21 44  1  0  0  0  0
 22 23  1  0  0  0  0
 22 45  1  0  0  0  0
 22 46  1  0  0  0  0
 23 47  1  0  0  0  0
 23 48  1  0  0  0  0
M  CHG  1   2   1
M  CHG  1  15  -1
M  END
> <s_m_source_file>
AV-unprocessed.smi

> <i_m_source_file_index>
1552

> <i_lp_mmshare_version>
43012

> <i_f3d_flags>
0

> <s_epik_input>
W0NIMl0xW0NIMl1bQ0gyXVtDSDJdW0NIMl1bQ0hdMVtDQEhdKE4oW0NIM10pW0NIM10pW0NIMl1bTkhdQyg9TylbQ0gyXW4yW2NIXVtjSF1jKD1PKVtuSF1jMj1P

> <s_epik_cmdline>
J2VwaWtfcHl0aG9uJywgJy1waCcsICc3LjAnLCAnLXRuJywgJzgnLCAnLW1hJywgJzIwMCcsICctbWV0YWxfYmluZGluZycsICctaW1hZScsICc8aW5maWxlLm1hZT4nLCAnLW9tYWUnLCAnPG91dGZpbGUubWFlPic=

> <r_lp_tautomer_probability>
1

> <r_epik_Ionization_Penalty>
2.93575

> <r_epik_Ionization_Penalty_Charging>
0.00331645

> <r_epik_Ionization_Penalty_Neutral>
2.93244

> <r_epik_State_Penalty>
2.92822

> <r_epik_Charging_Adjusted_Penalty>
2.93154

> <i_epik_Tot_Q>
0

> <i_epik_Tot_abs_Q>
2

> <r_epik_Metal_State_Penalty>
0.448509

> <b_epik_Metal_Only>
1

> <s_lp_Force_Field>
OPLS_2005

> <r_lp_Energy>
39.5493

> <b_lp_Chiralities_Consistent>
1

> <s_lp_Variant>
AV-unprocessed.smi:1552-3

> <Gold.Version>
5.8.1

> <Gold.Id.Protein>
6NUR|6NUR_protein|mol2

> <Gold.PLP.Fitness>
40.8562

> <Gold.PLP.PLP>
-28.7337

> <Gold.PLP.part.hbond>
-3.0000

> <Gold.PLP.part.metal>
0.0000

> <Gold.PLP.part.buried>
-3.6681

> <Gold.PLP.part.nonpolar>
-21.9091

> <Gold.PLP.part.repulsive>
0.0317

> <Gold.PLP.ligand.clash>
0.0000

> <Gold.PLP.ligand.torsion>
1.6995

> <Gold.PLP.Chemscore.Hbond>
5.0000

> <Gold.PLP.Chemscore.CHOScore>
0.0000

> <Gold.PLP.Chemscore.Metal>
0.0000

> <Gold.Chemscore.Hbonds>
donor molecule, donor type, donor heavy atom, donor atom, acceptor molecule, acceptor atom, score
      L1  H     2    49       P1  7948  2.00
      P1  H  6931  6943       L1    14  1.00
      P1  H  6934  6947       L1    15  2.00

> <Gold.PLP.Chemscore.Internal.Correction>
0.5215

> <Gold.Rescore>
     Score         DG    S(hbond)    S(metal)    S(lipo)     H(rot)  DE(clash)    DE(int)     intcor
     12.15     -15.23       2.44        0.00      66.95       2.43       0.06       3.02       ----

> <Gold.Chemscore.Fitness>
12.1500

> <Gold.Chemscore.DG>
-15.2305

> <Gold.Chemscore.ZeroCoef>
-5.4800

> <Gold.Chemscore.Hbond>
2.4371

> <Gold.Chemscore.Metal>
0.0000

> <Gold.Chemscore.Lipo>
66.9457

> <Gold.Chemscore.Internal_Hbond>
0.0000

> <Gold.Chemscore.DEClash>
0.0566

> <Gold.Chemscore.DEInternal>
3.0239

> <Gold.Chemscore.Rot>
2.4305

> <Gold.Chemscore.Internal.Correction>
   9.000000E+99

> <Gold.Chemscore.Hbonds>
donor molecule, donor type, donor heavy atom, donor atom, acceptor molecule, acceptor atom, score
      L1  H     2    49       P1  7948  0.97
      P1  H  6931  6943       L1    14  0.62
      P1  H  6934  6947       L1    15  0.50

> <Gold.Chemscore.Hbond.Weighted>
-8.1398

> <Gold.Chemscore.Metal.Weighted>
-0.0000

> <Gold.Chemscore.Lipo.Weighted>
-7.8327

> <Gold.Chemscore.Internal_Hbond.Weighted>
0.0000

> <Gold.Chemscore.DEClash.Weighted>
0.0566

> <Gold.Chemscore.DEInternal.Weighted>
3.0239

> <Gold.Chemscore.Rot.Weighted>
6.2220

> <Gold.Chemscore.Internal.Correction.Weighted>
   9.000000E+99

> <Gold.Protein.RotatedTorsions>
[ 6907 6896 6895 6894 ] final  -96.99 input  -60.11 | X-H torsion
[ 7974 7965 7964 7962 ] final -156.09 input  175.53 | X-H torsion
[ 8008 7997 7996 7995 ] final  -54.65 input   59.86 | X-H torsion
[ 10167 10162 10161 10158 ] final  144.11 input  -65.29 | X-H torsion
[ 10718 10713 10712 10709 ] final   84.17 input   66.30 | X-H torsion
[ 10763 10752 10751 10750 ] final -151.88 input  -60.55 | X-H torsion
[ 11005 11000 10999 10996 ] final -153.90 input  -57.11 | X-H torsion

> <Gold.Protein.ActiveResidues>
 VAL166  LYS551  ARG553  GLY616  TRP617  ASP618  TYR619  PRO620  LYS621  CYS622 
 ASP623  PHE694  ASN695  SER759  ASP760  ASP761  ALA762  ILE779  LEU786  VAL792 
 PHE793  MET794  SER795  GLU796  ALA797  LYS798  CYS799  TRP800  GLU811  SER814 

> <Gold.Protein.RotatedAtoms>
  150.7003  134.1418  159.4107 H   0  0  0  0  0  0  0  0  0  0  0  0  # atno 6907 bound_to 6896
  151.9402  135.0214  160.0544 H   0  0  0  0  0  0  0  0  0  0  0  0  # atno 6908 bound_to 6896
  152.2100  133.4869  159.5141 H   0  0  0  0  0  0  0  0  0  0  0  0  # atno 6909 bound_to 6896
  144.7609  140.4159  143.5977 H   0  0  0  0  0  0  0  0  0  0  0  0  # atno 7974 bound_to 7965
  154.4169  140.1171  156.5349 H   0  0  0  0  0  0  0  0  0  0  0  0  # atno 8008 bound_to 7997
  155.6567  140.3496  155.4748 H   0  0  0  0  0  0  0  0  0  0  0  0  # atno 8009 bound_to 7997
  155.9747  140.1148  157.0770 H   0  0  0  0  0  0  0  0  0  0  0  0  # atno 8010 bound_to 7997
  139.4954  144.5994  151.6513 H   0  0  0  0  0  0  0  0  0  0  0  0  # atno 10167 bound_to 10162
  157.6893  131.0122  150.2633 H   0  0  0  0  0  0  0  0  0  0  0  0  # atno 10718 bound_to 10713
  154.8030  135.3249  154.7503 H   0  0  0  0  0  0  0  0  0  0  0  0  # atno 10763 bound_to 10752
  153.8167  135.6891  153.4837 H   0  0  0  0  0  0  0  0  0  0  0  0  # atno 10764 bound_to 10752
  153.1757  135.4606  154.9906 H   0  0  0  0  0  0  0  0  0  0  0  0  # atno 10765 bound_to 10752
  140.7031  134.3915  157.5207 H   0  0  0  0  0  0  0  0  0  0  0  0  # atno 11005 bound_to 11000
  145.6622  139.1583  143.2802 LP  0  0  0  0  0  0  0  0  0  0  0  0  # atno 17320 bound_to 7965
  146.1671  140.6701  142.9250 LP  0  0  0  0  0  0  0  0  0  0  0  0  # atno 17321 bound_to 7965
  140.5640  144.0221  150.6183 LP  0  0  0  0  0  0  0  0  0  0  0  0  # atno 17342 bound_to 10162
  140.3316  143.3074  152.0681 LP  0  0  0  0  0  0  0  0  0  0  0  0  # atno 17343 bound_to 10162
  156.3209  130.3785  149.7576 LP  0  0  0  0  0  0  0  0  0  0  0  0  # atno 17370 bound_to 10713
  156.5147  130.8188  151.3181 LP  0  0  0  0  0  0  0  0  0  0  0  0  # atno 17371 bound_to 10713
  139.8891  134.8838  156.2437 LP  0  0  0  0  0  0  0  0  0  0  0  0  # atno 17394 bound_to 11000
  141.0147  133.7075  156.1169 LP  0  0  0  0  0  0  0  0  0  0  0  0  # atno 17395 bound_to 11000

$$$$
