AV-unprocessed.smi:34|AV-procd|sdf|226|dock6
  -GOLD-   2262015553D 1   1.00000     0.00000
 Structure written by MMmdl.
 55 59  0  0  0  0  0  0  0  0  1 V2000
  150.4531  128.8541  154.6558 O   0  0  0  0  0  0  0  0  0  0  0  0
  149.5308  129.5596  154.2460 C   0  0  0  0  0  0  0  0  0  0  0  0
  149.3710  130.9417  154.6622 N   0  0  0  0  0  0  0  0  0  0  0  0
  150.1101  131.6377  155.5577 C   0  0  0  0  0  0  0  0  0  0  0  0
  151.0497  131.0486  156.3425 N   0  0  0  0  0  0  0  0  0  0  0  0
  151.7520  131.7797  157.2117 C   0  0  0  0  0  0  0  0  0  0  0  0
  151.6784  133.0909  157.4461 N   0  0  0  0  0  0  0  0  0  0  0  0
  150.7447  133.6974  156.6555 C   0  0  0  0  0  0  0  0  0  0  0  0
  149.9213  133.0374  155.6999 C   0  0  0  0  0  0  0  0  0  0  0  0
  149.0706  133.9536  155.0983 N   0  0  0  0  0  0  0  0  0  0  0  0
  149.3731  135.0869  155.6708 C   0  0  0  0  0  0  0  0  0  0  0  0
  150.3977  135.0367  156.5935 N   0  0  0  0  0  0  0  0  0  0  0  0
  150.9426  136.1717  157.4217 C   0  0  1  0  0  0  0  0  0  0  0  0
  151.4945  137.1293  156.5720 O   0  0  0  0  0  0  0  0  0  0  0  0
  150.4793  138.0537  156.2117 C   0  0  2  0  0  0  0  0  0  0  0  0
  151.0779  139.3117  155.5665 C   0  0  0  0  0  0  0  0  0  0  0  0
  151.2684  140.3124  156.5577 O   0  0  0  0  0  0  0  0  0  0  0  0
  152.2445  140.1919  157.4845 C   0  0  0  0  0  0  0  0  0  0  0  0
  153.0161  139.2325  157.5455 O   0  0  0  0  0  0  0  0  0  0  0  0
  152.3035  141.3523  158.4185 C   0  0  0  0  0  0  0  0  0  0  0  0
  151.3601  142.3975  158.2845 C   0  0  0  0  0  0  0  0  0  0  0  0
  151.3792  143.4980  159.1627 C   0  0  0  0  0  0  0  0  0  0  0  0
  152.3420  143.5665  160.1862 C   0  0  0  0  0  0  0  0  0  0  0  0
  153.2856  142.5328  160.3307 C   0  0  0  0  0  0  0  0  0  0  0  0
  153.2681  141.4314  159.4530 C   0  0  0  0  0  0  0  0  0  0  0  0
  149.8292  138.2903  157.5699 C   0  0  1  0  0  0  0  0  0  0  0  0
  148.6025  138.7998  157.4532 F   0  0  0  0  0  0  0  0  0  0  0  0
  149.8039  136.8926  158.1787 C   0  0  2  0  0  0  0  0  0  0  0  0
  150.0310  136.9487  159.5716 O   0  0  0  0  0  0  0  0  0  0  0  0
  148.5495  129.0614  153.2246 C   0  0  0  0  0  0  0  0  0  0  0  0
  147.3933  129.8179  152.9277 C   0  0  0  0  0  0  0  0  0  0  0  0
  146.4737  129.3660  151.9612 C   0  0  0  0  0  0  0  0  0  0  0  0
  146.7060  128.1579  151.2776 C   0  0  0  0  0  0  0  0  0  0  0  0
  147.8610  127.4040  151.5578 C   0  0  0  0  0  0  0  0  0  0  0  0
  148.7813  127.8547  152.5242 C   0  0  0  0  0  0  0  0  0  0  0  0
  148.5974  131.4403  154.2472 H   0  0  0  0  0  0  0  0  0  0  0  0
  152.4767  131.2373  157.8011 H   0  0  0  0  0  0  0  0  0  0  0  0
  148.8529  136.0017  155.4258 H   0  0  0  0  0  0  0  0  0  0  0  0
  151.6978  135.7068  158.0564 H   0  0  0  0  0  0  0  0  0  0  0  0
  149.7660  137.5805  155.5334 H   0  0  0  0  0  0  0  0  0  0  0  0
  152.0590  139.0727  155.1562 H   0  0  0  0  0  0  0  0  0  0  0  0
  150.4681  139.6637  154.7331 H   0  0  0  0  0  0  0  0  0  0  0  0
  150.6096  142.3649  157.5077 H   0  0  0  0  0  0  0  0  0  0  0  0
  150.6535  144.2900  159.0508 H   0  0  0  0  0  0  0  0  0  0  0  0
  152.3560  144.4101  160.8606 H   0  0  0  0  0  0  0  0  0  0  0  0
  154.0238  142.5829  161.1175 H   0  0  0  0  0  0  0  0  0  0  0  0
  154.0027  140.6524  159.5953 H   0  0  0  0  0  0  0  0  0  0  0  0
  150.4316  138.9776  158.1666 H   0  0  0  0  0  0  0  0  0  0  0  0
  148.8437  136.4153  157.9821 H   0  0  0  0  0  0  0  0  0  0  0  0
  149.7264  137.7845  159.8912 H   0  0  0  0  0  0  0  0  0  0  0  0
  147.2007  130.7481  153.4425 H   0  0  0  0  0  0  0  0  0  0  0  0
  145.5898  129.9474  151.7439 H   0  0  0  0  0  0  0  0  0  0  0  0
  146.0008  127.8116  150.5364 H   0  0  0  0  0  0  0  0  0  0  0  0
  148.0427  126.4798  151.0294 H   0  0  0  0  0  0  0  0  0  0  0  0
  149.6653  127.2642  152.7163 H   0  0  0  0  0  0  0  0  0  0  0  0
  1  2  2  0  0  0  0
  2  3  1  0  0  0  0
  2 30  1  0  0  0  0
  3  4  1  0  0  0  0
  3 36  1  0  0  0  0
  4  9  1  0  0  0  0
  4  5  2  0  0  0  0
  5  6  1  0  0  0  0
  6  7  2  0  0  0  0
  6 37  1  0  0  0  0
  7  8  1  0  0  0  0
  8 12  1  0  0  0  0
  8  9  2  0  0  0  0
  9 10  1  0  0  0  0
 10 11  2  0  0  0  0
 11 12  1  0  0  0  0
 11 38  1  0  0  0  0
 12 13  1  0  0  0  0
 13 28  1  0  0  0  0
 13 14  1  0  0  0  0
 13 39  1  0  0  0  0
 14 15  1  0  0  0  0
 15 16  1  0  0  0  0
 15 26  1  0  0  0  0
 15 40  1  0  0  0  0
 16 17  1  0  0  0  0
 16 41  1  0  0  0  0
 16 42  1  0  0  0  0
 17 18  1  0  0  0  0
 18 19  2  0  0  0  0
 18 20  1  0  0  0  0
 20 25  1  0  0  0  0
 20 21  2  0  0  0  0
 21 22  1  0  0  0  0
 21 43  1  0  0  0  0
 22 23  2  0  0  0  0
 22 44  1  0  0  0  0
 23 24  1  0  0  0  0
 23 45  1  0  0  0  0
 24 25  2  0  0  0  0
 24 46  1  0  0  0  0
 25 47  1  0  0  0  0
 26 27  1  0  0  0  0
 26 28  1  0  0  0  0
 26 48  1  0  0  0  0
 28 29  1  0  0  0  0
 28 49  1  0  0  0  0
 29 50  1  0  0  0  0
 30 35  1  0  0  0  0
 30 31  2  0  0  0  0
 31 32  1  0  0  0  0
 31 51  1  0  0  0  0
 32 33  2  0  0  0  0
 32 52  1  0  0  0  0
 33 34  1  0  0  0  0
 33 53  1  0  0  0  0
 34 35  2  0  0  0  0
 34 54  1  0  0  0  0
 35 55  1  0  0  0  0
M  END
> <s_m_source_file>
AV-unprocessed.smi

> <i_m_source_file_index>
34

> <i_lp_mmshare_version>
43012

> <i_f3d_flags>
0

> <s_epik_input>
W2NIXTFbY0hdW2NIXVtjSF1bY0hdYzFDKD1PKVtOSF1jKG5bY0hdbjIpYyhjMjMpbltjSF1uM1tDQEBIXTRPW0NASF0oW0NAQEhdKEYpW0NASF00W09IXSlbQ0gyXU9DKD1PKWM1W2NIXVtjSF1bY0hdW2NIXVtjSF01

> <s_epik_cmdline>
J2VwaWtfcHl0aG9uJywgJy1waCcsICc3LjAnLCAnLXRuJywgJzgnLCAnLW1hJywgJzIwMCcsICctbWV0YWxfYmluZGluZycsICctaW1hZScsICc8aW5maWxlLm1hZT4nLCAnLW9tYWUnLCAnPG91dGZpbGUubWFlPic=

> <r_lp_tautomer_probability>
1

> <r_epik_Ionization_Penalty>
0.00257489

> <r_epik_Ionization_Penalty_Charging>
0

> <r_epik_Ionization_Penalty_Neutral>
0.00257489

> <r_epik_State_Penalty>
0.00519398

> <r_epik_Charging_Adjusted_Penalty>
0.00519398

> <i_epik_Tot_Q>
0

> <i_epik_Tot_abs_Q>
0

> <r_epik_Metal_State_Penalty>
0.335891

> <b_epik_Metal_Only>
0

> <s_epik_Chemistry_Notes>
This compound has an ester and may undergo hydrolysis at high or low pH. This compound contains an acetal/aminal-like group ( X-CH(R)-Y where X, Y are N, S, or O) that may be acid/base labile, releasing an aldehyde.

> <s_lp_Force_Field>
OPLS_2005

> <r_lp_Energy>
40.9193

> <b_lp_Chiralities_Consistent>
1

> <s_lp_Variant>
AV-unprocessed.smi:34-12

> <Gold.Version>
5.8.1

> <Gold.Id.Protein>
6NUR|6NUR_protein|mol2

> <Gold.PLP.Fitness>
62.5778

> <Gold.PLP.PLP>
-56.0130

> <Gold.PLP.part.hbond>
-3.0000

> <Gold.PLP.part.metal>
0.0000

> <Gold.PLP.part.buried>
-8.0063

> <Gold.PLP.part.nonpolar>
-45.2333

> <Gold.PLP.part.repulsive>
0.1818

> <Gold.PLP.ligand.clash>
0.0000

> <Gold.PLP.ligand.torsion>
0.6783

> <Gold.PLP.Chemscore.Hbond>
2.5756

> <Gold.PLP.Chemscore.CHOScore>
0.0000

> <Gold.PLP.Chemscore.Metal>
0.0000

> <Gold.Chemscore.Hbonds>
donor molecule, donor type, donor heavy atom, donor atom, acceptor molecule, acceptor atom, score
      P1  H  6896  6907       L1    29  0.52
      P1  H  6896  6909       L1     7  0.77
      P1  H  7997  8009       L1    19  1.00

> <Gold.PLP.Chemscore.Internal.Correction>
0.1945

> <Gold.Rescore>
     Score         DG    S(hbond)    S(metal)    S(lipo)     H(rot)  DE(clash)    DE(int)     intcor
     17.15     -19.41       1.97        0.00     122.41       2.72       0.05       2.21       ----

> <Gold.Chemscore.Fitness>
17.1524

> <Gold.Chemscore.DG>
-19.4103

> <Gold.Chemscore.ZeroCoef>
-5.4800

> <Gold.Chemscore.Hbond>
1.9686

> <Gold.Chemscore.Metal>
0.0000

> <Gold.Chemscore.Lipo>
122.4109

> <Gold.Chemscore.Internal_Hbond>
0.0000

> <Gold.Chemscore.DEClash>
0.0522

> <Gold.Chemscore.DEInternal>
2.2057

> <Gold.Chemscore.Rot>
2.7215

> <Gold.Chemscore.Internal.Correction>
   9.000000E+99

> <Gold.Chemscore.Hbonds>
donor molecule, donor type, donor heavy atom, donor atom, acceptor molecule, acceptor atom, score
      P1  H  6896  6907       L1    29  0.09
      P1  H  6896  6909       L1     7  0.46
      P1  H  7997  8009       L1    19  0.34

> <Gold.Chemscore.Hbond.Weighted>
-6.5752

> <Gold.Chemscore.Metal.Weighted>
-0.0000

> <Gold.Chemscore.Lipo.Weighted>
-14.3221

> <Gold.Chemscore.Internal_Hbond.Weighted>
0.0000

> <Gold.Chemscore.DEClash.Weighted>
0.0522

> <Gold.Chemscore.DEInternal.Weighted>
2.2057

> <Gold.Chemscore.Rot.Weighted>
6.9670

> <Gold.Chemscore.Internal.Correction.Weighted>
   9.000000E+99

> <Gold.Protein.RotatedTorsions>
[ 6907 6896 6895 6894 ] final  -40.11 input  -60.11 | X-H torsion
[ 7974 7965 7964 7962 ] final   45.25 input  175.53 | X-H torsion
[ 8008 7997 7996 7995 ] final  149.97 input   59.86 | X-H torsion
[ 10167 10162 10161 10158 ] final -150.33 input  -65.29 | X-H torsion
[ 10718 10713 10712 10709 ] final   59.79 input   66.30 | X-H torsion
[ 10763 10752 10751 10750 ] final   95.74 input  -60.55 | X-H torsion
[ 11005 11000 10999 10996 ] final -135.58 input  -57.11 | X-H torsion

> <Gold.Protein.ActiveResidues>
 VAL166  LYS551  ARG553  GLY616  TRP617  ASP618  TYR619  PRO620  LYS621  CYS622 
 ASP623  PHE694  ASN695  SER759  ASP760  ASP761  ALA762  ILE779  LEU786  VAL792 
 PHE793  MET794  SER795  GLU796  ALA797  LYS798  CYS799  TRP800  GLU811  SER814 

> <Gold.Protein.RotatedAtoms>
  150.9823  134.9175  159.7851 H   0  0  0  0  0  0  0  0  0  0  0  0  # atno 6907 bound_to 6896
  152.5225  134.3394  159.9221 H   0  0  0  0  0  0  0  0  0  0  0  0  # atno 6908 bound_to 6896
  151.3401  133.3925  159.2705 H   0  0  0  0  0  0  0  0  0  0  0  0  # atno 6909 bound_to 6896
  146.0497  139.4985  142.9726 H   0  0  0  0  0  0  0  0  0  0  0  0  # atno 7974 bound_to 7965
  156.2734  140.2087  156.5943 H   0  0  0  0  0  0  0  0  0  0  0  0  # atno 8008 bound_to 7997
  154.6957  140.0526  157.0432 H   0  0  0  0  0  0  0  0  0  0  0  0  # atno 8009 bound_to 7997
  155.0804  140.3186  155.4606 H   0  0  0  0  0  0  0  0  0  0  0  0  # atno 8010 bound_to 7997
  139.7364  143.8729  152.2550 H   0  0  0  0  0  0  0  0  0  0  0  0  # atno 10167 bound_to 10162
  157.5703  130.8902  149.9256 H   0  0  0  0  0  0  0  0  0  0  0  0  # atno 10718 bound_to 10713
  153.2568  135.4243  155.0853 H   0  0  0  0  0  0  0  0  0  0  0  0  # atno 10763 bound_to 10752
  154.8404  135.3439  154.6435 H   0  0  0  0  0  0  0  0  0  0  0  0  # atno 10764 bound_to 10752
  153.6855  135.7036  153.5162 H   0  0  0  0  0  0  0  0  0  0  0  0  # atno 10765 bound_to 10752
  140.8884  134.1842  157.4544 H   0  0  0  0  0  0  0  0  0  0  0  0  # atno 11005 bound_to 11000
  145.6745  141.0207  143.1639 LP  0  0  0  0  0  0  0  0  0  0  0  0  # atno 17320 bound_to 7965
  144.7116  139.8349  143.7412 LP  0  0  0  0  0  0  0  0  0  0  0  0  # atno 17321 bound_to 7965
  139.8667  144.7089  150.9036 LP  0  0  0  0  0  0  0  0  0  0  0  0  # atno 17342 bound_to 10162
  140.7779  143.3772  151.1541 LP  0  0  0  0  0  0  0  0  0  0  0  0  # atno 17343 bound_to 10162
  156.0749  130.3680  150.0698 LP  0  0  0  0  0  0  0  0  0  0  0  0  # atno 17370 bound_to 10713
  156.8852  130.9570  151.3595 LP  0  0  0  0  0  0  0  0  0  0  0  0  # atno 17371 bound_to 10713
  139.8727  134.9848  156.5254 LP  0  0  0  0  0  0  0  0  0  0  0  0  # atno 17394 bound_to 11000
  140.8376  133.8230  155.9044 LP  0  0  0  0  0  0  0  0  0  0  0  0  # atno 17395 bound_to 11000

$$$$
