AV-unprocessed.smi:3226|AV-procd|sdf|12316|dock4
  -GOLD-   2272018163D 1   1.00000     0.00000
 Structure written by MMmdl.
 41 43  0  0  0  0  0  0  0  0  2 V2000
  147.0865  139.2149  153.3948 C   0  0  0  0  0  0  0  0  0  0  0  0
  147.5999  138.4566  154.6239 C   0  0  0  0  0  0  0  0  0  0  0  0
  149.0928  138.4891  154.7369 C   0  0  0  0  0  0  0  0  0  0  0  0
  149.8550  137.3890  154.7184 N   0  0  0  0  0  0  0  0  0  0  0  0
  151.1576  137.8353  154.8147 N   0  0  0  0  0  0  0  0  0  0  0  0
  151.0535  139.1615  154.8711 C   0  0  0  0  0  0  0  0  0  0  0  0
  149.7987  139.6361  154.8317 N   0  0  0  0  0  0  0  0  0  0  0  0
  149.3577  141.0201  154.8750 C   0  0  0  0  0  0  0  0  0  0  0  0
  148.4948  141.3215  156.1112 C   0  0  0  0  0  0  0  0  0  0  0  0
  149.0403  142.4464  156.8976 N   0  3  0  0  0  0  0  0  0  0  0  0
  150.4285  142.2428  157.3551 C   0  0  0  0  0  0  0  0  0  0  0  0
  150.7344  143.0920  158.6028 C   0  0  1  0  0  0  0  0  0  0  0  0
  151.9951  142.6217  159.3960 C   0  0  0  0  0  0  0  0  0  0  0  0
  152.8655  143.8978  159.4651 C   0  0  2  0  0  0  0  0  0  0  0  0
  152.1285  144.9295  160.2931 C   0  0  0  0  0  0  0  0  0  0  0  0
  151.0764  145.3333  159.5787 C   0  0  0  0  0  0  0  0  0  0  0  0
  151.0962  144.5642  158.2736 C   0  0  1  0  0  0  0  0  0  0  0  0
  152.6121  144.4539  158.0615 C   0  0  0  0  0  0  0  0  0  0  0  0
  145.9988  139.1707  153.3367 H   0  0  0  0  0  0  0  0  0  0  0  0
  147.4870  138.7890  152.4742 H   0  0  0  0  0  0  0  0  0  0  0  0
  147.3754  140.2657  153.4311 H   0  0  0  0  0  0  0  0  0  0  0  0
  147.1516  138.8641  155.5297 H   0  0  0  0  0  0  0  0  0  0  0  0
  147.2791  137.4157  154.5692 H   0  0  0  0  0  0  0  0  0  0  0  0
  151.9176  139.8053  154.9478 H   0  0  0  0  0  0  0  0  0  0  0  0
  150.2350  141.6681  154.8550 H   0  0  0  0  0  0  0  0  0  0  0  0
  148.7970  141.2352  153.9650 H   0  0  0  0  0  0  0  0  0  0  0  0
  147.4833  141.5741  155.7906 H   0  0  0  0  0  0  0  0  0  0  0  0
  148.4156  140.4382  156.7463 H   0  0  0  0  0  0  0  0  0  0  0  0
  149.0082  143.2816  156.3302 H   0  0  0  0  0  0  0  0  0  0  0  0
  150.5916  141.1834  157.5546 H   0  0  0  0  0  0  0  0  0  0  0  0
  151.1057  142.5234  156.5473 H   0  0  0  0  0  0  0  0  0  0  0  0
  149.8556  143.0768  159.2507 H   0  0  0  0  0  0  0  0  0  0  0  0
  151.7407  142.2462  160.3881 H   0  0  0  0  0  0  0  0  0  0  0  0
  152.5278  141.8284  158.8696 H   0  0  0  0  0  0  0  0  0  0  0  0
  153.9131  143.7569  159.7318 H   0  0  0  0  0  0  0  0  0  0  0  0
  152.4117  145.2398  161.2882 H   0  0  0  0  0  0  0  0  0  0  0  0
  150.3144  146.0426  159.8660 H   0  0  0  0  0  0  0  0  0  0  0  0
  150.5399  145.0350  157.4627 H   0  0  0  0  0  0  0  0  0  0  0  0
  153.0898  145.4217  157.8952 H   0  0  0  0  0  0  0  0  0  0  0  0
  152.9080  143.7779  157.2578 H   0  0  0  0  0  0  0  0  0  0  0  0
  148.4556  142.5850  157.7095 H   0  0  0  0  0  0  0  0  0  0  0  0
  1  2  1  0  0  0  0
  1 19  1  0  0  0  0
  1 20  1  0  0  0  0
  1 21  1  0  0  0  0
  2  3  1  0  0  0  0
  2 22  1  0  0  0  0
  2 23  1  0  0  0  0
  3  7  1  0  0  0  0
  3  4  2  0  0  0  0
  4  5  1  0  0  0  0
  5  6  2  0  0  0  0
  6  7  1  0  0  0  0
  6 24  1  0  0  0  0
  7  8  1  0  0  0  0
  8  9  1  0  0  0  0
  8 25  1  0  0  0  0
  8 26  1  0  0  0  0
  9 10  1  0  0  0  0
  9 27  1  0  0  0  0
  9 28  1  0  0  0  0
 10 11  1  0  0  0  0
 10 29  1  0  0  0  0
 10 41  1  0  0  0  0
 11 12  1  0  0  0  0
 11 30  1  0  0  0  0
 11 31  1  0  0  0  0
 12 17  1  0  0  0  0
 12 13  1  0  0  0  0
 12 32  1  0  0  0  0
 13 14  1  0  0  0  0
 13 33  1  0  0  0  0
 13 34  1  0  0  0  0
 14 18  1  0  0  0  0
 14 15  1  0  0  0  0
 14 35  1  0  0  0  0
 15 16  2  0  0  0  0
 15 36  1  0  0  0  0
 16 17  1  0  0  0  0
 16 37  1  0  0  0  0
 17 18  1  0  0  0  0
 17 38  1  0  0  0  0
 18 39  1  0  0  0  0
 18 40  1  0  0  0  0
M  CHG  1  10   1
M  END
> <s_m_source_file>
AV-unprocessed.smi

> <i_m_source_file_index>
3226

> <i_lp_mmshare_version>
43012

> <i_f3d_flags>
0

> <s_epik_input>
W0NIM11bQ0gyXWMxbm5bY0hdbjFbQ0gyXVtDSDJdW05IXVtDSDJdW0NASF0oW0NIMl1bQ0BASF0yMylbQ0BASF0oW0NIMl0zKVtDSF09W0NIXTI=

> <s_epik_cmdline>
J2VwaWtfcHl0aG9uJywgJy1waCcsICc3LjAnLCAnLXRuJywgJzgnLCAnLW1hJywgJzIwMCcsICctbWV0YWxfYmluZGluZycsICctaW1hZScsICc8aW5maWxlLm1hZT4nLCAnLW9tYWUnLCAnPG91dGZpbGUubWFlPic=

> <r_lp_tautomer_probability>
1

> <r_epik_Ionization_Penalty>
0.00175008

> <r_epik_Ionization_Penalty_Charging>
0.00173932

> <r_epik_Ionization_Penalty_Neutral>
1.07546e-05

> <r_epik_State_Penalty>
-0

> <r_epik_Charging_Adjusted_Penalty>
0.00173932

> <i_epik_Tot_Q>
1

> <i_epik_Tot_abs_Q>
1

> <r_epik_Metal_State_Penalty>
-0

> <b_epik_Metal_Only>
0

> <s_lp_Force_Field>
OPLS_2005

> <r_lp_Energy>
64.6894

> <b_lp_Chiralities_Consistent>
1

> <s_lp_Variant>
AV-unprocessed.smi:3226-4

> <Gold.Version>
5.8.1

> <Gold.Id.Protein>
6NUR|6NUR_protein|mol2

> <Gold.PLP.Fitness>
47.3587

> <Gold.PLP.PLP>
-42.6433

> <Gold.PLP.part.hbond>
-1.0000

> <Gold.PLP.part.metal>
0.0000

> <Gold.PLP.part.buried>
-3.0850

> <Gold.PLP.part.nonpolar>
-38.9879

> <Gold.PLP.part.repulsive>
0.3551

> <Gold.PLP.ligand.clash>
0.0000

> <Gold.PLP.ligand.torsion>
0.6959

> <Gold.PLP.Chemscore.Hbond>
2.0000

> <Gold.PLP.Chemscore.CHOScore>
0.0000

> <Gold.PLP.Chemscore.Metal>
0.0000

> <Gold.Chemscore.Hbonds>
donor molecule, donor type, donor heavy atom, donor atom, acceptor molecule, acceptor atom, score
      L1  H    10    29       P1  8028  2.00

> <Gold.PLP.Chemscore.Internal.Correction>
0.1072

> <Gold.Rescore>
     Score         DG    S(hbond)    S(metal)    S(lipo)     H(rot)  DE(clash)    DE(int)     intcor
     15.76     -16.67       0.99        0.00     112.43       2.06       0.29       0.62       ----

> <Gold.Chemscore.Fitness>
15.7637

> <Gold.Chemscore.DG>
-16.6731

> <Gold.Chemscore.ZeroCoef>
-5.4800

> <Gold.Chemscore.Hbond>
0.9934

> <Gold.Chemscore.Metal>
0.0000

> <Gold.Chemscore.Lipo>
112.4344

> <Gold.Chemscore.Internal_Hbond>
0.0000

> <Gold.Chemscore.DEClash>
0.2909

> <Gold.Chemscore.DEInternal>
0.6186

> <Gold.Chemscore.Rot>
2.0623

> <Gold.Chemscore.Internal.Correction>
   9.000000E+99

> <Gold.Chemscore.Hbonds>
donor molecule, donor type, donor heavy atom, donor atom, acceptor molecule, acceptor atom, score
      L1  H    10    29       P1  8028  0.97

> <Gold.Chemscore.Hbond.Weighted>
-3.3179

> <Gold.Chemscore.Metal.Weighted>
-0.0000

> <Gold.Chemscore.Lipo.Weighted>
-13.1548

> <Gold.Chemscore.Internal_Hbond.Weighted>
0.0000

> <Gold.Chemscore.DEClash.Weighted>
0.2909

> <Gold.Chemscore.DEInternal.Weighted>
0.6186

> <Gold.Chemscore.Rot.Weighted>
5.2796

> <Gold.Chemscore.Internal.Correction.Weighted>
   9.000000E+99

> <Gold.Protein.RotatedTorsions>
[ 6907 6896 6895 6894 ] final   -7.10 input  -60.11 | X-H torsion
[ 7974 7965 7964 7962 ] final -159.78 input  175.53 | X-H torsion
[ 8008 7997 7996 7995 ] final  -86.33 input   59.86 | X-H torsion
[ 10167 10162 10161 10158 ] final -159.48 input  -65.29 | X-H torsion
[ 10718 10713 10712 10709 ] final  -87.97 input   66.30 | X-H torsion
[ 10763 10752 10751 10750 ] final   36.50 input  -60.55 | X-H torsion
[ 11005 11000 10999 10996 ] final  -52.16 input  -57.11 | X-H torsion

> <Gold.Protein.ActiveResidues>
 VAL166  LYS551  ARG553  GLY616  TRP617  ASP618  TYR619  PRO620  LYS621  CYS622 
 ASP623  PHE694  ASN695  SER759  ASP760  ASP761  ALA762  ILE779  LEU786  VAL792 
 PHE793  MET794  SER795  GLU796  ALA797  LYS798  CYS799  TRP800  GLU811  SER814 

> <Gold.Protein.RotatedAtoms>
  151.4549  135.1033  159.9707 H   0  0  0  0  0  0  0  0  0  0  0  0  # atno 6907 bound_to 6896
  152.4874  133.8406  159.7161 H   0  0  0  0  0  0  0  0  0  0  0  0  # atno 6908 bound_to 6896
  150.8997  133.7075  159.2909 H   0  0  0  0  0  0  0  0  0  0  0  0  # atno 6909 bound_to 6896
  144.7452  140.3636  143.6091 H   0  0  0  0  0  0  0  0  0  0  0  0  # atno 7974 bound_to 7965
  154.6507  140.0580  156.9952 H   0  0  0  0  0  0  0  0  0  0  0  0  # atno 8008 bound_to 7997
  155.1375  140.3262  155.4441 H   0  0  0  0  0  0  0  0  0  0  0  0  # atno 8009 bound_to 7997
  156.2574  140.1970  156.6492 H   0  0  0  0  0  0  0  0  0  0  0  0  # atno 8010 bound_to 7997
  139.6612  143.9909  152.2226 H   0  0  0  0  0  0  0  0  0  0  0  0  # atno 10167 bound_to 10162
  155.9984  130.4819  150.4949 H   0  0  0  0  0  0  0  0  0  0  0  0  # atno 10718 bound_to 10713
  153.0074  135.6304  154.1995 H   0  0  0  0  0  0  0  0  0  0  0  0  # atno 10763 bound_to 10752
  154.1739  135.2817  155.3074 H   0  0  0  0  0  0  0  0  0  0  0  0  # atno 10764 bound_to 10752
  154.5887  135.5624  153.7317 H   0  0  0  0  0  0  0  0  0  0  0  0  # atno 10765 bound_to 10752
  141.0910  133.6633  156.3983 H   0  0  0  0  0  0  0  0  0  0  0  0  # atno 11005 bound_to 11000
  145.7151  139.1695  143.2516 LP  0  0  0  0  0  0  0  0  0  0  0  0  # atno 17320 bound_to 7965
  146.1318  140.7175  142.9408 LP  0  0  0  0  0  0  0  0  0  0  0  0  # atno 17321 bound_to 7965
  139.9649  144.6533  150.8044 LP  0  0  0  0  0  0  0  0  0  0  0  0  # atno 17342 bound_to 10162
  140.7581  143.3099  151.2870 LP  0  0  0  0  0  0  0  0  0  0  0  0  # atno 17343 bound_to 10162
  157.2940  131.0632  151.2114 LP  0  0  0  0  0  0  0  0  0  0  0  0  # atno 17370 bound_to 10713
  157.3117  130.6893  149.6219 LP  0  0  0  0  0  0  0  0  0  0  0  0  # atno 17371 bound_to 10713
  140.5253  134.6265  157.5332 LP  0  0  0  0  0  0  0  0  0  0  0  0  # atno 17394 bound_to 11000
  139.9735  134.7253  155.9994 LP  0  0  0  0  0  0  0  0  0  0  0  0  # atno 17395 bound_to 11000

$$$$
