#       Name:                AV-unprocessed.smi:3175
#       Creating user name   scv26
#       Creation time:       Fri Mar 27 17:56:15 2020


#       File generated by GOLD software.
#

@<TRIPOS>MOLECULE
AV-unprocessed.smi:3175
    40    41     1
SMALL
NO_CHARGES


@<TRIPOS>ATOM
      1 ****         0.6897   1.9186   0.2733 O.2            1 S1                 0.0000
      2 ****         0.3183   0.7889  -0.0451 C.2            1 S1                 0.0000
      3 ****        -1.1755   0.4702  -0.1639 C.3            1 S1                 0.0000
      4 ****        -1.9688   1.5401  -0.9424 C.3            1 S1                 0.0000
      5 ****        -3.4692   1.2486  -1.0208 C.3            1 S1                 0.0000
      6 ****        -3.9806   2.1014  -2.1872 C.3            1 S1                 0.0000
      7 ****        -2.7635   2.3825  -3.0822 C.3            1 S1                 0.0000
      8 ****        -1.5701   1.6904  -2.4150 C.3            1 S1                 0.0000
      9 ****         1.1658  -0.2212  -0.2922 N.am           1 S1                 0.0000
     10 ****         2.6201  -0.1340  -0.2048 C.3            1 S1                 0.0000
     11 ****         3.1302  -0.2213   1.2462 C.3            1 S1                 0.0000
     12 ****         2.6250  -1.4466   1.9883 C.ar           1 S1                 0.0000
     13 ****         3.2254  -2.7074   1.7930 C.ar           1 S1                 0.0000
     14 ****         2.7174  -3.8167   2.4959 C.ar           1 S1                 0.0000
     15 ****         1.6278  -3.6169   3.3670 C.ar           1 S1                 0.0000
     16 ****         1.0453  -2.4145   3.5626 N.ar           1 S1                 0.0000
     17 ****         1.5393  -1.3554   2.8858 C.ar           1 S1                 0.0000
     18 ****        -1.3078  -0.5053  -0.6349 H              1 S1                 0.0000
     19 ****        -1.5777   0.3800   0.8457 H              1 S1                 0.0000
     20 ****        -1.8451   2.5087  -0.4542 H              1 S1                 0.0000
     21 ****        -3.6319   0.1936  -1.2461 H              1 S1                 0.0000
     22 ****        -3.9863   1.4690  -0.0864 H              1 S1                 0.0000
     23 ****        -4.7783   1.5936  -2.7301 H              1 S1                 0.0000
     24 ****        -4.3880   3.0421  -1.8147 H              1 S1                 0.0000
     25 ****        -2.9134   2.0218  -4.1003 H              1 S1                 0.0000
     26 ****        -2.5895   3.4577  -3.1399 H              1 S1                 0.0000
     27 ****        -0.6428   2.2496  -2.5447 H              1 S1                 0.0000
     28 ****        -1.4263   0.7057  -2.8622 H              1 S1                 0.0000
     29 ****         0.7760  -1.1186  -0.5419 H              1 S1                 0.0000
     30 ****         3.0349  -0.9570  -0.7873 H              1 S1                 0.0000
     31 ****         2.9736   0.7842  -0.6766 H              1 S1                 0.0000
     32 ****         4.2207  -0.2306   1.2517 H              1 S1                 0.0000
     33 ****         2.8349   0.6735   1.7961 H              1 S1                 0.0000
     34 ****         4.0583  -2.8240   1.1151 H              1 S1                 0.0000
     35 ****         3.1518  -4.7975   2.3705 H              1 S1                 0.0000
     36 ****         1.2129  -4.4456   3.9214 H              1 S1                 0.0000
     37 ****         1.0483  -0.4093   3.0607 H              1 S1                 0.0000
     38 ****         0.0150   2.6338   0.4559 LP             1 S1                 0.0000
     39 ****         1.6660   2.1211   0.3493 LP             1 S1                 0.0000
     40 ****         0.2725  -2.3115   4.1888 LP             1 S1                 0.0000
@<TRIPOS>BOND
    1    1    2 2     
    2    2    3 1     
    3    2    9 am    
    4    3    4 1     
    5    3   18 1     
    6    3   19 1     
    7    4    8 1     
    8    4    5 1     
    9    4   20 1     
   10    5    6 1     
   11    5   21 1     
   12    5   22 1     
   13    6    7 1     
   14    6   23 1     
   15    6   24 1     
   16    7    8 1     
   17    7   25 1     
   18    7   26 1     
   19    8   27 1     
   20    8   28 1     
   21    9   10 1     
   22    9   29 1     
   23   10   11 1     
   24   10   30 1     
   25   10   31 1     
   26   11   12 1     
   27   11   32 1     
   28   11   33 1     
   29   12   17 ar    
   30   12   13 ar    
   31   13   14 ar    
   32   13   34 1     
   33   14   15 ar    
   34   14   35 1     
   35   15   16 ar    
   36   15   36 1     
   37   16   17 ar    
   38   17   37 1     
   39    1   38 1     
   40    1   39 1     
   41   16   40 1     
@<TRIPOS>SUBSTRUCTURE
      1 S1             1
@<TRIPOS>SET
LONE_PAIRS      STATIC     ATOMS    <user>   **** ""
3 38 39 40
DONOR_HYDROGENS      STATIC     ATOMS    <user>   **** ""
1 29
ATOM$BLUE        STATIC     ATOMS    COLORGROUP SYSTEM
3 38 39 40
ATOM$RED        STATIC     ATOMS    COLORGROUP SYSTEM
1 29
