#       Name:                AV-unprocessed.smi:261
#       Creating user name   scv26
#       Creation time:       Thu Mar 26 21:19:12 2020


#       File generated by GOLD software.
#

@<TRIPOS>MOLECULE
AV-unprocessed.smi:261
    62    65     1
SMALL
NO_CHARGES


@<TRIPOS>ATOM
      1 ****        -6.4867   1.7815  -0.3142 C.3            1 S1                 0.0000
      2 ****        -5.1089   1.9781  -0.0394 O.3            1 S1                 0.0000
      3 ****        -4.3585   2.4437  -1.1545 C.3            1 S1                 0.0000
      4 ****        -3.9584   1.3011  -2.0981 C.3            1 S1                 0.0000
      5 ****        -2.6814   0.7058  -1.4840 C.3            1 S1                 0.0000
      6 ****        -3.0006  -0.4562  -0.5186 C.2            1 S1                 0.0000
      7 ****        -2.7814  -0.2888   0.7900 N.am           1 S1                 0.0000
      8 ****        -3.4375  -1.5145  -0.9654 O.2            1 S1                 0.0000
      9 ****        -2.0581   1.8673  -0.8482 N.pl3          1 S1                 0.0000
     10 ****        -0.7461   1.9653  -0.4942 C.ar           1 S1                 0.0000
     11 ****        -0.3413   3.1059   0.1251 N.ar           1 S1                 0.0000
     12 ****         0.9287   3.2658   0.5041 C.ar           1 S1                 0.0000
     13 ****         1.9508   2.4220   0.3666 N.ar           1 S1                 0.0000
     14 ****         1.5605   1.2714  -0.2516 C.ar           1 S1                 0.0000
     15 ****         0.2479   0.9629  -0.7158 C.ar           1 S1                 0.0000
     16 ****         0.2550  -0.2992  -1.2999 N.2            1 S1                 0.0000
     17 ****         1.4871  -0.7093  -1.1859 C.2            1 S1                 0.0000
     18 ****         2.3389   0.1670  -0.5552 N.pl3          1 S1                 0.0000
     19 ****         3.7571  -0.0259  -0.2843 C.3            1 S1                 0.0000
     20 ****         4.0539  -0.6580   1.0975 C.3            1 S1                 0.0000
     21 ****         3.4820   0.1656   2.0951 O.3            1 S1                 0.0000
     22 ****         3.4912  -2.0824   1.2831 C.3            1 S1                 0.0000
     23 ****         3.9804  -3.0989   0.2482 C.3            1 S1                 0.0000
     24 ****         3.8246  -4.4338   0.9567 C.3            1 S1                 0.0000
     25 ****         3.7541  -4.0543   2.4369 C.3            1 S1                 0.0000
     26 ****         4.0145  -2.6580   2.4717 O.3            1 S1                 0.0000
     27 ****        -3.0085   2.9560  -0.6403 C.3            1 S1                 0.0000
     28 ****        -4.9018   3.2369  -1.6710 H              1 S1                 0.0000
     29 ****        -2.0591   0.3259  -2.2938 H              1 S1                 0.0000
     30 ****        -6.9899   1.4349   0.5883 H              1 S1                 0.0000
     31 ****        -6.6453   1.0333  -1.0905 H              1 S1                 0.0000
     32 ****        -6.9622   2.7126  -0.6245 H              1 S1                 0.0000
     33 ****        -4.7493   0.5686  -2.2608 H              1 S1                 0.0000
     34 ****        -3.7159   1.7197  -3.0758 H              1 S1                 0.0000
     35 ****        -2.9777  -1.0427   1.4323 H              1 S1                 0.0000
     36 ****        -2.4129   0.5875   1.1297 H              1 S1                 0.0000
     37 ****         1.1573   4.2031   0.9893 H              1 S1                 0.0000
     38 ****         1.8029  -1.6697  -1.5633 H              1 S1                 0.0000
     39 ****         4.1809  -0.6361  -1.0823 H              1 S1                 0.0000
     40 ****         4.2506   0.9440  -0.3579 H              1 S1                 0.0000
     41 ****         5.1339  -0.6760   1.2475 H              1 S1                 0.0000
     42 ****         3.8212   1.0417   1.9930 H              1 S1                 0.0000
     43 ****         2.4000  -2.0788   1.3244 H              1 S1                 0.0000
     44 ****         3.4321  -3.0599  -0.6917 H              1 S1                 0.0000
     45 ****         5.0346  -2.9267   0.0261 H              1 S1                 0.0000
     46 ****         2.9077  -4.9385   0.6498 H              1 S1                 0.0000
     47 ****         4.6633  -5.0967   0.7421 H              1 S1                 0.0000
     48 ****         2.7577  -4.2469   2.8371 H              1 S1                 0.0000
     49 ****         4.4774  -4.5991   3.0440 H              1 S1                 0.0000
     50 ****        -2.6878   3.8187  -1.2262 H              1 S1                 0.0000
     51 ****        -3.0624   3.2590   0.4066 H              1 S1                 0.0000
     52 ****        -4.7202   1.1066   0.2597 LP             1 S1                 0.0000
     53 ****        -5.0276   2.6496   0.6971 LP             1 S1                 0.0000
     54 ****        -3.5843  -1.6193  -1.9490 LP             1 S1                 0.0000
     55 ****        -3.6462  -2.2708  -0.3453 LP             1 S1                 0.0000
     56 ****        -1.0036   3.8346   0.2990 LP             1 S1                 0.0000
     57 ****         2.8831   2.6085   0.6766 LP             1 S1                 0.0000
     58 ****        -0.5144  -0.7845  -1.7152 LP             1 S1                 0.0000
     59 ****         3.7219  -0.1854   3.0002 LP             1 S1                 0.0000
     60 ****         2.4871   0.1755   1.9944 LP             1 S1                 0.0000
     61 ****         3.5709  -2.2502   3.2698 LP             1 S1                 0.0000
     62 ****         5.0004  -2.4981   2.5203 LP             1 S1                 0.0000
@<TRIPOS>BOND
    1    1    2 1     
    2    1   30 1     
    3    1   31 1     
    4    1   32 1     
    5    2    3 1     
    6    3   28 1     
    7    3   27 1     
    8    3    4 1     
    9    4    5 1     
   10    4   33 1     
   11    4   34 1     
   12    5   29 1     
   13    5    6 1     
   14    5    9 1     
   15    6    7 am    
   16    6    8 2     
   17    7   35 1     
   18    7   36 1     
   19    9   10 1     
   20    9   27 1     
   21   10   15 ar    
   22   10   11 ar    
   23   11   12 ar    
   24   12   13 ar    
   25   12   37 1     
   26   13   14 ar    
   27   14   18 1     
   28   14   15 ar    
   29   15   16 1     
   30   16   17 2     
   31   17   18 1     
   32   17   38 1     
   33   18   19 1     
   34   19   20 1     
   35   19   39 1     
   36   19   40 1     
   37   20   21 1     
   38   20   22 1     
   39   20   41 1     
   40   21   42 1     
   41   22   26 1     
   42   22   23 1     
   43   22   43 1     
   44   23   24 1     
   45   23   44 1     
   46   23   45 1     
   47   24   25 1     
   48   24   46 1     
   49   24   47 1     
   50   25   26 1     
   51   25   48 1     
   52   25   49 1     
   53   27   50 1     
   54   27   51 1     
   55    2   52 1     
   56    2   53 1     
   57    8   54 1     
   58    8   55 1     
   59   11   56 1     
   60   13   57 1     
   61   16   58 1     
   62   21   59 1     
   63   21   60 1     
   64   26   61 1     
   65   26   62 1     
@<TRIPOS>SUBSTRUCTURE
      1 S1             1
@<TRIPOS>SET
LONE_PAIRS      STATIC     ATOMS    <user>   **** ""
11 52 53 54 55 56 57 58 59 60 61 62
DONOR_HYDROGENS      STATIC     ATOMS    <user>   **** ""
3 35 36 42
ATOM$BLUE        STATIC     ATOMS    COLORGROUP SYSTEM
11 52 53 54 55 56 57 58 59 60 61 62
ATOM$RED        STATIC     ATOMS    COLORGROUP SYSTEM
3 35 36 42
