#       Name:                AV-unprocessed.smi:196
#       Creating user name   scv26
#       Creation time:       Thu Mar 26 19:39:40 2020


#       File generated by GOLD software.
#

@<TRIPOS>MOLECULE
AV-unprocessed.smi:196
    57    60     1
SMALL
NO_CHARGES


@<TRIPOS>ATOM
      1 ****        -1.6165  -4.0070  -3.8405 C.3            1 S1                 0.0000
      2 ****        -2.5836  -3.1455  -3.0134 C.3            1 S1                 0.0000
      3 ****        -3.5132  -4.0225  -2.3827 O.3            1 S1                 0.0000
      4 ****        -3.9322  -3.4436  -1.1599 C.3            1 S1                 0.0000
      5 ****        -2.6393  -2.8532  -0.6185 C.3            1 S1                 0.0000
      6 ****        -1.9640  -2.2943  -1.8689 C.3            1 S1                 0.0000
      7 ****        -2.4083  -0.9587  -2.0380 O.3            1 S1                 0.0000
      8 ****        -0.4147  -2.2782  -1.7831 C.3            1 S1                 0.0000
      9 ****         0.0940  -1.5158  -0.6531 N.pl3          1 S1                 0.0000
     10 ****         0.3508  -1.9907   0.6138 C.2            1 S1                 0.0000
     11 ****         0.7968  -1.1047   1.4622 N.2            1 S1                 0.0000
     12 ****         0.8641   0.0671   0.7195 C.ar           1 S1                 0.0000
     13 ****         1.2621   1.3980   1.0152 C.ar           1 S1                 0.0000
     14 ****         1.6652   1.7490   2.2661 N.3            1 S1                 0.0000
     15 ****         0.5273   2.1064   3.1061 C.3            1 S1                 0.0000
     16 ****         0.4533   3.6418   3.1016 C.3            1 S1                 0.0000
     17 ****        -0.5400   4.0672   2.3201 F              1 S1                 0.0000
     18 ****         1.8043   4.1073   2.5420 C.3            1 S1                 0.0000
     19 ****         2.6457   2.8203   2.4954 C.3            1 S1                 0.0000
     20 ****         3.8852   2.8622   1.5764 C.2            1 S1                 0.0000
     21 ****         4.5962   3.9925   1.5686 N.am           1 S1                 0.0000
     22 ****         4.2280   1.8817   0.9178 O.2            1 S1                 0.0000
     23 ****         1.1812   2.3151   0.0138 N.ar           1 S1                 0.0000
     24 ****         0.7618   1.9490  -1.2009 C.ar           1 S1                 0.0000
     25 ****         0.3691   0.7445  -1.6206 N.ar           1 S1                 0.0000
     26 ****         0.4320  -0.1741  -0.6145 C.ar           1 S1                 0.0000
     27 ****         0.2652   4.0313   4.1025 H              1 S1                 0.0000
     28 ****         3.0423   2.6439   3.4971 H              1 S1                 0.0000
     29 ****        -0.8799  -3.3936  -4.3594 H              1 S1                 0.0000
     30 ****        -2.1599  -4.5721  -4.5979 H              1 S1                 0.0000
     31 ****        -1.0856  -4.7263  -3.2166 H              1 S1                 0.0000
     32 ****        -3.1460  -2.5082  -3.6985 H              1 S1                 0.0000
     33 ****        -4.6725  -2.6655  -1.3518 H              1 S1                 0.0000
     34 ****        -4.3713  -4.1847  -0.4919 H              1 S1                 0.0000
     35 ****        -2.8002  -2.1126   0.1664 H              1 S1                 0.0000
     36 ****        -2.0382  -3.6593  -0.1959 H              1 S1                 0.0000
     37 ****        -3.3520  -0.9598  -2.0881 H              1 S1                 0.0000
     38 ****        -0.0270  -3.2931  -1.6926 H              1 S1                 0.0000
     39 ****         0.0142  -1.8633  -2.6962 H              1 S1                 0.0000
     40 ****         0.1896  -3.0216   0.8934 H              1 S1                 0.0000
     41 ****        -0.4144   1.6525   2.7894 H              1 S1                 0.0000
     42 ****         0.7268   1.7420   4.1148 H              1 S1                 0.0000
     43 ****         1.6808   4.5339   1.5453 H              1 S1                 0.0000
     44 ****         2.2615   4.8715   3.1712 H              1 S1                 0.0000
     45 ****         5.4179   4.0675   0.9871 H              1 S1                 0.0000
     46 ****         4.3098   4.7674   2.1493 H              1 S1                 0.0000
     47 ****         0.7346   2.7340  -1.9420 H              1 S1                 0.0000
     48 ****        -3.0756  -4.9038  -2.2044 LP             1 S1                 0.0000
     49 ****        -4.3047  -4.1578  -2.9787 LP             1 S1                 0.0000
     50 ****        -2.0264  -0.5806  -2.8813 LP             1 S1                 0.0000
     51 ****        -2.1127  -0.4040  -1.2602 LP             1 S1                 0.0000
     52 ****         1.0349  -1.2385   2.4242 LP             1 S1                 0.0000
     53 ****         2.1494   0.9027   2.4882 LP             1 S1                 0.0000
     54 ****         3.7000   1.0342   0.9711 LP             1 S1                 0.0000
     55 ****         5.0348   1.9321   0.3291 LP             1 S1                 0.0000
     56 ****         1.4364   3.2663   0.1873 LP             1 S1                 0.0000
     57 ****         0.0677   0.5418  -2.5523 LP             1 S1                 0.0000
@<TRIPOS>BOND
    1    1    2 1     
    2    1   29 1     
    3    1   30 1     
    4    1   31 1     
    5    2    6 1     
    6    2    3 1     
    7    2   32 1     
    8    3    4 1     
    9    4    5 1     
   10    4   33 1     
   11    4   34 1     
   12    5    6 1     
   13    5   35 1     
   14    5   36 1     
   15    6    7 1     
   16    6    8 1     
   17    7   37 1     
   18    8    9 1     
   19    8   38 1     
   20    8   39 1     
   21    9   26 1     
   22    9   10 1     
   23   10   11 2     
   24   10   40 1     
   25   11   12 1     
   26   12   26 ar    
   27   12   13 ar    
   28   13   14 1     
   29   13   23 ar    
   30   14   19 1     
   31   14   15 1     
   32   15   16 1     
   33   15   41 1     
   34   15   42 1     
   35   16   27 1     
   36   16   17 1     
   37   16   18 1     
   38   18   19 1     
   39   18   43 1     
   40   18   44 1     
   41   19   28 1     
   42   19   20 1     
   43   20   21 am    
   44   20   22 2     
   45   21   45 1     
   46   21   46 1     
   47   23   24 ar    
   48   24   25 ar    
   49   24   47 1     
   50   25   26 ar    
   51    3   48 1     
   52    3   49 1     
   53    7   50 1     
   54    7   51 1     
   55   11   52 1     
   56   14   53 1     
   57   22   54 1     
   58   22   55 1     
   59   23   56 1     
   60   25   57 1     
@<TRIPOS>SUBSTRUCTURE
      1 S1             1
@<TRIPOS>SET
LONE_PAIRS      STATIC     ATOMS    <user>   **** ""
10 48 49 50 51 52 53 54 55 56 57
DONOR_HYDROGENS      STATIC     ATOMS    <user>   **** ""
3 37 45 46
ATOM$BLUE        STATIC     ATOMS    COLORGROUP SYSTEM
10 48 49 50 51 52 53 54 55 56 57
ATOM$RED        STATIC     ATOMS    COLORGROUP SYSTEM
3 37 45 46
