AV-unprocessed.smi:1845|AV-procd|sdf|7512|dock5
  -GOLD-   22720 9223D 1   1.00000     0.00000
 Structure written by MMmdl.
 45 46  0  0  0  0  0  0  0  0  1 V2000
  145.0593  131.0731  151.8068 C   0  0  0  0  0  0  0  0  0  0  0  0
  145.1044  132.9125  151.8487 S   0  0  0  0  0  0  0  0  0  0  0  0
  146.4532  133.3473  151.4565 O   0  0  0  0  0  0  0  0  0  0  0  0
  143.9218  133.4329  151.1458 O   0  0  0  0  0  0  0  0  0  0  0  0
  144.9187  133.2696  153.5258 N   0  0  0  0  0  0  0  0  0  0  0  0
  144.9025  134.6603  153.9891 C   0  0  0  0  0  0  0  0  0  0  0  0
  146.1454  135.4422  153.5190 C   0  0  0  0  0  0  0  0  0  0  0  0
  145.9940  136.9578  153.6799 C   0  0  0  0  0  0  0  0  0  0  0  0
  144.9654  137.4278  154.1664 O   0  0  0  0  0  0  0  0  0  0  0  0
  147.0214  137.7085  153.2527 N   0  0  0  0  0  0  0  0  0  0  0  0
  147.0413  139.1668  153.1964 C   0  0  0  0  0  0  0  0  0  0  0  0
  148.0283  139.7705  154.1819 C   0  0  0  0  0  0  0  0  0  0  0  0
  147.5878  140.3509  155.3874 C   0  0  0  0  0  0  0  0  0  0  0  0
  148.5417  140.8746  156.2814 C   0  0  0  0  0  0  0  0  0  0  0  0
  149.9150  140.8046  155.9459 C   0  0  0  0  0  0  0  0  0  0  0  0
  150.8908  141.3065  156.8334 N   0  0  0  0  0  0  0  0  0  0  0  0
  151.2848  140.4085  157.9159 C   0  0  0  0  0  0  0  0  0  0  0  0
  152.5508  140.9356  158.6136 C   0  0  0  0  0  0  0  0  0  0  0  0
  152.3402  142.2742  159.0508 O   0  0  0  0  0  0  0  0  0  0  0  0
  152.0718  143.1501  157.9614 C   0  0  0  0  0  0  0  0  0  0  0  0
  150.7850  142.7046  157.2474 C   0  0  0  0  0  0  0  0  0  0  0  0
  150.3331  140.2505  154.7815 N   0  0  0  0  0  0  0  0  0  0  0  0
  149.4148  139.7566  153.9262 C   0  0  0  0  0  0  0  0  0  0  0  0
  145.1819  130.7334  150.7785 H   0  0  0  0  0  0  0  0  0  0  0  0
  144.1068  130.7111  152.1917 H   0  0  0  0  0  0  0  0  0  0  0  0
  145.8724  130.6759  152.4133 H   0  0  0  0  0  0  0  0  0  0  0  0
  144.2635  132.6517  154.0055 H   0  0  0  0  0  0  0  0  0  0  0  0
  143.9942  135.1399  153.6239 H   0  0  0  0  0  0  0  0  0  0  0  0
  144.8491  134.6786  155.0779 H   0  0  0  0  0  0  0  0  0  0  0  0
  147.0215  135.1179  154.0820 H   0  0  0  0  0  0  0  0  0  0  0  0
  146.3511  135.2052  152.4740 H   0  0  0  0  0  0  0  0  0  0  0  0
  147.8318  137.2312  152.8844 H   0  0  0  0  0  0  0  0  0  0  0  0
  147.2789  139.5185  152.1912 H   0  0  0  0  0  0  0  0  0  0  0  0
  146.0362  139.5278  153.4157 H   0  0  0  0  0  0  0  0  0  0  0  0
  146.5367  140.3863  155.6334 H   0  0  0  0  0  0  0  0  0  0  0  0
  148.2126  141.3016  157.2170 H   0  0  0  0  0  0  0  0  0  0  0  0
  150.4653  140.3414  158.6324 H   0  0  0  0  0  0  0  0  0  0  0  0
  151.4730  139.3986  157.5543 H   0  0  0  0  0  0  0  0  0  0  0  0
  152.7897  140.3141  159.4767 H   0  0  0  0  0  0  0  0  0  0  0  0
  153.4102  140.8918  157.9428 H   0  0  0  0  0  0  0  0  0  0  0  0
  151.9586  144.1655  158.3408 H   0  0  0  0  0  0  0  0  0  0  0  0
  152.9169  143.1604  157.2712 H   0  0  0  0  0  0  0  0  0  0  0  0
  150.6133  143.3437  156.3803 H   0  0  0  0  0  0  0  0  0  0  0  0
  149.9293  142.8206  157.9137 H   0  0  0  0  0  0  0  0  0  0  0  0
  149.8047  139.3313  153.0141 H   0  0  0  0  0  0  0  0  0  0  0  0
  1  2  1  0  0  0  0
  1 24  1  0  0  0  0
  1 25  1  0  0  0  0
  1 26  1  0  0  0  0
  2  3  2  0  0  0  0
  2  4  2  0  0  0  0
  2  5  1  0  0  0  0
  5  6  1  0  0  0  0
  5 27  1  0  0  0  0
  6  7  1  0  0  0  0
  6 28  1  0  0  0  0
  6 29  1  0  0  0  0
  7  8  1  0  0  0  0
  7 30  1  0  0  0  0
  7 31  1  0  0  0  0
  8  9  2  0  0  0  0
  8 10  1  0  0  0  0
 10 11  1  0  0  0  0
 10 32  1  0  0  0  0
 11 12  1  0  0  0  0
 11 33  1  0  0  0  0
 11 34  1  0  0  0  0
 12 23  1  0  0  0  0
 12 13  2  0  0  0  0
 13 14  1  0  0  0  0
 13 35  1  0  0  0  0
 14 15  2  0  0  0  0
 14 36  1  0  0  0  0
 15 16  1  0  0  0  0
 15 22  1  0  0  0  0
 16 21  1  0  0  0  0
 16 17  1  0  0  0  0
 17 18  1  0  0  0  0
 17 37  1  0  0  0  0
 17 38  1  0  0  0  0
 18 19  1  0  0  0  0
 18 39  1  0  0  0  0
 18 40  1  0  0  0  0
 19 20  1  0  0  0  0
 20 21  1  0  0  0  0
 20 41  1  0  0  0  0
 20 42  1  0  0  0  0
 21 43  1  0  0  0  0
 21 44  1  0  0  0  0
 22 23  2  0  0  0  0
 23 45  1  0  0  0  0
M  END
> <s_m_source_file>
AV-unprocessed.smi

> <i_m_source_file_index>
1845

> <i_lp_mmshare_version>
43012

> <i_f3d_flags>
0

> <s_epik_input>
W0NIM11TKD1PKSg9TylbTkhdW0NIMl1bQ0gyXUMoPU8pW05IXVtDSDJdYzFbY0hdW2NIXWMobltjSF0xKU4yW0NIMl1bQ0gyXU9bQ0gyXVtDSDJdMg==

> <s_epik_cmdline>
J2VwaWtfcHl0aG9uJywgJy1waCcsICc3LjAnLCAnLXRuJywgJzgnLCAnLW1hJywgJzIwMCcsICctbWV0YWxfYmluZGluZycsICctaW1hZScsICc8aW5maWxlLm1hZT4nLCAnLW9tYWUnLCAnPG91dGZpbGUubWFlPic=

> <r_lp_tautomer_probability>
1

> <r_epik_Ionization_Penalty>
0.00479915

> <r_epik_Ionization_Penalty_Charging>
0

> <r_epik_Ionization_Penalty_Neutral>
0.00479915

> <r_epik_State_Penalty>
0.00346804

> <r_epik_Charging_Adjusted_Penalty>
0.00346804

> <i_epik_Tot_Q>
0

> <i_epik_Tot_abs_Q>
0

> <r_epik_Metal_State_Penalty>
0.0135183

> <b_epik_Metal_Only>
0

> <s_lp_Force_Field>
OPLS_2005

> <r_lp_Energy>
4.60417

> <b_lp_Chiralities_Consistent>
1

> <s_lp_Variant>
AV-unprocessed.smi:1845-1

> <Gold.Version>
5.8.1

> <Gold.Id.Protein>
6NUR|6NUR_protein|mol2

> <Gold.PLP.Fitness>
36.7172

> <Gold.PLP.PLP>
-26.2518

> <Gold.PLP.part.hbond>
-2.9614

> <Gold.PLP.part.metal>
0.0000

> <Gold.PLP.part.buried>
-5.0454

> <Gold.PLP.part.nonpolar>
-20.0204

> <Gold.PLP.part.repulsive>
0.6026

> <Gold.PLP.ligand.clash>
0.0000

> <Gold.PLP.ligand.torsion>
0.6747

> <Gold.PLP.Chemscore.Hbond>
2.8000

> <Gold.PLP.Chemscore.CHOScore>
0.9733

> <Gold.PLP.Chemscore.Metal>
0.0000

> <Gold.Chemscore.Hbonds>
donor molecule, donor type, donor heavy atom, donor atom, acceptor molecule, acceptor atom, score
      L1  H     5    27       P1 10957  1.00
      L1  H    10    32       P1  7948  1.00
      P1  H  7989  7998       L1    22  0.95
      L1  C    23    45       P1  7957  0.86

> <Gold.PLP.Chemscore.Internal.Correction>
0.4949

> <Gold.Rescore>
     Score         DG    S(hbond)    S(metal)    S(lipo)     H(rot)  DE(clash)    DE(int)     intcor
     11.49     -12.66       2.01        0.00      67.39       2.90       0.55       0.62       ----

> <Gold.Chemscore.Fitness>
11.4854

> <Gold.Chemscore.DG>
-12.6571

> <Gold.Chemscore.ZeroCoef>
-5.4800

> <Gold.Chemscore.Hbond>
2.0121

> <Gold.Chemscore.Metal>
0.0000

> <Gold.Chemscore.Lipo>
67.3884

> <Gold.Chemscore.Internal_Hbond>
0.0000

> <Gold.Chemscore.DEClash>
0.5539

> <Gold.Chemscore.DEInternal>
0.6177

> <Gold.Chemscore.Rot>
2.9015

> <Gold.Chemscore.Internal.Correction>
   9.000000E+99

> <Gold.Chemscore.Hbonds>
donor molecule, donor type, donor heavy atom, donor atom, acceptor molecule, acceptor atom, score
      L1  H     5    27       P1 10957  0.73
      L1  H    10    32       P1  7948  1.00
      P1  H  7989  7998       L1    22  0.21

> <Gold.Chemscore.Hbond.Weighted>
-6.7205

> <Gold.Chemscore.Metal.Weighted>
-0.0000

> <Gold.Chemscore.Lipo.Weighted>
-7.8844

> <Gold.Chemscore.Internal_Hbond.Weighted>
0.0000

> <Gold.Chemscore.DEClash.Weighted>
0.5539

> <Gold.Chemscore.DEInternal.Weighted>
0.6177

> <Gold.Chemscore.Rot.Weighted>
7.4278

> <Gold.Chemscore.Internal.Correction.Weighted>
   9.000000E+99

> <Gold.Protein.RotatedTorsions>
[ 6907 6896 6895 6894 ] final  120.48 input  -60.11 | X-H torsion
[ 7974 7965 7964 7962 ] final  139.17 input  175.53 | X-H torsion
[ 8008 7997 7996 7995 ] final -160.34 input   59.86 | X-H torsion
[ 10167 10162 10161 10158 ] final -113.58 input  -65.29 | X-H torsion
[ 10718 10713 10712 10709 ] final  -60.21 input   66.30 | X-H torsion
[ 10763 10752 10751 10750 ] final  123.60 input  -60.55 | X-H torsion
[ 11005 11000 10999 10996 ] final   13.27 input  -57.11 | X-H torsion

> <Gold.Protein.ActiveResidues>
 VAL166  LYS551  ARG553  GLY616  TRP617  ASP618  TYR619  PRO620  LYS621  CYS622 
 ASP623  PHE694  ASN695  SER759  ASP760  ASP761  ALA762  ILE779  LEU786  VAL792 
 PHE793  MET794  SER795  GLU796  ALA797  LYS798  CYS799  TRP800  GLU811  SER814 

> <Gold.Protein.RotatedAtoms>
  152.4394  133.7421  159.6646 H   0  0  0  0  0  0  0  0  0  0  0  0  # atno 6907 bound_to 6896
  150.8283  133.8124  159.3115 H   0  0  0  0  0  0  0  0  0  0  0  0  # atno 6908 bound_to 6896
  151.5786  135.1062  160.0063 H   0  0  0  0  0  0  0  0  0  0  0  0  # atno 6909 bound_to 6896
  144.9304  139.5054  143.5620 H   0  0  0  0  0  0  0  0  0  0  0  0  # atno 7974 bound_to 7965
  155.7759  140.0858  157.2084 H   0  0  0  0  0  0  0  0  0  0  0  0  # atno 8008 bound_to 7997
  154.3993  140.1516  156.3053 H   0  0  0  0  0  0  0  0  0  0  0  0  # atno 8009 bound_to 7997
  155.8701  140.3426  155.5818 H   0  0  0  0  0  0  0  0  0  0  0  0  # atno 8010 bound_to 7997
  140.1103  143.4533  152.1756 H   0  0  0  0  0  0  0  0  0  0  0  0  # atno 10167 bound_to 10162
  156.1006  130.4187  150.0823 H   0  0  0  0  0  0  0  0  0  0  0  0  # atno 10718 bound_to 10713
  153.6481  135.3367  155.3091 H   0  0  0  0  0  0  0  0  0  0  0  0  # atno 10763 bound_to 10752
  154.8544  135.4334  154.1933 H   0  0  0  0  0  0  0  0  0  0  0  0  # atno 10764 bound_to 10752
  153.2869  135.7014  153.7405 H   0  0  0  0  0  0  0  0  0  0  0  0  # atno 10765 bound_to 10752
  140.4826  134.0920  155.7754 H   0  0  0  0  0  0  0  0  0  0  0  0  # atno 11005 bound_to 11000
  146.3244  139.8250  142.8919 LP  0  0  0  0  0  0  0  0  0  0  0  0  # atno 17320 bound_to 7965
  145.3151  141.0230  143.3532 LP  0  0  0  0  0  0  0  0  0  0  0  0  # atno 17321 bound_to 7965
  139.5623  144.7413  151.4121 LP  0  0  0  0  0  0  0  0  0  0  0  0  # atno 17342 bound_to 10162
  140.6929  143.7818  150.7282 LP  0  0  0  0  0  0  0  0  0  0  0  0  # atno 17343 bound_to 10162
  156.8811  130.9557  151.3599 LP  0  0  0  0  0  0  0  0  0  0  0  0  # atno 17370 bound_to 10713
  157.6176  130.8630  149.9054 LP  0  0  0  0  0  0  0  0  0  0  0  0  # atno 17371 bound_to 10713
  141.1524  133.8945  157.2065 LP  0  0  0  0  0  0  0  0  0  0  0  0  # atno 17394 bound_to 11000
  139.9817  135.0096  156.9766 LP  0  0  0  0  0  0  0  0  0  0  0  0  # atno 17395 bound_to 11000

$$$$
