AV-unprocessed.smi:678|AV-procd|sdf|3318|dock5
  -GOLD-   22720 0283D 1   1.00000     0.00000
 Structure written by MMmdl.
 50 51  0  0  0  0  0  0  0  0  1 V2000
  152.1126  141.2009  157.9900 C   0  0  0  0  0  0  0  0  0  0  0  0
  151.3362  140.7899  156.7510 C   0  0  0  0  0  0  0  0  0  0  0  0
  150.2836  141.5107  156.3067 C   0  0  0  0  0  0  0  0  0  0  0  0
  149.5522  141.1135  155.1282 C   0  0  0  0  0  0  0  0  0  0  0  0
  149.9413  140.0034  154.4853 C   0  0  0  0  0  0  0  0  0  0  0  0
  151.0315  139.2324  154.9297 N   0  0  0  0  0  0  0  0  0  0  0  0
  151.3681  138.0350  154.1410 C   0  0  0  0  0  0  0  0  0  0  0  0
  151.2257  136.7286  154.9344 C   0  0  0  0  0  0  0  0  0  0  0  0
  151.9819  136.4766  155.8735 O   0  0  0  0  0  0  0  0  0  0  0  0
  150.2614  135.8919  154.5212 N   0  0  0  0  0  0  0  0  0  0  0  0
  149.9544  134.5936  155.1145 C   0  0  0  0  0  0  0  0  0  0  0  0
  148.5313  134.1190  154.7697 C   0  0  1  0  0  0  0  0  0  0  0  0
  148.3986  133.5513  153.3393 C   0  0  0  0  0  0  0  0  0  0  0  0
  147.0602  133.0287  153.0747 N   0  0  0  0  0  0  0  0  0  0  0  0
  146.9264  132.4667  151.7295 C   0  0  0  0  0  0  0  0  0  0  0  0
  145.6296  131.6748  151.4530 C   0  0  0  0  0  0  0  0  0  0  0  0
  145.8101  130.1710  151.7169 C   0  0  0  0  0  0  0  0  0  0  0  0
  145.1541  131.9146  150.0127 C   0  0  0  0  0  0  0  0  0  0  0  0
  146.7316  132.0336  154.0884 C   0  0  0  0  0  0  0  0  0  0  0  0
  146.8590  132.6006  155.5113 C   0  0  0  0  0  0  0  0  0  0  0  0
  148.1764  133.1036  155.7049 O   0  0  0  0  0  0  0  0  0  0  0  0
  151.7629  139.5724  156.0361 C   0  0  0  0  0  0  0  0  0  0  0  0
  152.7214  138.8921  156.4073 O   0  0  0  0  0  0  0  0  0  0  0  0
  151.6937  142.1001  158.4428 H   0  0  0  0  0  0  0  0  0  0  0  0
  153.1536  141.4042  157.7372 H   0  0  0  0  0  0  0  0  0  0  0  0
  152.0887  140.4064  158.7367 H   0  0  0  0  0  0  0  0  0  0  0  0
  149.9788  142.4014  156.8364 H   0  0  0  0  0  0  0  0  0  0  0  0
  148.7161  141.6968  154.7716 H   0  0  0  0  0  0  0  0  0  0  0  0
  149.4533  139.6414  153.5919 H   0  0  0  0  0  0  0  0  0  0  0  0
  150.7465  137.9881  153.2447 H   0  0  0  0  0  0  0  0  0  0  0  0
  152.3929  138.0958  153.7721 H   0  0  0  0  0  0  0  0  0  0  0  0
  149.6935  136.1768  153.7365 H   0  0  0  0  0  0  0  0  0  0  0  0
  150.6885  133.8412  154.8213 H   0  0  0  0  0  0  0  0  0  0  0  0
  150.0469  134.6997  156.1957 H   0  0  0  0  0  0  0  0  0  0  0  0
  147.8425  134.9572  154.8919 H   0  0  0  0  0  0  0  0  0  0  0  0
  148.6322  134.3425  152.6290 H   0  0  0  0  0  0  0  0  0  0  0  0
  149.1399  132.7650  153.1884 H   0  0  0  0  0  0  0  0  0  0  0  0
  147.0186  133.2694  150.9962 H   0  0  0  0  0  0  0  0  0  0  0  0
  147.7685  131.7989  151.5417 H   0  0  0  0  0  0  0  0  0  0  0  0
  144.8375  132.0405  152.1059 H   0  0  0  0  0  0  0  0  0  0  0  0
  146.5954  129.7498  151.0886 H   0  0  0  0  0  0  0  0  0  0  0  0
  144.8899  129.6230  151.5124 H   0  0  0  0  0  0  0  0  0  0  0  0
  146.0769  129.9800  152.7567 H   0  0  0  0  0  0  0  0  0  0  0  0
  145.8915  131.5670  149.2885 H   0  0  0  0  0  0  0  0  0  0  0  0
  144.9804  132.9751  149.8279 H   0  0  0  0  0  0  0  0  0  0  0  0
  144.2190  131.3902  149.8136 H   0  0  0  0  0  0  0  0  0  0  0  0
  145.7141  131.6718  153.9364 H   0  0  0  0  0  0  0  0  0  0  0  0
  147.3890  131.1687  153.9850 H   0  0  0  0  0  0  0  0  0  0  0  0
  146.1290  133.3939  155.6795 H   0  0  0  0  0  0  0  0  0  0  0  0
  146.6626  131.8221  156.2485 H   0  0  0  0  0  0  0  0  0  0  0  0
  1  2  1  0  0  0  0
  1 24  1  0  0  0  0
  1 25  1  0  0  0  0
  1 26  1  0  0  0  0
  2 22  1  0  0  0  0
  2  3  2  0  0  0  0
  3  4  1  0  0  0  0
  3 27  1  0  0  0  0
  4  5  2  0  0  0  0
  4 28  1  0  0  0  0
  5  6  1  0  0  0  0
  5 29  1  0  0  0  0
  6  7  1  0  0  0  0
  6 22  1  0  0  0  0
  7  8  1  0  0  0  0
  7 30  1  0  0  0  0
  7 31  1  0  0  0  0
  8  9  2  0  0  0  0
  8 10  1  0  0  0  0
 10 11  1  0  0  0  0
 10 32  1  0  0  0  0
 11 12  1  0  0  0  0
 11 33  1  0  0  0  0
 11 34  1  0  0  0  0
 12 21  1  0  0  0  0
 12 13  1  0  0  0  0
 12 35  1  0  0  0  0
 13 14  1  0  0  0  0
 13 36  1  0  0  0  0
 13 37  1  0  0  0  0
 14 15  1  0  0  0  0
 14 19  1  0  0  0  0
 15 16  1  0  0  0  0
 15 38  1  0  0  0  0
 15 39  1  0  0  0  0
 16 17  1  0  0  0  0
 16 18  1  0  0  0  0
 16 40  1  0  0  0  0
 17 41  1  0  0  0  0
 17 42  1  0  0  0  0
 17 43  1  0  0  0  0
 18 44  1  0  0  0  0
 18 45  1  0  0  0  0
 18 46  1  0  0  0  0
 19 20  1  0  0  0  0
 19 47  1  0  0  0  0
 19 48  1  0  0  0  0
 20 21  1  0  0  0  0
 20 49  1  0  0  0  0
 20 50  1  0  0  0  0
 22 23  2  0  0  0  0
M  END
> <s_m_source_file>
AV-unprocessed.smi

> <i_m_source_file_index>
678

> <i_lp_mmshare_version>
43012

> <i_f3d_flags>
0

> <s_epik_input>
W0NIM11jMVtjSF1bY0hdW2NIXW4oYzE9TylbQ0gyXUMoPU8pW05IXVtDSDJdW0NAQEhdMltDSDJdTihbQ0gyXVtDSDJdTzIpW0NIMl1bQ0hdKFtDSDNdKVtDSDNd

> <s_epik_cmdline>
J2VwaWtfcHl0aG9uJywgJy1waCcsICc3LjAnLCAnLXRuJywgJzgnLCAnLW1hJywgJzIwMCcsICctbWV0YWxfYmluZGluZycsICctaW1hZScsICc8aW5maWxlLm1hZT4nLCAnLW9tYWUnLCAnPG91dGZpbGUubWFlPic=

> <r_lp_tautomer_probability>
1

> <r_epik_Ionization_Penalty>
1.11669

> <r_epik_Ionization_Penalty_Charging>
7.32459e-07

> <r_epik_Ionization_Penalty_Neutral>
1.11669

> <r_epik_State_Penalty>
1.17516

> <r_epik_Charging_Adjusted_Penalty>
1.17516

> <i_epik_Tot_Q>
0

> <i_epik_Tot_abs_Q>
0

> <r_epik_Metal_State_Penalty>
1.17513

> <b_epik_Metal_Only>
0

> <s_lp_Force_Field>
OPLS_2005

> <r_lp_Energy>
33.1266

> <b_lp_Chiralities_Consistent>
1

> <s_lp_Variant>
AV-unprocessed.smi:678-6

> <Gold.Version>
5.8.1

> <Gold.Id.Protein>
6NUR|6NUR_protein|mol2

> <Gold.PLP.Fitness>
51.3365

> <Gold.PLP.PLP>
-41.0282

> <Gold.PLP.part.hbond>
-3.6662

> <Gold.PLP.part.metal>
0.0000

> <Gold.PLP.part.buried>
-1.9017

> <Gold.PLP.part.nonpolar>
-34.9452

> <Gold.PLP.part.repulsive>
0.2125

> <Gold.PLP.ligand.clash>
0.0000

> <Gold.PLP.ligand.torsion>
0.8848

> <Gold.PLP.Chemscore.Hbond>
3.0000

> <Gold.PLP.Chemscore.CHOScore>
1.0000

> <Gold.PLP.Chemscore.Metal>
0.0000

> <Gold.Chemscore.Hbonds>
donor molecule, donor type, donor heavy atom, donor atom, acceptor molecule, acceptor atom, score
      L1  H    10    32       P1  7948  1.00
      P1  H  7997  8009       L1    23  1.00
      P1  H 10752 10765       L1     9  0.55
      L1  C     5    29       P1  7957  1.00

> <Gold.PLP.Chemscore.Internal.Correction>
0.0779

> <Gold.Rescore>
     Score         DG    S(hbond)    S(metal)    S(lipo)     H(rot)  DE(clash)    DE(int)     intcor
     17.32     -19.95       2.32        0.00      97.31       1.82       0.16       2.47       ----

> <Gold.Chemscore.Fitness>
17.3198

> <Gold.Chemscore.DG>
-19.9462

> <Gold.Chemscore.ZeroCoef>
-5.4800

> <Gold.Chemscore.Hbond>
2.3209

> <Gold.Chemscore.Metal>
0.0000

> <Gold.Chemscore.Lipo>
97.3056

> <Gold.Chemscore.Internal_Hbond>
0.0000

> <Gold.Chemscore.DEClash>
0.1606

> <Gold.Chemscore.DEInternal>
2.4658

> <Gold.Chemscore.Rot>
1.8243

> <Gold.Chemscore.Internal.Correction>
   9.000000E+99

> <Gold.Chemscore.Hbonds>
donor molecule, donor type, donor heavy atom, donor atom, acceptor molecule, acceptor atom, score
      L1  H    10    32       P1  7948  0.38
      P1  H  7997  8009       L1    23  0.62
      P1  H 10752 10765       L1     9  0.03

> <Gold.Chemscore.Hbond.Weighted>
-7.7517

> <Gold.Chemscore.Metal.Weighted>
-0.0000

> <Gold.Chemscore.Lipo.Weighted>
-11.3848

> <Gold.Chemscore.Internal_Hbond.Weighted>
0.0000

> <Gold.Chemscore.DEClash.Weighted>
0.1606

> <Gold.Chemscore.DEInternal.Weighted>
2.4658

> <Gold.Chemscore.Rot.Weighted>
4.6703

> <Gold.Chemscore.Internal.Correction.Weighted>
   9.000000E+99

> <Gold.Protein.RotatedTorsions>
[ 6907 6896 6895 6894 ] final -175.05 input  -60.11 | X-H torsion
[ 7974 7965 7964 7962 ] final -129.65 input  175.53 | X-H torsion
[ 8008 7997 7996 7995 ] final -170.65 input   59.86 | X-H torsion
[ 10167 10162 10161 10158 ] final  139.51 input  -65.29 | X-H torsion
[ 10718 10713 10712 10709 ] final  123.06 input   66.30 | X-H torsion
[ 10763 10752 10751 10750 ] final -165.68 input  -60.55 | X-H torsion
[ 11005 11000 10999 10996 ] final  -35.57 input  -57.11 | X-H torsion

> <Gold.Protein.ActiveResidues>
 VAL166  LYS551  ARG553  GLY616  TRP617  ASP618  TYR619  PRO620  LYS621  CYS622 
 ASP623  PHE694  ASN695  SER759  ASP760  ASP761  ALA762  ILE779  LEU786  VAL792 
 PHE793  MET794  SER795  GLU796  ALA797  LYS798  CYS799  TRP800  GLU811  SER814 

> <Gold.Protein.RotatedAtoms>
  151.5823  133.3376  159.3010 H   0  0  0  0  0  0  0  0  0  0  0  0  # atno 6907 bound_to 6896
  150.8307  134.7561  159.6862 H   0  0  0  0  0  0  0  0  0  0  0  0  # atno 6908 bound_to 6896
  152.4390  134.5634  159.9952 H   0  0  0  0  0  0  0  0  0  0  0  0  # atno 6909 bound_to 6896
  144.9551  140.7387  143.4763 H   0  0  0  0  0  0  0  0  0  0  0  0  # atno 7974 bound_to 7965
  155.9211  140.1074  157.1206 H   0  0  0  0  0  0  0  0  0  0  0  0  # atno 8008 bound_to 7997
  154.4054  140.1256  156.4746 H   0  0  0  0  0  0  0  0  0  0  0  0  # atno 8009 bound_to 7997
  155.7195  140.3470  155.5012 H   0  0  0  0  0  0  0  0  0  0  0  0  # atno 8010 bound_to 7997
  139.5076  144.6290  151.5865 H   0  0  0  0  0  0  0  0  0  0  0  0  # atno 10167 bound_to 10162
  157.5694  131.1084  150.8395 H   0  0  0  0  0  0  0  0  0  0  0  0  # atno 10718 bound_to 10713
  154.6908  135.2970  154.9482 H   0  0  0  0  0  0  0  0  0  0  0  0  # atno 10763 bound_to 10752
  154.0445  135.6653  153.4797 H   0  0  0  0  0  0  0  0  0  0  0  0  # atno 10764 bound_to 10752
  153.0611  135.5115  154.8000 H   0  0  0  0  0  0  0  0  0  0  0  0  # atno 10765 bound_to 10752
  140.9806  133.7058  156.1678 H   0  0  0  0  0  0  0  0  0  0  0  0  # atno 11005 bound_to 11000
  145.2784  139.1927  143.4804 LP  0  0  0  0  0  0  0  0  0  0  0  0  # atno 17320 bound_to 7965
  146.3334  140.2742  142.8607 LP  0  0  0  0  0  0  0  0  0  0  0  0  # atno 17321 bound_to 7965
  140.6016  143.9598  150.6390 LP  0  0  0  0  0  0  0  0  0  0  0  0  # atno 17342 bound_to 10162
  140.2812  143.3388  152.1149 LP  0  0  0  0  0  0  0  0  0  0  0  0  # atno 17343 bound_to 10162
  156.8871  130.5199  149.5288 LP  0  0  0  0  0  0  0  0  0  0  0  0  # atno 17370 bound_to 10713
  156.0740  130.5766  150.9438 LP  0  0  0  0  0  0  0  0  0  0  0  0  # atno 17371 bound_to 10713
  140.7192  134.4377  157.5576 LP  0  0  0  0  0  0  0  0  0  0  0  0  # atno 17394 bound_to 11000
  139.8949  134.8696  156.2157 LP  0  0  0  0  0  0  0  0  0  0  0  0  # atno 17395 bound_to 11000

$$$$
