AV-unprocessed.smi:1015|AV-procd|sdf|4434|dock3
  -GOLD-   22720 2393D 1   1.00000     0.00000
 Structure written by MMmdl.
 43 44  0  0  0  0  0  0  0  0  2 V2000
  143.8664  132.7482  149.1341 C   0  0  0  0  0  0  0  0  0  0  0  0
  144.8386  131.9631  149.8019 O   0  0  0  0  0  0  0  0  0  0  0  0
  145.2601  132.5430  151.0252 C   0  0  0  0  0  0  0  0  0  0  0  0
  146.4935  133.4204  150.7602 C   0  0  0  0  0  0  0  0  0  0  0  0
  147.0897  133.9546  152.0114 N   0  3  2  0  0  0  0  0  0  0  0  0
  147.8816  132.9315  152.7400 C   0  0  0  0  0  0  0  0  0  0  0  0
  148.6100  133.5462  153.9464 C   0  0  0  0  0  0  0  0  0  0  0  0
  147.6265  134.2436  154.9089 C   0  0  1  0  0  0  0  0  0  0  0  0
  148.3228  134.9211  156.1083 C   0  0  0  0  0  0  0  0  0  0  0  0
  147.4699  134.9421  157.2916 N   0  0  0  0  0  0  0  0  0  0  0  0
  147.9000  134.9674  158.5630 C   0  0  0  0  0  0  0  0  0  0  0  0
  149.0858  135.0509  158.8813 O   0  0  0  0  0  0  0  0  0  0  0  0
  146.8273  134.8351  159.6426 C   0  0  0  0  0  0  0  0  0  0  0  0
  146.9961  135.8688  160.6460 N   0  0  0  0  0  0  0  0  0  0  0  0
  146.1869  136.8580  161.0301 C   0  0  0  0  0  0  0  0  0  0  0  0
  146.7465  137.6124  161.9637 N   0  0  0  0  0  0  0  0  0  0  0  0
  147.9845  137.0197  162.1475 N   0  0  0  0  0  0  0  0  0  0  0  0
  148.1390  135.9853  161.3675 N   0  0  0  0  0  0  0  0  0  0  0  0
  146.7896  135.2611  154.1141 C   0  0  0  0  0  0  0  0  0  0  0  0
  146.0983  134.6073  152.9062 C   0  0  0  0  0  0  0  0  0  0  0  0
  143.5824  132.2631  148.2003 H   0  0  0  0  0  0  0  0  0  0  0  0
  144.2566  133.7379  148.8935 H   0  0  0  0  0  0  0  0  0  0  0  0
  142.9669  132.8638  149.7402 H   0  0  0  0  0  0  0  0  0  0  0  0
  144.4510  133.1138  151.4809 H   0  0  0  0  0  0  0  0  0  0  0  0
  145.5253  131.7518  151.7282 H   0  0  0  0  0  0  0  0  0  0  0  0
  147.2476  132.8616  150.2045 H   0  0  0  0  0  0  0  0  0  0  0  0
  146.1866  134.2448  150.1150 H   0  0  0  0  0  0  0  0  0  0  0  0
  147.2244  132.1240  153.0674 H   0  0  0  0  0  0  0  0  0  0  0  0
  148.6184  132.4880  152.0691 H   0  0  0  0  0  0  0  0  0  0  0  0
  149.1563  132.7568  154.4633 H   0  0  0  0  0  0  0  0  0  0  0  0
  149.3563  134.2617  153.5984 H   0  0  0  0  0  0  0  0  0  0  0  0
  146.9474  133.4852  155.3024 H   0  0  0  0  0  0  0  0  0  0  0  0
  149.2778  134.4364  156.3190 H   0  0  0  0  0  0  0  0  0  0  0  0
  148.5586  135.9559  155.8584 H   0  0  0  0  0  0  0  0  0  0  0  0
  146.4747  134.8755  157.1332 H   0  0  0  0  0  0  0  0  0  0  0  0
  145.8349  134.9314  159.2003 H   0  0  0  0  0  0  0  0  0  0  0  0
  146.8798  133.8533  160.1158 H   0  0  0  0  0  0  0  0  0  0  0  0
  145.2022  137.0303  160.6214 H   0  0  0  0  0  0  0  0  0  0  0  0
  146.0377  135.7119  154.7628 H   0  0  0  0  0  0  0  0  0  0  0  0
  147.4274  136.0763  153.7693 H   0  0  0  0  0  0  0  0  0  0  0  0
  145.5419  135.3715  152.3652 H   0  0  0  0  0  0  0  0  0  0  0  0
  145.3699  133.8692  153.2459 H   0  0  0  0  0  0  0  0  0  0  0  0
  147.7479  134.6669  151.7278 H   0  0  0  0  0  0  0  0  0  0  0  0
  1  2  1  0  0  0  0
  1 21  1  0  0  0  0
  1 22  1  0  0  0  0
  1 23  1  0  0  0  0
  2  3  1  0  0  0  0
  3  4  1  0  0  0  0
  3 24  1  0  0  0  0
  3 25  1  0  0  0  0
  4  5  1  0  0  0  0
  4 26  1  0  0  0  0
  4 27  1  0  0  0  0
  5 20  1  0  0  0  0
  5  6  1  0  0  0  0
  5 43  1  0  0  0  0
  6  7  1  0  0  0  0
  6 28  1  0  0  0  0
  6 29  1  0  0  0  0
  7  8  1  0  0  0  0
  7 30  1  0  0  0  0
  7 31  1  0  0  0  0
  8  9  1  0  0  0  0
  8 19  1  0  0  0  0
  8 32  1  0  0  0  0
  9 10  1  0  0  0  0
  9 33  1  0  0  0  0
  9 34  1  0  0  0  0
 10 11  1  0  0  0  0
 10 35  1  0  0  0  0
 11 12  2  0  0  0  0
 11 13  1  0  0  0  0
 13 14  1  0  0  0  0
 13 36  1  0  0  0  0
 13 37  1  0  0  0  0
 14 18  1  0  0  0  0
 14 15  1  0  0  0  0
 15 16  2  0  0  0  0
 15 38  1  0  0  0  0
 16 17  1  0  0  0  0
 17 18  2  0  0  0  0
 19 20  1  0  0  0  0
 19 39  1  0  0  0  0
 19 40  1  0  0  0  0
 20 41  1  0  0  0  0
 20 42  1  0  0  0  0
M  CHG  1   5   1
M  END
> <s_m_source_file>
AV-unprocessed.smi

> <i_m_source_file_index>
1015

> <i_lp_mmshare_version>
43012

> <i_f3d_flags>
0

> <s_epik_input>
W0NIM11PW0NIMl1bQ0gyXU4xW0NIMl1bQ0gyXVtDSF0oW0NIMl1bQ0gyXTEpW0NIMl1bTkhdQyg9TylbQ0gyXW4yW2NIXW5ubjI=

> <s_epik_cmdline>
J2VwaWtfcHl0aG9uJywgJy1waCcsICc3LjAnLCAnLXRuJywgJzgnLCAnLW1hJywgJzIwMCcsICctbWV0YWxfYmluZGluZycsICctaW1hZScsICc8aW5maWxlLm1hZT4nLCAnLW9tYWUnLCAnPG91dGZpbGUubWFlPic=

> <r_lp_tautomer_probability>
1

> <r_epik_Ionization_Penalty>
0.0104119

> <r_epik_Ionization_Penalty_Charging>
0.0104107

> <r_epik_Ionization_Penalty_Neutral>
1.19574e-06

> <r_epik_State_Penalty>
0.00795975

> <r_epik_Charging_Adjusted_Penalty>
0.0183705

> <i_epik_Tot_Q>
1

> <i_epik_Tot_abs_Q>
1

> <r_epik_Metal_State_Penalty>
0.00795975

> <b_epik_Metal_Only>
0

> <s_lp_Force_Field>
OPLS_2005

> <r_lp_Energy>
21.2096

> <b_lp_Chiralities_Consistent>
1

> <s_lp_Variant>
AV-unprocessed.smi:1015-1

> <Gold.Version>
5.8.1

> <Gold.Id.Protein>
6NUR|6NUR_protein|mol2

> <Gold.PLP.Fitness>
40.2141

> <Gold.PLP.PLP>
-27.5316

> <Gold.PLP.part.hbond>
-5.6727

> <Gold.PLP.part.metal>
0.0000

> <Gold.PLP.part.buried>
-4.4711

> <Gold.PLP.part.nonpolar>
-17.9826

> <Gold.PLP.part.repulsive>
0.1870

> <Gold.PLP.ligand.clash>
0.0000

> <Gold.PLP.ligand.torsion>
0.9350

> <Gold.PLP.Chemscore.Hbond>
4.7840

> <Gold.PLP.Chemscore.CHOScore>
0.0000

> <Gold.PLP.Chemscore.Metal>
0.0000

> <Gold.Chemscore.Hbonds>
donor molecule, donor type, donor heavy atom, donor atom, acceptor molecule, acceptor atom, score
      L1  H     5    43       P1  7948  2.00
      P1  H  6896  6907       L1    12  1.00
      P1  H  6931  6943       L1    17  1.00
      P1  H  6934  6947       L1    16  0.73

> <Gold.PLP.Chemscore.Internal.Correction>
0.2005

> <Gold.Rescore>
     Score         DG    S(hbond)    S(metal)    S(lipo)     H(rot)  DE(clash)    DE(int)     intcor
      9.22     -11.55       2.43        0.00      52.26       3.19       0.21       2.12       ----

> <Gold.Chemscore.Fitness>
9.2153

> <Gold.Chemscore.DG>
-11.5495

> <Gold.Chemscore.ZeroCoef>
-5.4800

> <Gold.Chemscore.Hbond>
2.4339

> <Gold.Chemscore.Metal>
0.0000

> <Gold.Chemscore.Lipo>
52.2566

> <Gold.Chemscore.Internal_Hbond>
0.0000

> <Gold.Chemscore.DEClash>
0.2100

> <Gold.Chemscore.DEInternal>
2.1242

> <Gold.Chemscore.Rot>
3.1928

> <Gold.Chemscore.Internal.Correction>
   9.000000E+99

> <Gold.Chemscore.Hbonds>
donor molecule, donor type, donor heavy atom, donor atom, acceptor molecule, acceptor atom, score
      L1  H     5    43       P1  7948  0.25
      P1  H  6896  6907       L1    12  0.99
      P1  H  6931  6943       L1    17  0.41
      P1  H  6934  6947       L1    16  0.06

> <Gold.Chemscore.Hbond.Weighted>
-8.1292

> <Gold.Chemscore.Metal.Weighted>
-0.0000

> <Gold.Chemscore.Lipo.Weighted>
-6.1140

> <Gold.Chemscore.Internal_Hbond.Weighted>
0.0000

> <Gold.Chemscore.DEClash.Weighted>
0.2100

> <Gold.Chemscore.DEInternal.Weighted>
2.1242

> <Gold.Chemscore.Rot.Weighted>
8.1737

> <Gold.Chemscore.Internal.Correction.Weighted>
   9.000000E+99

> <Gold.Protein.RotatedTorsions>
[ 6907 6896 6895 6894 ] final  -92.26 input  -60.11 | X-H torsion
[ 7974 7965 7964 7962 ] final   55.74 input  175.53 | X-H torsion
[ 8008 7997 7996 7995 ] final  -12.54 input   59.86 | X-H torsion
[ 10167 10162 10161 10158 ] final  121.80 input  -65.29 | X-H torsion
[ 10718 10713 10712 10709 ] final  147.69 input   66.30 | X-H torsion
[ 10763 10752 10751 10750 ] final -176.18 input  -60.55 | X-H torsion
[ 11005 11000 10999 10996 ] final  102.58 input  -57.11 | X-H torsion

> <Gold.Protein.ActiveResidues>
 VAL166  LYS551  ARG553  GLY616  TRP617  ASP618  TYR619  PRO620  LYS621  CYS622 
 ASP623  PHE694  ASN695  SER759  ASP760  ASP761  ALA762  ILE779  LEU786  VAL792 
 PHE793  MET794  SER795  GLU796  ALA797  LYS798  CYS799  TRP800  GLU811  SER814 

> <Gold.Protein.RotatedAtoms>
  150.6903  134.2150  159.4373 H   0  0  0  0  0  0  0  0  0  0  0  0  # atno 6907 bound_to 6896
  152.0110  134.9874  160.0577 H   0  0  0  0  0  0  0  0  0  0  0  0  # atno 6908 bound_to 6896
  152.1489  133.4474  159.4840 H   0  0  0  0  0  0  0  0  0  0  0  0  # atno 6909 bound_to 6896
  145.9472  139.3940  143.0328 H   0  0  0  0  0  0  0  0  0  0  0  0  # atno 7974 bound_to 7965
  154.5368  140.2273  155.8708 H   0  0  0  0  0  0  0  0  0  0  0  0  # atno 8008 bound_to 7997
  156.1819  140.3098  155.9128 H   0  0  0  0  0  0  0  0  0  0  0  0  # atno 8009 bound_to 7997
  155.3338  140.0447  157.3034 H   0  0  0  0  0  0  0  0  0  0  0  0  # atno 8010 bound_to 7997
  139.5898  144.7020  151.3319 H   0  0  0  0  0  0  0  0  0  0  0  0  # atno 10167 bound_to 10162
  157.3179  131.0899  151.1264 H   0  0  0  0  0  0  0  0  0  0  0  0  # atno 10718 bound_to 10713
  154.5755  135.2831  155.0785 H   0  0  0  0  0  0  0  0  0  0  0  0  # atno 10763 bound_to 10752
  154.2141  135.6403  153.5128 H   0  0  0  0  0  0  0  0  0  0  0  0  # atno 10764 bound_to 10752
  153.0071  135.5498  154.6392 H   0  0  0  0  0  0  0  0  0  0  0  0  # atno 10765 bound_to 10752
  139.8778  134.9229  156.5079 H   0  0  0  0  0  0  0  0  0  0  0  0  # atno 11005 bound_to 11000
  145.8221  140.9674  143.0893 LP  0  0  0  0  0  0  0  0  0  0  0  0  # atno 17320 bound_to 7965
  144.6789  140.0054  143.7484 LP  0  0  0  0  0  0  0  0  0  0  0  0  # atno 17321 bound_to 7965
  140.7163  143.7258  150.7661 LP  0  0  0  0  0  0  0  0  0  0  0  0  # atno 17342 bound_to 10162
  140.0811  143.4968  152.2530 LP  0  0  0  0  0  0  0  0  0  0  0  0  # atno 17343 bound_to 10162
  157.2561  130.6637  149.5953 LP  0  0  0  0  0  0  0  0  0  0  0  0  # atno 17370 bound_to 10713
  155.9683  130.4523  150.5769 LP  0  0  0  0  0  0  0  0  0  0  0  0  # atno 17371 bound_to 10713
  140.8542  133.8109  155.9199 LP  0  0  0  0  0  0  0  0  0  0  0  0  # atno 17394 bound_to 11000
  140.9114  134.2255  157.4983 LP  0  0  0  0  0  0  0  0  0  0  0  0  # atno 17395 bound_to 11000

$$$$
