AV-unprocessed.smi:2124|AV-procd|sdf|8650|dock1
  -GOLD-   2272011393D 1   1.00000     0.00000
 Structure written by MMmdl.
 47 49  0  0  0  0  0  0  0  0  1 V2000
  149.6039  133.4978  154.9825 C   0  0  0  0  0  0  0  0  0  0  0  0
  149.7170  135.0033  155.0971 C   0  0  0  0  0  0  0  0  0  0  0  0
  148.7916  135.7599  155.5882 N   0  0  0  0  0  0  0  0  0  0  0  0
  149.0114  137.1431  155.6450 C   0  0  0  0  0  0  0  0  0  0  0  0
  147.8779  137.9620  156.2381 C   0  0  0  0  0  0  0  0  0  0  0  0
  150.1730  137.7028  155.1951 C   0  0  0  0  0  0  0  0  0  0  0  0
  150.4432  139.2056  155.2467 C   0  0  0  0  0  0  0  0  0  0  0  0
  151.5508  139.6399  156.2086 C   0  0  0  0  0  0  0  0  0  0  0  0
  152.6894  139.1916  156.0783 O   0  0  0  0  0  0  0  0  0  0  0  0
  151.2032  140.5167  157.1634 N   0  0  0  0  0  0  0  0  0  0  0  0
  152.0962  141.0806  158.1734 C   0  0  2  0  0  0  0  0  0  0  0  0
  152.6558  139.9474  159.0495 C   0  0  0  0  0  0  0  0  0  0  0  0
  151.3271  142.1416  158.9958 C   0  0  2  0  0  0  0  0  0  0  0  0
  150.5102  143.1469  158.1512 C   0  0  0  0  0  0  0  0  0  0  0  0
  150.9196  144.5096  158.7400 C   0  0  2  0  0  0  0  0  0  0  0  0
  152.3447  144.8510  158.2684 C   0  0  0  0  0  0  0  0  0  0  0  0
  153.2123  143.8773  159.0864 C   0  0  0  0  0  0  0  0  0  0  0  0
  152.1668  143.0823  159.8961 C   0  0  1  0  0  0  0  0  0  0  0  0
  151.1471  144.1732  160.2092 C   0  0  0  0  0  0  0  0  0  0  0  0
  151.2219  136.8290  154.6337 C   0  0  0  0  0  0  0  0  0  0  0  0
  152.3006  137.2260  154.1957 O   0  0  0  0  0  0  0  0  0  0  0  0
  150.9246  135.5103  154.6206 N   0  0  0  0  0  0  0  0  0  0  0  0
  151.6105  134.8713  154.2460 H   0  0  0  0  0  0  0  0  0  0  0  0
  148.7602  133.2322  154.3453 H   0  0  0  0  0  0  0  0  0  0  0  0
  149.4418  133.0581  155.9670 H   0  0  0  0  0  0  0  0  0  0  0  0
  150.5063  133.0567  154.5566 H   0  0  0  0  0  0  0  0  0  0  0  0
  148.2082  138.4830  157.1367 H   0  0  0  0  0  0  0  0  0  0  0  0
  147.0327  137.3290  156.5111 H   0  0  0  0  0  0  0  0  0  0  0  0
  147.5208  138.6987  155.5197 H   0  0  0  0  0  0  0  0  0  0  0  0
  150.6834  139.5496  154.2401 H   0  0  0  0  0  0  0  0  0  0  0  0
  149.5354  139.7492  155.5106 H   0  0  0  0  0  0  0  0  0  0  0  0
  150.2425  140.8264  157.1883 H   0  0  0  0  0  0  0  0  0  0  0  0
  152.9285  141.5674  157.6643 H   0  0  0  0  0  0  0  0  0  0  0  0
  153.3654  140.3267  159.7846 H   0  0  0  0  0  0  0  0  0  0  0  0
  153.1821  139.2069  158.4461 H   0  0  0  0  0  0  0  0  0  0  0  0
  151.8603  139.4325  159.5889 H   0  0  0  0  0  0  0  0  0  0  0  0
  150.6311  141.6097  159.6476 H   0  0  0  0  0  0  0  0  0  0  0  0
  150.7351  143.0894  157.0854 H   0  0  0  0  0  0  0  0  0  0  0  0
  149.4410  142.9694  158.2730 H   0  0  0  0  0  0  0  0  0  0  0  0
  150.1953  145.3029  158.5531 H   0  0  0  0  0  0  0  0  0  0  0  0
  152.4688  144.7169  157.1932 H   0  0  0  0  0  0  0  0  0  0  0  0
  152.5984  145.8842  158.5084 H   0  0  0  0  0  0  0  0  0  0  0  0
  153.8490  143.2510  158.4634 H   0  0  0  0  0  0  0  0  0  0  0  0
  153.8674  144.4331  159.7583 H   0  0  0  0  0  0  0  0  0  0  0  0
  152.5802  142.5900  160.7769 H   0  0  0  0  0  0  0  0  0  0  0  0
  151.5615  145.0033  160.7841 H   0  0  0  0  0  0  0  0  0  0  0  0
  150.2519  143.8025  160.7119 H   0  0  0  0  0  0  0  0  0  0  0  0
  1  2  1  0  0  0  0
  1 24  1  0  0  0  0
  1 25  1  0  0  0  0
  1 26  1  0  0  0  0
  2 22  1  0  0  0  0
  2  3  2  0  0  0  0
  3  4  1  0  0  0  0
  4  5  1  0  0  0  0
  4  6  2  0  0  0  0
  5 27  1  0  0  0  0
  5 28  1  0  0  0  0
  5 29  1  0  0  0  0
  6  7  1  0  0  0  0
  6 20  1  0  0  0  0
  7  8  1  0  0  0  0
  7 30  1  0  0  0  0
  7 31  1  0  0  0  0
  8  9  2  0  0  0  0
  8 10  1  0  0  0  0
 10 11  1  0  0  0  0
 10 32  1  0  0  0  0
 11 12  1  0  0  0  0
 11 13  1  0  0  0  0
 11 33  1  0  0  0  0
 12 34  1  0  0  0  0
 12 35  1  0  0  0  0
 12 36  1  0  0  0  0
 13 18  1  0  0  0  0
 13 14  1  0  0  0  0
 13 37  1  0  0  0  0
 14 15  1  0  0  0  0
 14 38  1  0  0  0  0
 14 39  1  0  0  0  0
 15 19  1  0  0  0  0
 15 16  1  0  0  0  0
 15 40  1  0  0  0  0
 16 17  1  0  0  0  0
 16 41  1  0  0  0  0
 16 42  1  0  0  0  0
 17 18  1  0  0  0  0
 17 43  1  0  0  0  0
 17 44  1  0  0  0  0
 18 19  1  0  0  0  0
 18 45  1  0  0  0  0
 19 46  1  0  0  0  0
 19 47  1  0  0  0  0
 20 21  2  0  0  0  0
 20 22  1  0  0  0  0
 22 23  1  0  0  0  0
M  END
> <s_m_source_file>
AV-unprocessed.smi

> <i_m_source_file_index>
2124

> <i_lp_mmshare_version>
43012

> <i_f3d_flags>
0

> <s_epik_input>
W0NIM11jMW5jKFtDSDNdKWMoYyg9TylbbkhdMSlbQ0gyXUMoPU8pW05IXVtDQEhdKFtDSDNdKVtDQEhdKFtDSDJdW0NASF0yMylbQ0BIXShbQ0gyXTMpW0NIMl1bQ0gyXTI=

> <s_epik_cmdline>
J2VwaWtfcHl0aG9uJywgJy1waCcsICc3LjAnLCAnLXRuJywgJzgnLCAnLW1hJywgJzIwMCcsICctbWV0YWxfYmluZGluZycsICctaW1hZScsICc8aW5maWxlLm1hZT4nLCAnLW9tYWUnLCAnPG91dGZpbGUubWFlPic=

> <r_lp_tautomer_probability>
0.839158

> <r_epik_Ionization_Penalty>
0.000383628

> <r_epik_Ionization_Penalty_Charging>
0.00035045

> <r_epik_Ionization_Penalty_Neutral>
3.31781e-05

> <r_epik_State_Penalty>
0.09125

> <r_epik_Charging_Adjusted_Penalty>
0.0916005

> <i_epik_Tot_Q>
0

> <i_epik_Tot_abs_Q>
0

> <r_epik_Metal_State_Penalty>
0.255229

> <b_epik_Metal_Only>
0

> <s_lp_Force_Field>
OPLS_2005

> <r_lp_Energy>
53.1602

> <b_lp_Chiralities_Consistent>
1

> <s_lp_Variant>
AV-unprocessed.smi:2124-1

> <Gold.Version>
5.8.1

> <Gold.Id.Protein>
6NUR|6NUR_protein|mol2

> <Gold.PLP.Fitness>
45.5791

> <Gold.PLP.PLP>
-40.4612

> <Gold.PLP.part.hbond>
-3.8580

> <Gold.PLP.part.metal>
0.0000

> <Gold.PLP.part.buried>
-3.2230

> <Gold.PLP.part.nonpolar>
-33.7667

> <Gold.PLP.part.repulsive>
0.5877

> <Gold.PLP.ligand.clash>
0.0000

> <Gold.PLP.ligand.torsion>
0.2241

> <Gold.PLP.Chemscore.Hbond>
1.8480

> <Gold.PLP.Chemscore.CHOScore>
0.0000

> <Gold.PLP.Chemscore.Metal>
0.0000

> <Gold.Chemscore.Hbonds>
donor molecule, donor type, donor heavy atom, donor atom, acceptor molecule, acceptor atom, score
      P1  H  7997  8009       L1     9  1.00
      P1  H 10752 10764       L1    21  0.72

> <Gold.PLP.Chemscore.Internal.Correction>
0.0222

> <Gold.Rescore>
     Score         DG    S(hbond)    S(metal)    S(lipo)     H(rot)  DE(clash)    DE(int)     intcor
     17.32     -20.32       1.71        0.00     114.03       1.65       0.16       2.84       ----

> <Gold.Chemscore.Fitness>
17.3169

> <Gold.Chemscore.DG>
-20.3162

> <Gold.Chemscore.ZeroCoef>
-5.4800

> <Gold.Chemscore.Hbond>
1.7146

> <Gold.Chemscore.Metal>
0.0000

> <Gold.Chemscore.Lipo>
114.0340

> <Gold.Chemscore.Internal_Hbond>
0.0000

> <Gold.Chemscore.DEClash>
0.1633

> <Gold.Chemscore.DEInternal>
2.8360

> <Gold.Chemscore.Rot>
1.6534

> <Gold.Chemscore.Internal.Correction>
   9.000000E+99

> <Gold.Chemscore.Hbonds>
donor molecule, donor type, donor heavy atom, donor atom, acceptor molecule, acceptor atom, score
      P1  H  7997  8009       L1     9  1.00
      P1  H 10752 10764       L1    21  0.14

> <Gold.Chemscore.Hbond.Weighted>
-5.7268

> <Gold.Chemscore.Metal.Weighted>
-0.0000

> <Gold.Chemscore.Lipo.Weighted>
-13.3420

> <Gold.Chemscore.Internal_Hbond.Weighted>
0.0000

> <Gold.Chemscore.DEClash.Weighted>
0.1633

> <Gold.Chemscore.DEInternal.Weighted>
2.8360

> <Gold.Chemscore.Rot.Weighted>
4.2326

> <Gold.Chemscore.Internal.Correction.Weighted>
   9.000000E+99

> <Gold.Protein.RotatedTorsions>
[ 6907 6896 6895 6894 ] final  -58.19 input  -60.11 | X-H torsion
[ 7974 7965 7964 7962 ] final  -36.81 input  175.53 | X-H torsion
[ 8008 7997 7996 7995 ] final -168.22 input   59.86 | X-H torsion
[ 10167 10162 10161 10158 ] final  114.55 input  -65.29 | X-H torsion
[ 10718 10713 10712 10709 ] final -153.64 input   66.30 | X-H torsion
[ 10763 10752 10751 10750 ] final  -94.63 input  -60.55 | X-H torsion
[ 11005 11000 10999 10996 ] final  172.17 input  -57.11 | X-H torsion

> <Gold.Protein.ActiveResidues>
 VAL166  LYS551  ARG553  GLY616  TRP617  ASP618  TYR619  PRO620  LYS621  CYS622 
 ASP623  PHE694  ASN695  SER759  ASP760  ASP761  ALA762  ILE779  LEU786  VAL792 
 PHE793  MET794  SER795  GLU796  ALA797  LYS798  CYS799  TRP800  GLU811  SER814 

> <Gold.Protein.RotatedAtoms>
  150.8026  134.7130  159.6614 H   0  0  0  0  0  0  0  0  0  0  0  0  # atno 6907 bound_to 6896
  152.4144  134.6064  160.0024 H   0  0  0  0  0  0  0  0  0  0  0  0  # atno 6908 bound_to 6896
  151.6298  133.3296  159.3142 H   0  0  0  0  0  0  0  0  0  0  0  0  # atno 6909 bound_to 6896
  146.0629  140.6323  142.8988 H   0  0  0  0  0  0  0  0  0  0  0  0  # atno 7974 bound_to 7965
  155.8884  140.1020  157.1436 H   0  0  0  0  0  0  0  0  0  0  0  0  # atno 8008 bound_to 7997
  154.4012  140.1315  156.4348 H   0  0  0  0  0  0  0  0  0  0  0  0  # atno 8009 bound_to 7997
  155.7562  140.3464  155.5177 H   0  0  0  0  0  0  0  0  0  0  0  0  # atno 8010 bound_to 7997
  139.6381  144.7121  151.2293 H   0  0  0  0  0  0  0  0  0  0  0  0  # atno 10167 bound_to 10162
  156.4885  130.8336  151.2560 H   0  0  0  0  0  0  0  0  0  0  0  0  # atno 10718 bound_to 10713
  154.7073  135.5150  153.8614 H   0  0  0  0  0  0  0  0  0  0  0  0  # atno 10763 bound_to 10752
  153.0752  135.6614  154.0171 H   0  0  0  0  0  0  0  0  0  0  0  0  # atno 10764 bound_to 10752
  154.0019  135.3010  155.3381 H   0  0  0  0  0  0  0  0  0  0  0  0  # atno 10765 bound_to 10752
  140.3268  134.7390  157.4105 H   0  0  0  0  0  0  0  0  0  0  0  0  # atno 11005 bound_to 11000
  144.7185  140.4293  143.7026 LP  0  0  0  0  0  0  0  0  0  0  0  0  # atno 17320 bound_to 7965
  145.6528  139.1568  143.2852 LP  0  0  0  0  0  0  0  0  0  0  0  0  # atno 17321 bound_to 7965
  140.7476  143.6361  150.8378 LP  0  0  0  0  0  0  0  0  0  0  0  0  # atno 17342 bound_to 10162
  139.9994  143.5760  152.2881 LP  0  0  0  0  0  0  0  0  0  0  0  0  # atno 17343 bound_to 10162
  157.7476  131.0021  150.2989 LP  0  0  0  0  0  0  0  0  0  0  0  0  # atno 17370 bound_to 10713
  156.3450  130.3821  149.7377 LP  0  0  0  0  0  0  0  0  0  0  0  0  # atno 17371 bound_to 10713
  140.0894  134.5622  155.8459 LP  0  0  0  0  0  0  0  0  0  0  0  0  # atno 17394 bound_to 11000
  141.2073  133.6663  156.6297 LP  0  0  0  0  0  0  0  0  0  0  0  0  # atno 17395 bound_to 11000

$$$$
