AV-unprocessed.smi:1118|AV-procd|sdf|4816|dock3
  -GOLD-   22720 3373D 1   1.00000     0.00000
 Structure written by MMmdl.
 44 45  0  0  0  0  0  0  0  0  1 V2000
  151.6133  142.2451  158.6940 C   0  0  0  0  0  0  0  0  0  0  0  0
  151.3457  142.3715  157.3087 O   0  0  0  0  0  0  0  0  0  0  0  0
  150.6477  141.2535  156.7843 C   0  0  0  0  0  0  0  0  0  0  0  0
  149.9877  141.6440  155.4516 C   0  0  0  0  0  0  0  0  0  0  0  0
  148.8787  140.7889  155.0262 N   0  0  0  0  0  0  0  0  0  0  0  0
  149.2967  139.4023  154.8046 C   0  0  0  0  0  0  0  0  0  0  0  0
  148.1254  138.4891  154.4044 C   0  0  0  0  0  0  0  0  0  0  0  0
  147.4135  139.0176  153.1452 C   0  0  0  0  0  0  0  0  0  0  0  0
  146.2059  138.1356  152.7762 C   0  0  0  0  0  0  0  0  0  0  0  0
  146.5991  136.7487  152.5651 N   0  0  0  0  0  0  0  0  0  0  0  0
  145.8078  135.6911  152.7936 C   0  0  0  0  0  0  0  0  0  0  0  0
  144.6626  135.7830  153.2353 O   0  0  0  0  0  0  0  0  0  0  0  0
  146.3926  134.3177  152.4633 C   0  0  0  0  0  0  0  0  0  0  0  0
  145.6675  133.6970  151.3700 N   0  0  0  0  0  0  0  0  0  0  0  0
  145.9897  132.5533  150.6691 C   0  0  0  0  0  0  0  0  0  0  0  0
  145.0071  132.3543  149.7421 C   0  0  0  0  0  0  0  0  0  0  0  0
  144.1148  133.4418  149.9567 C   0  0  0  0  0  0  0  0  0  0  0  0
  144.5124  134.2442  150.9312 N   0  0  0  0  0  0  0  0  0  0  0  0
  147.0340  140.4962  153.3678 C   0  0  0  0  0  0  0  0  0  0  0  0
  148.2590  141.3141  153.8103 C   0  0  0  0  0  0  0  0  0  0  0  0
  152.1498  143.1263  159.0451 H   0  0  0  0  0  0  0  0  0  0  0  0
  152.2325  141.3705  158.8978 H   0  0  0  0  0  0  0  0  0  0  0  0
  150.6893  142.1621  159.2678 H   0  0  0  0  0  0  0  0  0  0  0  0
  151.3466  140.4334  156.6129 H   0  0  0  0  0  0  0  0  0  0  0  0
  149.9090  140.8926  157.5005 H   0  0  0  0  0  0  0  0  0  0  0  0
  149.6238  142.6668  155.5587 H   0  0  0  0  0  0  0  0  0  0  0  0
  150.7467  141.6783  154.6686 H   0  0  0  0  0  0  0  0  0  0  0  0
  150.0673  139.3663  154.0331 H   0  0  0  0  0  0  0  0  0  0  0  0
  149.7456  138.9957  155.7099 H   0  0  0  0  0  0  0  0  0  0  0  0
  148.4914  137.4765  154.2322 H   0  0  0  0  0  0  0  0  0  0  0  0
  147.4172  138.4262  155.2320 H   0  0  0  0  0  0  0  0  0  0  0  0
  148.1248  138.9741  152.3188 H   0  0  0  0  0  0  0  0  0  0  0  0
  145.4609  138.1811  153.5723 H   0  0  0  0  0  0  0  0  0  0  0  0
  145.7275  138.5108  151.8701 H   0  0  0  0  0  0  0  0  0  0  0  0
  147.5240  136.5832  152.1948 H   0  0  0  0  0  0  0  0  0  0  0  0
  147.4486  134.4023  152.2009 H   0  0  0  0  0  0  0  0  0  0  0  0
  146.3307  133.6696  153.3383 H   0  0  0  0  0  0  0  0  0  0  0  0
  146.8801  131.9822  150.8887 H   0  0  0  0  0  0  0  0  0  0  0  0
  144.9357  131.5530  149.0219 H   0  0  0  0  0  0  0  0  0  0  0  0
  143.1958  133.6698  149.4373 H   0  0  0  0  0  0  0  0  0  0  0  0
  146.6223  140.9294  152.4559 H   0  0  0  0  0  0  0  0  0  0  0  0
  146.2536  140.5695  154.1266 H   0  0  0  0  0  0  0  0  0  0  0  0
  147.9476  142.3464  153.9741 H   0  0  0  0  0  0  0  0  0  0  0  0
  148.9918  141.3387  153.0021 H   0  0  0  0  0  0  0  0  0  0  0  0
  1  2  1  0  0  0  0
  1 21  1  0  0  0  0
  1 22  1  0  0  0  0
  1 23  1  0  0  0  0
  2  3  1  0  0  0  0
  3  4  1  0  0  0  0
  3 24  1  0  0  0  0
  3 25  1  0  0  0  0
  4  5  1  0  0  0  0
  4 26  1  0  0  0  0
  4 27  1  0  0  0  0
  5 20  1  0  0  0  0
  5  6  1  0  0  0  0
  6  7  1  0  0  0  0
  6 28  1  0  0  0  0
  6 29  1  0  0  0  0
  7  8  1  0  0  0  0
  7 30  1  0  0  0  0
  7 31  1  0  0  0  0
  8  9  1  0  0  0  0
  8 19  1  0  0  0  0
  8 32  1  0  0  0  0
  9 10  1  0  0  0  0
  9 33  1  0  0  0  0
  9 34  1  0  0  0  0
 10 11  1  0  0  0  0
 10 35  1  0  0  0  0
 11 12  2  0  0  0  0
 11 13  1  0  0  0  0
 13 14  1  0  0  0  0
 13 36  1  0  0  0  0
 13 37  1  0  0  0  0
 14 18  1  0  0  0  0
 14 15  1  0  0  0  0
 15 16  2  0  0  0  0
 15 38  1  0  0  0  0
 16 17  1  0  0  0  0
 16 39  1  0  0  0  0
 17 18  2  0  0  0  0
 17 40  1  0  0  0  0
 19 20  1  0  0  0  0
 19 41  1  0  0  0  0
 19 42  1  0  0  0  0
 20 43  1  0  0  0  0
 20 44  1  0  0  0  0
M  END
> <s_m_source_file>
AV-unprocessed.smi

> <i_m_source_file_index>
1118

> <i_lp_mmshare_version>
43012

> <i_f3d_flags>
0

> <s_epik_input>
W0NIM11PW0NIMl1bQ0gyXU4xW0NIMl1bQ0gyXVtDSF0oW0NIMl1bQ0gyXTEpW0NIMl1bTkhdQyg9TylbQ0gyXW4yW2NIXVtjSF1bY0hdbjI=

> <s_epik_cmdline>
J2VwaWtfcHl0aG9uJywgJy1waCcsICc3LjAnLCAnLXRuJywgJzgnLCAnLW1hJywgJzIwMCcsICctbWV0YWxfYmluZGluZycsICctaW1hZScsICc8aW5maWxlLm1hZT4nLCAnLW9tYWUnLCAnPG91dGZpbGUubWFlPic=

> <r_lp_tautomer_probability>
1

> <r_epik_Ionization_Penalty>
2.42912

> <r_epik_Ionization_Penalty_Charging>
0

> <r_epik_Ionization_Penalty_Neutral>
2.42912

> <r_epik_State_Penalty>
2.58903

> <r_epik_Charging_Adjusted_Penalty>
2.58903

> <i_epik_Tot_Q>
0

> <i_epik_Tot_abs_Q>
0

> <r_epik_Metal_State_Penalty>
2.58902

> <b_epik_Metal_Only>
0

> <s_lp_Force_Field>
OPLS_2005

> <r_lp_Energy>
26.1618

> <b_lp_Chiralities_Consistent>
1

> <s_lp_Variant>
AV-unprocessed.smi:1118-3

> <Gold.Version>
5.8.1

> <Gold.Id.Protein>
6NUR|6NUR_protein|mol2

> <Gold.PLP.Fitness>
40.6618

> <Gold.PLP.PLP>
-32.4680

> <Gold.PLP.part.hbond>
-1.0000

> <Gold.PLP.part.metal>
0.0000

> <Gold.PLP.part.buried>
-4.0251

> <Gold.PLP.part.nonpolar>
-27.8852

> <Gold.PLP.part.repulsive>
0.4158

> <Gold.PLP.ligand.clash>
0.0000

> <Gold.PLP.ligand.torsion>
0.4939

> <Gold.PLP.Chemscore.Hbond>
0.9913

> <Gold.PLP.Chemscore.CHOScore>
2.0000

> <Gold.PLP.Chemscore.Metal>
0.0000

> <Gold.Chemscore.Hbonds>
donor molecule, donor type, donor heavy atom, donor atom, acceptor molecule, acceptor atom, score
      L1  H    10    35       P1  7948  0.91
      L1  C    15    38       P1 10747  1.00
      L1  C    17    40       P1 10186  1.00

> <Gold.PLP.Chemscore.Internal.Correction>
0.2078

> <Gold.Rescore>
     Score         DG    S(hbond)    S(metal)    S(lipo)     H(rot)  DE(clash)    DE(int)     intcor
     12.12     -14.01       0.99        0.00      91.53       2.14       0.03       1.87       ----

> <Gold.Chemscore.Fitness>
12.1187

> <Gold.Chemscore.DG>
-14.0134

> <Gold.Chemscore.ZeroCoef>
-5.4800

> <Gold.Chemscore.Hbond>
0.9892

> <Gold.Chemscore.Metal>
0.0000

> <Gold.Chemscore.Lipo>
91.5347

> <Gold.Chemscore.Internal_Hbond>
0.0000

> <Gold.Chemscore.DEClash>
0.0251

> <Gold.Chemscore.DEInternal>
1.8696

> <Gold.Chemscore.Rot>
2.1406

> <Gold.Chemscore.Internal.Correction>
   9.000000E+99

> <Gold.Chemscore.Hbonds>
donor molecule, donor type, donor heavy atom, donor atom, acceptor molecule, acceptor atom, score
      L1  H    10    35       P1  7948  0.89

> <Gold.Chemscore.Hbond.Weighted>
-3.3039

> <Gold.Chemscore.Metal.Weighted>
-0.0000

> <Gold.Chemscore.Lipo.Weighted>
-10.7096

> <Gold.Chemscore.Internal_Hbond.Weighted>
0.0000

> <Gold.Chemscore.DEClash.Weighted>
0.0251

> <Gold.Chemscore.DEInternal.Weighted>
1.8696

> <Gold.Chemscore.Rot.Weighted>
5.4800

> <Gold.Chemscore.Internal.Correction.Weighted>
   9.000000E+99

> <Gold.Protein.RotatedTorsions>
[ 6907 6896 6895 6894 ] final  -31.01 input  -60.11 | X-H torsion
[ 7974 7965 7964 7962 ] final   68.45 input  175.53 | X-H torsion
[ 8008 7997 7996 7995 ] final  155.19 input   59.86 | X-H torsion
[ 10167 10162 10161 10158 ] final  -28.07 input  -65.29 | X-H torsion
[ 10718 10713 10712 10709 ] final -111.96 input   66.30 | X-H torsion
[ 10763 10752 10751 10750 ] final -153.31 input  -60.55 | X-H torsion
[ 11005 11000 10999 10996 ] final  -72.96 input  -57.11 | X-H torsion

> <Gold.Protein.ActiveResidues>
 VAL166  LYS551  ARG553  GLY616  TRP617  ASP618  TYR619  PRO620  LYS621  CYS622 
 ASP623  PHE694  ASN695  SER759  ASP760  ASP761  ALA762  ILE779  LEU786  VAL792 
 PHE793  MET794  SER795  GLU796  ALA797  LYS798  CYS799  TRP800  GLU811  SER814 

> <Gold.Protein.RotatedAtoms>
  151.0979  134.9955  159.8434 H   0  0  0  0  0  0  0  0  0  0  0  0  # atno 6907 bound_to 6896
  152.5434  134.1986  159.8713 H   0  0  0  0  0  0  0  0  0  0  0  0  # atno 6908 bound_to 6896
  151.2027  133.4557  159.2630 H   0  0  0  0  0  0  0  0  0  0  0  0  # atno 6909 bound_to 6896
  145.8025  139.2989  143.1146 H   0  0  0  0  0  0  0  0  0  0  0  0  # atno 7974 bound_to 7965
  156.2491  140.1946  156.6762 H   0  0  0  0  0  0  0  0  0  0  0  0  # atno 8008 bound_to 7997
  154.6356  140.0590  156.9810 H   0  0  0  0  0  0  0  0  0  0  0  0  # atno 8009 bound_to 7997
  155.1643  140.3262  155.4408 H   0  0  0  0  0  0  0  0  0  0  0  0  # atno 8010 bound_to 7997
  140.7273  143.4041  151.1216 H   0  0  0  0  0  0  0  0  0  0  0  0  # atno 10167 bound_to 10162
  156.0677  130.5895  150.8444 H   0  0  0  0  0  0  0  0  0  0  0  0  # atno 10718 bound_to 10713
  154.7936  135.3216  154.7720 H   0  0  0  0  0  0  0  0  0  0  0  0  # atno 10763 bound_to 10752
  153.8403  135.6871  153.4808 H   0  0  0  0  0  0  0  0  0  0  0  0  # atno 10764 bound_to 10752
  153.1617  135.4658  154.9722 H   0  0  0  0  0  0  0  0  0  0  0  0  # atno 10765 bound_to 10752
  141.1616  133.6863  156.7138 H   0  0  0  0  0  0  0  0  0  0  0  0  # atno 11005 bound_to 11000
  145.9863  140.8640  143.0089 LP  0  0  0  0  0  0  0  0  0  0  0  0  # atno 17320 bound_to 7965
  144.6767  140.2152  143.7372 LP  0  0  0  0  0  0  0  0  0  0  0  0  # atno 17321 bound_to 7965
  139.7665  143.8558  152.3111 LP  0  0  0  0  0  0  0  0  0  0  0  0  # atno 17342 bound_to 10162
  139.8462  144.7186  150.9270 LP  0  0  0  0  0  0  0  0  0  0  0  0  # atno 17343 bound_to 10162
  157.5730  131.0946  150.9389 LP  0  0  0  0  0  0  0  0  0  0  0  0  # atno 17370 bound_to 10713
  156.9601  130.5452  149.5285 LP  0  0  0  0  0  0  0  0  0  0  0  0  # atno 17371 bound_to 10713
  140.2867  134.8273  157.3981 LP  0  0  0  0  0  0  0  0  0  0  0  0  # atno 17394 bound_to 11000
  140.1384  134.5004  155.8051 LP  0  0  0  0  0  0  0  0  0  0  0  0  # atno 17395 bound_to 11000

$$$$
