AV-unprocessed.smi:1149|AV-procd|sdf|4891|dock3
  -GOLD-   22720 3463D 1   1.00000     0.00000
 Structure written by MMmdl.
 51 52  0  0  0  0  0  0  0  0  2 V2000
  150.8459  142.1752  157.6090 C   0  0  0  0  0  0  0  0  0  0  0  0
  151.2465  141.7333  156.3165 O   0  0  0  0  0  0  0  0  0  0  0  0
  150.7983  140.5045  155.8767 C   0  0  0  0  0  0  0  0  0  0  0  0
  150.2475  139.6111  156.8168 C   0  0  0  0  0  0  0  0  0  0  0  0
  149.7881  138.3552  156.3762 C   0  0  0  0  0  0  0  0  0  0  0  0
  149.8865  138.0347  155.0008 C   0  0  0  0  0  0  0  0  0  0  0  0
  149.4766  136.7988  154.4307 N   0  0  0  0  0  0  0  0  0  0  0  0
  149.1753  135.6452  155.0511 C   0  0  0  0  0  0  0  0  0  0  0  0
  149.1825  135.4657  156.2684 O   0  0  0  0  0  0  0  0  0  0  0  0
  148.8312  134.6969  154.1674 N   0  0  0  0  0  0  0  0  0  0  0  0
  148.4359  133.3280  154.4985 C   0  0  0  0  0  0  0  0  0  0  0  0
  146.9020  133.0781  154.3768 C   0  0  0  0  0  0  0  0  0  0  0  0
  146.5719  131.5882  154.6473 C   0  0  0  0  0  0  0  0  0  0  0  0
  146.1556  133.8855  155.4684 C   0  0  0  0  0  0  0  0  0  0  0  0
  146.3887  133.4707  153.0143 N   0  3  0  0  0  0  0  0  0  0  0  0
  144.9162  133.6831  152.9092 C   0  0  0  0  0  0  0  0  0  0  0  0
  144.5472  134.2940  151.5411 C   0  0  0  0  0  0  0  0  0  0  0  0
  144.9978  133.4655  150.4238 N   0  0  0  0  0  0  0  0  0  0  0  0
  144.2337  132.2308  150.2800 C   0  0  0  0  0  0  0  0  0  0  0  0
  146.4399  133.2452  150.5269 C   0  0  0  0  0  0  0  0  0  0  0  0
  146.8411  132.6172  151.8782 C   0  0  0  0  0  0  0  0  0  0  0  0
  150.4653  138.9943  154.1445 C   0  0  0  0  0  0  0  0  0  0  0  0
  150.9078  140.1993  154.5603 N   0  0  0  0  0  0  0  0  0  0  0  0
  151.2838  143.1532  157.8076 H   0  0  0  0  0  0  0  0  0  0  0  0
  151.1905  141.4942  158.3886 H   0  0  0  0  0  0  0  0  0  0  0  0
  149.7619  142.2783  157.6767 H   0  0  0  0  0  0  0  0  0  0  0  0
  150.1829  139.8824  157.8602 H   0  0  0  0  0  0  0  0  0  0  0  0
  149.3859  137.6659  157.1018 H   0  0  0  0  0  0  0  0  0  0  0  0
  149.3497  136.8098  153.4293 H   0  0  0  0  0  0  0  0  0  0  0  0
  148.8479  134.9383  153.1872 H   0  0  0  0  0  0  0  0  0  0  0  0
  148.9821  132.6833  153.8107 H   0  0  0  0  0  0  0  0  0  0  0  0
  148.7975  133.0712  155.4946 H   0  0  0  0  0  0  0  0  0  0  0  0
  146.7269  131.3212  155.6930 H   0  0  0  0  0  0  0  0  0  0  0  0
  147.2016  130.9125  154.0686 H   0  0  0  0  0  0  0  0  0  0  0  0
  145.5307  131.3620  154.4143 H   0  0  0  0  0  0  0  0  0  0  0  0
  146.3532  133.4920  156.4663 H   0  0  0  0  0  0  0  0  0  0  0  0
  145.0755  133.8512  155.3203 H   0  0  0  0  0  0  0  0  0  0  0  0
  146.4588  134.9318  155.4928 H   0  0  0  0  0  0  0  0  0  0  0  0
  144.3782  132.7491  153.0683 H   0  0  0  0  0  0  0  0  0  0  0  0
  144.5632  134.3768  153.6694 H   0  0  0  0  0  0  0  0  0  0  0  0
  143.4695  134.4460  151.4709 H   0  0  0  0  0  0  0  0  0  0  0  0
  145.0033  135.2807  151.4480 H   0  0  0  0  0  0  0  0  0  0  0  0
  144.5709  131.6791  149.4020 H   0  0  0  0  0  0  0  0  0  0  0  0
  143.1759  132.4570  150.1409 H   0  0  0  0  0  0  0  0  0  0  0  0
  144.3261  131.5752  151.1450 H   0  0  0  0  0  0  0  0  0  0  0  0
  146.7721  132.6148  149.7011 H   0  0  0  0  0  0  0  0  0  0  0  0
  146.9472  134.2032  150.4052 H   0  0  0  0  0  0  0  0  0  0  0  0
  147.9240  132.5127  151.8737 H   0  0  0  0  0  0  0  0  0  0  0  0
  146.4325  131.6106  151.9635 H   0  0  0  0  0  0  0  0  0  0  0  0
  150.5739  138.7920  153.0889 H   0  0  0  0  0  0  0  0  0  0  0  0
  146.7962  134.3784  152.8400 H   0  0  0  0  0  0  0  0  0  0  0  0
  1  2  1  0  0  0  0
  1 24  1  0  0  0  0
  1 25  1  0  0  0  0
  1 26  1  0  0  0  0
  2  3  1  0  0  0  0
  3 23  1  0  0  0  0
  3  4  2  0  0  0  0
  4  5  1  0  0  0  0
  4 27  1  0  0  0  0
  5  6  2  0  0  0  0
  5 28  1  0  0  0  0
  6  7  1  0  0  0  0
  6 22  1  0  0  0  0
  7  8  1  0  0  0  0
  7 29  1  0  0  0  0
  8  9  2  0  0  0  0
  8 10  1  0  0  0  0
 10 11  1  0  0  0  0
 10 30  1  0  0  0  0
 11 12  1  0  0  0  0
 11 31  1  0  0  0  0
 11 32  1  0  0  0  0
 12 13  1  0  0  0  0
 12 14  1  0  0  0  0
 12 15  1  0  0  0  0
 13 33  1  0  0  0  0
 13 34  1  0  0  0  0
 13 35  1  0  0  0  0
 14 36  1  0  0  0  0
 14 37  1  0  0  0  0
 14 38  1  0  0  0  0
 15 21  1  0  0  0  0
 15 16  1  0  0  0  0
 15 51  1  0  0  0  0
 16 17  1  0  0  0  0
 16 39  1  0  0  0  0
 16 40  1  0  0  0  0
 17 18  1  0  0  0  0
 17 41  1  0  0  0  0
 17 42  1  0  0  0  0
 18 19  1  0  0  0  0
 18 20  1  0  0  0  0
 19 43  1  0  0  0  0
 19 44  1  0  0  0  0
 19 45  1  0  0  0  0
 20 21  1  0  0  0  0
 20 46  1  0  0  0  0
 20 47  1  0  0  0  0
 21 48  1  0  0  0  0
 21 49  1  0  0  0  0
 22 23  2  0  0  0  0
 22 50  1  0  0  0  0
M  CHG  1  15   1
M  END
> <s_m_source_file>
AV-unprocessed.smi

> <i_m_source_file_index>
1149

> <i_lp_mmshare_version>
43012

> <i_f3d_flags>
0

> <s_epik_input>
W0NIM11PYzFbY0hdW2NIXWMoW2NIXW4xKVtOSF1DKD1PKVtOSF1bQ0gyXUMoW0NIM10pKFtDSDNdKU4yW0NIMl1bQ0gyXU4oW0NIM10pW0NIMl1bQ0gyXTI=

> <s_epik_cmdline>
J2VwaWtfcHl0aG9uJywgJy1waCcsICc3LjAnLCAnLXRuJywgJzgnLCAnLW1hJywgJzIwMCcsICctbWV0YWxfYmluZGluZycsICctaW1hZScsICc8aW5maWxlLm1hZT4nLCAnLW9tYWUnLCAnPG91dGZpbGUubWFlPic=

> <r_epik_Ionization_Penalty>
0.0907124

> <r_epik_Ionization_Penalty_Charging>
0.0886444

> <r_epik_Ionization_Penalty_Neutral>
0.00206799

> <r_epik_State_Penalty>
1.00524

> <r_epik_Charging_Adjusted_Penalty>
1.09388

> <i_epik_Tot_Q>
1

> <i_epik_Tot_abs_Q>
1

> <r_epik_Metal_State_Penalty>
1.00525

> <b_epik_Metal_Only>
0

> <s_lp_Force_Field>
OPLS_2005

> <r_lp_Energy>
30.5246

> <b_lp_Chiralities_Consistent>
1

> <s_lp_Variant>
AV-unprocessed.smi:1149-2

> <Gold.Version>
5.8.1

> <Gold.Id.Protein>
6NUR|6NUR_protein|mol2

> <Gold.PLP.Fitness>
40.3772

> <Gold.PLP.PLP>
-29.5619

> <Gold.PLP.part.hbond>
-3.0000

> <Gold.PLP.part.metal>
0.0000

> <Gold.PLP.part.buried>
-3.3037

> <Gold.PLP.part.nonpolar>
-21.8645

> <Gold.PLP.part.repulsive>
0.3190

> <Gold.PLP.ligand.clash>
0.0156

> <Gold.PLP.ligand.torsion>
0.6438

> <Gold.PLP.Chemscore.Hbond>
3.0000

> <Gold.PLP.Chemscore.CHOScore>
1.0000

> <Gold.PLP.Chemscore.Metal>
0.0000

> <Gold.Chemscore.Hbonds>
donor molecule, donor type, donor heavy atom, donor atom, acceptor molecule, acceptor atom, score
      L1  H     7    29       P1  7948  1.00
      L1  H    10    30       P1  7948  1.00
      P1  H  7989  7998       L1    23  0.80
      L1  C    22    50       P1  7957  0.99

> <Gold.PLP.Chemscore.Internal.Correction>
0.1185

> <Gold.Rescore>
     Score         DG    S(hbond)    S(metal)    S(lipo)     H(rot)  DE(clash)    DE(int)     intcor
     16.19     -17.76       2.57        0.00      69.23       1.72       0.05       1.53       ----

> <Gold.Chemscore.Fitness>
16.1855

> <Gold.Chemscore.DG>
-17.7626

> <Gold.Chemscore.ZeroCoef>
-5.4800

> <Gold.Chemscore.Hbond>
2.5717

> <Gold.Chemscore.Metal>
0.0000

> <Gold.Chemscore.Lipo>
69.2279

> <Gold.Chemscore.Internal_Hbond>
0.0000

> <Gold.Chemscore.DEClash>
0.0493

> <Gold.Chemscore.DEInternal>
1.5278

> <Gold.Chemscore.Rot>
1.7213

> <Gold.Chemscore.Internal.Correction>
   9.000000E+99

> <Gold.Chemscore.Hbonds>
donor molecule, donor type, donor heavy atom, donor atom, acceptor molecule, acceptor atom, score
      L1  H     7    29       P1  7948  0.92
      L1  H    10    30       P1  7948  0.29
      P1  H  7989  7998       L1    23  0.62

> <Gold.Chemscore.Hbond.Weighted>
-8.5894

> <Gold.Chemscore.Metal.Weighted>
-0.0000

> <Gold.Chemscore.Lipo.Weighted>
-8.0997

> <Gold.Chemscore.Internal_Hbond.Weighted>
0.0000

> <Gold.Chemscore.DEClash.Weighted>
0.0493

> <Gold.Chemscore.DEInternal.Weighted>
1.5278

> <Gold.Chemscore.Rot.Weighted>
4.4066

> <Gold.Chemscore.Internal.Correction.Weighted>
   9.000000E+99

> <Gold.Protein.RotatedTorsions>
[ 6907 6896 6895 6894 ] final   53.86 input  -60.11 | X-H torsion
[ 7974 7965 7964 7962 ] final  -99.06 input  175.53 | X-H torsion
[ 8008 7997 7996 7995 ] final  123.86 input   59.86 | X-H torsion
[ 10167 10162 10161 10158 ] final   41.05 input  -65.29 | X-H torsion
[ 10718 10713 10712 10709 ] final  100.66 input   66.30 | X-H torsion
[ 10763 10752 10751 10750 ] final  -28.03 input  -60.55 | X-H torsion
[ 11005 11000 10999 10996 ] final  166.70 input  -57.11 | X-H torsion

> <Gold.Protein.ActiveResidues>
 VAL166  LYS551  ARG553  GLY616  TRP617  ASP618  TYR619  PRO620  LYS621  CYS622 
 ASP623  PHE694  ASN695  SER759  ASP760  ASP761  ALA762  ILE779  LEU786  VAL792 
 PHE793  MET794  SER795  GLU796  ALA797  LYS798  CYS799  TRP800  GLU811  SER814 

> <Gold.Protein.RotatedAtoms>
  152.3380  134.7172  160.0271 H   0  0  0  0  0  0  0  0  0  0  0  0  # atno 6907 bound_to 6896
  151.7566  133.3325  159.3414 H   0  0  0  0  0  0  0  0  0  0  0  0  # atno 6908 bound_to 6896
  150.7462  134.6076  159.6114 H   0  0  0  0  0  0  0  0  0  0  0  0  # atno 6909 bound_to 6896
  145.3125  140.9403  143.2761 H   0  0  0  0  0  0  0  0  0  0  0  0  # atno 7974 bound_to 7965
  156.2781  140.2753  156.1696 H   0  0  0  0  0  0  0  0  0  0  0  0  # atno 8008 bound_to 7997
  155.0669  140.0387  157.2613 H   0  0  0  0  0  0  0  0  0  0  0  0  # atno 8009 bound_to 7997
  154.7072  140.2661  155.6669 H   0  0  0  0  0  0  0  0  0  0  0  0  # atno 8010 bound_to 7997
  140.3681  144.2141  150.6134 H   0  0  0  0  0  0  0  0  0  0  0  0  # atno 10167 bound_to 10162
  157.6849  131.0704  150.5133 H   0  0  0  0  0  0  0  0  0  0  0  0  # atno 10718 bound_to 10713
  153.7417  135.6932  153.4965 H   0  0  0  0  0  0  0  0  0  0  0  0  # atno 10763 bound_to 10752
  153.2065  135.4418  155.0327 H   0  0  0  0  0  0  0  0  0  0  0  0  # atno 10764 bound_to 10752
  154.8218  135.3426  154.6942 H   0  0  0  0  0  0  0  0  0  0  0  0  # atno 10765 bound_to 10752
  140.2691  134.7841  157.3659 H   0  0  0  0  0  0  0  0  0  0  0  0  # atno 11005 bound_to 11000
  144.9004  139.4657  143.6635 LP  0  0  0  0  0  0  0  0  0  0  0  0  # atno 17320 bound_to 7965
  146.3112  139.7755  142.9018 LP  0  0  0  0  0  0  0  0  0  0  0  0  # atno 17321 bound_to 7965
  140.5060  143.2304  151.8607 LP  0  0  0  0  0  0  0  0  0  0  0  0  # atno 17342 bound_to 10162
  139.4806  144.5004  151.9067 LP  0  0  0  0  0  0  0  0  0  0  0  0  # atno 17343 bound_to 10162
  156.5450  130.4217  149.6135 LP  0  0  0  0  0  0  0  0  0  0  0  0  # atno 17370 bound_to 10713
  156.2952  130.7146  151.2005 LP  0  0  0  0  0  0  0  0  0  0  0  0  # atno 17371 bound_to 10713
  140.1390  134.4996  155.8046 LP  0  0  0  0  0  0  0  0  0  0  0  0  # atno 17394 bound_to 11000
  141.2180  133.6818  156.7176 LP  0  0  0  0  0  0  0  0  0  0  0  0  # atno 17395 bound_to 11000

$$$$
