AV-unprocessed.smi:62|AV-procd|sdf|605|dock3
  -GOLD-   2262016503D 1   1.00000     0.00000
 Structure written by MMmdl.
 30 31  0  0  0  0  0  0  0  0  2 V2000
  148.4962  141.0975  153.6804 C   0  0  0  0  0  0  0  0  0  0  0  0
  149.5547  140.7372  154.5988 N   0  0  0  0  0  0  0  0  0  0  0  0
  150.0124  141.4262  155.6982 C   0  0  0  0  0  0  0  0  0  0  0  0
  151.0296  140.7031  156.2569 C   0  0  0  0  0  0  0  0  0  0  0  0
  151.8284  141.0969  157.4768 C   0  0  0  0  0  0  0  0  0  0  0  0
  151.5814  142.4754  157.8881 N   0  0  0  0  0  0  0  0  0  0  0  0
  150.2419  142.7125  158.4008 C   0  0  0  0  0  0  0  0  0  0  0  0
  150.3135  144.0015  159.2320 C   0  0  0  0  0  0  0  0  0  0  0  0
  151.8191  144.2181  159.4561 C   0  0  1  0  0  0  0  0  0  0  0  0
  152.1413  144.4815  160.8057 O   0  0  0  0  0  0  0  0  0  0  0  0
  152.4468  142.9148  158.9614 C   0  0  0  0  0  0  0  0  0  0  0  0
  151.1174  139.5520  155.4014 C   0  0  0  0  0  0  0  0  0  0  0  0
  152.1142  138.4455  155.6282 C   0  0  0  0  0  0  0  0  0  0  0  0
  152.0179  137.3712  154.9954 O   0  0  0  0  0  0  0  0  0  0  0  0
  153.0297  138.6468  156.4571 O   0  5  0  0  0  0  0  0  0  0  0  0
  150.2310  139.5886  154.4144 N   0  0  0  0  0  0  0  0  0  0  0  0
  147.9838  141.9932  154.0325 H   0  0  0  0  0  0  0  0  0  0  0  0
  147.7755  140.2823  153.6078 H   0  0  0  0  0  0  0  0  0  0  0  0
  148.9169  141.2932  152.6937 H   0  0  0  0  0  0  0  0  0  0  0  0
  149.5841  142.3731  155.9916 H   0  0  0  0  0  0  0  0  0  0  0  0
  151.6073  140.4272  158.3089 H   0  0  0  0  0  0  0  0  0  0  0  0
  152.8939  140.9647  157.2882 H   0  0  0  0  0  0  0  0  0  0  0  0
  149.5124  142.7818  157.5933 H   0  0  0  0  0  0  0  0  0  0  0  0
  149.9397  141.8885  159.0492 H   0  0  0  0  0  0  0  0  0  0  0  0
  149.8811  144.8454  158.6935 H   0  0  0  0  0  0  0  0  0  0  0  0
  149.7629  143.8842  160.1665 H   0  0  0  0  0  0  0  0  0  0  0  0
  152.1649  145.0470  158.8368 H   0  0  0  0  0  0  0  0  0  0  0  0
  151.4377  144.9841  161.1873 H   0  0  0  0  0  0  0  0  0  0  0  0
  152.4504  142.1726  159.7618 H   0  0  0  0  0  0  0  0  0  0  0  0
  153.4742  143.0485  158.6212 H   0  0  0  0  0  0  0  0  0  0  0  0
  1  2  1  0  0  0  0
  1 17  1  0  0  0  0
  1 18  1  0  0  0  0
  1 19  1  0  0  0  0
  2 16  1  0  0  0  0
  2  3  1  0  0  0  0
  3  4  2  0  0  0  0
  3 20  1  0  0  0  0
  4  5  1  0  0  0  0
  4 12  1  0  0  0  0
  5  6  1  0  0  0  0
  5 21  1  0  0  0  0
  5 22  1  0  0  0  0
  6 11  1  0  0  0  0
  6  7  1  0  0  0  0
  7  8  1  0  0  0  0
  7 23  1  0  0  0  0
  7 24  1  0  0  0  0
  8  9  1  0  0  0  0
  8 25  1  0  0  0  0
  8 26  1  0  0  0  0
  9 10  1  0  0  0  0
  9 11  1  0  0  0  0
  9 27  1  0  0  0  0
 10 28  1  0  0  0  0
 11 29  1  0  0  0  0
 11 30  1  0  0  0  0
 12 13  1  0  0  0  0
 12 16  2  0  0  0  0
 13 14  2  0  0  0  0
 13 15  1  0  0  0  0
M  CHG  1  15  -1
M  END
> <s_m_source_file>
AV-unprocessed.smi

> <i_m_source_file_index>
62

> <i_lp_mmshare_version>
43012

> <i_f3d_flags>
0

> <s_epik_input>
W0NIM11uMVtjSF1jKGMobjEpQyg9TylbT0hdKVtDSDJdTjJbQ0gyXVtDSDJdW0NAQEhdKFtPSF0pW0NIMl0y

> <s_epik_cmdline>
J2VwaWtfcHl0aG9uJywgJy1waCcsICc3LjAnLCAnLXRuJywgJzgnLCAnLW1hJywgJzIwMCcsICctbWV0YWxfYmluZGluZycsICctaW1hZScsICc8aW5maWxlLm1hZT4nLCAnLW9tYWUnLCAnPG91dGZpbGUubWFlPic=

> <r_epik_Ionization_Penalty>
1.46526

> <r_epik_Ionization_Penalty_Charging>
0.000523675

> <r_epik_Ionization_Penalty_Neutral>
1.46474

> <r_epik_State_Penalty>
1.55202

> <r_epik_Charging_Adjusted_Penalty>
1.55254

> <i_epik_Tot_Q>
-1

> <i_epik_Tot_abs_Q>
1

> <r_epik_Metal_State_Penalty>
1.552

> <b_epik_Metal_Only>
0

> <s_lp_Force_Field>
OPLS_2005

> <r_lp_Energy>
37.4644

> <b_lp_Chiralities_Consistent>
1

> <s_lp_Variant>
AV-unprocessed.smi:62-5

> <Gold.Version>
5.8.1

> <Gold.Id.Protein>
6NUR|6NUR_protein|mol2

> <Gold.PLP.Fitness>
46.1423

> <Gold.PLP.PLP>
-32.7883

> <Gold.PLP.part.hbond>
-2.9445

> <Gold.PLP.part.metal>
0.0000

> <Gold.PLP.part.buried>
-2.8144

> <Gold.PLP.part.nonpolar>
-27.0955

> <Gold.PLP.part.repulsive>
0.2638

> <Gold.PLP.ligand.clash>
0.0000

> <Gold.PLP.ligand.torsion>
0.1985

> <Gold.PLP.Chemscore.Hbond>
3.5814

> <Gold.PLP.Chemscore.CHOScore>
1.0000

> <Gold.PLP.Chemscore.Metal>
0.0000

> <Gold.Chemscore.Hbonds>
donor molecule, donor type, donor heavy atom, donor atom, acceptor molecule, acceptor atom, score
      P1  H  7989  7998       L1    16  0.03
      P1  H  7997  8010       L1    15  2.00
      P1  H 10752 10765       L1    14  1.73
      L1  C     3    20       P1  8028  1.00

> <Gold.PLP.Chemscore.Internal.Correction>
0.0068

> <Gold.Rescore>
     Score         DG    S(hbond)    S(metal)    S(lipo)     H(rot)  DE(clash)    DE(int)     intcor
     13.43     -15.67       1.84        0.00      73.14       1.77       0.88       1.36       ----

> <Gold.Chemscore.Fitness>
13.4338

> <Gold.Chemscore.DG>
-15.6676

> <Gold.Chemscore.ZeroCoef>
-5.4800

> <Gold.Chemscore.Hbond>
1.8428

> <Gold.Chemscore.Metal>
0.0000

> <Gold.Chemscore.Lipo>
73.1370

> <Gold.Chemscore.Internal_Hbond>
0.0000

> <Gold.Chemscore.DEClash>
0.8787

> <Gold.Chemscore.DEInternal>
1.3552

> <Gold.Chemscore.Rot>
1.7674

> <Gold.Chemscore.Internal.Correction>
   9.000000E+99

> <Gold.Chemscore.Hbonds>
donor molecule, donor type, donor heavy atom, donor atom, acceptor molecule, acceptor atom, score
      P1  H  7997  8010       L1    15  0.97
      P1  H 10752 10765       L1    14  0.79

> <Gold.Chemscore.Hbond.Weighted>
-6.1551

> <Gold.Chemscore.Metal.Weighted>
-0.0000

> <Gold.Chemscore.Lipo.Weighted>
-8.5570

> <Gold.Chemscore.Internal_Hbond.Weighted>
0.0000

> <Gold.Chemscore.DEClash.Weighted>
0.8787

> <Gold.Chemscore.DEInternal.Weighted>
1.3552

> <Gold.Chemscore.Rot.Weighted>
4.5245

> <Gold.Chemscore.Internal.Correction.Weighted>
   9.000000E+99

> <Gold.Protein.RotatedTorsions>
[ 6907 6896 6895 6894 ] final  -46.49 input  -60.11 | X-H torsion
[ 7974 7965 7964 7962 ] final  -34.88 input  175.53 | X-H torsion
[ 8008 7997 7996 7995 ] final   64.05 input   59.86 | X-H torsion
[ 10167 10162 10161 10158 ] final  -25.61 input  -65.29 | X-H torsion
[ 10718 10713 10712 10709 ] final  -34.89 input   66.30 | X-H torsion
[ 10763 10752 10751 10750 ] final  171.56 input  -60.55 | X-H torsion
[ 11005 11000 10999 10996 ] final  -60.90 input  -57.11 | X-H torsion

> <Gold.Protein.ActiveResidues>
 VAL166  LYS551  ARG553  GLY616  TRP617  ASP618  TYR619  PRO620  LYS621  CYS622 
 ASP623  PHE694  ASN695  SER759  ASP760  ASP761  ALA762  ILE779  LEU786  VAL792 
 PHE793  MET794  SER795  GLU796  ALA797  LYS798  CYS799  TRP800  GLU811  SER814 

> <Gold.Protein.RotatedAtoms>
  150.9107  134.8523  159.7422 H   0  0  0  0  0  0  0  0  0  0  0  0  # atno 6907 bound_to 6896
  152.4942  134.4364  159.9539 H   0  0  0  0  0  0  0  0  0  0  0  0  # atno 6908 bound_to 6896
  151.4406  133.3605  159.2816 H   0  0  0  0  0  0  0  0  0  0  0  0  # atno 6909 bound_to 6896
  146.0793  140.6092  142.8916 H   0  0  0  0  0  0  0  0  0  0  0  0  # atno 7974 bound_to 7965
  155.6400  140.3497  155.4711 H   0  0  0  0  0  0  0  0  0  0  0  0  # atno 8008 bound_to 7997
  155.9934  140.1198  157.0640 H   0  0  0  0  0  0  0  0  0  0  0  0  # atno 8009 bound_to 7997
  154.4226  140.1115  156.5583 H   0  0  0  0  0  0  0  0  0  0  0  0  # atno 8010 bound_to 7997
  140.7286  143.4250  151.0891 H   0  0  0  0  0  0  0  0  0  0  0  0  # atno 10167 bound_to 10162
  156.3451  130.4299  149.7753 H   0  0  0  0  0  0  0  0  0  0  0  0  # atno 10718 bound_to 10713
  154.4136  135.2756  155.2021 H   0  0  0  0  0  0  0  0  0  0  0  0  # atno 10763 bound_to 10752
  154.3996  135.6047  153.5893 H   0  0  0  0  0  0  0  0  0  0  0  0  # atno 10764 bound_to 10752
  152.9831  135.5923  154.4422 H   0  0  0  0  0  0  0  0  0  0  0  0  # atno 10765 bound_to 10752
  141.1304  133.6625  156.5293 H   0  0  0  0  0  0  0  0  0  0  0  0  # atno 11005 bound_to 11000
  144.7282  140.4591  143.6957 LP  0  0  0  0  0  0  0  0  0  0  0  0  # atno 17320 bound_to 7965
  145.6248  139.1528  143.3002 LP  0  0  0  0  0  0  0  0  0  0  0  0  # atno 17321 bound_to 7965
  139.7900  143.8232  152.3150 LP  0  0  0  0  0  0  0  0  0  0  0  0  # atno 17342 bound_to 10162
  139.8212  144.7295  150.9570 LP  0  0  0  0  0  0  0  0  0  0  0  0  # atno 17343 bound_to 10162
  156.4974  130.8113  151.3119 LP  0  0  0  0  0  0  0  0  0  0  0  0  # atno 17370 bound_to 10713
  157.7453  130.9956  150.2748 LP  0  0  0  0  0  0  0  0  0  0  0  0  # atno 17371 bound_to 10713
  140.4229  134.7171  157.4900 LP  0  0  0  0  0  0  0  0  0  0  0  0  # atno 17394 bound_to 11000
  140.0347  134.6354  155.9059 LP  0  0  0  0  0  0  0  0  0  0  0  0  # atno 17395 bound_to 11000

$$$$
