AV-unprocessed.smi:703|AV-procd|sdf|3428|dock9
  -GOLD-   22720 0413D 1   1.00000     0.00000
 Structure written by MMmdl.
 38 39  0  0  0  0  0  0  0  0  2 V2000
  151.9230  144.3995  157.4059 C   0  0  0  0  0  0  0  0  0  0  0  0
  151.1170  143.3114  158.1280 C   0  0  0  0  0  0  0  0  0  0  0  0
  150.1356  142.6533  157.2337 N   0  3  1  0  0  0  0  0  0  0  0  0
  150.7080  141.6692  156.2912 C   0  0  0  0  0  0  0  0  0  0  0  0
  149.5661  140.7111  155.9414 C   0  0  2  0  0  0  0  0  0  0  0  0
  148.7306  141.2252  154.7572 C   0  0  0  0  0  0  0  0  0  0  0  0
  148.7545  140.6496  157.2424 C   0  0  1  0  0  0  0  0  0  0  0  0
  149.2249  139.5343  158.0707 N   0  0  0  0  0  0  0  0  0  0  0  0
  148.2782  138.0921  158.1100 S   0  0  0  0  0  0  0  0  0  0  0  0
  146.9919  138.4170  158.7458 O   0  0  0  0  0  0  0  0  0  0  0  0
  148.3028  137.5148  156.7578 O   0  0  0  0  0  0  0  0  0  0  0  0
  149.2395  137.0095  159.2490 C   0  0  0  0  0  0  0  0  0  0  0  0
  148.3142  136.4116  160.2692 C   0  0  0  0  0  0  0  0  0  0  0  0
  147.9852  135.0425  160.4688 C   0  0  0  0  0  0  0  0  0  0  0  0
  147.1138  135.0744  161.5190 C   0  0  0  0  0  0  0  0  0  0  0  0
  146.9149  136.3511  161.9328 O   0  0  0  0  0  0  0  0  0  0  0  0
  147.6844  137.1981  161.1271 N   0  0  0  0  0  0  0  0  0  0  0  0
  149.0123  141.9974  157.9418 C   0  0  0  0  0  0  0  0  0  0  0  0
  152.5945  144.9048  158.1004 H   0  0  0  0  0  0  0  0  0  0  0  0
  151.2664  145.1546  156.9726 H   0  0  0  0  0  0  0  0  0  0  0  0
  152.5344  143.9840  156.6046 H   0  0  0  0  0  0  0  0  0  0  0  0
  151.7860  142.5660  158.5608 H   0  0  0  0  0  0  0  0  0  0  0  0
  150.5786  143.7701  158.9584 H   0  0  0  0  0  0  0  0  0  0  0  0
  151.1412  142.1523  155.4146 H   0  0  0  0  0  0  0  0  0  0  0  0
  151.5037  141.1117  156.7883 H   0  0  0  0  0  0  0  0  0  0  0  0
  149.9619  139.7313  155.6690 H   0  0  0  0  0  0  0  0  0  0  0  0
  148.3051  142.2084  154.9611 H   0  0  0  0  0  0  0  0  0  0  0  0
  147.9058  140.5464  154.5382 H   0  0  0  0  0  0  0  0  0  0  0  0
  149.3371  141.3054  153.8546 H   0  0  0  0  0  0  0  0  0  0  0  0
  147.6928  140.5026  157.0379 H   0  0  0  0  0  0  0  0  0  0  0  0
  150.2014  139.3184  157.8697 H   0  0  0  0  0  0  0  0  0  0  0  0
  149.7360  136.2389  158.6587 H   0  0  0  0  0  0  0  0  0  0  0  0
  150.0105  137.6117  159.7287 H   0  0  0  0  0  0  0  0  0  0  0  0
  148.3364  134.1747  159.9307 H   0  0  0  0  0  0  0  0  0  0  0  0
  146.5754  134.3107  162.0604 H   0  0  0  0  0  0  0  0  0  0  0  0
  149.2313  141.8661  159.0029 H   0  0  0  0  0  0  0  0  0  0  0  0
  148.1363  142.6430  157.8730 H   0  0  0  0  0  0  0  0  0  0  0  0
  149.7147  143.3763  156.6673 H   0  0  0  0  0  0  0  0  0  0  0  0
  1  2  1  0  0  0  0
  1 19  1  0  0  0  0
  1 20  1  0  0  0  0
  1 21  1  0  0  0  0
  2  3  1  0  0  0  0
  2 22  1  0  0  0  0
  2 23  1  0  0  0  0
  3 18  1  0  0  0  0
  3  4  1  0  0  0  0
  3 38  1  0  0  0  0
  4  5  1  0  0  0  0
  4 24  1  0  0  0  0
  4 25  1  0  0  0  0
  5  6  1  0  0  0  0
  5  7  1  0  0  0  0
  5 26  1  0  0  0  0
  6 27  1  0  0  0  0
  6 28  1  0  0  0  0
  6 29  1  0  0  0  0
  7  8  1  0  0  0  0
  7 18  1  0  0  0  0
  7 30  1  0  0  0  0
  8  9  1  0  0  0  0
  8 31  1  0  0  0  0
  9 10  2  0  0  0  0
  9 11  2  0  0  0  0
  9 12  1  0  0  0  0
 12 13  1  0  0  0  0
 12 32  1  0  0  0  0
 12 33  1  0  0  0  0
 13 17  2  0  0  0  0
 13 14  1  0  0  0  0
 14 15  2  0  0  0  0
 14 34  1  0  0  0  0
 15 16  1  0  0  0  0
 15 35  1  0  0  0  0
 16 17  1  0  0  0  0
 18 36  1  0  0  0  0
 18 37  1  0  0  0  0
M  CHG  1   3   1
M  END
> <s_m_source_file>
AV-unprocessed.smi

> <i_m_source_file_index>
703

> <i_lp_mmshare_version>
43012

> <i_f3d_flags>
0

> <s_epik_input>
W0NIM11bQ0gyXU4xW0NIMl1bQ0BASF0oW0NIM10pW0NASF0oW0NIMl0xKVtOSF1TKD1PKSg9TylbQ0gyXWMyW2NIXVtjSF1vbjI=

> <s_epik_cmdline>
J2VwaWtfcHl0aG9uJywgJy1waCcsICc3LjAnLCAnLXRuJywgJzgnLCAnLW1hJywgJzIwMCcsICctbWV0YWxfYmluZGluZycsICctaW1hZScsICc8aW5maWxlLm1hZT4nLCAnLW9tYWUnLCAnPG91dGZpbGUubWFlPic=

> <r_epik_Ionization_Penalty>
0.00324529

> <r_epik_Ionization_Penalty_Charging>
0.0019384

> <r_epik_Ionization_Penalty_Neutral>
0.00130689

> <r_epik_State_Penalty>
0.00218682

> <r_epik_Charging_Adjusted_Penalty>
0.00412522

> <i_epik_Tot_Q>
1

> <i_epik_Tot_abs_Q>
1

> <r_epik_Metal_State_Penalty>
0.310831

> <b_epik_Metal_Only>
0

> <s_lp_Force_Field>
OPLS_2005

> <r_lp_Energy>
19.6453

> <b_lp_Chiralities_Consistent>
1

> <s_lp_Variant>
AV-unprocessed.smi:703-3

> <Gold.Version>
5.8.1

> <Gold.Id.Protein>
6NUR|6NUR_protein|mol2

> <Gold.PLP.Fitness>
39.6440

> <Gold.PLP.PLP>
-30.0396

> <Gold.PLP.part.hbond>
-4.0000

> <Gold.PLP.part.metal>
0.0000

> <Gold.PLP.part.buried>
-5.1706

> <Gold.PLP.part.nonpolar>
-20.4801

> <Gold.PLP.part.repulsive>
0.0135

> <Gold.PLP.ligand.clash>
0.0000

> <Gold.PLP.ligand.torsion>
0.9940

> <Gold.PLP.Chemscore.Hbond>
3.8080

> <Gold.PLP.Chemscore.CHOScore>
0.0000

> <Gold.PLP.Chemscore.Metal>
0.0000

> <Gold.Chemscore.Hbonds>
donor molecule, donor type, donor heavy atom, donor atom, acceptor molecule, acceptor atom, score
      L1  H     3    38       P1  8028  2.00
      P1  H  6931  6943       L1    17  0.93
      P1  H  6934  6947       L1    17  0.88

> <Gold.PLP.Chemscore.Internal.Correction>
0.1684

> <Gold.Rescore>
     Score         DG    S(hbond)    S(metal)    S(lipo)     H(rot)  DE(clash)    DE(int)     intcor
     15.23     -17.59       2.56        0.00      72.78       1.94       0.05       2.30       ----

> <Gold.Chemscore.Fitness>
15.2323

> <Gold.Chemscore.DG>
-17.5893

> <Gold.Chemscore.ZeroCoef>
-5.4800

> <Gold.Chemscore.Hbond>
2.5629

> <Gold.Chemscore.Metal>
0.0000

> <Gold.Chemscore.Lipo>
72.7830

> <Gold.Chemscore.Internal_Hbond>
0.0000

> <Gold.Chemscore.DEClash>
0.0525

> <Gold.Chemscore.DEInternal>
2.3045

> <Gold.Chemscore.Rot>
1.9400

> <Gold.Chemscore.Internal.Correction>
   9.000000E+99

> <Gold.Chemscore.Hbonds>
donor molecule, donor type, donor heavy atom, donor atom, acceptor molecule, acceptor atom, score
      L1  H     3    38       P1  8028  1.00
      P1  H  6931  6943       L1    17  0.44
      P1  H  6934  6947       L1    17  0.84

> <Gold.Chemscore.Hbond.Weighted>
-8.5602

> <Gold.Chemscore.Metal.Weighted>
-0.0000

> <Gold.Chemscore.Lipo.Weighted>
-8.5156

> <Gold.Chemscore.Internal_Hbond.Weighted>
0.0000

> <Gold.Chemscore.DEClash.Weighted>
0.0525

> <Gold.Chemscore.DEInternal.Weighted>
2.3045

> <Gold.Chemscore.Rot.Weighted>
4.9665

> <Gold.Chemscore.Internal.Correction.Weighted>
   9.000000E+99

> <Gold.Protein.RotatedTorsions>
[ 6907 6896 6895 6894 ] final   41.66 input  -60.11 | X-H torsion
[ 7974 7965 7964 7962 ] final  148.78 input  175.53 | X-H torsion
[ 8008 7997 7996 7995 ] final -153.36 input   59.86 | X-H torsion
[ 10167 10162 10161 10158 ] final  117.86 input  -65.29 | X-H torsion
[ 10718 10713 10712 10709 ] final  -36.67 input   66.30 | X-H torsion
[ 10763 10752 10751 10750 ] final -104.38 input  -60.55 | X-H torsion
[ 11005 11000 10999 10996 ] final  136.69 input  -57.11 | X-H torsion

> <Gold.Protein.ActiveResidues>
 VAL166  LYS551  ARG553  GLY616  TRP617  ASP618  TYR619  PRO620  LYS621  CYS622 
 ASP623  PHE694  ASN695  SER759  ASP760  ASP761  ALA762  ILE779  LEU786  VAL792 
 PHE793  MET794  SER795  GLU796  ALA797  LYS798  CYS799  TRP800  GLU811  SER814 

> <Gold.Protein.RotatedAtoms>
  152.1980  134.8613  160.0510 H   0  0  0  0  0  0  0  0  0  0  0  0  # atno 6907 bound_to 6896
  151.9477  133.3651  159.3996 H   0  0  0  0  0  0  0  0  0  0  0  0  # atno 6908 bound_to 6896
  150.6949  134.4297  159.5286 H   0  0  0  0  0  0  0  0  0  0  0  0  # atno 6909 bound_to 6896
  144.8487  139.6197  143.5983 H   0  0  0  0  0  0  0  0  0  0  0  0  # atno 7974 bound_to 7965
  155.6696  140.0732  157.2524 H   0  0  0  0  0  0  0  0  0  0  0  0  # atno 8008 bound_to 7997
  154.4126  140.1701  156.1916 H   0  0  0  0  0  0  0  0  0  0  0  0  # atno 8009 bound_to 7997
  155.9627  140.3368  155.6508 H   0  0  0  0  0  0  0  0  0  0  0  0  # atno 8010 bound_to 7997
  139.6150  144.7090  151.2759 H   0  0  0  0  0  0  0  0  0  0  0  0  # atno 10167 bound_to 10162
  156.3241  130.4270  149.7932 H   0  0  0  0  0  0  0  0  0  0  0  0  # atno 10718 bound_to 10713
  154.7874  135.4788  153.9976 H   0  0  0  0  0  0  0  0  0  0  0  0  # atno 10763 bound_to 10752
  153.1580  135.6803  153.8791 H   0  0  0  0  0  0  0  0  0  0  0  0  # atno 10764 bound_to 10752
  153.8414  135.3179  155.3404 H   0  0  0  0  0  0  0  0  0  0  0  0  # atno 10765 bound_to 10752
  140.0063  134.9457  157.0183 H   0  0  0  0  0  0  0  0  0  0  0  0  # atno 11005 bound_to 11000
  146.2767  139.6770  142.9258 LP  0  0  0  0  0  0  0  0  0  0  0  0  # atno 17320 bound_to 7965
  145.4543  141.0430  143.2787 LP  0  0  0  0  0  0  0  0  0  0  0  0  # atno 17321 bound_to 7965
  140.7345  143.6764  150.8038 LP  0  0  0  0  0  0  0  0  0  0  0  0  # atno 17342 bound_to 10162
  140.0365  143.5389  152.2737 LP  0  0  0  0  0  0  0  0  0  0  0  0  # atno 17343 bound_to 10162
  156.5229  130.8223  151.3210 LP  0  0  0  0  0  0  0  0  0  0  0  0  # atno 17370 bound_to 10713
  157.7418  130.9877  150.2469 LP  0  0  0  0  0  0  0  0  0  0  0  0  # atno 17371 bound_to 10713
  140.4635  134.1460  155.7194 LP  0  0  0  0  0  0  0  0  0  0  0  0  # atno 17394 bound_to 11000
  141.1679  133.8666  157.1659 LP  0  0  0  0  0  0  0  0  0  0  0  0  # atno 17395 bound_to 11000

$$$$
