AV-unprocessed.smi:135|AV-procd|sdf|1169|dock7
  -GOLD-   2262018313D 1   1.00000     0.00000
 Structure written by MMmdl.
 51 54  0  0  0  0  0  0  0  0  1 V2000
  154.6745  138.0257  160.6408 O   0  0  0  0  0  0  0  0  0  0  0  0
  155.6243  138.5134  160.0268 C   0  0  0  0  0  0  0  0  0  0  0  0
  156.1197  139.9310  160.3507 C   0  0  0  0  0  0  0  0  0  0  0  0
  155.0532  140.8277  160.8463 N   0  0  0  0  0  0  0  0  0  0  0  0
  155.1114  141.2662  162.1921 C   0  0  0  0  0  0  0  0  0  0  0  0
  156.0289  140.9199  162.9375 O   0  0  0  0  0  0  0  0  0  0  0  0
  154.0196  142.1336  162.6192 C   0  0  0  0  0  0  0  0  0  0  0  0
  153.9907  142.5932  163.8817 F   0  0  0  0  0  0  0  0  0  0  0  0
  153.0334  142.4818  161.7673 C   0  0  0  0  0  0  0  0  0  0  0  0
  152.9919  142.0512  160.4525 N   0  0  0  0  0  0  0  0  0  0  0  0
  151.8592  142.4250  159.5173 C   0  0  2  0  0  0  0  0  0  0  0  0
  152.3902  143.1966  158.2916 C   0  0  0  0  0  0  0  0  0  0  0  0
  151.5568  144.4634  158.2997 C   0  0  0  0  0  0  0  0  0  0  0  0
  151.2269  144.6174  159.7762 C   0  0  0  0  0  0  0  0  0  0  0  0
  150.9637  143.2783  160.1717 O   0  0  0  0  0  0  0  0  0  0  0  0
  154.0027  141.1907  159.9704 C   0  0  0  0  0  0  0  0  0  0  0  0
  153.9644  140.7650  158.8140 O   0  0  0  0  0  0  0  0  0  0  0  0
  156.2987  137.8820  159.0506 N   0  0  0  0  0  0  0  0  0  0  0  0
  156.0955  136.5636  158.5637 C   0  0  0  0  0  0  0  0  0  0  0  0
  155.1254  135.6965  159.1209 C   0  0  0  0  0  0  0  0  0  0  0  0
  154.9269  134.4117  158.5807 C   0  0  0  0  0  0  0  0  0  0  0  0
  155.6842  133.9877  157.4733 C   0  0  0  0  0  0  0  0  0  0  0  0
  156.6406  134.8499  156.9055 C   0  0  0  0  0  0  0  0  0  0  0  0
  156.8537  136.1340  157.4479 C   0  0  0  0  0  0  0  0  0  0  0  0
  157.7944  136.9515  156.8721 O   0  0  0  0  0  0  0  0  0  0  0  0
  157.5917  137.3197  155.5653 C   0  0  0  0  0  0  0  0  0  0  0  0
  156.4195  138.0013  155.1697 C   0  0  0  0  0  0  0  0  0  0  0  0
  156.2333  138.3663  153.8221 C   0  0  0  0  0  0  0  0  0  0  0  0
  157.2189  138.0567  152.8653 C   0  0  0  0  0  0  0  0  0  0  0  0
  158.3936  137.3867  153.2575 C   0  0  0  0  0  0  0  0  0  0  0  0
  158.5803  137.0227  154.6050 C   0  0  0  0  0  0  0  0  0  0  0  0
  156.9334  139.8684  161.0756 H   0  0  0  0  0  0  0  0  0  0  0  0
  156.5956  140.3368  159.4567 H   0  0  0  0  0  0  0  0  0  0  0  0
  152.2529  143.1210  162.1507 H   0  0  0  0  0  0  0  0  0  0  0  0
  151.3625  141.4840  159.2742 H   0  0  0  0  0  0  0  0  0  0  0  0
  153.4471  143.4354  158.4191 H   0  0  0  0  0  0  0  0  0  0  0  0
  152.2667  142.6114  157.3802 H   0  0  0  0  0  0  0  0  0  0  0  0
  152.0830  145.3244  157.8871 H   0  0  0  0  0  0  0  0  0  0  0  0
  150.6407  144.3136  157.7267 H   0  0  0  0  0  0  0  0  0  0  0  0
  152.0811  145.0136  160.3269 H   0  0  0  0  0  0  0  0  0  0  0  0
  150.3690  145.2660  159.9534 H   0  0  0  0  0  0  0  0  0  0  0  0
  157.1206  138.3530  158.7016 H   0  0  0  0  0  0  0  0  0  0  0  0
  154.5134  136.0084  159.9538 H   0  0  0  0  0  0  0  0  0  0  0  0
  154.1857  133.7547  159.0112 H   0  0  0  0  0  0  0  0  0  0  0  0
  155.5279  133.0039  157.0562 H   0  0  0  0  0  0  0  0  0  0  0  0
  157.2179  134.5238  156.0530 H   0  0  0  0  0  0  0  0  0  0  0  0
  155.6592  138.2439  155.8971 H   0  0  0  0  0  0  0  0  0  0  0  0
  155.3339  138.8836  153.5224 H   0  0  0  0  0  0  0  0  0  0  0  0
  157.0748  138.3347  151.8316 H   0  0  0  0  0  0  0  0  0  0  0  0
  159.1504  137.1495  152.5245 H   0  0  0  0  0  0  0  0  0  0  0  0
  159.4816  136.5062  154.9005 H   0  0  0  0  0  0  0  0  0  0  0  0
  1  2  2  0  0  0  0
  2  3  1  0  0  0  0
  2 18  1  0  0  0  0
  3  4  1  0  0  0  0
  3 32  1  0  0  0  0
  3 33  1  0  0  0  0
  4 16  1  0  0  0  0
  4  5  1  0  0  0  0
  5  6  2  0  0  0  0
  5  7  1  0  0  0  0
  7  8  1  0  0  0  0
  7  9  2  0  0  0  0
  9 10  1  0  0  0  0
  9 34  1  0  0  0  0
 10 11  1  0  0  0  0
 10 16  1  0  0  0  0
 11 15  1  0  0  0  0
 11 12  1  0  0  0  0
 11 35  1  0  0  0  0
 12 13  1  0  0  0  0
 12 36  1  0  0  0  0
 12 37  1  0  0  0  0
 13 14  1  0  0  0  0
 13 38  1  0  0  0  0
 13 39  1  0  0  0  0
 14 15  1  0  0  0  0
 14 40  1  0  0  0  0
 14 41  1  0  0  0  0
 16 17  2  0  0  0  0
 18 19  1  0  0  0  0
 18 42  1  0  0  0  0
 19 24  1  0  0  0  0
 19 20  2  0  0  0  0
 20 21  1  0  0  0  0
 20 43  1  0  0  0  0
 21 22  2  0  0  0  0
 21 44  1  0  0  0  0
 22 23  1  0  0  0  0
 22 45  1  0  0  0  0
 23 24  2  0  0  0  0
 23 46  1  0  0  0  0
 24 25  1  0  0  0  0
 25 26  1  0  0  0  0
 26 31  1  0  0  0  0
 26 27  2  0  0  0  0
 27 28  1  0  0  0  0
 27 47  1  0  0  0  0
 28 29  2  0  0  0  0
 28 48  1  0  0  0  0
 29 30  1  0  0  0  0
 29 49  1  0  0  0  0
 30 31  2  0  0  0  0
 30 50  1  0  0  0  0
 31 51  1  0  0  0  0
M  END
> <s_m_source_file>
AV-unprocessed.smi

> <i_m_source_file_index>
135

> <i_lp_mmshare_version>
43012

> <i_f3d_flags>
0

> <s_epik_input>
TzFbQ0gyXVtDSDJdW0NIMl1bQ0BIXTFuKGMyPU8pW2NIXWMoRiljKD1PKW4yW0NIMl1DKD1PKVtOSF1jM1tjSF1bY0hdW2NIXVtjSF1jM09jNFtjSF1bY0hdW2NIXVtjSF1bY0hdNA==

> <s_epik_cmdline>
J2VwaWtfcHl0aG9uJywgJy1waCcsICc3LjAnLCAnLXRuJywgJzgnLCAnLW1hJywgJzIwMCcsICctbWV0YWxfYmluZGluZycsICctaW1hZScsICc8aW5maWxlLm1hZT4nLCAnLW9tYWUnLCAnPG91dGZpbGUubWFlPic=

> <r_lp_tautomer_probability>
1

> <r_epik_Ionization_Penalty>
1.89877e-06

> <r_epik_Ionization_Penalty_Charging>
3.88729e-08

> <r_epik_Ionization_Penalty_Neutral>
1.8599e-06

> <r_epik_State_Penalty>
-0

> <r_epik_Charging_Adjusted_Penalty>
3.88729e-08

> <i_epik_Tot_Q>
0

> <i_epik_Tot_abs_Q>
0

> <r_epik_Metal_State_Penalty>
-0

> <b_epik_Metal_Only>
0

> <s_epik_Chemistry_Notes>
This compound contains an acetal/aminal-like group ( X-CH(R)-Y where X, Y are N, S, or O) that may be acid/base labile, releasing an aldehyde.

> <s_lp_Force_Field>
OPLS_2005

> <r_lp_Energy>
40.0565

> <b_lp_Chiralities_Consistent>
1

> <s_lp_Variant>
AV-unprocessed.smi:135-1

> <Gold.Version>
5.8.1

> <Gold.Id.Protein>
6NUR|6NUR_protein|mol2

> <Gold.PLP.Fitness>
51.5696

> <Gold.PLP.PLP>
-50.5307

> <Gold.PLP.part.hbond>
-2.9198

> <Gold.PLP.part.metal>
0.0000

> <Gold.PLP.part.buried>
4.7109

> <Gold.PLP.part.nonpolar>
-52.2538

> <Gold.PLP.part.repulsive>
0.2159

> <Gold.PLP.ligand.clash>
0.0000

> <Gold.PLP.ligand.torsion>
0.4407

> <Gold.PLP.Chemscore.Hbond>
0.6240

> <Gold.PLP.Chemscore.CHOScore>
0.0000

> <Gold.PLP.Chemscore.Metal>
0.0000

> <Gold.Chemscore.Hbonds>
donor molecule, donor type, donor heavy atom, donor atom, acceptor molecule, acceptor atom, score
      P1  H  7997  8008       L1    17  0.61

> <Gold.PLP.Chemscore.Internal.Correction>
0.0483

> <Gold.Rescore>
     Score         DG    S(hbond)    S(metal)    S(lipo)     H(rot)  DE(clash)    DE(int)     intcor
     13.35     -18.23       0.92        0.00     127.30       2.04       0.78       4.11       ----

> <Gold.Chemscore.Fitness>
13.3457

> <Gold.Chemscore.DG>
-18.2297

> <Gold.Chemscore.ZeroCoef>
-5.4800

> <Gold.Chemscore.Hbond>
0.9198

> <Gold.Chemscore.Metal>
0.0000

> <Gold.Chemscore.Lipo>
127.3008

> <Gold.Chemscore.Internal_Hbond>
0.0000

> <Gold.Chemscore.DEClash>
0.7772

> <Gold.Chemscore.DEInternal>
4.1068

> <Gold.Chemscore.Rot>
2.0377

> <Gold.Chemscore.Internal.Correction>
   9.000000E+99

> <Gold.Chemscore.Hbonds>
donor molecule, donor type, donor heavy atom, donor atom, acceptor molecule, acceptor atom, score
      P1  H  7997  8008       L1    17  0.60

> <Gold.Chemscore.Hbond.Weighted>
-3.0720

> <Gold.Chemscore.Metal.Weighted>
-0.0000

> <Gold.Chemscore.Lipo.Weighted>
-14.8942

> <Gold.Chemscore.Internal_Hbond.Weighted>
0.0000

> <Gold.Chemscore.DEClash.Weighted>
0.7772

> <Gold.Chemscore.DEInternal.Weighted>
4.1068

> <Gold.Chemscore.Rot.Weighted>
5.2165

> <Gold.Chemscore.Internal.Correction.Weighted>
   9.000000E+99

> <Gold.Protein.RotatedTorsions>
[ 6907 6896 6895 6894 ] final   52.94 input  -60.11 | X-H torsion
[ 7974 7965 7964 7962 ] final   77.84 input  175.53 | X-H torsion
[ 8008 7997 7996 7995 ] final -100.53 input   59.86 | X-H torsion
[ 10167 10162 10161 10158 ] final   64.79 input  -65.29 | X-H torsion
[ 10718 10713 10712 10709 ] final  100.71 input   66.30 | X-H torsion
[ 10763 10752 10751 10750 ] final   35.51 input  -60.55 | X-H torsion
[ 11005 11000 10999 10996 ] final  -50.36 input  -57.11 | X-H torsion

> <Gold.Protein.ActiveResidues>
 VAL166  LYS551  ARG553  GLY616  TRP617  ASP618  TYR619  PRO620  LYS621  CYS622 
 ASP623  PHE694  ASN695  SER759  ASP760  ASP761  ALA762  ILE779  LEU786  VAL792 
 PHE793  MET794  SER795  GLU796  ALA797  LYS798  CYS799  TRP800  GLU811  SER814 

> <Gold.Protein.RotatedAtoms>
  152.3285  134.7289  160.0295 H   0  0  0  0  0  0  0  0  0  0  0  0  # atno 6907 bound_to 6896
  151.7714  133.3336  159.3453 H   0  0  0  0  0  0  0  0  0  0  0  0  # atno 6908 bound_to 6896
  150.7410  134.5947  159.6050 H   0  0  0  0  0  0  0  0  0  0  0  0  # atno 6909 bound_to 6896
  145.6848  139.2534  143.1793 H   0  0  0  0  0  0  0  0  0  0  0  0  # atno 7974 bound_to 7965
  154.8298  140.0440  157.1469 H   0  0  0  0  0  0  0  0  0  0  0  0  # atno 8008 bound_to 7997
  154.9165  140.3021  155.5218 H   0  0  0  0  0  0  0  0  0  0  0  0  # atno 8009 bound_to 7997
  156.2986  140.2348  156.4210 H   0  0  0  0  0  0  0  0  0  0  0  0  # atno 8010 bound_to 7997
  140.1183  144.4754  150.6935 H   0  0  0  0  0  0  0  0  0  0  0  0  # atno 10167 bound_to 10162
  157.6847  131.0706  150.5141 H   0  0  0  0  0  0  0  0  0  0  0  0  # atno 10718 bound_to 10713
  153.0116  135.6331  154.1839 H   0  0  0  0  0  0  0  0  0  0  0  0  # atno 10763 bound_to 10752
  154.1580  135.2825  155.3118 H   0  0  0  0  0  0  0  0  0  0  0  0  # atno 10764 bound_to 10752
  154.6003  135.5589  153.7428 H   0  0  0  0  0  0  0  0  0  0  0  0  # atno 10765 bound_to 10752
  141.0811  133.6653  156.3719 H   0  0  0  0  0  0  0  0  0  0  0  0  # atno 11005 bound_to 11000
  146.0933  140.7630  142.9585 LP  0  0  0  0  0  0  0  0  0  0  0  0  # atno 17320 bound_to 7965
  144.7015  140.3671  143.7152 LP  0  0  0  0  0  0  0  0  0  0  0  0  # atno 17321 bound_to 7965
  140.6886  143.2363  151.5192 LP  0  0  0  0  0  0  0  0  0  0  0  0  # atno 17342 bound_to 10162
  139.5582  144.2222  152.1647 LP  0  0  0  0  0  0  0  0  0  0  0  0  # atno 17343 bound_to 10162
  156.5457  130.4219  149.6132 LP  0  0  0  0  0  0  0  0  0  0  0  0  # atno 17370 bound_to 10713
  156.2946  130.7143  151.2000 LP  0  0  0  0  0  0  0  0  0  0  0  0  # atno 17371 bound_to 10713
  140.5465  134.6069  157.5395 LP  0  0  0  0  0  0  0  0  0  0  0  0  # atno 17394 bound_to 11000
  139.9625  134.7428  156.0206 LP  0  0  0  0  0  0  0  0  0  0  0  0  # atno 17395 bound_to 11000

$$$$
