AV-unprocessed.smi:2734|AV-procd|sdf|10540|dock9
  -GOLD-   2272014583D 1   1.00000     0.00000
 Structure written by MMmdl.
 41 43  0  0  0  0  0  0  0  0  2 V2000
  152.8539  143.5029  160.1962 C   0  0  0  0  0  0  0  0  0  0  0  0
  152.3514  142.6092  159.0751 C   0  0  0  0  0  0  0  0  0  0  0  0
  151.4716  143.1603  158.1164 C   0  0  0  0  0  0  0  0  0  0  0  0
  151.0257  142.3170  157.1055 C   0  0  0  0  0  0  0  0  0  0  0  0
  150.1632  142.5528  156.0330 N   0  3  0  0  0  0  0  0  0  0  0  0
  150.0174  141.4100  155.3071 C   0  0  0  0  0  0  0  0  0  0  0  0
  150.7741  140.4473  155.8999 N   0  0  0  0  0  0  0  0  0  0  0  0
  150.9597  139.0392  155.5212 C   0  0  0  0  0  0  0  0  0  0  0  0
  149.7064  138.4182  154.8709 C   0  0  1  0  0  0  0  0  0  0  0  0
  149.8781  138.4726  153.4699 O   0  0  0  0  0  0  0  0  0  0  0  0
  149.4384  136.9629  155.2961 C   0  0  0  0  0  0  0  0  0  0  0  0
  150.7206  135.8169  154.7069 S   0  0  0  0  0  0  0  0  0  0  0  0
  150.5597  134.5481  155.9261 C   0  0  0  0  0  0  0  0  0  0  0  0
  150.8484  134.6512  157.2190 N   0  0  0  0  0  0  0  0  0  0  0  0
  150.5488  133.4028  157.7294 N   0  0  0  0  0  0  0  0  0  0  0  0
  150.1100  132.6060  156.7988 N   0  0  0  0  0  0  0  0  0  0  0  0
  150.1106  133.3185  155.6459 N   0  0  0  0  0  0  0  0  0  0  0  0
  149.6727  132.7253  154.3980 C   0  0  0  0  0  0  0  0  0  0  0  0
  151.4267  140.9693  157.0241 C   0  0  0  0  0  0  0  0  0  0  0  0
  152.2966  140.4121  157.9591 C   0  0  0  0  0  0  0  0  0  0  0  0
  152.7602  141.2528  158.9958 C   0  0  0  0  0  0  0  0  0  0  0  0
  153.7076  140.6695  160.0303 C   0  0  0  0  0  0  0  0  0  0  0  0
  152.3657  144.4777  160.1780 H   0  0  0  0  0  0  0  0  0  0  0  0
  153.9281  143.6641  160.1018 H   0  0  0  0  0  0  0  0  0  0  0  0
  152.6549  143.0516  161.1684 H   0  0  0  0  0  0  0  0  0  0  0  0
  151.1567  144.1924  158.1694 H   0  0  0  0  0  0  0  0  0  0  0  0
  149.4083  141.2883  154.4229 H   0  0  0  0  0  0  0  0  0  0  0  0
  151.7962  139.0042  154.8218 H   0  0  0  0  0  0  0  0  0  0  0  0
  151.2732  138.4700  156.3965 H   0  0  0  0  0  0  0  0  0  0  0  0
  148.8383  139.0274  155.1250 H   0  0  0  0  0  0  0  0  0  0  0  0
  149.5590  137.6646  153.0970 H   0  0  0  0  0  0  0  0  0  0  0  0
  149.3657  136.8938  156.3821 H   0  0  0  0  0  0  0  0  0  0  0  0
  148.4878  136.6250  154.8845 H   0  0  0  0  0  0  0  0  0  0  0  0
  148.8107  133.2721  154.0156 H   0  0  0  0  0  0  0  0  0  0  0  0
  149.3925  131.6817  154.5466 H   0  0  0  0  0  0  0  0  0  0  0  0
  150.4797  132.7738  153.6664 H   0  0  0  0  0  0  0  0  0  0  0  0
  152.6052  139.3788  157.9058 H   0  0  0  0  0  0  0  0  0  0  0  0
  153.9920  139.6471  159.7799 H   0  0  0  0  0  0  0  0  0  0  0  0
  153.2356  140.6537  161.0129 H   0  0  0  0  0  0  0  0  0  0  0  0
  154.6210  141.2611  160.0933 H   0  0  0  0  0  0  0  0  0  0  0  0
  149.7044  143.4272  155.8119 H   0  0  0  0  0  0  0  0  0  0  0  0
  1  2  1  0  0  0  0
  1 23  1  0  0  0  0
  1 24  1  0  0  0  0
  1 25  1  0  0  0  0
  2 21  1  0  0  0  0
  2  3  2  0  0  0  0
  3  4  1  0  0  0  0
  3 26  1  0  0  0  0
  4 19  2  0  0  0  0
  4  5  1  0  0  0  0
  5  6  2  0  0  0  0
  5 41  1  0  0  0  0
  6  7  1  0  0  0  0
  6 27  1  0  0  0  0
  7  8  1  0  0  0  0
  7 19  1  0  0  0  0
  8  9  1  0  0  0  0
  8 28  1  0  0  0  0
  8 29  1  0  0  0  0
  9 10  1  0  0  0  0
  9 11  1  0  0  0  0
  9 30  1  0  0  0  0
 10 31  1  0  0  0  0
 11 12  1  0  0  0  0
 11 32  1  0  0  0  0
 11 33  1  0  0  0  0
 12 13  1  0  0  0  0
 13 17  1  0  0  0  0
 13 14  2  0  0  0  0
 14 15  1  0  0  0  0
 15 16  2  0  0  0  0
 16 17  1  0  0  0  0
 17 18  1  0  0  0  0
 18 34  1  0  0  0  0
 18 35  1  0  0  0  0
 18 36  1  0  0  0  0
 19 20  1  0  0  0  0
 20 21  2  0  0  0  0
 20 37  1  0  0  0  0
 21 22  1  0  0  0  0
 22 38  1  0  0  0  0
 22 39  1  0  0  0  0
 22 40  1  0  0  0  0
M  CHG  1   5   1
M  END
> <s_m_source_file>
AV-unprocessed.smi

> <i_m_source_file_index>
2734

> <i_lp_mmshare_version>
43012

> <i_f3d_flags>
0

> <s_epik_input>
W0NIM11jKFtjSF0xKWMoW0NIM10pW2NIXWMoYzEyKW4oW2NIXW4yKVtDSDJdW0NASF0oW09IXSlbQ0gyXVNjM25ubm4zW0NIM10=

> <s_epik_cmdline>
J2VwaWtfcHl0aG9uJywgJy1waCcsICc3LjAnLCAnLXRuJywgJzgnLCAnLW1hJywgJzIwMCcsICctbWV0YWxfYmluZGluZycsICctaW1hZScsICc8aW5maWxlLm1hZT4nLCAnLW9tYWUnLCAnPG91dGZpbGUubWFlPic=

> <r_lp_tautomer_probability>
1

> <r_epik_Ionization_Penalty>
1.07429

> <r_epik_Ionization_Penalty_Charging>
1.07429

> <r_epik_Ionization_Penalty_Neutral>
3.30514e-06

> <r_epik_State_Penalty>
1.12915

> <r_epik_Charging_Adjusted_Penalty>
2.20344

> <i_epik_Tot_Q>
1

> <i_epik_Tot_abs_Q>
1

> <r_epik_Metal_State_Penalty>
1.22002

> <b_epik_Metal_Only>
0

> <s_lp_Force_Field>
OPLS_2005

> <r_lp_Energy>
15.3116

> <b_lp_Chiralities_Consistent>
1

> <s_lp_Variant>
AV-unprocessed.smi:2734-4

> <Gold.Version>
5.8.1

> <Gold.Id.Protein>
6NUR|6NUR_protein|mol2

> <Gold.PLP.Fitness>
53.7404

> <Gold.PLP.PLP>
-43.9141

> <Gold.PLP.part.hbond>
-5.0000

> <Gold.PLP.part.metal>
0.0000

> <Gold.PLP.part.buried>
-4.7663

> <Gold.PLP.part.nonpolar>
-34.1642

> <Gold.PLP.part.repulsive>
0.1327

> <Gold.PLP.ligand.clash>
0.0000

> <Gold.PLP.ligand.torsion>
1.1144

> <Gold.PLP.Chemscore.Hbond>
4.0000

> <Gold.PLP.Chemscore.CHOScore>
0.0000

> <Gold.PLP.Chemscore.Metal>
0.0000

> <Gold.Chemscore.Hbonds>
donor molecule, donor type, donor heavy atom, donor atom, acceptor molecule, acceptor atom, score
      L1  H     5    41       P1  8028  2.00
      L1  H    10    31       P1  7948  1.00
      P1  H  6896  6907       L1    15  0.98

> <Gold.PLP.Chemscore.Internal.Correction>
0.0550

> <Gold.Rescore>
     Score         DG    S(hbond)    S(metal)    S(lipo)     H(rot)  DE(clash)    DE(int)     intcor
     16.74     -18.02       2.50        0.00      99.58       2.92       0.12       1.17       ----

> <Gold.Chemscore.Fitness>
16.7396

> <Gold.Chemscore.DG>
-18.0239

> <Gold.Chemscore.ZeroCoef>
-5.4800

> <Gold.Chemscore.Hbond>
2.5028

> <Gold.Chemscore.Metal>
0.0000

> <Gold.Chemscore.Lipo>
99.5768

> <Gold.Chemscore.Internal_Hbond>
0.0000

> <Gold.Chemscore.DEClash>
0.1158

> <Gold.Chemscore.DEInternal>
1.1685

> <Gold.Chemscore.Rot>
2.9164

> <Gold.Chemscore.Internal.Correction>
   9.000000E+99

> <Gold.Chemscore.Hbonds>
donor molecule, donor type, donor heavy atom, donor atom, acceptor molecule, acceptor atom, score
      L1  H     5    41       P1  8028  0.93
      L1  H    10    31       P1  7948  0.81
      P1  H  6896  6907       L1    15  0.27

> <Gold.Chemscore.Hbond.Weighted>
-8.3594

> <Gold.Chemscore.Metal.Weighted>
-0.0000

> <Gold.Chemscore.Lipo.Weighted>
-11.6505

> <Gold.Chemscore.Internal_Hbond.Weighted>
0.0000

> <Gold.Chemscore.DEClash.Weighted>
0.1158

> <Gold.Chemscore.DEInternal.Weighted>
1.1685

> <Gold.Chemscore.Rot.Weighted>
7.4660

> <Gold.Chemscore.Internal.Correction.Weighted>
   9.000000E+99

> <Gold.Protein.RotatedTorsions>
[ 6907 6896 6895 6894 ] final -140.51 input  -60.11 | X-H torsion
[ 7974 7965 7964 7962 ] final -122.82 input  175.53 | X-H torsion
[ 8008 7997 7996 7995 ] final  142.45 input   59.86 | X-H torsion
[ 10167 10162 10161 10158 ] final  -49.49 input  -65.29 | X-H torsion
[ 10718 10713 10712 10709 ] final   97.76 input   66.30 | X-H torsion
[ 10763 10752 10751 10750 ] final  -35.53 input  -60.55 | X-H torsion
[ 11005 11000 10999 10996 ] final  -46.68 input  -57.11 | X-H torsion

> <Gold.Protein.ActiveResidues>
 VAL166  LYS551  ARG553  GLY616  TRP617  ASP618  TYR619  PRO620  LYS621  CYS622 
 ASP623  PHE694  ASN695  SER759  ASP760  ASP761  ALA762  ILE779  LEU786  VAL792 
 PHE793  MET794  SER795  GLU796  ALA797  LYS798  CYS799  TRP800  GLU811  SER814 

> <Gold.Protein.RotatedAtoms>
  151.0616  133.5539  159.2633 H   0  0  0  0  0  0  0  0  0  0  0  0  # atno 6907 bound_to 6896
  151.2512  135.0622  159.9072 H   0  0  0  0  0  0  0  0  0  0  0  0  # atno 6908 bound_to 6896
  152.5398  134.0376  159.8107 H   0  0  0  0  0  0  0  0  0  0  0  0  # atno 6909 bound_to 6896
  145.0253  140.8023  143.4356 H   0  0  0  0  0  0  0  0  0  0  0  0  # atno 7974 bound_to 7965
  156.2949  140.2288  156.4729 H   0  0  0  0  0  0  0  0  0  0  0  0  # atno 8008 bound_to 7997
  154.7920  140.0453  157.1229 H   0  0  0  0  0  0  0  0  0  0  0  0  # atno 8009 bound_to 7997
  154.9634  140.3057  155.5023 H   0  0  0  0  0  0  0  0  0  0  0  0  # atno 8010 bound_to 7997
  140.6683  143.2696  151.4222 H   0  0  0  0  0  0  0  0  0  0  0  0  # atno 10167 bound_to 10162
  157.6907  131.0619  150.4693 H   0  0  0  0  0  0  0  0  0  0  0  0  # atno 10718 bound_to 10713
  153.8647  135.6836  153.4779 H   0  0  0  0  0  0  0  0  0  0  0  0  # atno 10763 bound_to 10752
  153.1321  135.4693  154.9364 H   0  0  0  0  0  0  0  0  0  0  0  0  # atno 10764 bound_to 10752
  154.7742  135.3248  154.8076 H   0  0  0  0  0  0  0  0  0  0  0  0  # atno 10765 bound_to 10752
  141.0594  133.6714  156.3189 H   0  0  0  0  0  0  0  0  0  0  0  0  # atno 11005 bound_to 11000
  145.1841  139.2336  143.5277 LP  0  0  0  0  0  0  0  0  0  0  0  0  # atno 17320 bound_to 7965
  146.3491  140.1622  142.8590 LP  0  0  0  0  0  0  0  0  0  0  0  0  # atno 17321 bound_to 7965
  139.5940  144.1437  152.2122 LP  0  0  0  0  0  0  0  0  0  0  0  0  # atno 17342 bound_to 10162
  140.0801  144.5708  150.7129 LP  0  0  0  0  0  0  0  0  0  0  0  0  # atno 17343 bound_to 10162
  156.5032  130.4122  149.6341 LP  0  0  0  0  0  0  0  0  0  0  0  0  # atno 17370 bound_to 10713
  156.3309  130.7331  151.2260 LP  0  0  0  0  0  0  0  0  0  0  0  0  # atno 17371 bound_to 10713
  140.5899  134.5661  157.5497 LP  0  0  0  0  0  0  0  0  0  0  0  0  # atno 17394 bound_to 11000
  139.9419  134.7772  156.0658 LP  0  0  0  0  0  0  0  0  0  0  0  0  # atno 17395 bound_to 11000

$$$$
