#       Name:                AV-unprocessed.smi:3058
#       Creating user name   scv26
#       Creation time:       Fri Mar 27 17:07:57 2020


#       File generated by GOLD software.
#

@<TRIPOS>MOLECULE
AV-unprocessed.smi:3058
    41    43     1
SMALL
NO_CHARGES


@<TRIPOS>ATOM
      1 ****        -0.4010   1.4799   0.0391 O.2            1 S1                 0.0000
      2 ****        -0.8760   0.5351   0.6708 C.2            1 S1                 0.0000
      3 ****        -0.1166  -0.3835   1.2876 N.am           1 S1                 0.0000
      4 ****         1.3411  -0.4000   1.2841 C.3            1 S1                 0.0000
      5 ****         1.8970  -0.9830  -0.0255 C.3            1 S1                 0.0000
      6 ****         3.4127  -0.9785  -0.0524 C.ar           1 S1                 0.0000
      7 ****         4.1159   0.1320  -0.5693 C.ar           1 S1                 0.0000
      8 ****         5.5262   0.1144  -0.5781 C.ar           1 S1                 0.0000
      9 ****         6.2016  -1.0132  -0.0684 C.ar           1 S1                 0.0000
     10 ****         5.4951  -2.0571   0.4189 N.pl3          1 S1                 1.0000
     11 ****         4.1442  -2.0792   0.4441 C.ar           1 S1                 0.0000
     12 ****        -2.3985   0.3592   0.8116 C.3            1 S1                 0.0000
     13 ****        -3.1957   1.6817   0.9335 C.3            1 S1                 0.0000
     14 ****        -4.2568   1.5501  -0.1753 C.3            1 S1                 0.0000
     15 ****        -3.5876   1.7253  -1.5515 C.3            1 S1                 0.0000
     16 ****        -2.8297   0.3972  -1.7319 C.3            1 S1                 0.0000
     17 ****        -3.0934  -0.3287  -0.3940 C.3            1 S1                 0.0000
     18 ****        -4.5504   0.0544  -0.1510 C.3            1 S1                 0.0000
     19 ****        -0.5831  -1.1223   1.7938 H              1 S1                 0.0000
     20 ****         1.7238   0.6090   1.4475 H              1 S1                 0.0000
     21 ****         1.6765  -0.9995   2.1308 H              1 S1                 0.0000
     22 ****         1.5397  -2.0045  -0.1625 H              1 S1                 0.0000
     23 ****         1.5304  -0.4135  -0.8808 H              1 S1                 0.0000
     24 ****         3.5817   0.9893  -0.9530 H              1 S1                 0.0000
     25 ****         6.0808   0.9549  -0.9694 H              1 S1                 0.0000
     26 ****         7.2771  -1.1104  -0.0353 H              1 S1                 0.0000
     27 ****         3.6940  -2.9691   0.8597 H              1 S1                 0.0000
     28 ****        -2.5897  -0.2360   1.7068 H              1 S1                 0.0000
     29 ****        -3.6742   1.7419   1.9120 H              1 S1                 0.0000
     30 ****        -2.5950   2.5844   0.8147 H              1 S1                 0.0000
     31 ****        -5.1243   2.1937  -0.0267 H              1 S1                 0.0000
     32 ****        -4.3328   1.8518  -2.3379 H              1 S1                 0.0000
     33 ****        -2.9227   2.5894  -1.5775 H              1 S1                 0.0000
     34 ****        -3.2613  -0.1701  -2.5578 H              1 S1                 0.0000
     35 ****        -1.7742   0.5364  -1.9618 H              1 S1                 0.0000
     36 ****        -2.9170  -1.4038  -0.4399 H              1 S1                 0.0000
     37 ****        -4.9387  -0.2955   0.8073 H              1 S1                 0.0000
     38 ****        -5.2242  -0.2674  -0.9472 H              1 S1                 0.0000
     39 ****         6.0036  -2.8630   0.7839 H              1 S1                 0.0000
     40 ****         0.5909   1.5867  -0.0303 LP             1 S1                 0.0000
     41 ****        -1.0072   2.1400  -0.4043 LP             1 S1                 0.0000
@<TRIPOS>BOND
    1    1    2 2     
    2    2    3 am    
    3    2   12 1     
    4    3    4 1     
    5    3   19 1     
    6    4    5 1     
    7    4   20 1     
    8    4   21 1     
    9    5    6 1     
   10    5   22 1     
   11    5   23 1     
   12    6   11 ar    
   13    6    7 ar    
   14    7    8 ar    
   15    7   24 1     
   16    8    9 ar    
   17    8   25 1     
   18    9   10 ar    
   19    9   26 1     
   20   10   11 ar    
   21   10   39 1     
   22   11   27 1     
   23   12   17 1     
   24   12   13 1     
   25   12   28 1     
   26   13   14 1     
   27   13   29 1     
   28   13   30 1     
   29   14   18 1     
   30   14   15 1     
   31   14   31 1     
   32   15   16 1     
   33   15   32 1     
   34   15   33 1     
   35   16   17 1     
   36   16   34 1     
   37   16   35 1     
   38   17   18 1     
   39   17   36 1     
   40   18   37 1     
   41   18   38 1     
   42    1   40 1     
   43    1   41 1     
@<TRIPOS>SUBSTRUCTURE
      1 S1             1
@<TRIPOS>SET
LONE_PAIRS      STATIC     ATOMS    <user>   **** ""
2 40 41
DONOR_HYDROGENS      STATIC     ATOMS    <user>   **** ""
2 19 39
ATOM$BLUE        STATIC     ATOMS    COLORGROUP SYSTEM
2 40 41
ATOM$RED        STATIC     ATOMS    COLORGROUP SYSTEM
2 19 39
