AV-unprocessed.smi:165|AV-procd|sdf|1386|dock8
  -GOLD-   2262019123D 1   1.00000     0.00000
 Structure written by MMmdl.
 55 59  0  0  0  0  0  0  0  0  1 V2000
  146.7174  132.3197  150.8073 O   0  0  0  0  0  0  0  0  0  0  0  0
  145.6387  132.0286  149.9405 C   0  0  0  0  0  0  0  0  0  0  0  0
  144.6007  133.1646  149.8761 C   0  0  0  0  0  0  0  0  0  0  0  0
  143.6512  132.7769  148.7229 C   0  0  0  0  0  0  0  0  0  0  0  0
  143.3285  133.8588  147.8724 O   0  0  0  0  0  0  0  0  0  0  0  0
  143.9287  133.5539  151.2127 C   0  0  0  0  0  0  0  0  0  0  0  0
  144.1250  135.0399  150.8901 C   0  0  0  0  0  0  0  0  0  0  0  0
  144.4609  135.9797  151.9202 N   0  0  0  0  0  0  0  0  0  0  0  0
  145.6434  136.6726  152.0503 C   0  0  0  0  0  0  0  0  0  0  0  0
  145.6943  137.5043  153.0547 N   0  0  0  0  0  0  0  0  0  0  0  0
  144.4356  137.4115  153.6367 C   0  0  0  0  0  0  0  0  0  0  0  0
  143.8107  138.0381  154.7519 C   0  0  0  0  0  0  0  0  0  0  0  0
  144.4416  138.9603  155.5216 N   0  0  0  0  0  0  0  0  0  0  0  0
  144.5821  138.6015  156.9267 C   0  0  0  0  0  0  0  0  0  0  0  0
  144.9575  139.8432  157.7469 C   0  0  0  0  0  0  0  0  0  0  0  0
  146.1217  140.4580  157.1979 O   0  0  0  0  0  0  0  0  0  0  0  0
  146.0165  140.8547  155.8254 C   0  0  2  0  0  0  0  0  0  0  0  0
  147.4247  141.3601  155.4538 C   0  0  0  0  0  0  0  0  0  0  0  0
  147.4297  142.0638  154.0919 C   0  0  0  0  0  0  0  0  0  0  0  0
  146.3560  143.1594  154.0600 C   0  0  0  0  0  0  0  0  0  0  0  0
  145.0865  142.5921  154.3564 O   0  0  0  0  0  0  0  0  0  0  0  0
  145.0108  142.0252  155.6616 C   0  0  0  0  0  0  0  0  0  0  0  0
  145.6264  139.6188  154.9778 C   0  0  0  0  0  0  0  0  0  0  0  0
  142.5293  137.6791  155.0334 N   0  0  0  0  0  0  0  0  0  0  0  0
  141.8976  136.7801  154.2730 C   0  0  0  0  0  0  0  0  0  0  0  0
  142.3538  136.1212  153.2067 N   0  0  0  0  0  0  0  0  0  0  0  0
  143.6434  136.4650  152.9266 C   0  0  0  0  0  0  0  0  0  0  0  0
  145.1606  134.6056  149.8455 C   0  0  0  0  0  0  0  0  0  0  0  0
  147.4616  131.7982  150.5484 H   0  0  0  0  0  0  0  0  0  0  0  0
  146.0531  131.8246  148.9525 H   0  0  0  0  0  0  0  0  0  0  0  0
  145.1776  131.1023  150.2851 H   0  0  0  0  0  0  0  0  0  0  0  0
  144.0935  131.9938  148.1061 H   0  0  0  0  0  0  0  0  0  0  0  0
  142.7152  132.3754  149.1128 H   0  0  0  0  0  0  0  0  0  0  0  0
  144.1176  134.3468  147.6934 H   0  0  0  0  0  0  0  0  0  0  0  0
  142.8848  133.2525  151.3046 H   0  0  0  0  0  0  0  0  0  0  0  0
  144.4942  133.2463  152.0933 H   0  0  0  0  0  0  0  0  0  0  0  0
  143.2376  135.4439  150.4020 H   0  0  0  0  0  0  0  0  0  0  0  0
  146.4783  136.5356  151.3787 H   0  0  0  0  0  0  0  0  0  0  0  0
  143.6676  138.1641  157.3257 H   0  0  0  0  0  0  0  0  0  0  0  0
  145.3618  137.8446  157.0204 H   0  0  0  0  0  0  0  0  0  0  0  0
  144.1282  140.5494  157.7861 H   0  0  0  0  0  0  0  0  0  0  0  0
  145.1677  139.5578  158.7776 H   0  0  0  0  0  0  0  0  0  0  0  0
  147.7651  142.0675  156.2116 H   0  0  0  0  0  0  0  0  0  0  0  0
  148.1441  140.5406  155.4597 H   0  0  0  0  0  0  0  0  0  0  0  0
  148.4119  142.4944  153.8964 H   0  0  0  0  0  0  0  0  0  0  0  0
  147.2431  141.3421  153.2963 H   0  0  0  0  0  0  0  0  0  0  0  0
  146.5869  143.9541  154.7710 H   0  0  0  0  0  0  0  0  0  0  0  0
  146.3161  143.6171  153.0714 H   0  0  0  0  0  0  0  0  0  0  0  0
  143.9852  141.6930  155.8207 H   0  0  0  0  0  0  0  0  0  0  0  0
  145.2050  142.8024  156.4025 H   0  0  0  0  0  0  0  0  0  0  0  0
  146.4486  138.9017  154.9657 H   0  0  0  0  0  0  0  0  0  0  0  0
  145.4450  139.9161  153.9439 H   0  0  0  0  0  0  0  0  0  0  0  0
  140.8815  136.5549  154.5618 H   0  0  0  0  0  0  0  0  0  0  0  0
  146.1826  134.6827  150.2180 H   0  0  0  0  0  0  0  0  0  0  0  0
  145.0639  135.1129  148.8852 H   0  0  0  0  0  0  0  0  0  0  0  0
  1  2  1  0  0  0  0
  1 29  1  0  0  0  0
  2  3  1  0  0  0  0
  2 30  1  0  0  0  0
  2 31  1  0  0  0  0
  3 28  1  0  0  0  0
  3  4  1  0  0  0  0
  3  6  1  0  0  0  0
  4  5  1  0  0  0  0
  4 32  1  0  0  0  0
  4 33  1  0  0  0  0
  5 34  1  0  0  0  0
  6  7  1  0  0  0  0
  6 35  1  0  0  0  0
  6 36  1  0  0  0  0
  7  8  1  0  0  0  0
  7 28  1  0  0  0  0
  7 37  1  0  0  0  0
  8 27  1  0  0  0  0
  8  9  1  0  0  0  0
  9 10  2  0  0  0  0
  9 38  1  0  0  0  0
 10 11  1  0  0  0  0
 11 27  2  0  0  0  0
 11 12  1  0  0  0  0
 12 13  1  0  0  0  0
 12 24  2  0  0  0  0
 13 23  1  0  0  0  0
 13 14  1  0  0  0  0
 14 15  1  0  0  0  0
 14 39  1  0  0  0  0
 14 40  1  0  0  0  0
 15 16  1  0  0  0  0
 15 41  1  0  0  0  0
 15 42  1  0  0  0  0
 16 17  1  0  0  0  0
 17 22  1  0  0  0  0
 17 18  1  0  0  0  0
 17 23  1  0  0  0  0
 18 19  1  0  0  0  0
 18 43  1  0  0  0  0
 18 44  1  0  0  0  0
 19 20  1  0  0  0  0
 19 45  1  0  0  0  0
 19 46  1  0  0  0  0
 20 21  1  0  0  0  0
 20 47  1  0  0  0  0
 20 48  1  0  0  0  0
 21 22  1  0  0  0  0
 22 49  1  0  0  0  0
 22 50  1  0  0  0  0
 23 51  1  0  0  0  0
 23 52  1  0  0  0  0
 24 25  1  0  0  0  0
 25 26  2  0  0  0  0
 25 53  1  0  0  0  0
 26 27  1  0  0  0  0
 28 54  1  0  0  0  0
 28 55  1  0  0  0  0
M  END
> <s_m_source_file>
AV-unprocessed.smi

> <i_m_source_file_index>
165

> <i_lp_mmshare_version>
43012

> <i_f3d_flags>
0

> <s_epik_input>
W09IXVtDSDJdQzEoW0NIMl1bT0hdKVtDSDJdW0NIXShbQ0gyXTEpbihbY0hdbjIpYyhjMjMpbltjSF1uYzNOKFtDSDJdNClbQ0gyXVtDSDJdT1tDQEBdNDVbQ0gyXVtDSDJdW0NIMl1PW0NIMl01

> <s_epik_cmdline>
J2VwaWtfcHl0aG9uJywgJy1waCcsICc3LjAnLCAnLXRuJywgJzgnLCAnLW1hJywgJzIwMCcsICctbWV0YWxfYmluZGluZycsICctaW1hZScsICc8aW5maWxlLm1hZT4nLCAnLW9tYWUnLCAnPG91dGZpbGUubWFlPic=

> <r_lp_tautomer_probability>
1

> <r_epik_Ionization_Penalty>
0.00466923

> <r_epik_Ionization_Penalty_Charging>
0

> <r_epik_Ionization_Penalty_Neutral>
0.00466923

> <r_epik_State_Penalty>
0.0032353

> <r_epik_Charging_Adjusted_Penalty>
0.0032353

> <i_epik_Tot_Q>
0

> <i_epik_Tot_abs_Q>
0

> <r_epik_Metal_State_Penalty>
-0

> <b_epik_Metal_Only>
0

> <s_lp_Force_Field>
OPLS_2005

> <r_lp_Energy>
54.9184

> <b_lp_Chiralities_Consistent>
1

> <s_lp_Variant>
AV-unprocessed.smi:165-1

> <Gold.Version>
5.8.1

> <Gold.Id.Protein>
6NUR|6NUR_protein|mol2

> <Gold.PLP.Fitness>
48.0132

> <Gold.PLP.PLP>
-38.0588

> <Gold.PLP.part.hbond>
-5.0000

> <Gold.PLP.part.metal>
0.0000

> <Gold.PLP.part.buried>
-3.0421

> <Gold.PLP.part.nonpolar>
-31.8913

> <Gold.PLP.part.repulsive>
0.7055

> <Gold.PLP.ligand.clash>
0.0000

> <Gold.PLP.ligand.torsion>
1.3710

> <Gold.PLP.Chemscore.Hbond>
3.0000

> <Gold.PLP.Chemscore.CHOScore>
1.0000

> <Gold.PLP.Chemscore.Metal>
0.0000

> <Gold.Chemscore.Hbonds>
donor molecule, donor type, donor heavy atom, donor atom, acceptor molecule, acceptor atom, score
      L1  H     1    29       P1 10747  1.00
      L1  H     5    34       P1  7921  0.98
      P1  H 10192 10197       L1     5  0.90
      L1  C     9    38       P1  7948  1.00

> <Gold.PLP.Chemscore.Internal.Correction>
0.6965

> <Gold.Rescore>
     Score         DG    S(hbond)    S(metal)    S(lipo)     H(rot)  DE(clash)    DE(int)     intcor
     11.86     -16.48       2.94        0.00      78.71       3.14       1.87       2.75       ----

> <Gold.Chemscore.Fitness>
11.8600

> <Gold.Chemscore.DG>
-16.4789

> <Gold.Chemscore.ZeroCoef>
-5.4800

> <Gold.Chemscore.Hbond>
2.9389

> <Gold.Chemscore.Metal>
0.0000

> <Gold.Chemscore.Lipo>
78.7087

> <Gold.Chemscore.Internal_Hbond>
0.0000

> <Gold.Chemscore.DEClash>
1.8712

> <Gold.Chemscore.DEInternal>
2.7477

> <Gold.Chemscore.Rot>
3.1351

> <Gold.Chemscore.Internal.Correction>
   9.000000E+99

> <Gold.Chemscore.Hbonds>
donor molecule, donor type, donor heavy atom, donor atom, acceptor molecule, acceptor atom, score
      L1  H     1    29       P1 10747  1.00
      L1  H     5    34       P1  7921  0.91
      P1  H 10192 10197       L1     5  0.17

> <Gold.Chemscore.Hbond.Weighted>
-9.8159

> <Gold.Chemscore.Metal.Weighted>
-0.0000

> <Gold.Chemscore.Lipo.Weighted>
-9.2089

> <Gold.Chemscore.Internal_Hbond.Weighted>
0.0000

> <Gold.Chemscore.DEClash.Weighted>
1.8712

> <Gold.Chemscore.DEInternal.Weighted>
2.7477

> <Gold.Chemscore.Rot.Weighted>
8.0260

> <Gold.Chemscore.Internal.Correction.Weighted>
   9.000000E+99

> <Gold.Protein.RotatedTorsions>
[ 6907 6896 6895 6894 ] final  -87.62 input  -60.11 | X-H torsion
[ 7974 7965 7964 7962 ] final  -27.99 input  175.53 | X-H torsion
[ 8008 7997 7996 7995 ] final   75.73 input   59.86 | X-H torsion
[ 10167 10162 10161 10158 ] final  -59.17 input  -65.29 | X-H torsion
[ 10718 10713 10712 10709 ] final  -96.16 input   66.30 | X-H torsion
[ 10763 10752 10751 10750 ] final   57.91 input  -60.55 | X-H torsion
[ 11005 11000 10999 10996 ] final  126.07 input  -57.11 | X-H torsion

> <Gold.Protein.ActiveResidues>
 VAL166  LYS551  ARG553  GLY616  TRP617  ASP618  TYR619  PRO620  LYS621  CYS622 
 ASP623  PHE694  ASN695  SER759  ASP760  ASP761  ALA762  ILE779  LEU786  VAL792 
 PHE793  MET794  SER795  GLU796  ALA797  LYS798  CYS799  TRP800  GLU811  SER814 

> <Gold.Protein.RotatedAtoms>
  150.6867  134.2868  159.4649 H   0  0  0  0  0  0  0  0  0  0  0  0  # atno 6907 bound_to 6896
  152.0777  134.9489  160.0583 H   0  0  0  0  0  0  0  0  0  0  0  0  # atno 6908 bound_to 6896
  152.0854  133.4139  159.4557 H   0  0  0  0  0  0  0  0  0  0  0  0  # atno 6909 bound_to 6896
  146.1320  140.5224  142.8689 H   0  0  0  0  0  0  0  0  0  0  0  0  # atno 7974 bound_to 7965
  155.8172  140.3471  155.5492 H   0  0  0  0  0  0  0  0  0  0  0  0  # atno 8008 bound_to 7997
  155.8380  140.0937  157.1772 H   0  0  0  0  0  0  0  0  0  0  0  0  # atno 8009 bound_to 7997
  154.4004  140.1400  156.3681 H   0  0  0  0  0  0  0  0  0  0  0  0  # atno 8010 bound_to 7997
  140.6152  143.2400  151.5614 H   0  0  0  0  0  0  0  0  0  0  0  0  # atno 10167 bound_to 10162
  156.0057  130.5139  150.6184 H   0  0  0  0  0  0  0  0  0  0  0  0  # atno 10718 bound_to 10713
  152.9859  135.5625  154.5467 H   0  0  0  0  0  0  0  0  0  0  0  0  # atno 10763 bound_to 10752
  154.4912  135.2793  155.1497 H   0  0  0  0  0  0  0  0  0  0  0  0  # atno 10764 bound_to 10752
  154.2966  135.6316  153.5460 H   0  0  0  0  0  0  0  0  0  0  0  0  # atno 10765 bound_to 10752
  139.9438  134.9632  156.8653 H   0  0  0  0  0  0  0  0  0  0  0  0  # atno 11005 bound_to 11000
  144.7700  140.5616  143.6677 LP  0  0  0  0  0  0  0  0  0  0  0  0  # atno 17320 bound_to 7965
  145.5240  139.1476  143.3536 LP  0  0  0  0  0  0  0  0  0  0  0  0  # atno 17321 bound_to 7965
  139.5393  144.2693  152.1317 LP  0  0  0  0  0  0  0  0  0  0  0  0  # atno 17342 bound_to 10162
  140.1901  144.4760  150.6483 LP  0  0  0  0  0  0  0  0  0  0  0  0  # atno 17343 bound_to 10162
  157.4004  131.0809  151.1314 LP  0  0  0  0  0  0  0  0  0  0  0  0  # atno 17370 bound_to 10713
  157.1977  130.6380  149.5727 LP  0  0  0  0  0  0  0  0  0  0  0  0  # atno 17371 bound_to 10713
  140.5886  134.0284  155.7491 LP  0  0  0  0  0  0  0  0  0  0  0  0  # atno 17394 bound_to 11000
  141.1082  133.9660  157.2959 LP  0  0  0  0  0  0  0  0  0  0  0  0  # atno 17395 bound_to 11000

$$$$
