AV-unprocessed.smi:12|AV-procd|sdf|65|dock4
  -GOLD-   2262015183D 1   1.00000     0.00000
 Structure written by MMmdl.
 41 44  0  0  0  0  0  0  0  0  1 V2000
  145.9109  136.5953  151.6391 C   0  0  0  0  0  0  0  0  0  0  0  0
  145.9969  137.6922  152.6854 C   0  0  0  0  0  0  0  0  0  0  0  0
  146.9794  138.6233  152.6607 C   0  0  0  0  0  0  0  0  0  0  0  0
  147.0155  139.5865  153.6298 N   0  0  0  0  0  0  0  0  0  0  0  0
  146.0166  139.6128  154.6294 C   0  0  0  0  0  0  0  0  0  0  0  0
  145.0446  138.7591  154.7194 N   0  0  0  0  0  0  0  0  0  0  0  0
  144.9716  137.7323  153.7584 C   0  0  0  0  0  0  0  0  0  0  0  0
  144.0742  136.8924  153.8095 O   0  0  0  0  0  0  0  0  0  0  0  0
  146.2405  140.6747  155.4534 O   0  0  0  0  0  0  0  0  0  0  0  0
  147.4239  141.3669  155.0298 C   0  0  1  0  0  0  0  0  0  0  0  0
  148.5804  141.2661  156.0286 C   0  0  1  0  0  0  0  0  0  0  0  0
  148.3798  140.2335  156.9784 O   0  0  0  0  0  0  0  0  0  0  0  0
  149.7808  140.9460  155.1251 C   0  0  1  0  0  0  0  0  0  0  0  0
  150.9759  140.2357  155.7801 C   0  0  0  0  0  0  0  0  0  0  0  0
  151.0690  140.6188  157.1428 O   0  0  0  0  0  0  0  0  0  0  0  0
  152.2384  140.4868  157.7996 C   0  0  0  0  0  0  0  0  0  0  0  0
  153.0730  139.6180  157.5384 O   0  0  0  0  0  0  0  0  0  0  0  0
  152.4200  141.5038  158.8754 C   0  0  0  0  0  0  0  0  0  0  0  0
  151.7678  142.7539  158.7628 C   0  0  0  0  0  0  0  0  0  0  0  0
  151.9158  143.7336  159.7637 C   0  0  0  0  0  0  0  0  0  0  0  0
  152.7189  143.4754  160.8897 C   0  0  0  0  0  0  0  0  0  0  0  0
  153.3740  142.2362  161.0132 C   0  0  0  0  0  0  0  0  0  0  0  0
  153.2273  141.2550  160.0130 C   0  0  0  0  0  0  0  0  0  0  0  0
  149.2206  140.1509  154.0903 O   0  0  0  0  0  0  0  0  0  0  0  0
  147.9756  140.6813  153.7666 C   0  0  1  0  0  0  0  0  0  0  0  0
  146.7171  136.6792  150.9098 H   0  0  0  0  0  0  0  0  0  0  0  0
  144.9637  136.6526  151.1018 H   0  0  0  0  0  0  0  0  0  0  0  0
  145.9825  135.6136  152.1084 H   0  0  0  0  0  0  0  0  0  0  0  0
  147.7371  138.6139  151.8908 H   0  0  0  0  0  0  0  0  0  0  0  0
  147.1966  142.4061  154.7890 H   0  0  0  0  0  0  0  0  0  0  0  0
  148.7267  142.2014  156.5699 H   0  0  0  0  0  0  0  0  0  0  0  0
  147.7188  140.5135  157.5931 H   0  0  0  0  0  0  0  0  0  0  0  0
  150.1294  141.8717  154.6630 H   0  0  0  0  0  0  0  0  0  0  0  0
  150.8826  139.1525  155.6920 H   0  0  0  0  0  0  0  0  0  0  0  0
  151.8955  140.5206  155.2671 H   0  0  0  0  0  0  0  0  0  0  0  0
  151.1455  142.9749  157.9075 H   0  0  0  0  0  0  0  0  0  0  0  0
  151.4116  144.6838  159.6674 H   0  0  0  0  0  0  0  0  0  0  0  0
  152.8317  144.2263  161.6577 H   0  0  0  0  0  0  0  0  0  0  0  0
  153.9900  142.0371  161.8776 H   0  0  0  0  0  0  0  0  0  0  0  0
  153.7439  140.3146  160.1391 H   0  0  0  0  0  0  0  0  0  0  0  0
  147.9289  141.2631  152.8455 H   0  0  0  0  0  0  0  0  0  0  0  0
  1  2  1  0  0  0  0
  1 26  1  0  0  0  0
  1 27  1  0  0  0  0
  1 28  1  0  0  0  0
  2  7  1  0  0  0  0
  2  3  2  0  0  0  0
  3  4  1  0  0  0  0
  3 29  1  0  0  0  0
  4 25  1  0  0  0  0
  4  5  1  0  0  0  0
  5  6  2  0  0  0  0
  5  9  1  0  0  0  0
  6  7  1  0  0  0  0
  7  8  2  0  0  0  0
  9 10  1  0  0  0  0
 10 25  1  0  0  0  0
 10 11  1  0  0  0  0
 10 30  1  0  0  0  0
 11 12  1  0  0  0  0
 11 13  1  0  0  0  0
 11 31  1  0  0  0  0
 12 32  1  0  0  0  0
 13 14  1  0  0  0  0
 13 24  1  0  0  0  0
 13 33  1  0  0  0  0
 14 15  1  0  0  0  0
 14 34  1  0  0  0  0
 14 35  1  0  0  0  0
 15 16  1  0  0  0  0
 16 17  2  0  0  0  0
 16 18  1  0  0  0  0
 18 23  1  0  0  0  0
 18 19  2  0  0  0  0
 19 20  1  0  0  0  0
 19 36  1  0  0  0  0
 20 21  2  0  0  0  0
 20 37  1  0  0  0  0
 21 22  1  0  0  0  0
 21 38  1  0  0  0  0
 22 23  2  0  0  0  0
 22 39  1  0  0  0  0
 23 40  1  0  0  0  0
 24 25  1  0  0  0  0
 25 41  1  0  0  0  0
M  END
> <s_m_source_file>
AV-unprocessed.smi

> <i_m_source_file_index>
12

> <i_lp_mmshare_version>
43012

> <i_f3d_flags>
0

> <s_epik_input>
W0NIM11jKFtjSF0xKWMoPU8pbmMobjEyKU9bQ0BIXTNbQ0BASF0yT1tDQEBIXShbQ0BASF0zW09IXSlbQ0gyXU9DKD1PKWM0W2NIXVtjSF1bY0hdW2NIXVtjSF00

> <s_epik_cmdline>
J2VwaWtfcHl0aG9uJywgJy1waCcsICc3LjAnLCAnLXRuJywgJzgnLCAnLW1hJywgJzIwMCcsICctbWV0YWxfYmluZGluZycsICctaW1hZScsICc8aW5maWxlLm1hZT4nLCAnLW9tYWUnLCAnPG91dGZpbGUubWFlPic=

> <r_lp_tautomer_probability>
0.933681

> <r_epik_Ionization_Penalty>
0.00399549

> <r_epik_Ionization_Penalty_Charging>
3.09373e-09

> <r_epik_Ionization_Penalty_Neutral>
0.00399549

> <r_epik_State_Penalty>
0.00284953

> <r_epik_Charging_Adjusted_Penalty>
0.00284953

> <i_epik_Tot_Q>
0

> <i_epik_Tot_abs_Q>
0

> <r_epik_Metal_State_Penalty>
-0

> <b_epik_Metal_Only>
0

> <s_epik_Chemistry_Notes>
This compound has an ester and may undergo hydrolysis at high or low pH. This compound contains an acetal/aminal-like group ( X-CH(R)-Y where X, Y are N, S, or O) that may be acid/base labile, releasing an aldehyde.

> <s_lp_Force_Field>
OPLS_2005

> <r_lp_Energy>
52.4365

> <b_lp_Chiralities_Consistent>
1

> <s_lp_Variant>
AV-unprocessed.smi:12-5

> <Gold.Version>
5.8.1

> <Gold.Id.Protein>
6NUR|6NUR_protein|mol2

> <Gold.PLP.Fitness>
44.5134

> <Gold.PLP.PLP>
-39.3307

> <Gold.PLP.part.hbond>
-1.0000

> <Gold.PLP.part.metal>
0.0000

> <Gold.PLP.part.buried>
-3.0927

> <Gold.PLP.part.nonpolar>
-36.9934

> <Gold.PLP.part.repulsive>
1.6998

> <Gold.PLP.ligand.clash>
0.0000

> <Gold.PLP.ligand.torsion>
1.1618

> <Gold.PLP.Chemscore.Hbond>
1.0000

> <Gold.PLP.Chemscore.CHOScore>
1.5007

> <Gold.PLP.Chemscore.Metal>
0.0000

> <Gold.Chemscore.Hbonds>
donor molecule, donor type, donor heavy atom, donor atom, acceptor molecule, acceptor atom, score
      P1  H  7997  8009       L1    17  1.00
      L1  C     3    29       P1  7948  0.45
      L1  C     3    29       P1  7957  1.00

> <Gold.PLP.Chemscore.Internal.Correction>
0.0042

> <Gold.Rescore>
     Score         DG    S(hbond)    S(metal)    S(lipo)     H(rot)  DE(clash)    DE(int)     intcor
     12.62     -15.41       0.93        0.00     105.95       2.18       0.45       2.35       ----

> <Gold.Chemscore.Fitness>
12.6235

> <Gold.Chemscore.DG>
-15.4146

> <Gold.Chemscore.ZeroCoef>
-5.4800

> <Gold.Chemscore.Hbond>
0.9338

> <Gold.Chemscore.Metal>
0.0000

> <Gold.Chemscore.Lipo>
105.9533

> <Gold.Chemscore.Internal_Hbond>
0.0000

> <Gold.Chemscore.DEClash>
0.4460

> <Gold.Chemscore.DEInternal>
2.3451

> <Gold.Chemscore.Rot>
2.1800

> <Gold.Chemscore.Internal.Correction>
   9.000000E+99

> <Gold.Chemscore.Hbonds>
donor molecule, donor type, donor heavy atom, donor atom, acceptor molecule, acceptor atom, score
      P1  H  7997  8009       L1    17  0.93

> <Gold.Chemscore.Hbond.Weighted>
-3.1188

> <Gold.Chemscore.Metal.Weighted>
-0.0000

> <Gold.Chemscore.Lipo.Weighted>
-12.3965

> <Gold.Chemscore.Internal_Hbond.Weighted>
0.0000

> <Gold.Chemscore.DEClash.Weighted>
0.4460

> <Gold.Chemscore.DEInternal.Weighted>
2.3451

> <Gold.Chemscore.Rot.Weighted>
5.5807

> <Gold.Chemscore.Internal.Correction.Weighted>
   9.000000E+99

> <Gold.Protein.RotatedTorsions>
[ 6907 6896 6895 6894 ] final  122.80 input  -60.11 | X-H torsion
[ 7974 7965 7964 7962 ] final  108.22 input  175.53 | X-H torsion
[ 8008 7997 7996 7995 ] final -178.08 input   59.86 | X-H torsion
[ 10167 10162 10161 10158 ] final  155.48 input  -65.29 | X-H torsion
[ 10718 10713 10712 10709 ] final  157.37 input   66.30 | X-H torsion
[ 10763 10752 10751 10750 ] final   21.75 input  -60.55 | X-H torsion
[ 11005 11000 10999 10996 ] final  -74.98 input  -57.11 | X-H torsion

> <Gold.Protein.ActiveResidues>
 VAL166  LYS551  ARG553  GLY616  TRP617  ASP618  TYR619  PRO620  LYS621  CYS622 
 ASP623  PHE694  ASN695  SER759  ASP760  ASP761  ALA762  ILE779  LEU786  VAL792 
 PHE793  MET794  SER795  GLU796  ALA797  LYS798  CYS799  TRP800  GLU811  SER814 

> <Gold.Protein.RotatedAtoms>
  152.4214  133.7123  159.6485 H   0  0  0  0  0  0  0  0  0  0  0  0  # atno 6907 bound_to 6896
  150.8090  133.8446  159.3197 H   0  0  0  0  0  0  0  0  0  0  0  0  # atno 6908 bound_to 6896
  151.6161  135.1038  160.0143 H   0  0  0  0  0  0  0  0  0  0  0  0  # atno 6909 bound_to 6896
  145.2834  139.2625  143.3903 H   0  0  0  0  0  0  0  0  0  0  0  0  # atno 7974 bound_to 7965
  156.0146  140.1248  157.0419 H   0  0  0  0  0  0  0  0  0  0  0  0  # atno 8008 bound_to 7997
  154.4288  140.1081  156.5947 H   0  0  0  0  0  0  0  0  0  0  0  0  # atno 8009 bound_to 7997
  155.6032  140.3470  155.4602 H   0  0  0  0  0  0  0  0  0  0  0  0  # atno 8010 bound_to 7997
  139.4821  144.5095  151.8046 H   0  0  0  0  0  0  0  0  0  0  0  0  # atno 10167 bound_to 10162
  157.1924  131.0657  151.2072 H   0  0  0  0  0  0  0  0  0  0  0  0  # atno 10718 bound_to 10713
  153.0970  135.6662  153.9744 H   0  0  0  0  0  0  0  0  0  0  0  0  # atno 10763 bound_to 10752
  153.9325  135.3002  155.3446 H   0  0  0  0  0  0  0  0  0  0  0  0  # atno 10764 bound_to 10752
  154.7389  135.5088  153.9164 H   0  0  0  0  0  0  0  0  0  0  0  0  # atno 10765 bound_to 10752
  141.1641  133.6930  156.7446 H   0  0  0  0  0  0  0  0  0  0  0  0  # atno 11005 bound_to 11000
  146.3209  140.3307  142.8640 LP  0  0  0  0  0  0  0  0  0  0  0  0  # atno 17320 bound_to 7965
  144.9233  140.7893  143.5734 LP  0  0  0  0  0  0  0  0  0  0  0  0  # atno 17321 bound_to 7965
  140.4596  144.1740  150.5905 LP  0  0  0  0  0  0  0  0  0  0  0  0  # atno 17342 bound_to 10162
  140.4498  143.2491  151.9363 LP  0  0  0  0  0  0  0  0  0  0  0  0  # atno 17343 bound_to 10162
  157.3847  130.7250  149.6655 LP  0  0  0  0  0  0  0  0  0  0  0  0  # atno 17370 bound_to 10713
  155.9710  130.4162  150.4222 LP  0  0  0  0  0  0  0  0  0  0  0  0  # atno 17371 bound_to 10713
  140.2649  134.8438  157.3793 LP  0  0  0  0  0  0  0  0  0  0  0  0  # atno 17394 bound_to 11000
  140.1576  134.4769  155.7917 LP  0  0  0  0  0  0  0  0  0  0  0  0  # atno 17395 bound_to 11000

$$$$
