#       Name:                AV-unprocessed.smi:752
#       Creating user name   scv26
#       Creation time:       Fri Mar 27 00:59:02 2020


#       File generated by GOLD software.
#

@<TRIPOS>MOLECULE
AV-unprocessed.smi:752
    46    47     1
SMALL
NO_CHARGES


@<TRIPOS>ATOM
      1 ****        -5.7070   4.4364  -1.2425 C.3            1 S1                 0.0000
      2 ****        -4.1850   4.5530  -1.3754 C.3            1 S1                 0.0000
      3 ****        -3.4571   3.7957  -0.3159 C.2            1 S1                 0.0000
      4 ****        -3.1212   2.5084  -0.4308 N.2            1 S1                 0.0000
      5 ****        -2.4692   2.0168   0.7048 C.2            1 S1                 0.0000
      6 ****        -2.0087   0.5875   0.7433 C.3            1 S1                 0.0000
      7 ****        -0.4899   0.4932   0.5649 C.2            1 S1                 0.0000
      8 ****         0.0775   1.1457  -0.3122 O.2            1 S1                 0.0000
      9 ****         0.1553  -0.3378   1.3988 N.am           1 S1                 0.0000
     10 ****         1.5947  -0.5841   1.4098 C.3            1 S1                 0.0000
     11 ****         1.9764  -1.9002   0.6987 C.3            1 S1                 0.0000
     12 ****         1.6323  -1.8936  -0.8084 C.3            1 S1                 0.0000
     13 ****         2.0505  -3.2015  -1.5000 C.3            1 S1                 0.0000
     14 ****         3.5424  -3.4952  -1.2871 C.3            1 S1                 0.0000
     15 ****         3.8844  -3.5223   0.2112 C.3            1 S1                 0.0000
     16 ****         5.2719  -3.7272   0.3746 O.3            1 S1                 0.0000
     17 ****         3.4754  -2.2068   0.8967 C.3            1 S1                 0.0000
     18 ****        -2.3381   2.9544   1.6999 C.2            1 S1                 0.0000
     19 ****        -3.0169   4.4912   1.2392 S.3            1 S1                 0.0000
     20 ****        -6.2097   5.0029  -2.0264 H              1 S1                 0.0000
     21 ****        -6.0480   4.8217  -0.2811 H              1 S1                 0.0000
     22 ****        -6.0305   3.3982  -1.3223 H              1 S1                 0.0000
     23 ****        -3.8674   4.1862  -2.3522 H              1 S1                 0.0000
     24 ****        -3.8865   5.6003  -1.3232 H              1 S1                 0.0000
     25 ****        -2.3037   0.1245   1.6860 H              1 S1                 0.0000
     26 ****        -2.4833   0.0043  -0.0468 H              1 S1                 0.0000
     27 ****        -0.3938  -0.8365   2.0841 H              1 S1                 0.0000
     28 ****         2.1403   0.2555   0.9757 H              1 S1                 0.0000
     29 ****         1.9025  -0.6327   2.4547 H              1 S1                 0.0000
     30 ****         1.4102  -2.7069   1.1673 H              1 S1                 0.0000
     31 ****         0.5621  -1.7500  -0.9548 H              1 S1                 0.0000
     32 ****         2.1253  -1.0503  -1.2941 H              1 S1                 0.0000
     33 ****         1.4558  -4.0276  -1.1080 H              1 S1                 0.0000
     34 ****         1.8325  -3.1428  -2.5667 H              1 S1                 0.0000
     35 ****         3.8015  -4.4480  -1.7503 H              1 S1                 0.0000
     36 ****         4.1371  -2.7318  -1.7913 H              1 S1                 0.0000
     37 ****         3.3642  -4.3549   0.6866 H              1 S1                 0.0000
     38 ****         5.7322  -3.0124  -0.0382 H              1 S1                 0.0000
     39 ****         4.0711  -1.3836   0.4988 H              1 S1                 0.0000
     40 ****         3.7031  -2.2649   1.9620 H              1 S1                 0.0000
     41 ****        -1.8829   2.8345   2.6717 H              1 S1                 0.0000
     42 ****        -3.3149   1.9556  -1.2413 LP             1 S1                 0.0000
     43 ****        -0.4535   1.7423  -0.9140 LP             1 S1                 0.0000
     44 ****         1.0692   1.0789  -0.4225 LP             1 S1                 0.0000
     45 ****         5.5377  -4.5911  -0.0532 LP             1 S1                 0.0000
     46 ****         5.4962  -3.7547   1.3487 LP             1 S1                 0.0000
@<TRIPOS>BOND
    1    1    2 1     
    2    1   20 1     
    3    1   21 1     
    4    1   22 1     
    5    2    3 1     
    6    2   23 1     
    7    2   24 1     
    8    3   19 1     
    9    3    4 2     
   10    4    5 1     
   11    5    6 1     
   12    5   18 2     
   13    6    7 1     
   14    6   25 1     
   15    6   26 1     
   16    7    8 2     
   17    7    9 am    
   18    9   10 1     
   19    9   27 1     
   20   10   11 1     
   21   10   28 1     
   22   10   29 1     
   23   11   17 1     
   24   11   12 1     
   25   11   30 1     
   26   12   13 1     
   27   12   31 1     
   28   12   32 1     
   29   13   14 1     
   30   13   33 1     
   31   13   34 1     
   32   14   15 1     
   33   14   35 1     
   34   14   36 1     
   35   15   16 1     
   36   15   17 1     
   37   15   37 1     
   38   16   38 1     
   39   17   39 1     
   40   17   40 1     
   41   18   19 1     
   42   18   41 1     
   43    4   42 1     
   44    8   43 1     
   45    8   44 1     
   46   16   45 1     
   47   16   46 1     
@<TRIPOS>SUBSTRUCTURE
      1 S1             1
@<TRIPOS>SET
LONE_PAIRS      STATIC     ATOMS    <user>   **** ""
5 42 43 44 45 46
DONOR_HYDROGENS      STATIC     ATOMS    <user>   **** ""
2 27 38
ATOM$BLUE        STATIC     ATOMS    COLORGROUP SYSTEM
5 42 43 44 45 46
ATOM$RED        STATIC     ATOMS    COLORGROUP SYSTEM
2 27 38
