AV-unprocessed.smi:35|AV-procd|sdf|247|dock7
  -GOLD-   2262016 03D 1   1.00000     0.00000
 Structure written by MMmdl.
 29 30  0  0  0  0  0  0  0  0  1 V2000
  152.7495  141.0928  159.0695 O   0  0  0  0  0  0  0  0  0  0  0  0
  152.1023  141.0457  158.0256 C   0  0  0  0  0  0  0  0  0  0  0  0
  152.0643  139.8703  157.2711 N   0  0  0  0  0  0  0  0  0  0  0  0
  151.3620  139.6960  156.0773 C   0  0  0  0  0  0  0  0  0  0  0  0
  151.4129  138.6176  155.4869 O   0  0  0  0  0  0  0  0  0  0  0  0
  150.6105  140.7931  155.5976 N   0  0  0  0  0  0  0  0  0  0  0  0
  149.8531  140.6242  154.2911 C   0  0  2  0  0  0  0  0  0  0  0  0
  149.0104  141.7214  154.0941 O   0  0  0  0  0  0  0  0  0  0  0  0
  147.6955  141.4012  154.5376 C   0  0  1  0  0  0  0  0  0  0  0  0
  146.6604  142.3981  153.9887 C   0  0  0  0  0  0  0  0  0  0  0  0
  145.3650  142.0265  154.4093 O   0  0  0  0  0  0  0  0  0  0  0  0
  147.5498  139.9547  154.0568 C   0  0  1  0  0  0  0  0  0  0  0  0
  147.2118  139.9207  152.6791 O   0  0  0  0  0  0  0  0  0  0  0  0
  148.9374  139.3786  154.3392 C   0  0  1  0  0  0  0  0  0  0  0  0
  149.3052  138.3689  153.4169 O   0  0  0  0  0  0  0  0  0  0  0  0
  150.6423  141.9924  156.3027 C   0  0  0  0  0  0  0  0  0  0  0  0
  151.3327  142.1462  157.4572 C   0  0  0  0  0  0  0  0  0  0  0  0
  151.2445  143.9321  158.3104 Br  0  0  0  0  0  0  0  0  0  0  0  0
  152.5932  139.0827  157.6166 H   0  0  0  0  0  0  0  0  0  0  0  0
  150.6176  140.6039  153.5118 H   0  0  0  0  0  0  0  0  0  0  0  0
  147.6679  141.3997  155.6290 H   0  0  0  0  0  0  0  0  0  0  0  0
  146.8817  143.4183  154.3036 H   0  0  0  0  0  0  0  0  0  0  0  0
  146.6664  142.3840  152.8983 H   0  0  0  0  0  0  0  0  0  0  0  0
  145.0066  141.4221  153.7774 H   0  0  0  0  0  0  0  0  0  0  0  0
  146.7747  139.4219  154.6090 H   0  0  0  0  0  0  0  0  0  0  0  0
  147.9842  140.1382  152.1792 H   0  0  0  0  0  0  0  0  0  0  0  0
  148.9473  138.9597  155.3468 H   0  0  0  0  0  0  0  0  0  0  0  0
  149.4061  138.7667  152.5651 H   0  0  0  0  0  0  0  0  0  0  0  0
  150.1071  142.8558  155.9379 H   0  0  0  0  0  0  0  0  0  0  0  0
  1  2  2  0  0  0  0
  2 17  1  0  0  0  0
  2  3  1  0  0  0  0
  3 19  1  0  0  0  0
  3  4  1  0  0  0  0
  4  5  2  0  0  0  0
  4  6  1  0  0  0  0
  6  7  1  0  0  0  0
  6 16  1  0  0  0  0
  7 14  1  0  0  0  0
  7  8  1  0  0  0  0
  7 20  1  0  0  0  0
  8  9  1  0  0  0  0
  9 10  1  0  0  0  0
  9 12  1  0  0  0  0
  9 21  1  0  0  0  0
 10 11  1  0  0  0  0
 10 22  1  0  0  0  0
 10 23  1  0  0  0  0
 11 24  1  0  0  0  0
 12 13  1  0  0  0  0
 12 14  1  0  0  0  0
 12 25  1  0  0  0  0
 13 26  1  0  0  0  0
 14 15  1  0  0  0  0
 14 27  1  0  0  0  0
 15 28  1  0  0  0  0
 16 17  2  0  0  0  0
 16 29  1  0  0  0  0
 17 18  1  0  0  0  0
M  END
> <s_m_source_file>
AV-unprocessed.smi

> <i_m_source_file_index>
35

> <i_lp_mmshare_version>
43012

> <i_f3d_flags>
0

> <s_epik_input>
Tz1jMVtuSF1jKD1PKW4oW2NIXWMxQnIpW0NAQEhdMk9bQ0BASF0oW0NIMl1bT0hdKVtDQEBIXShbT0hdKVtDQEhdMltPSF0=

> <s_epik_cmdline>
J2VwaWtfcHl0aG9uJywgJy1waCcsICc3LjAnLCAnLXRuJywgJzgnLCAnLW1hJywgJzIwMCcsICctbWV0YWxfYmluZGluZycsICctaW1hZScsICc8aW5maWxlLm1hZT4nLCAnLW9tYWUnLCAnPG91dGZpbGUubWFlPic=

> <r_lp_tautomer_probability>
0.999537

> <r_epik_Ionization_Penalty>
0.10812

> <r_epik_Ionization_Penalty_Charging>
0.108119

> <r_epik_Ionization_Penalty_Neutral>
4.93006e-07

> <r_epik_State_Penalty>
0.0979238

> <r_epik_Charging_Adjusted_Penalty>
0.206043

> <i_epik_Tot_Q>
0

> <i_epik_Tot_abs_Q>
0

> <r_epik_Metal_State_Penalty>
3.07911

> <b_epik_Metal_Only>
0

> <s_epik_Chemistry_Notes>
This compound contains an acetal/aminal-like group ( X-CH(R)-Y where X, Y are N, S, or O) that may be acid/base labile, releasing an aldehyde.

> <s_lp_Force_Field>
OPLS_2005

> <r_lp_Energy>
33.4515

> <b_lp_Chiralities_Consistent>
1

> <s_lp_Variant>
AV-unprocessed.smi:35-1

> <Gold.Version>
5.8.1

> <Gold.Id.Protein>
6NUR|6NUR_protein|mol2

> <Gold.PLP.Fitness>
46.0090

> <Gold.PLP.PLP>
-32.6488

> <Gold.PLP.part.hbond>
-5.2891

> <Gold.PLP.part.metal>
0.0000

> <Gold.PLP.part.buried>
-3.1372

> <Gold.PLP.part.nonpolar>
-24.9291

> <Gold.PLP.part.repulsive>
0.2913

> <Gold.PLP.ligand.clash>
0.0000

> <Gold.PLP.ligand.torsion>
0.1749

> <Gold.PLP.Chemscore.Hbond>
3.5622

> <Gold.PLP.Chemscore.CHOScore>
1.0000

> <Gold.PLP.Chemscore.Metal>
0.0000

> <Gold.Chemscore.Hbonds>
donor molecule, donor type, donor heavy atom, donor atom, acceptor molecule, acceptor atom, score
      L1  H    11    24       P1 10175  0.93
      L1  H    13    26       P1  7957  1.00
      L1  H    15    28       P1  7957  1.00
      P1  H  8011  8017       L1     8  0.51
      L1  C    16    29       P1  8028  1.00

> <Gold.PLP.Chemscore.Internal.Correction>
0.0234

> <Gold.Rescore>
     Score         DG    S(hbond)    S(metal)    S(lipo)     H(rot)  DE(clash)    DE(int)     intcor
      7.62      -9.75       2.41        0.00      47.86       3.67       1.04       1.09       ----

> <Gold.Chemscore.Fitness>
7.6205

> <Gold.Chemscore.DG>
-9.7483

> <Gold.Chemscore.ZeroCoef>
-5.4800

> <Gold.Chemscore.Hbond>
2.4144

> <Gold.Chemscore.Metal>
0.0000

> <Gold.Chemscore.Lipo>
47.8611

> <Gold.Chemscore.Internal_Hbond>
0.0000

> <Gold.Chemscore.DEClash>
1.0405

> <Gold.Chemscore.DEInternal>
1.0873

> <Gold.Chemscore.Rot>
3.6701

> <Gold.Chemscore.Internal.Correction>
   9.000000E+99

> <Gold.Chemscore.Hbonds>
donor molecule, donor type, donor heavy atom, donor atom, acceptor molecule, acceptor atom, score
      L1  H    11    24       P1 10175  0.23
      L1  H    13    26       P1  7957  1.00
      L1  H    15    28       P1  7957  0.85
      P1  H  8011  8017       L1     8  0.11

> <Gold.Chemscore.Hbond.Weighted>
-8.0640

> <Gold.Chemscore.Metal.Weighted>
-0.0000

> <Gold.Chemscore.Lipo.Weighted>
-5.5997

> <Gold.Chemscore.Internal_Hbond.Weighted>
0.0000

> <Gold.Chemscore.DEClash.Weighted>
1.0405

> <Gold.Chemscore.DEInternal.Weighted>
1.0873

> <Gold.Chemscore.Rot.Weighted>
9.3955

> <Gold.Chemscore.Internal.Correction.Weighted>
   9.000000E+99

> <Gold.Protein.RotatedTorsions>
[ 6907 6896 6895 6894 ] final -107.04 input  -60.11 | X-H torsion
[ 7974 7965 7964 7962 ] final -174.34 input  175.53 | X-H torsion
[ 8008 7997 7996 7995 ] final -106.53 input   59.86 | X-H torsion
[ 10167 10162 10161 10158 ] final -112.99 input  -65.29 | X-H torsion
[ 10718 10713 10712 10709 ] final -165.90 input   66.30 | X-H torsion
[ 10763 10752 10751 10750 ] final   24.79 input  -60.55 | X-H torsion
[ 11005 11000 10999 10996 ] final   45.76 input  -57.11 | X-H torsion

> <Gold.Protein.ActiveResidues>
 VAL166  LYS551  ARG553  GLY616  TRP617  ASP618  TYR619  PRO620  LYS621  CYS622 
 ASP623  PHE694  ASN695  SER759  ASP760  ASP761  ALA762  ILE779  LEU786  VAL792 
 PHE793  MET794  SER795  GLU796  ALA797  LYS798  CYS799  TRP800  GLU811  SER814 

> <Gold.Protein.RotatedAtoms>
  150.7422  133.9885  159.3599 H   0  0  0  0  0  0  0  0  0  0  0  0  # atno 6907 bound_to 6896
  151.7832  135.0754  160.0386 H   0  0  0  0  0  0  0  0  0  0  0  0  # atno 6908 bound_to 6896
  152.3260  133.5868  159.5813 H   0  0  0  0  0  0  0  0  0  0  0  0  # atno 6909 bound_to 6896
  144.7132  140.1486  143.6386 H   0  0  0  0  0  0  0  0  0  0  0  0  # atno 7974 bound_to 7965
  154.9158  140.0408  157.1971 H   0  0  0  0  0  0  0  0  0  0  0  0  # atno 8008 bound_to 7997
  154.8302  140.2898  155.5706 H   0  0  0  0  0  0  0  0  0  0  0  0  # atno 8009 bound_to 7997
  156.2986  140.2502  156.3226 H   0  0  0  0  0  0  0  0  0  0  0  0  # atno 8010 bound_to 7997
  140.1167  143.4479  152.1717 H   0  0  0  0  0  0  0  0  0  0  0  0  # atno 10167 bound_to 10162
  156.6600  130.9042  151.3027 H   0  0  0  0  0  0  0  0  0  0  0  0  # atno 10718 bound_to 10713
  153.0738  135.6597  154.0190 H   0  0  0  0  0  0  0  0  0  0  0  0  # atno 10763 bound_to 10752
  153.9829  135.2953  155.3420 H   0  0  0  0  0  0  0  0  0  0  0  0  # atno 10764 bound_to 10752
  154.7120  135.5201  153.8751 H   0  0  0  0  0  0  0  0  0  0  0  0  # atno 10765 bound_to 10752
  140.1431  134.4558  155.8435 H   0  0  0  0  0  0  0  0  0  0  0  0  # atno 11005 bound_to 11000
  145.9137  139.2502  143.1422 LP  0  0  0  0  0  0  0  0  0  0  0  0  # atno 17320 bound_to 7965
  145.9691  140.8775  143.0172 LP  0  0  0  0  0  0  0  0  0  0  0  0  # atno 17321 bound_to 7965
  139.5590  144.7393  151.4210 LP  0  0  0  0  0  0  0  0  0  0  0  0  # atno 17342 bound_to 10162
  140.6895  143.7895  150.7234 LP  0  0  0  0  0  0  0  0  0  0  0  0  # atno 17343 bound_to 10162
  157.7112  130.9443  150.1098 LP  0  0  0  0  0  0  0  0  0  0  0  0  # atno 17370 bound_to 10713
  156.2018  130.3661  149.8779 LP  0  0  0  0  0  0  0  0  0  0  0  0  # atno 17371 bound_to 10713
  141.2189  133.6841  156.7283 LP  0  0  0  0  0  0  0  0  0  0  0  0  # atno 17394 bound_to 11000
  140.2698  134.8401  157.3836 LP  0  0  0  0  0  0  0  0  0  0  0  0  # atno 17395 bound_to 11000

$$$$
