AV-unprocessed.smi:2388|AV-procd|sdf|9471|dock1
  -GOLD-   2272013103D 1   1.00000     0.00000
 Structure written by MMmdl.
 43 44  0  0  0  0  0  0  0  0  1 V2000
  153.3932  141.4107  160.8111 C   0  0  0  0  0  0  0  0  0  0  0  0
  152.4985  142.5160  160.2909 C   0  0  0  0  0  0  0  0  0  0  0  0
  152.3283  143.7122  161.0150 C   0  0  0  0  0  0  0  0  0  0  0  0
  151.4886  144.7014  160.4725 C   0  0  0  0  0  0  0  0  0  0  0  0
  150.8579  144.4554  159.2377 C   0  0  0  0  0  0  0  0  0  0  0  0
  151.0793  143.2262  158.5768 C   0  0  0  0  0  0  0  0  0  0  0  0
  150.3957  143.0756  157.3411 N   0  0  0  0  0  0  0  0  0  0  0  0
  150.2480  141.9612  156.6029 C   0  0  0  0  0  0  0  0  0  0  0  0
  150.6919  140.8503  156.8945 O   0  0  0  0  0  0  0  0  0  0  0  0
  149.5401  142.2091  155.4920 N   0  0  0  0  0  0  0  0  0  0  0  0
  149.1868  141.2214  154.4787 C   0  0  0  0  0  0  0  0  0  0  0  0
  147.7753  140.6656  154.7422 C   0  0  0  0  0  0  0  0  0  0  0  0
  146.6664  141.7315  154.6907 C   0  0  0  0  0  0  0  0  0  0  0  0
  146.5754  142.4504  153.6939 O   0  0  0  0  0  0  0  0  0  0  0  0
  145.8240  141.8538  155.7459 N   0  0  0  0  0  0  0  0  0  0  0  0
  145.8986  141.0797  156.9929 C   0  0  0  0  0  0  0  0  0  0  0  0
  146.3933  142.0056  158.1192 C   0  0  0  0  0  0  0  0  0  0  0  0
  145.4807  143.2396  158.2568 C   0  0  0  0  0  0  0  0  0  0  0  0
  145.2454  143.9304  156.8999 C   0  0  0  0  0  0  0  0  0  0  0  0
  144.8087  142.9119  155.8306 C   0  0  0  0  0  0  0  0  0  0  0  0
  151.8928  142.2792  159.1074 N   0  0  0  0  0  0  0  0  0  0  0  0
  153.7401  141.6255  161.8222 H   0  0  0  0  0  0  0  0  0  0  0  0
  154.2659  141.2977  160.1673 H   0  0  0  0  0  0  0  0  0  0  0  0
  152.8555  140.4622  160.8308 H   0  0  0  0  0  0  0  0  0  0  0  0
  152.8270  143.8709  161.9597 H   0  0  0  0  0  0  0  0  0  0  0  0
  151.3302  145.6339  160.9939 H   0  0  0  0  0  0  0  0  0  0  0  0
  150.2098  145.2053  158.8076 H   0  0  0  0  0  0  0  0  0  0  0  0
  149.9624  143.9126  156.9806 H   0  0  0  0  0  0  0  0  0  0  0  0
  149.2139  143.1520  155.3383 H   0  0  0  0  0  0  0  0  0  0  0  0
  149.2295  141.6564  153.4782 H   0  0  0  0  0  0  0  0  0  0  0  0
  149.9277  140.4215  154.5118 H   0  0  0  0  0  0  0  0  0  0  0  0
  147.5469  139.8925  154.0074 H   0  0  0  0  0  0  0  0  0  0  0  0
  147.7653  140.1939  155.7260 H   0  0  0  0  0  0  0  0  0  0  0  0
  144.9061  140.6979  157.2363 H   0  0  0  0  0  0  0  0  0  0  0  0
  146.5347  140.1986  156.9262 H   0  0  0  0  0  0  0  0  0  0  0  0
  146.4302  141.4626  159.0639 H   0  0  0  0  0  0  0  0  0  0  0  0
  147.4136  142.3268  157.9048 H   0  0  0  0  0  0  0  0  0  0  0  0
  144.5197  142.9270  158.6673 H   0  0  0  0  0  0  0  0  0  0  0  0
  145.9053  143.9458  158.9708 H   0  0  0  0  0  0  0  0  0  0  0  0
  144.4931  144.7126  157.0040 H   0  0  0  0  0  0  0  0  0  0  0  0
  146.1632  144.4241  156.5772 H   0  0  0  0  0  0  0  0  0  0  0  0
  144.6436  143.4196  154.8796 H   0  0  0  0  0  0  0  0  0  0  0  0
  143.8478  142.4719  156.1016 H   0  0  0  0  0  0  0  0  0  0  0  0
  1  2  1  0  0  0  0
  1 22  1  0  0  0  0
  1 23  1  0  0  0  0
  1 24  1  0  0  0  0
  2 21  1  0  0  0  0
  2  3  2  0  0  0  0
  3  4  1  0  0  0  0
  3 25  1  0  0  0  0
  4  5  2  0  0  0  0
  4 26  1  0  0  0  0
  5  6  1  0  0  0  0
  5 27  1  0  0  0  0
  6  7  1  0  0  0  0
  6 21  2  0  0  0  0
  7  8  1  0  0  0  0
  7 28  1  0  0  0  0
  8  9  2  0  0  0  0
  8 10  1  0  0  0  0
 10 11  1  0  0  0  0
 10 29  1  0  0  0  0
 11 12  1  0  0  0  0
 11 30  1  0  0  0  0
 11 31  1  0  0  0  0
 12 13  1  0  0  0  0
 12 32  1  0  0  0  0
 12 33  1  0  0  0  0
 13 14  2  0  0  0  0
 13 15  1  0  0  0  0
 15 20  1  0  0  0  0
 15 16  1  0  0  0  0
 16 17  1  0  0  0  0
 16 34  1  0  0  0  0
 16 35  1  0  0  0  0
 17 18  1  0  0  0  0
 17 36  1  0  0  0  0
 17 37  1  0  0  0  0
 18 19  1  0  0  0  0
 18 38  1  0  0  0  0
 18 39  1  0  0  0  0
 19 20  1  0  0  0  0
 19 40  1  0  0  0  0
 19 41  1  0  0  0  0
 20 42  1  0  0  0  0
 20 43  1  0  0  0  0
M  END
> <s_m_source_file>
AV-unprocessed.smi

> <i_m_source_file_index>
2388

> <i_lp_mmshare_version>
43012

> <i_f3d_flags>
0

> <s_epik_input>
W0NIM11jMVtjSF1bY0hdW2NIXWMobjEpW05IXUMoPU8pW05IXVtDSDJdW0NIMl1DKD1PKU4yW0NIMl1bQ0gyXVtDSDJdW0NIMl1bQ0gyXTI=

> <s_epik_cmdline>
J2VwaWtfcHl0aG9uJywgJy1waCcsICc3LjAnLCAnLXRuJywgJzgnLCAnLW1hJywgJzIwMCcsICctbWV0YWxfYmluZGluZycsICctaW1hZScsICc8aW5maWxlLm1hZT4nLCAnLW9tYWUnLCAnPG91dGZpbGUubWFlPic=

> <r_lp_tautomer_probability>
1

> <r_epik_Ionization_Penalty>
7.16628e-05

> <r_epik_Ionization_Penalty_Charging>
0

> <r_epik_Ionization_Penalty_Neutral>
7.16628e-05

> <r_epik_State_Penalty>
-0

> <r_epik_Charging_Adjusted_Penalty>
0

> <i_epik_Tot_Q>
0

> <i_epik_Tot_abs_Q>
0

> <r_epik_Metal_State_Penalty>
-0

> <b_epik_Metal_Only>
0

> <s_lp_Force_Field>
OPLS_2005

> <r_lp_Energy>
26.3076

> <b_lp_Chiralities_Consistent>
1

> <s_lp_Variant>
AV-unprocessed.smi:2388-1

> <Gold.Version>
5.8.1

> <Gold.Id.Protein>
6NUR|6NUR_protein|mol2

> <Gold.PLP.Fitness>
44.5347

> <Gold.PLP.PLP>
-39.0130

> <Gold.PLP.part.hbond>
-2.0000

> <Gold.PLP.part.metal>
0.0000

> <Gold.PLP.part.buried>
-6.1867

> <Gold.PLP.part.nonpolar>
-31.0231

> <Gold.PLP.part.repulsive>
0.4079

> <Gold.PLP.ligand.clash>
0.0000

> <Gold.PLP.ligand.torsion>
0.2509

> <Gold.PLP.Chemscore.Hbond>
1.9920

> <Gold.PLP.Chemscore.CHOScore>
0.0000

> <Gold.PLP.Chemscore.Metal>
0.0000

> <Gold.Chemscore.Hbonds>
donor molecule, donor type, donor heavy atom, donor atom, acceptor molecule, acceptor atom, score
      L1  H     7    28       P1  8028  0.99
      L1  H    10    29       P1  8028  1.00

> <Gold.PLP.Chemscore.Internal.Correction>
0.0474

> <Gold.Rescore>
     Score         DG    S(hbond)    S(metal)    S(lipo)     H(rot)  DE(clash)    DE(int)     intcor
     15.83     -17.40       1.97        0.00      78.80       1.51       0.07       1.50       ----

> <Gold.Chemscore.Fitness>
15.8267

> <Gold.Chemscore.DG>
-17.3956

> <Gold.Chemscore.ZeroCoef>
-5.4800

> <Gold.Chemscore.Hbond>
1.9671

> <Gold.Chemscore.Metal>
0.0000

> <Gold.Chemscore.Lipo>
78.7953

> <Gold.Chemscore.Internal_Hbond>
0.0000

> <Gold.Chemscore.DEClash>
0.0685

> <Gold.Chemscore.DEInternal>
1.5005

> <Gold.Chemscore.Rot>
1.5131

> <Gold.Chemscore.Internal.Correction>
   9.000000E+99

> <Gold.Chemscore.Hbonds>
donor molecule, donor type, donor heavy atom, donor atom, acceptor molecule, acceptor atom, score
      L1  H     7    28       P1  8028  0.90
      L1  H    10    29       P1  8028  0.99

> <Gold.Chemscore.Hbond.Weighted>
-6.5701

> <Gold.Chemscore.Metal.Weighted>
-0.0000

> <Gold.Chemscore.Lipo.Weighted>
-9.2191

> <Gold.Chemscore.Internal_Hbond.Weighted>
0.0000

> <Gold.Chemscore.DEClash.Weighted>
0.0685

> <Gold.Chemscore.DEInternal.Weighted>
1.5005

> <Gold.Chemscore.Rot.Weighted>
3.8735

> <Gold.Chemscore.Internal.Correction.Weighted>
   9.000000E+99

> <Gold.Protein.RotatedTorsions>
[ 6907 6896 6895 6894 ] final  -57.11 input  -60.11 | X-H torsion
[ 7974 7965 7964 7962 ] final  -82.98 input  175.53 | X-H torsion
[ 8008 7997 7996 7995 ] final  -29.28 input   59.86 | X-H torsion
[ 10167 10162 10161 10158 ] final  -40.47 input  -65.29 | X-H torsion
[ 10718 10713 10712 10709 ] final -124.19 input   66.30 | X-H torsion
[ 10763 10752 10751 10750 ] final  144.19 input  -60.55 | X-H torsion
[ 11005 11000 10999 10996 ] final   47.28 input  -57.11 | X-H torsion

> <Gold.Protein.ActiveResidues>
 VAL166  LYS551  ARG553  GLY616  TRP617  ASP618  TYR619  PRO620  LYS621  CYS622 
 ASP623  PHE694  ASN695  SER759  ASP760  ASP761  ALA762  ILE779  LEU786  VAL792 
 PHE793  MET794  SER795  GLU796  ALA797  LYS798  CYS799  TRP800  GLU811  SER814 

> <Gold.Protein.RotatedAtoms>
  150.8113  134.7269  159.6689 H   0  0  0  0  0  0  0  0  0  0  0  0  # atno 6907 bound_to 6896
  152.4233  134.5912  159.9984 H   0  0  0  0  0  0  0  0  0  0  0  0  # atno 6908 bound_to 6896
  151.6121  133.3309  159.3106 H   0  0  0  0  0  0  0  0  0  0  0  0  # atno 6909 bound_to 6896
  145.5261  140.9526  143.1628 H   0  0  0  0  0  0  0  0  0  0  0  0  # atno 7974 bound_to 7965
  154.4296  140.1822  156.1223 H   0  0  0  0  0  0  0  0  0  0  0  0  # atno 8008 bound_to 7997
  156.0133  140.3348  155.6938 H   0  0  0  0  0  0  0  0  0  0  0  0  # atno 8009 bound_to 7997
  155.6080  140.0647  157.2705 H   0  0  0  0  0  0  0  0  0  0  0  0  # atno 8010 bound_to 7997
  140.7033  143.3151  151.2929 H   0  0  0  0  0  0  0  0  0  0  0  0  # atno 10167 bound_to 10162
  156.1566  130.6572  150.9990 H   0  0  0  0  0  0  0  0  0  0  0  0  # atno 10718 bound_to 10713
  153.9847  135.2938  155.3417 H   0  0  0  0  0  0  0  0  0  0  0  0  # atno 10763 bound_to 10752
  154.7249  135.5093  153.8873 H   0  0  0  0  0  0  0  0  0  0  0  0  # atno 10764 bound_to 10752
  153.0837  135.6687  154.0107 H   0  0  0  0  0  0  0  0  0  0  0  0  # atno 10765 bound_to 10752
  140.1293  134.4727  155.8534 H   0  0  0  0  0  0  0  0  0  0  0  0  # atno 11005 bound_to 11000
  144.7650  139.6866  143.7218 LP  0  0  0  0  0  0  0  0  0  0  0  0  # atno 17320 bound_to 7965
  146.2074  139.5408  142.9703 LP  0  0  0  0  0  0  0  0  0  0  0  0  # atno 17321 bound_to 7965
  139.6587  144.0228  152.2678 LP  0  0  0  0  0  0  0  0  0  0  0  0  # atno 17342 bound_to 10162
  139.9788  144.6442  150.7919 LP  0  0  0  0  0  0  0  0  0  0  0  0  # atno 17343 bound_to 10162
  157.6700  131.0863  150.7636 LP  0  0  0  0  0  0  0  0  0  0  0  0  # atno 17370 bound_to 10713
  156.7701  130.4826  149.5420 LP  0  0  0  0  0  0  0  0  0  0  0  0  # atno 17371 bound_to 10713
  141.2167  133.6790  156.7038 LP  0  0  0  0  0  0  0  0  0  0  0  0  # atno 17394 bound_to 11000
  140.2863  134.8276  157.3978 LP  0  0  0  0  0  0  0  0  0  0  0  0  # atno 17395 bound_to 11000

$$$$
