AV-unprocessed.smi:3165|AV-procd|sdf|12086|dock8
  -GOLD-   2272017513D 1   1.00000     0.00000
 Structure written by MMmdl.
 38 39  0  0  0  0  0  0  0  0  2 V2000
  147.1064  141.9528  155.5380 C   0  0  0  0  0  0  0  0  0  0  0  0
  148.4549  141.2156  155.6588 C   0  0  1  0  0  0  0  0  0  0  0  0
  148.9141  140.6104  154.3153 C   0  0  0  0  0  0  0  0  0  0  0  0
  150.0304  139.6920  154.4529 N   0  0  0  0  0  0  0  0  0  0  0  0
  150.0672  138.3386  154.1894 C   0  0  0  0  0  0  0  0  0  0  0  0
  151.3350  137.9074  154.4559 C   0  0  0  0  0  0  0  0  0  0  0  0
  152.0121  139.0863  154.8758 C   0  0  0  0  0  0  0  0  0  0  0  0
  151.2297  140.1537  154.8685 N   0  0  0  0  0  0  0  0  0  0  0  0
  149.5134  142.1125  156.1744 N   0  3  0  0  0  0  0  0  0  0  0  0
  149.9642  141.8397  157.5559 C   0  0  0  0  0  0  0  0  0  0  0  0
  151.0858  142.8042  157.9661 C   0  0  2  0  0  0  0  0  0  0  0  0
  151.8675  142.2884  159.1899 C   0  0  0  0  0  0  0  0  0  0  0  0
  152.9166  143.3148  159.6331 C   0  0  0  0  0  0  0  0  0  0  0  0
  152.2502  144.6785  159.8428 C   0  0  0  0  0  0  0  0  0  0  0  0
  151.4428  145.0754  158.5970 C   0  0  0  0  0  0  0  0  0  0  0  0
  150.4916  144.0598  158.2912 O   0  0  0  0  0  0  0  0  0  0  0  0
  146.3204  141.2892  155.1772 H   0  0  0  0  0  0  0  0  0  0  0  0
  147.1748  142.7917  154.8445 H   0  0  0  0  0  0  0  0  0  0  0  0
  146.7681  142.3411  156.4982 H   0  0  0  0  0  0  0  0  0  0  0  0
  148.3394  140.3971  156.3710 H   0  0  0  0  0  0  0  0  0  0  0  0
  148.0885  140.0779  153.8403 H   0  0  0  0  0  0  0  0  0  0  0  0
  149.2117  141.4013  153.6251 H   0  0  0  0  0  0  0  0  0  0  0  0
  149.1986  137.7999  153.8401 H   0  0  0  0  0  0  0  0  0  0  0  0
  151.7212  136.9034  154.3627 H   0  0  0  0  0  0  0  0  0  0  0  0
  153.0421  139.1977  155.1813 H   0  0  0  0  0  0  0  0  0  0  0  0
  150.3183  142.0100  155.5729 H   0  0  0  0  0  0  0  0  0  0  0  0
  149.1305  141.9237  158.2529 H   0  0  0  0  0  0  0  0  0  0  0  0
  150.3276  140.8127  157.6095 H   0  0  0  0  0  0  0  0  0  0  0  0
  151.7714  142.9325  157.1262 H   0  0  0  0  0  0  0  0  0  0  0  0
  151.1781  142.0947  160.0129 H   0  0  0  0  0  0  0  0  0  0  0  0
  152.3516  141.3393  158.9582 H   0  0  0  0  0  0  0  0  0  0  0  0
  153.4079  142.9862  160.5494 H   0  0  0  0  0  0  0  0  0  0  0  0
  153.6939  143.3983  158.8725 H   0  0  0  0  0  0  0  0  0  0  0  0
  151.5863  144.6339  160.7071 H   0  0  0  0  0  0  0  0  0  0  0  0
  153.0020  145.4364  160.0646 H   0  0  0  0  0  0  0  0  0  0  0  0
  150.9135  146.0111  158.7772 H   0  0  0  0  0  0  0  0  0  0  0  0
  152.1011  145.2418  157.7428 H   0  0  0  0  0  0  0  0  0  0  0  0
  149.1922  143.0686  156.1161 H   0  0  0  0  0  0  0  0  0  0  0  0
  1  2  1  0  0  0  0
  1 17  1  0  0  0  0
  1 18  1  0  0  0  0
  1 19  1  0  0  0  0
  2  3  1  0  0  0  0
  2  9  1  0  0  0  0
  2 20  1  0  0  0  0
  3  4  1  0  0  0  0
  3 21  1  0  0  0  0
  3 22  1  0  0  0  0
  4  8  1  0  0  0  0
  4  5  1  0  0  0  0
  5  6  2  0  0  0  0
  5 23  1  0  0  0  0
  6  7  1  0  0  0  0
  6 24  1  0  0  0  0
  7  8  2  0  0  0  0
  7 25  1  0  0  0  0
  9 10  1  0  0  0  0
  9 26  1  0  0  0  0
  9 38  1  0  0  0  0
 10 11  1  0  0  0  0
 10 27  1  0  0  0  0
 10 28  1  0  0  0  0
 11 16  1  0  0  0  0
 11 12  1  0  0  0  0
 11 29  1  0  0  0  0
 12 13  1  0  0  0  0
 12 30  1  0  0  0  0
 12 31  1  0  0  0  0
 13 14  1  0  0  0  0
 13 32  1  0  0  0  0
 13 33  1  0  0  0  0
 14 15  1  0  0  0  0
 14 34  1  0  0  0  0
 14 35  1  0  0  0  0
 15 16  1  0  0  0  0
 15 36  1  0  0  0  0
 15 37  1  0  0  0  0
M  CHG  1   9   1
M  END
> <s_m_source_file>
AV-unprocessed.smi

> <i_m_source_file_index>
3165

> <i_lp_mmshare_version>
43012

> <i_f3d_flags>
0

> <s_epik_input>
bjFbY0hdW2NIXVtjSF1uMVtDSDJdW0NAQEhdKFtDSDNdKVtOSF1bQ0gyXVtDQEBIXTJbQ0gyXVtDSDJdW0NIMl1bQ0gyXU8y

> <s_epik_cmdline>
J2VwaWtfcHl0aG9uJywgJy1waCcsICc3LjAnLCAnLXRuJywgJzgnLCAnLW1hJywgJzIwMCcsICctbWV0YWxfYmluZGluZycsICctaW1hZScsICc8aW5maWxlLm1hZT4nLCAnLW9tYWUnLCAnPG91dGZpbGUubWFlPic=

> <r_lp_tautomer_probability>
1

> <r_epik_Ionization_Penalty>
0.00849196

> <r_epik_Ionization_Penalty_Charging>
0.00848754

> <r_epik_Ionization_Penalty_Neutral>
4.42049e-06

> <r_epik_State_Penalty>
0.00639836

> <r_epik_Charging_Adjusted_Penalty>
0.0148859

> <i_epik_Tot_Q>
1

> <i_epik_Tot_abs_Q>
1

> <r_epik_Metal_State_Penalty>
0.00639878

> <b_epik_Metal_Only>
0

> <s_lp_Force_Field>
OPLS_2005

> <r_lp_Energy>
12.7684

> <b_lp_Chiralities_Consistent>
1

> <s_lp_Variant>
AV-unprocessed.smi:3165-2

> <Gold.Version>
5.8.1

> <Gold.Id.Protein>
6NUR|6NUR_protein|mol2

> <Gold.PLP.Fitness>
47.7461

> <Gold.PLP.PLP>
-38.1298

> <Gold.PLP.part.hbond>
-2.0000

> <Gold.PLP.part.metal>
0.0000

> <Gold.PLP.part.buried>
-3.5077

> <Gold.PLP.part.nonpolar>
-33.0109

> <Gold.PLP.part.repulsive>
0.4233

> <Gold.PLP.ligand.clash>
0.0000

> <Gold.PLP.ligand.torsion>
0.9307

> <Gold.PLP.Chemscore.Hbond>
2.8000

> <Gold.PLP.Chemscore.CHOScore>
1.0000

> <Gold.PLP.Chemscore.Metal>
0.0000

> <Gold.Chemscore.Hbonds>
donor molecule, donor type, donor heavy atom, donor atom, acceptor molecule, acceptor atom, score
      L1  H     9    38       P1  8028  2.00
      P1  H  7989  7998       L1     8  0.85
      L1  C     5    23       P1  7948  0.97

> <Gold.PLP.Chemscore.Internal.Correction>
0.0778

> <Gold.Rescore>
     Score         DG    S(hbond)    S(metal)    S(lipo)     H(rot)  DE(clash)    DE(int)     intcor
     17.48     -18.68       1.69        0.00     100.53       1.64       0.14       1.05       ----

> <Gold.Chemscore.Fitness>
17.4848

> <Gold.Chemscore.DG>
-18.6757

> <Gold.Chemscore.ZeroCoef>
-5.4800

> <Gold.Chemscore.Hbond>
1.6896

> <Gold.Chemscore.Metal>
0.0000

> <Gold.Chemscore.Lipo>
100.5312

> <Gold.Chemscore.Internal_Hbond>
0.0000

> <Gold.Chemscore.DEClash>
0.1363

> <Gold.Chemscore.DEInternal>
1.0546

> <Gold.Chemscore.Rot>
1.6444

> <Gold.Chemscore.Internal.Correction>
   9.000000E+99

> <Gold.Chemscore.Hbonds>
donor molecule, donor type, donor heavy atom, donor atom, acceptor molecule, acceptor atom, score
      L1  H     9    38       P1  8028  1.00
      P1  H  7989  7998       L1     8  0.05

> <Gold.Chemscore.Hbond.Weighted>
-5.6433

> <Gold.Chemscore.Metal.Weighted>
-0.0000

> <Gold.Chemscore.Lipo.Weighted>
-11.7622

> <Gold.Chemscore.Internal_Hbond.Weighted>
0.0000

> <Gold.Chemscore.DEClash.Weighted>
0.1363

> <Gold.Chemscore.DEInternal.Weighted>
1.0546

> <Gold.Chemscore.Rot.Weighted>
4.2097

> <Gold.Chemscore.Internal.Correction.Weighted>
   9.000000E+99

> <Gold.Protein.RotatedTorsions>
[ 6907 6896 6895 6894 ] final -138.85 input  -60.11 | X-H torsion
[ 7974 7965 7964 7962 ] final    8.71 input  175.53 | X-H torsion
[ 8008 7997 7996 7995 ] final   73.61 input   59.86 | X-H torsion
[ 10167 10162 10161 10158 ] final   95.93 input  -65.29 | X-H torsion
[ 10718 10713 10712 10709 ] final -169.17 input   66.30 | X-H torsion
[ 10763 10752 10751 10750 ] final   87.64 input  -60.55 | X-H torsion
[ 11005 11000 10999 10996 ] final  175.93 input  -57.11 | X-H torsion

> <Gold.Protein.ActiveResidues>
 VAL166  LYS551  ARG553  GLY616  TRP617  ASP618  TYR619  PRO620  LYS621  CYS622 
 ASP623  PHE694  ASN695  SER759  ASP760  ASP761  ALA762  ILE779  LEU786  VAL792 
 PHE793  MET794  SER795  GLU796  ALA797  LYS798  CYS799  TRP800  GLU811  SER814 

> <Gold.Protein.RotatedAtoms>
  151.0403  133.5712  159.2651 H   0  0  0  0  0  0  0  0  0  0  0  0  # atno 6907 bound_to 6896
  151.2760  135.0698  159.9162 H   0  0  0  0  0  0  0  0  0  0  0  0  # atno 6908 bound_to 6896
  152.5363  134.0126  159.7999 H   0  0  0  0  0  0  0  0  0  0  0  0  # atno 6909 bound_to 6896
  146.2413  139.9893  142.8427 H   0  0  0  0  0  0  0  0  0  0  0  0  # atno 7974 bound_to 7965
  155.7862  140.3480  155.5324 H   0  0  0  0  0  0  0  0  0  0  0  0  # atno 8008 bound_to 7997
  155.8679  140.0982  157.1590 H   0  0  0  0  0  0  0  0  0  0  0  0  # atno 8009 bound_to 7997
  154.4015  140.1346  156.4029 H   0  0  0  0  0  0  0  0  0  0  0  0  # atno 8010 bound_to 7997
  139.7942  144.6840  150.9851 H   0  0  0  0  0  0  0  0  0  0  0  0  # atno 10167 bound_to 10162
  156.7076  130.9221  151.3086 H   0  0  0  0  0  0  0  0  0  0  0  0  # atno 10718 bound_to 10713
  153.1688  135.4536  154.9874 H   0  0  0  0  0  0  0  0  0  0  0  0  # atno 10763 bound_to 10752
  154.7951  135.3235  154.7687 H   0  0  0  0  0  0  0  0  0  0  0  0  # atno 10764 bound_to 10752
  153.8167  135.6950  153.4888 H   0  0  0  0  0  0  0  0  0  0  0  0  # atno 10765 bound_to 10752
  140.3675  134.7059  157.4371 H   0  0  0  0  0  0  0  0  0  0  0  0  # atno 11005 bound_to 11000
  145.1518  140.9627  143.4428 LP  0  0  0  0  0  0  0  0  0  0  0  0  # atno 17320 bound_to 7965
  145.0198  139.3435  143.6078 LP  0  0  0  0  0  0  0  0  0  0  0  0  # atno 17321 bound_to 7965
  140.7820  143.4349  151.0639 LP  0  0  0  0  0  0  0  0  0  0  0  0  # atno 17342 bound_to 10162
  139.8024  143.8065  152.3164 LP  0  0  0  0  0  0  0  0  0  0  0  0  # atno 17343 bound_to 10162
  157.6949  130.9271  150.0616 LP  0  0  0  0  0  0  0  0  0  0  0  0  # atno 17370 bound_to 10713
  156.1684  130.3645  149.9200 LP  0  0  0  0  0  0  0  0  0  0  0  0  # atno 17371 bound_to 10713
  140.0578  134.6039  155.8785 LP  0  0  0  0  0  0  0  0  0  0  0  0  # atno 17394 bound_to 11000
  141.1965  133.6592  156.5694 LP  0  0  0  0  0  0  0  0  0  0  0  0  # atno 17395 bound_to 11000

$$$$
