#       Name:                AV-unprocessed.smi:3224
#       Creating user name   scv26
#       Creation time:       Fri Mar 27 18:15:34 2020


#       File generated by GOLD software.
#

@<TRIPOS>MOLECULE
AV-unprocessed.smi:3224
    36    37     1
SMALL
NO_CHARGES


@<TRIPOS>ATOM
      1 ****        -1.1959   2.5113   0.0005 C.3            1 S1                 0.0000
      2 ****        -1.0004   0.9797   0.0007 C.3            1 S1                 0.0000
      3 ****         0.4564   0.7720   0.0004 N.am           1 S1                 0.0000
      4 ****         1.1784  -0.3628   0.0004 C.2            1 S1                 0.0000
      5 ****         0.6148  -1.4580   0.0011 O.2            1 S1                 0.0000
      6 ****         2.5160  -0.1299  -0.0006 N.pl3          1 S1                -1.0000
      7 ****         3.4775  -1.0801  -0.0011 C.2            1 S1                 0.0000
      8 ****         3.2975  -2.4114  -0.0026 N.2            1 S1                 0.0000
      9 ****         4.4832  -3.1465  -0.0030 C.2            1 S1                 0.0000
     10 ****         5.6041  -2.3620  -0.0019 C.2            1 S1                 0.0000
     11 ****         5.1955  -0.6710  -0.0002 S.3            1 S1                 0.0000
     12 ****        -1.6499   0.3576   1.2635 C.3            1 S1                 0.0000
     13 ****        -3.1873   0.3525   1.1859 C.3            1 S1                 0.0000
     14 ****        -3.6172  -0.3067   0.0011 O.3            1 S1                 0.0000
     15 ****        -3.1876   0.3523  -1.1841 C.3            1 S1                 0.0000
     16 ****        -1.6501   0.3574  -1.2620 C.3            1 S1                 0.0000
     17 ****        -2.2457   2.8008   0.0006 H              1 S1                 0.0000
     18 ****        -0.7372   2.9668  -0.8780 H              1 S1                 0.0000
     19 ****        -0.7370   2.9670   0.8789 H              1 S1                 0.0000
     20 ****         1.0027   1.6207  -0.0000 H              1 S1                 0.0000
     21 ****         4.4348  -4.2253  -0.0041 H              1 S1                 0.0000
     22 ****         6.6381  -2.6716  -0.0020 H              1 S1                 0.0000
     23 ****        -1.3321  -0.6761   1.3920 H              1 S1                 0.0000
     24 ****        -1.3214   0.8838   2.1606 H              1 S1                 0.0000
     25 ****        -3.5980  -0.1771   2.0456 H              1 S1                 0.0000
     26 ****        -3.5934   1.3640   1.2223 H              1 S1                 0.0000
     27 ****        -3.5984  -0.1776  -2.0435 H              1 S1                 0.0000
     28 ****        -3.5936   1.3637  -1.2206 H              1 S1                 0.0000
     29 ****        -1.3219   0.8833  -2.1591 H              1 S1                 0.0000
     30 ****        -1.3324  -0.6764  -1.3902 H              1 S1                 0.0000
     31 ****        -0.3840  -1.5063   0.0017 LP             1 S1                 0.0000
     32 ****         1.1561  -2.2989   0.0011 LP             1 S1                 0.0000
     33 ****         2.8149   0.8244  -0.0010 LP             1 S1                 0.0000
     34 ****         2.3931  -2.8380  -0.0034 LP             1 S1                 0.0000
     35 ****        -4.6165  -0.3444   0.0012 LP             1 S1                 0.0000
     36 ****        -3.2486  -1.2363   0.0011 LP             1 S1                 0.0000
@<TRIPOS>BOND
    1    1    2 1     
    2    1   17 1     
    3    1   18 1     
    4    1   19 1     
    5    2   16 1     
    6    2    3 1     
    7    2   12 1     
    8    3    4 am    
    9    3   20 1     
   10    4    5 2     
   11    4    6 1     
   12    6    7 1     
   13    7   11 1     
   14    7    8 2     
   15    8    9 1     
   16    9   10 2     
   17    9   21 1     
   18   10   11 1     
   19   10   22 1     
   20   12   13 1     
   21   12   23 1     
   22   12   24 1     
   23   13   14 1     
   24   13   25 1     
   25   13   26 1     
   26   14   15 1     
   27   15   16 1     
   28   15   27 1     
   29   15   28 1     
   30   16   29 1     
   31   16   30 1     
   32    5   31 1     
   33    5   32 1     
   34    6   33 1     
   35    8   34 1     
   36   14   35 1     
   37   14   36 1     
@<TRIPOS>SUBSTRUCTURE
      1 S1             1
@<TRIPOS>SET
LONE_PAIRS      STATIC     ATOMS    <user>   **** ""
6 31 32 33 34 35 36
DONOR_HYDROGENS      STATIC     ATOMS    <user>   **** ""
1 20
ATOM$BLUE        STATIC     ATOMS    COLORGROUP SYSTEM
6 31 32 33 34 35 36
ATOM$RED        STATIC     ATOMS    COLORGROUP SYSTEM
1 20
