AV-unprocessed.smi:287|AV-procd|sdf|2200|dock4
  -GOLD-   2262022 13D 1   1.00000     0.00000
 Structure written by MMmdl.
 55 58  0  0  0  0  0  0  0  0  1 V2000
  152.2189  141.6841  158.7195 C   0  0  0  0  0  0  0  0  0  0  0  0
  151.9710  140.2218  158.5747 C   0  0  0  0  0  0  0  0  0  0  0  0
  151.0528  139.4832  157.8867 C   0  0  0  0  0  0  0  0  0  0  0  0
  151.3407  138.1074  158.1345 C   0  0  0  0  0  0  0  0  0  0  0  0
  150.5809  136.9097  157.5803 C   0  0  2  0  0  0  0  0  0  0  0  0
  149.1634  136.8766  158.1741 C   0  0  0  0  0  0  0  0  0  0  0  0
  151.1720  135.6767  157.9436 O   0  0  0  0  0  0  0  0  0  0  0  0
  150.5117  136.9015  156.0352 C   0  0  0  0  0  0  0  0  0  0  0  0
  150.1936  135.5870  155.4872 N   0  0  0  0  0  0  0  0  0  0  0  0
  148.9084  135.2127  155.3202 C   0  0  0  0  0  0  0  0  0  0  0  0
  147.8946  135.9106  155.8954 N   0  0  0  0  0  0  0  0  0  0  0  0
  146.6303  135.5148  155.7205 C   0  0  0  0  0  0  0  0  0  0  0  0
  146.1713  134.4736  155.0233 N   0  0  0  0  0  0  0  0  0  0  0  0
  147.1860  133.7723  154.4392 C   0  0  0  0  0  0  0  0  0  0  0  0
  148.5720  134.0765  154.5405 C   0  0  0  0  0  0  0  0  0  0  0  0
  149.3128  133.1488  153.8204 N   0  0  0  0  0  0  0  0  0  0  0  0
  148.4123  132.3428  153.3253 C   0  0  0  0  0  0  0  0  0  0  0  0
  147.1075  132.6446  153.6468 N   0  0  0  0  0  0  0  0  0  0  0  0
  145.8759  131.9089  153.2319 C   0  0  1  0  0  0  0  0  0  0  0  0
  145.1309  132.7411  152.4023 O   0  0  0  0  0  0  0  0  0  0  0  0
  144.4748  131.9483  151.4241 C   0  0  1  0  0  0  0  0  0  0  0  0
  144.0194  132.8085  150.2323 C   0  0  0  0  0  0  0  0  0  0  0  0
  143.0777  132.0996  149.4557 O   0  0  0  0  0  0  0  0  0  0  0  0
  145.5091  130.8572  151.1040 C   0  0  1  0  0  0  0  0  0  0  0  0
  146.4256  131.2787  150.1112 O   0  0  0  0  0  0  0  0  0  0  0  0
  146.2250  130.6386  152.4360 C   0  0  2  0  0  0  0  0  0  0  0  0
  145.7010  129.4866  153.0667 O   0  0  0  0  0  0  0  0  0  0  0  0
  152.4168  138.1236  158.9886 C   0  0  0  0  0  0  0  0  0  0  0  0
  153.2146  137.0599  159.6682 C   0  0  0  0  0  0  0  0  0  0  0  0
  152.8096  139.4006  159.2545 O   0  0  0  0  0  0  0  0  0  0  0  0
  145.3366  131.7127  154.1599 H   0  0  0  0  0  0  0  0  0  0  0  0
  143.6125  131.4698  151.8931 H   0  0  0  0  0  0  0  0  0  0  0  0
  145.0255  129.9518  150.7343 H   0  0  0  0  0  0  0  0  0  0  0  0
  147.3043  130.5251  152.3179 H   0  0  0  0  0  0  0  0  0  0  0  0
  151.4990  142.2604  158.1383 H   0  0  0  0  0  0  0  0  0  0  0  0
  153.2189  141.9426  158.3708 H   0  0  0  0  0  0  0  0  0  0  0  0
  152.1338  141.9895  159.7625 H   0  0  0  0  0  0  0  0  0  0  0  0
  150.2658  139.8846  157.2655 H   0  0  0  0  0  0  0  0  0  0  0  0
  148.6088  137.7807  157.9201 H   0  0  0  0  0  0  0  0  0  0  0  0
  149.1910  136.8039  159.2624 H   0  0  0  0  0  0  0  0  0  0  0  0
  148.5919  136.0262  157.8003 H   0  0  0  0  0  0  0  0  0  0  0  0
  151.9212  135.5283  157.3874 H   0  0  0  0  0  0  0  0  0  0  0  0
  149.8010  137.6482  155.6773 H   0  0  0  0  0  0  0  0  0  0  0  0
  151.4872  137.1846  155.6367 H   0  0  0  0  0  0  0  0  0  0  0  0
  150.9817  135.0209  155.2054 H   0  0  0  0  0  0  0  0  0  0  0  0
  145.8791  136.1172  156.2090 H   0  0  0  0  0  0  0  0  0  0  0  0
  148.6781  131.4991  152.7053 H   0  0  0  0  0  0  0  0  0  0  0  0
  143.5975  133.7574  150.5654 H   0  0  0  0  0  0  0  0  0  0  0  0
  144.8672  133.0358  149.5856 H   0  0  0  0  0  0  0  0  0  0  0  0
  142.3474  132.6710  149.2732 H   0  0  0  0  0  0  0  0  0  0  0  0
  147.2330  130.8008  150.2226 H   0  0  0  0  0  0  0  0  0  0  0  0
  144.9453  129.7398  153.5745 H   0  0  0  0  0  0  0  0  0  0  0  0
  152.5616  136.3689  160.2015 H   0  0  0  0  0  0  0  0  0  0  0  0
  153.9102  137.4877  160.3904 H   0  0  0  0  0  0  0  0  0  0  0  0
  153.7927  136.4881  158.9426 H   0  0  0  0  0  0  0  0  0  0  0  0
  1  2  1  0  0  0  0
  1 35  1  0  0  0  0
  1 36  1  0  0  0  0
  1 37  1  0  0  0  0
  2 30  1  0  0  0  0
  2  3  2  0  0  0  0
  3  4  1  0  0  0  0
  3 38  1  0  0  0  0
  4  5  1  0  0  0  0
  4 28  2  0  0  0  0
  5  6  1  0  0  0  0
  5  7  1  0  0  0  0
  5  8  1  0  0  0  0
  6 39  1  0  0  0  0
  6 40  1  0  0  0  0
  6 41  1  0  0  0  0
  7 42  1  0  0  0  0
  8  9  1  0  0  0  0
  8 43  1  0  0  0  0
  8 44  1  0  0  0  0
  9 10  1  0  0  0  0
  9 45  1  0  0  0  0
 10 15  1  0  0  0  0
 10 11  2  0  0  0  0
 11 12  1  0  0  0  0
 12 13  2  0  0  0  0
 12 46  1  0  0  0  0
 13 14  1  0  0  0  0
 14 18  1  0  0  0  0
 14 15  2  0  0  0  0
 15 16  1  0  0  0  0
 16 17  2  0  0  0  0
 17 18  1  0  0  0  0
 17 47  1  0  0  0  0
 18 19  1  0  0  0  0
 19 31  1  0  0  0  0
 19 26  1  0  0  0  0
 19 20  1  0  0  0  0
 20 21  1  0  0  0  0
 21 32  1  0  0  0  0
 21 22  1  0  0  0  0
 21 24  1  0  0  0  0
 22 23  1  0  0  0  0
 22 48  1  0  0  0  0
 22 49  1  0  0  0  0
 23 50  1  0  0  0  0
 24 33  1  0  0  0  0
 24 25  1  0  0  0  0
 24 26  1  0  0  0  0
 25 51  1  0  0  0  0
 26 34  1  0  0  0  0
 26 27  1  0  0  0  0
 27 52  1  0  0  0  0
 28 29  1  0  0  0  0
 28 30  1  0  0  0  0
 29 53  1  0  0  0  0
 29 54  1  0  0  0  0
 29 55  1  0  0  0  0
M  END
> <s_m_source_file>
AV-unprocessed.smi

> <i_m_source_file_index>
287

> <i_lp_mmshare_version>
43012

> <i_f3d_flags>
0

> <s_epik_input>
W0NIM11jMVtjSF1jKGMobzEpW0NIM10pW0NAQF0oW0NIM10pKFtPSF0pW0NIMl1bTkhdYyhuW2NIXW4yKWMoYzIzKW5bY0hdbjNbQ0BASF00T1tDQEhdKFtDSDJdW09IXSlbQ0BASF0oW09IXSlbQ0BIXTRbT0hd

> <s_epik_cmdline>
J2VwaWtfcHl0aG9uJywgJy1waCcsICc3LjAnLCAnLXRuJywgJzgnLCAnLW1hJywgJzIwMCcsICctbWV0YWxfYmluZGluZycsICctaW1hZScsICc8aW5maWxlLm1hZT4nLCAnLW9tYWUnLCAnPG91dGZpbGUubWFlPic=

> <r_lp_tautomer_probability>
1

> <r_epik_Ionization_Penalty>
0.000992612

> <r_epik_Ionization_Penalty_Charging>
0

> <r_epik_Ionization_Penalty_Neutral>
0.000992612

> <r_epik_State_Penalty>
-0

> <r_epik_Charging_Adjusted_Penalty>
0

> <i_epik_Tot_Q>
0

> <i_epik_Tot_abs_Q>
0

> <r_epik_Metal_State_Penalty>
-0

> <b_epik_Metal_Only>
0

> <s_epik_Chemistry_Notes>
This compound contains an acetal/aminal-like group ( X-CH(R)-Y where X, Y are N, S, or O) that may be acid/base labile, releasing an aldehyde.

> <s_lp_Force_Field>
OPLS_2005

> <r_lp_Energy>
38.4634

> <b_lp_Chiralities_Consistent>
1

> <s_lp_Variant>
AV-unprocessed.smi:287-24

> <Gold.Version>
5.8.1

> <Gold.Id.Protein>
6NUR|6NUR_protein|mol2

> <Gold.PLP.Fitness>
51.3371

> <Gold.PLP.PLP>
-38.4461

> <Gold.PLP.part.hbond>
-5.7237

> <Gold.PLP.part.metal>
0.0000

> <Gold.PLP.part.buried>
-10.4288

> <Gold.PLP.part.nonpolar>
-24.5622

> <Gold.PLP.part.repulsive>
0.4329

> <Gold.PLP.ligand.clash>
0.0000

> <Gold.PLP.ligand.torsion>
0.7717

> <Gold.PLP.Chemscore.Hbond>
3.7403

> <Gold.PLP.Chemscore.CHOScore>
1.0000

> <Gold.PLP.Chemscore.Metal>
0.0000

> <Gold.Chemscore.Hbonds>
donor molecule, donor type, donor heavy atom, donor atom, acceptor molecule, acceptor atom, score
      L1  H    23    50       P1 10186  0.55
      L1  H    25    51       P1 10747  0.96
      L1  H    27    52       P1 10956  0.94
      P1  H  6896  6907       L1     7  0.29
      P1  H 10785 10796       L1    23  0.86
      L1  C    17    47       P1 10747  1.00

> <Gold.PLP.Chemscore.Internal.Correction>
0.2136

> <Gold.Rescore>
     Score         DG    S(hbond)    S(metal)    S(lipo)     H(rot)  DE(clash)    DE(int)     intcor
      7.81      -9.70       2.54        0.00      78.84       5.27       0.00       1.89       ----

> <Gold.Chemscore.Fitness>
7.8108

> <Gold.Chemscore.DG>
-9.6978

> <Gold.Chemscore.ZeroCoef>
-5.4800

> <Gold.Chemscore.Hbond>
2.5381

> <Gold.Chemscore.Metal>
0.0000

> <Gold.Chemscore.Lipo>
78.8405

> <Gold.Chemscore.Internal_Hbond>
0.0000

> <Gold.Chemscore.DEClash>
0.0000

> <Gold.Chemscore.DEInternal>
1.8870

> <Gold.Chemscore.Rot>
5.2672

> <Gold.Chemscore.Internal.Correction>
   9.000000E+99

> <Gold.Chemscore.Hbonds>
donor molecule, donor type, donor heavy atom, donor atom, acceptor molecule, acceptor atom, score
      L1  H    23    50       P1 10186  0.54
      L1  H    25    51       P1 10747  0.92
      L1  H    27    52       P1 10956  0.23
      P1  H  6896  6907       L1     7  0.29
      P1  H 10785 10796       L1    23  0.83

> <Gold.Chemscore.Hbond.Weighted>
-8.4774

> <Gold.Chemscore.Metal.Weighted>
-0.0000

> <Gold.Chemscore.Lipo.Weighted>
-9.2243

> <Gold.Chemscore.Internal_Hbond.Weighted>
0.0000

> <Gold.Chemscore.DEClash.Weighted>
0.0000

> <Gold.Chemscore.DEInternal.Weighted>
1.8870

> <Gold.Chemscore.Rot.Weighted>
13.4839

> <Gold.Chemscore.Internal.Correction.Weighted>
   9.000000E+99

> <Gold.Protein.RotatedTorsions>
[ 6907 6896 6895 6894 ] final  -38.62 input  -60.11 | X-H torsion
[ 7974 7965 7964 7962 ] final -106.69 input  175.53 | X-H torsion
[ 8008 7997 7996 7995 ] final -127.22 input   59.86 | X-H torsion
[ 10167 10162 10161 10158 ] final -138.62 input  -65.29 | X-H torsion
[ 10718 10713 10712 10709 ] final  137.07 input   66.30 | X-H torsion
[ 10763 10752 10751 10750 ] final   70.53 input  -60.55 | X-H torsion
[ 11005 11000 10999 10996 ] final   68.98 input  -57.11 | X-H torsion

> <Gold.Protein.ActiveResidues>
 VAL166  LYS551  ARG553  GLY616  TRP617  ASP618  TYR619  PRO620  LYS621  CYS622 
 ASP623  PHE694  ASN695  SER759  ASP760  ASP761  ALA762  ILE779  LEU786  VAL792 
 PHE793  MET794  SER795  GLU796  ALA797  LYS798  CYS799  TRP800  GLU811  SER814 

> <Gold.Protein.RotatedAtoms>
  151.0002  134.9316  159.7949 H   0  0  0  0  0  0  0  0  0  0  0  0  # atno 6907 bound_to 6896
  152.5276  134.3164  159.9142 H   0  0  0  0  0  0  0  0  0  0  0  0  # atno 6908 bound_to 6896
  151.3170  133.4014  159.2686 H   0  0  0  0  0  0  0  0  0  0  0  0  # atno 6909 bound_to 6896
  145.2147  140.9110  143.3294 H   0  0  0  0  0  0  0  0  0  0  0  0  # atno 7974 bound_to 7965
  155.2426  140.0429  157.2977 H   0  0  0  0  0  0  0  0  0  0  0  0  # atno 8008 bound_to 7997
  154.5818  140.2403  155.8012 H   0  0  0  0  0  0  0  0  0  0  0  0  # atno 8009 bound_to 7997
  156.2198  140.2973  155.9935 H   0  0  0  0  0  0  0  0  0  0  0  0  # atno 8010 bound_to 7997
  139.8460  143.7260  152.2661 H   0  0  0  0  0  0  0  0  0  0  0  0  # atno 10167 bound_to 10162
  157.4399  131.1056  151.0155 H   0  0  0  0  0  0  0  0  0  0  0  0  # atno 10718 bound_to 10713
  153.0347  135.5170  154.7454 H   0  0  0  0  0  0  0  0  0  0  0  0  # atno 10763 bound_to 10752
  154.6441  135.2916  155.0070 H   0  0  0  0  0  0  0  0  0  0  0  0  # atno 10764 bound_to 10752
  154.0977  135.6641  153.4915 H   0  0  0  0  0  0  0  0  0  0  0  0  # atno 10765 bound_to 10752
  139.9680  134.6948  156.0506 H   0  0  0  0  0  0  0  0  0  0  0  0  # atno 11005 bound_to 11000
  144.9823  139.3771  143.6256 LP  0  0  0  0  0  0  0  0  0  0  0  0  # atno 17320 bound_to 7965
  146.3390  139.8969  142.8800 LP  0  0  0  0  0  0  0  0  0  0  0  0  # atno 17321 bound_to 7965
  139.7512  144.7533  151.0504 LP  0  0  0  0  0  0  0  0  0  0  0  0  # atno 17342 bound_to 10162
  140.7793  143.4858  150.9958 LP  0  0  0  0  0  0  0  0  0  0  0  0  # atno 17343 bound_to 10162
  157.1021  130.5986  149.5462 LP  0  0  0  0  0  0  0  0  0  0  0  0  # atno 17370 bound_to 10713
  155.9945  130.5009  150.7421 LP  0  0  0  0  0  0  0  0  0  0  0  0  # atno 17371 bound_to 10713
  141.1360  133.6575  156.3594 LP  0  0  0  0  0  0  0  0  0  0  0  0  # atno 17394 bound_to 11000
  140.5355  134.6171  157.5363 LP  0  0  0  0  0  0  0  0  0  0  0  0  # atno 17395 bound_to 11000

$$$$
