#       Name:                AV-unprocessed.smi:763
#       Creating user name   scv26
#       Creation time:       Fri Mar 27 01:02:53 2020


#       File generated by GOLD software.
#

@<TRIPOS>MOLECULE
AV-unprocessed.smi:763
    51    52     1
SMALL
NO_CHARGES


@<TRIPOS>ATOM
      1 ****        -3.1414   4.9524   0.8115 C.3            1 S1                 0.0000
      2 ****        -3.0672   4.0023  -0.2397 O.3            1 S1                 0.0000
      3 ****        -2.2371   2.8853   0.0466 C.3            1 S1                 0.0000
      4 ****        -0.7453   3.2401  -0.0379 C.3            1 S1                 0.0000
      5 ****         0.0080   2.0314  -0.0588 O.3            1 S1                 0.0000
      6 ****         1.3851   2.1089  -0.1418 C.ar           1 S1                 0.0000
      7 ****         1.9654   3.3349  -0.1774 N.ar           1 S1                 0.0000
      8 ****         3.3108   3.4059  -0.2547 C.ar           1 S1                 0.0000
      9 ****         4.1420   2.2710  -0.2994 C.ar           1 S1                 0.0000
     10 ****         3.5404   0.9995  -0.2643 C.ar           1 S1                 0.0000
     11 ****         2.1337   0.9110  -0.1848 C.ar           1 S1                 0.0000
     12 ****         1.4764  -0.3220  -0.1502 N.pl3          1 S1                 0.0000
     13 ****        -0.2261  -0.6341  -0.0566 S.o2           1 S1                 0.0000
     14 ****        -0.6568  -0.0897   1.2405 O.2            1 S1                 0.0000
     15 ****        -0.7898  -0.1294  -1.3181 O.2            1 S1                 0.0000
     16 ****        -0.3021  -2.4887  -0.0153 C.3            1 S1                 0.0000
     17 ****         0.2918  -3.0060   1.3111 C.3            1 S1                 0.0000
     18 ****         0.2807  -4.5401   1.3828 C.3            1 S1                 0.0000
     19 ****         1.0114  -5.1529   0.1797 C.3            1 S1                 0.0000
     20 ****         0.3924  -4.6716  -1.1406 C.3            1 S1                 0.0000
     21 ****         0.3922  -3.1347  -1.2397 C.3            1 S1                 0.0000
     22 ****        -0.2703  -2.7828  -2.4367 O.3            1 S1                 0.0000
     23 ****        -3.8362   5.7451   0.5344 H              1 S1                 0.0000
     24 ****        -2.1746   5.4156   1.0081 H              1 S1                 0.0000
     25 ****        -3.5053   4.4959   1.7327 H              1 S1                 0.0000
     26 ****        -2.4861   2.4449   1.0134 H              1 S1                 0.0000
     27 ****        -2.4603   2.1273  -0.7045 H              1 S1                 0.0000
     28 ****        -0.5576   3.8054  -0.9523 H              1 S1                 0.0000
     29 ****        -0.4528   3.8592   0.8114 H              1 S1                 0.0000
     30 ****         3.7373   4.3977  -0.2816 H              1 S1                 0.0000
     31 ****         5.2154   2.3727  -0.3605 H              1 S1                 0.0000
     32 ****         4.1579   0.1144  -0.2994 H              1 S1                 0.0000
     33 ****         2.0803  -1.1308  -0.1729 H              1 S1                 0.0000
     34 ****        -1.3608  -2.7511  -0.0339 H              1 S1                 0.0000
     35 ****         1.3174  -2.6515   1.4193 H              1 S1                 0.0000
     36 ****        -0.2646  -2.5993   2.1560 H              1 S1                 0.0000
     37 ****         0.7485  -4.8720   2.3101 H              1 S1                 0.0000
     38 ****        -0.7488  -4.8991   1.4104 H              1 S1                 0.0000
     39 ****         2.0668  -4.8795   0.2118 H              1 S1                 0.0000
     40 ****         0.9704  -6.2412   0.2350 H              1 S1                 0.0000
     41 ****         0.9397  -5.1003  -1.9810 H              1 S1                 0.0000
     42 ****        -0.6294  -5.0473  -1.2148 H              1 S1                 0.0000
     43 ****         1.4233  -2.7867  -1.3068 H              1 S1                 0.0000
     44 ****        -0.2609  -1.8409  -2.5210 H              1 S1                 0.0000
     45 ****        -2.7080   4.4606  -1.0526 LP             1 S1                 0.0000
     46 ****        -3.9909   3.6676  -0.4265 LP             1 S1                 0.0000
     47 ****        -0.3052   1.5031  -0.8480 LP             1 S1                 0.0000
     48 ****        -0.2087   1.5350   0.7818 LP             1 S1                 0.0000
     49 ****         1.4096   4.1656  -0.1471 LP             1 S1                 0.0000
     50 ****        -1.2152  -3.1090  -2.4072 LP             1 S1                 0.0000
     51 ****         0.2006  -3.1957  -3.2163 LP             1 S1                 0.0000
@<TRIPOS>BOND
    1    1    2 1     
    2    1   23 1     
    3    1   24 1     
    4    1   25 1     
    5    2    3 1     
    6    3    4 1     
    7    3   26 1     
    8    3   27 1     
    9    4    5 1     
   10    4   28 1     
   11    4   29 1     
   12    5    6 1     
   13    6   11 ar    
   14    6    7 ar    
   15    7    8 ar    
   16    8    9 ar    
   17    8   30 1     
   18    9   10 ar    
   19    9   31 1     
   20   10   11 ar    
   21   10   32 1     
   22   11   12 1     
   23   12   13 1     
   24   12   33 1     
   25   13   14 2     
   26   13   15 2     
   27   13   16 1     
   28   16   21 1     
   29   16   17 1     
   30   16   34 1     
   31   17   18 1     
   32   17   35 1     
   33   17   36 1     
   34   18   19 1     
   35   18   37 1     
   36   18   38 1     
   37   19   20 1     
   38   19   39 1     
   39   19   40 1     
   40   20   21 1     
   41   20   41 1     
   42   20   42 1     
   43   21   22 1     
   44   21   43 1     
   45   22   44 1     
   46    2   45 1     
   47    2   46 1     
   48    5   47 1     
   49    5   48 1     
   50    7   49 1     
   51   22   50 1     
   52   22   51 1     
@<TRIPOS>SUBSTRUCTURE
      1 S1             1
@<TRIPOS>SET
LONE_PAIRS      STATIC     ATOMS    <user>   **** ""
9 45 46 47 48 49 14 15 50 51
DONOR_HYDROGENS      STATIC     ATOMS    <user>   **** ""
2 33 44
ATOM$BLUE        STATIC     ATOMS    COLORGROUP SYSTEM
9 45 46 47 48 49 14 15 50 51
ATOM$RED        STATIC     ATOMS    COLORGROUP SYSTEM
2 33 44
