AV-unprocessed.smi:2687|AV-procd|sdf|10385|dock8
  -GOLD-   2272014413D 1   1.00000     0.00000
 Structure written by MMmdl.
 38 39  0  0  0  0  0  0  0  0  1 V2000
  149.9113  136.3016  158.6456 O   0  0  0  0  0  0  0  0  0  0  0  0
  149.0565  137.1051  158.2743 C   0  0  0  0  0  0  0  0  0  0  0  0
  147.6643  137.0589  158.9005 C   0  0  0  0  0  0  0  0  0  0  0  0
  147.8096  136.9818  160.3088 O   0  0  0  0  0  0  0  0  0  0  0  0
  147.8759  135.6465  160.7835 C   0  0  0  0  0  0  0  0  0  0  0  0
  147.0827  135.5273  162.0908 C   0  0  0  0  0  0  0  0  0  0  0  0
  147.2107  134.2911  162.5712 F   0  0  0  0  0  0  0  0  0  0  0  0
  147.5506  136.3875  162.9949 F   0  0  0  0  0  0  0  0  0  0  0  0
  145.7909  135.7688  161.8695 F   0  0  0  0  0  0  0  0  0  0  0  0
  149.2456  138.0374  157.3232 N   0  0  0  0  0  0  0  0  0  0  0  0
  150.4310  138.3154  156.5850 C   0  0  0  0  0  0  0  0  0  0  0  0
  151.6998  137.8085  156.9566 C   0  0  0  0  0  0  0  0  0  0  0  0
  152.8275  138.1533  156.1896 C   0  0  0  0  0  0  0  0  0  0  0  0
  152.6495  139.0016  155.0819 C   0  0  0  0  0  0  0  0  0  0  0  0
  151.4509  139.5052  154.7232 N   0  0  0  0  0  0  0  0  0  0  0  0
  150.3619  139.1751  155.4591 C   0  0  0  0  0  0  0  0  0  0  0  0
  149.1270  139.7137  155.0602 N   0  0  0  0  0  0  0  0  0  0  0  0
  149.1330  141.1658  154.9397 C   0  0  0  0  0  0  0  0  0  0  0  0
  147.7128  141.6727  154.6347 C   0  0  0  0  0  0  0  0  0  0  0  0
  147.2158  141.0298  153.4639 O   0  0  0  0  0  0  0  0  0  0  0  0
  147.1450  139.6150  153.6177 C   0  0  0  0  0  0  0  0  0  0  0  0
  148.5510  139.0561  153.8939 C   0  0  0  0  0  0  0  0  0  0  0  0
  147.0878  137.9439  158.6243 H   0  0  0  0  0  0  0  0  0  0  0  0
  147.1329  136.1845  158.5216 H   0  0  0  0  0  0  0  0  0  0  0  0
  147.4683  134.9630  160.0370 H   0  0  0  0  0  0  0  0  0  0  0  0
  148.9157  135.3629  160.9539 H   0  0  0  0  0  0  0  0  0  0  0  0
  148.4279  138.5593  157.0426 H   0  0  0  0  0  0  0  0  0  0  0  0
  151.8290  137.1773  157.8224 H   0  0  0  0  0  0  0  0  0  0  0  0
  153.8073  137.7809  156.4485 H   0  0  0  0  0  0  0  0  0  0  0  0
  153.4925  139.2886  154.4712 H   0  0  0  0  0  0  0  0  0  0  0  0
  149.5004  141.6115  155.8648 H   0  0  0  0  0  0  0  0  0  0  0  0
  149.8128  141.4681  154.1419 H   0  0  0  0  0  0  0  0  0  0  0  0
  147.0436  141.4856  155.4762 H   0  0  0  0  0  0  0  0  0  0  0  0
  147.7253  142.7502  154.4705 H   0  0  0  0  0  0  0  0  0  0  0  0
  146.4588  139.3598  154.4268 H   0  0  0  0  0  0  0  0  0  0  0  0
  146.7395  139.1775  152.7053 H   0  0  0  0  0  0  0  0  0  0  0  0
  149.1895  139.2180  153.0244 H   0  0  0  0  0  0  0  0  0  0  0  0
  148.5015  137.9799  154.0638 H   0  0  0  0  0  0  0  0  0  0  0  0
  1  2  2  0  0  0  0
  2  3  1  0  0  0  0
  2 10  1  0  0  0  0
  3  4  1  0  0  0  0
  3 23  1  0  0  0  0
  3 24  1  0  0  0  0
  4  5  1  0  0  0  0
  5  6  1  0  0  0  0
  5 25  1  0  0  0  0
  5 26  1  0  0  0  0
  6  7  1  0  0  0  0
  6  8  1  0  0  0  0
  6  9  1  0  0  0  0
 10 11  1  0  0  0  0
 10 27  1  0  0  0  0
 11 16  1  0  0  0  0
 11 12  2  0  0  0  0
 12 13  1  0  0  0  0
 12 28  1  0  0  0  0
 13 14  2  0  0  0  0
 13 29  1  0  0  0  0
 14 15  1  0  0  0  0
 14 30  1  0  0  0  0
 15 16  2  0  0  0  0
 16 17  1  0  0  0  0
 17 22  1  0  0  0  0
 17 18  1  0  0  0  0
 18 19  1  0  0  0  0
 18 31  1  0  0  0  0
 18 32  1  0  0  0  0
 19 20  1  0  0  0  0
 19 33  1  0  0  0  0
 19 34  1  0  0  0  0
 20 21  1  0  0  0  0
 21 22  1  0  0  0  0
 21 35  1  0  0  0  0
 21 36  1  0  0  0  0
 22 37  1  0  0  0  0
 22 38  1  0  0  0  0
M  END
> <s_m_source_file>
AV-unprocessed.smi

> <i_m_source_file_index>
2687

> <i_lp_mmshare_version>
43012

> <i_f3d_flags>
0

> <s_epik_input>
RkMoRikoRilbQ0gyXU9bQ0gyXUMoPU8pW05IXWMxW2NIXVtjSF1bY0hdbmMxTjJbQ0gyXVtDSDJdT1tDSDJdW0NIMl0y

> <s_epik_cmdline>
J2VwaWtfcHl0aG9uJywgJy1waCcsICc3LjAnLCAnLXRuJywgJzgnLCAnLW1hJywgJzIwMCcsICctbWV0YWxfYmluZGluZycsICctaW1hZScsICc8aW5maWxlLm1hZT4nLCAnLW9tYWUnLCAnPG91dGZpbGUubWFlPic=

> <r_lp_tautomer_probability>
1

> <r_epik_Ionization_Penalty>
0.00040187

> <r_epik_Ionization_Penalty_Charging>
0

> <r_epik_Ionization_Penalty_Neutral>
0.00040187

> <r_epik_State_Penalty>
0.000245652

> <r_epik_Charging_Adjusted_Penalty>
0.000245652

> <i_epik_Tot_Q>
0

> <i_epik_Tot_abs_Q>
0

> <r_epik_Metal_State_Penalty>
-0

> <b_epik_Metal_Only>
0

> <s_lp_Force_Field>
OPLS_2005

> <r_lp_Energy>
25.827

> <b_lp_Chiralities_Consistent>
1

> <s_lp_Variant>
AV-unprocessed.smi:2687-1

> <Gold.Version>
5.8.1

> <Gold.Id.Protein>
6NUR|6NUR_protein|mol2

> <Gold.PLP.Fitness>
48.2189

> <Gold.PLP.PLP>
-39.6257

> <Gold.PLP.part.hbond>
-4.0000

> <Gold.PLP.part.metal>
0.0000

> <Gold.PLP.part.buried>
-5.5143

> <Gold.PLP.part.nonpolar>
-31.6046

> <Gold.PLP.part.repulsive>
0.3509

> <Gold.PLP.ligand.clash>
0.0000

> <Gold.PLP.ligand.torsion>
0.9166

> <Gold.PLP.Chemscore.Hbond>
3.4059

> <Gold.PLP.Chemscore.CHOScore>
0.0000

> <Gold.PLP.Chemscore.Metal>
0.0000

> <Gold.Chemscore.Hbonds>
donor molecule, donor type, donor heavy atom, donor atom, acceptor molecule, acceptor atom, score
      P1  H  6896  6909       L1     1  1.00
      P1  H  6931  6943       L1     4  0.11
      P1  H  6934  6947       L1     4  0.47
      P1  H  7989  7998       L1    15  1.00

> <Gold.PLP.Chemscore.Internal.Correction>
0.2087

> <Gold.Rescore>
     Score         DG    S(hbond)    S(metal)    S(lipo)     H(rot)  DE(clash)    DE(int)     intcor
     14.29     -16.64       2.54        0.00      66.90       2.01       0.04       2.31       ----

> <Gold.Chemscore.Fitness>
14.2898

> <Gold.Chemscore.DG>
-16.6397

> <Gold.Chemscore.ZeroCoef>
-5.4800

> <Gold.Chemscore.Hbond>
2.5418

> <Gold.Chemscore.Metal>
0.0000

> <Gold.Chemscore.Lipo>
66.8974

> <Gold.Chemscore.Internal_Hbond>
0.0000

> <Gold.Chemscore.DEClash>
0.0425

> <Gold.Chemscore.DEInternal>
2.3074

> <Gold.Chemscore.Rot>
2.0144

> <Gold.Chemscore.Internal.Correction>
   9.000000E+99

> <Gold.Chemscore.Hbonds>
donor molecule, donor type, donor heavy atom, donor atom, acceptor molecule, acceptor atom, score
      P1  H  6896  6909       L1     1  0.96
      P1  H  6931  6943       L1     4  0.06
      P1  H  6934  6947       L1     4  0.14
      P1  H  7989  7998       L1    15  0.78

> <Gold.Chemscore.Hbond.Weighted>
-8.4895

> <Gold.Chemscore.Metal.Weighted>
-0.0000

> <Gold.Chemscore.Lipo.Weighted>
-7.8270

> <Gold.Chemscore.Internal_Hbond.Weighted>
0.0000

> <Gold.Chemscore.DEClash.Weighted>
0.0425

> <Gold.Chemscore.DEInternal.Weighted>
2.3074

> <Gold.Chemscore.Rot.Weighted>
5.1568

> <Gold.Chemscore.Internal.Correction.Weighted>
   9.000000E+99

> <Gold.Protein.RotatedTorsions>
[ 6907 6896 6895 6894 ] final   73.11 input  -60.11 | X-H torsion
[ 7974 7965 7964 7962 ] final   60.73 input  175.53 | X-H torsion
[ 8008 7997 7996 7995 ] final   26.78 input   59.86 | X-H torsion
[ 10167 10162 10161 10158 ] final -143.74 input  -65.29 | X-H torsion
[ 10718 10713 10712 10709 ] final   44.53 input   66.30 | X-H torsion
[ 10763 10752 10751 10750 ] final  -78.57 input  -60.55 | X-H torsion
[ 11005 11000 10999 10996 ] final   -0.18 input  -57.11 | X-H torsion

> <Gold.Protein.ActiveResidues>
 VAL166  LYS551  ARG553  GLY616  TRP617  ASP618  TYR619  PRO620  LYS621  CYS622 
 ASP623  PHE694  ASN695  SER759  ASP760  ASP761  ALA762  ILE779  LEU786  VAL792 
 PHE793  MET794  SER795  GLU796  ALA797  LYS798  CYS799  TRP800  GLU811  SER814 

> <Gold.Protein.RotatedAtoms>
  152.4905  134.4471  159.9562 H   0  0  0  0  0  0  0  0  0  0  0  0  # atno 6907 bound_to 6896
  151.4459  133.3624  159.2796 H   0  0  0  0  0  0  0  0  0  0  0  0  # atno 6908 bound_to 6896
  150.9055  134.8494  159.7450 H   0  0  0  0  0  0  0  0  0  0  0  0  # atno 6909 bound_to 6896
  145.8927  139.3523  143.0639 H   0  0  0  0  0  0  0  0  0  0  0  0  # atno 7974 bound_to 7965
  155.0326  140.3160  155.4753 H   0  0  0  0  0  0  0  0  0  0  0  0  # atno 8008 bound_to 7997
  156.2871  140.2177  156.5390 H   0  0  0  0  0  0  0  0  0  0  0  0  # atno 8009 bound_to 7997
  154.7357  140.0477  157.0754 H   0  0  0  0  0  0  0  0  0  0  0  0  # atno 8010 bound_to 7997
  139.7964  143.7894  152.2654 H   0  0  0  0  0  0  0  0  0  0  0  0  # atno 10167 bound_to 10162
  157.4278  130.8007  149.7575 H   0  0  0  0  0  0  0  0  0  0  0  0  # atno 10718 bound_to 10713
  154.5276  135.5725  153.6732 H   0  0  0  0  0  0  0  0  0  0  0  0  # atno 10763 bound_to 10752
  152.9931  135.6197  154.2671 H   0  0  0  0  0  0  0  0  0  0  0  0  # atno 10764 bound_to 10752
  154.2596  135.2856  155.2763 H   0  0  0  0  0  0  0  0  0  0  0  0  # atno 10765 bound_to 10752
  140.6334  133.9555  155.8286 H   0  0  0  0  0  0  0  0  0  0  0  0  # atno 11005 bound_to 11000
  145.8888  140.9317  143.0563 LP  0  0  0  0  0  0  0  0  0  0  0  0  # atno 17320 bound_to 7965
  144.6731  140.0878  143.7466 LP  0  0  0  0  0  0  0  0  0  0  0  0  # atno 17321 bound_to 7965
  139.8001  144.7377  150.9837 LP  0  0  0  0  0  0  0  0  0  0  0  0  # atno 17342 bound_to 10162
  140.7820  143.4354  151.0631 LP  0  0  0  0  0  0  0  0  0  0  0  0  # atno 17343 bound_to 10162
  155.9902  130.3946  150.3036 LP  0  0  0  0  0  0  0  0  0  0  0  0  # atno 17370 bound_to 10713
  157.1190  131.0242  151.3017 LP  0  0  0  0  0  0  0  0  0  0  0  0  # atno 17371 bound_to 10713
  141.0659  134.0277  157.3594 LP  0  0  0  0  0  0  0  0  0  0  0  0  # atno 17394 bound_to 11000
  139.9107  135.0189  156.7680 LP  0  0  0  0  0  0  0  0  0  0  0  0  # atno 17395 bound_to 11000

$$$$
