AV-unprocessed.smi:937|AV-procd|sdf|4209|dock8
  -GOLD-   22720 2113D 1   1.00000     0.00000
 Structure written by MMmdl.
 45 46  0  0  0  0  0  0  0  0  1 V2000
  151.6562  145.1861  160.0589 C   0  0  0  0  0  0  0  0  0  0  0  0
  152.3271  143.8988  160.4901 C   0  0  0  0  0  0  0  0  0  0  0  0
  152.3993  143.5474  161.8543 C   0  0  0  0  0  0  0  0  0  0  0  0
  153.0368  142.3415  162.2033 C   0  0  0  0  0  0  0  0  0  0  0  0
  153.5761  141.5367  161.1791 C   0  0  0  0  0  0  0  0  0  0  0  0
  154.2758  140.2326  161.5054 C   0  0  0  0  0  0  0  0  0  0  0  0
  153.9964  139.1489  160.4521 C   0  0  0  0  0  0  0  0  0  0  0  0
  154.0785  137.8131  161.0292 N   0  0  0  0  0  0  0  0  0  0  0  0
  155.2111  137.1037  161.1686 C   0  0  0  0  0  0  0  0  0  0  0  0
  156.3129  137.5087  160.8026 O   0  0  0  0  0  0  0  0  0  0  0  0
  155.0568  135.8998  161.7479 N   0  0  0  0  0  0  0  0  0  0  0  0
  156.0762  134.8883  162.0450 C   0  0  2  0  0  0  0  0  0  0  0  0
  156.2963  133.9347  160.8508 C   0  0  0  0  0  0  0  0  0  0  0  0
  155.0882  133.0134  160.6173 C   0  0  0  0  0  0  0  0  0  0  0  0
  154.7310  132.2287  161.8892 C   0  0  0  0  0  0  0  0  0  0  0  0
  154.4677  133.1684  163.0847 C   0  0  1  0  0  0  0  0  0  0  0  0
  154.0942  132.3888  164.3624 C   0  0  0  0  0  0  0  0  0  0  0  0
  153.0927  131.5407  164.1263 F   0  0  0  0  0  0  0  0  0  0  0  0
  155.1481  131.6998  164.8002 F   0  0  0  0  0  0  0  0  0  0  0  0
  153.7241  133.2360  165.3227 F   0  0  0  0  0  0  0  0  0  0  0  0
  155.6831  134.0979  163.3094 C   0  0  0  0  0  0  0  0  0  0  0  0
  153.4531  141.9803  159.8455 C   0  0  0  0  0  0  0  0  0  0  0  0
  152.8440  143.1356  159.5016 N   0  0  0  0  0  0  0  0  0  0  0  0
  150.9120  145.5003  160.7912 H   0  0  0  0  0  0  0  0  0  0  0  0
  151.1529  145.0615  159.0995 H   0  0  0  0  0  0  0  0  0  0  0  0
  152.3962  145.9804  159.9591 H   0  0  0  0  0  0  0  0  0  0  0  0
  151.9774  144.1855  162.6170 H   0  0  0  0  0  0  0  0  0  0  0  0
  153.1116  142.0424  163.2387 H   0  0  0  0  0  0  0  0  0  0  0  0
  155.3479  140.4200  161.5821 H   0  0  0  0  0  0  0  0  0  0  0  0
  153.9527  139.8909  162.4898 H   0  0  0  0  0  0  0  0  0  0  0  0
  152.9962  139.2801  160.0382 H   0  0  0  0  0  0  0  0  0  0  0  0
  154.6929  139.2378  159.6163 H   0  0  0  0  0  0  0  0  0  0  0  0
  153.2162  137.4017  161.3552 H   0  0  0  0  0  0  0  0  0  0  0  0
  154.1119  135.6494  162.0016 H   0  0  0  0  0  0  0  0  0  0  0  0
  157.0154  135.3989  162.2635 H   0  0  0  0  0  0  0  0  0  0  0  0
  156.5167  134.4963  159.9423 H   0  0  0  0  0  0  0  0  0  0  0  0
  157.1768  133.3207  161.0436 H   0  0  0  0  0  0  0  0  0  0  0  0
  154.2292  133.6038  160.2963 H   0  0  0  0  0  0  0  0  0  0  0  0
  155.3045  132.3203  159.8040 H   0  0  0  0  0  0  0  0  0  0  0  0
  153.8532  131.6114  161.6968 H   0  0  0  0  0  0  0  0  0  0  0  0
  155.5427  131.5415  162.1310 H   0  0  0  0  0  0  0  0  0  0  0  0
  153.6101  133.7931  162.8298 H   0  0  0  0  0  0  0  0  0  0  0  0
  156.5368  133.4991  163.6294 H   0  0  0  0  0  0  0  0  0  0  0  0
  155.4812  134.7915  164.1265 H   0  0  0  0  0  0  0  0  0  0  0  0
  153.8561  141.3949  159.0321 H   0  0  0  0  0  0  0  0  0  0  0  0
  1  2  1  0  0  0  0
  1 24  1  0  0  0  0
  1 25  1  0  0  0  0
  1 26  1  0  0  0  0
  2 23  1  0  0  0  0
  2  3  2  0  0  0  0
  3  4  1  0  0  0  0
  3 27  1  0  0  0  0
  4  5  2  0  0  0  0
  4 28  1  0  0  0  0
  5  6  1  0  0  0  0
  5 22  1  0  0  0  0
  6  7  1  0  0  0  0
  6 29  1  0  0  0  0
  6 30  1  0  0  0  0
  7  8  1  0  0  0  0
  7 31  1  0  0  0  0
  7 32  1  0  0  0  0
  8  9  1  0  0  0  0
  8 33  1  0  0  0  0
  9 10  2  0  0  0  0
  9 11  1  0  0  0  0
 11 12  1  0  0  0  0
 11 34  1  0  0  0  0
 12 21  1  0  0  0  0
 12 13  1  0  0  0  0
 12 35  1  0  0  0  0
 13 14  1  0  0  0  0
 13 36  1  0  0  0  0
 13 37  1  0  0  0  0
 14 15  1  0  0  0  0
 14 38  1  0  0  0  0
 14 39  1  0  0  0  0
 15 16  1  0  0  0  0
 15 40  1  0  0  0  0
 15 41  1  0  0  0  0
 16 17  1  0  0  0  0
 16 21  1  0  0  0  0
 16 42  1  0  0  0  0
 17 18  1  0  0  0  0
 17 19  1  0  0  0  0
 17 20  1  0  0  0  0
 21 43  1  0  0  0  0
 21 44  1  0  0  0  0
 22 23  2  0  0  0  0
 22 45  1  0  0  0  0
M  END
> <s_m_source_file>
AV-unprocessed.smi

> <i_m_source_file_index>
937

> <i_lp_mmshare_version>
43012

> <i_f3d_flags>
0

> <s_epik_input>
W0NIM11jMVtjSF1bY0hdYyhbY0hdbjEpW0NIMl1bQ0gyXVtOSF1DKD1PKVtOSF1bQ0BASF0yW0NIMl1bQ0gyXVtDSDJdW0NAQEhdKEMoRikoRilGKVtDSDJdMg==

> <s_epik_cmdline>
J2VwaWtfcHl0aG9uJywgJy1waCcsICc3LjAnLCAnLXRuJywgJzgnLCAnLW1hJywgJzIwMCcsICctbWV0YWxfYmluZGluZycsICctaW1hZScsICc8aW5maWxlLm1hZT4nLCAnLW9tYWUnLCAnPG91dGZpbGUubWFlPic=

> <r_epik_Ionization_Penalty>
0.0563445

> <r_epik_Ionization_Penalty_Charging>
0

> <r_epik_Ionization_Penalty_Neutral>
0.0563445

> <r_epik_State_Penalty>
0.0485409

> <r_epik_Charging_Adjusted_Penalty>
0.0485409

> <i_epik_Tot_Q>
0

> <i_epik_Tot_abs_Q>
0

> <r_epik_Metal_State_Penalty>
0.0443056

> <b_epik_Metal_Only>
0

> <s_lp_Force_Field>
OPLS_2005

> <r_lp_Energy>
16.8022

> <b_lp_Chiralities_Consistent>
1

> <s_lp_Variant>
AV-unprocessed.smi:937-1

> <Gold.Version>
5.8.1

> <Gold.Id.Protein>
6NUR|6NUR_protein|mol2

> <Gold.PLP.Fitness>
44.8598

> <Gold.PLP.PLP>
-47.0260

> <Gold.PLP.part.hbond>
0.0000

> <Gold.PLP.part.metal>
0.0000

> <Gold.PLP.part.buried>
-5.7825

> <Gold.PLP.part.nonpolar>
-40.4952

> <Gold.PLP.part.repulsive>
0.0689

> <Gold.PLP.ligand.clash>
0.0000

> <Gold.PLP.ligand.torsion>
1.0983

> <Gold.PLP.Chemscore.Hbond>
0.0000

> <Gold.PLP.Chemscore.CHOScore>
0.0000

> <Gold.PLP.Chemscore.Metal>
0.0000

> <Gold.PLP.Chemscore.Internal.Correction>
0.0304

> <Gold.Rescore>
     Score         DG    S(hbond)    S(metal)    S(lipo)     H(rot)  DE(clash)    DE(int)     intcor
     13.84     -14.81       0.00        0.00     114.43       1.58       0.01       0.96       ----

> <Gold.Chemscore.Fitness>
13.8430

> <Gold.Chemscore.DG>
-14.8112

> <Gold.Chemscore.ZeroCoef>
-5.4800

> <Gold.Chemscore.Hbond>
0.0000

> <Gold.Chemscore.Metal>
0.0000

> <Gold.Chemscore.Lipo>
114.4327

> <Gold.Chemscore.Internal_Hbond>
0.0000

> <Gold.Chemscore.DEClash>
0.0132

> <Gold.Chemscore.DEInternal>
0.9550

> <Gold.Chemscore.Rot>
1.5849

> <Gold.Chemscore.Internal.Correction>
   9.000000E+99

> <Gold.Chemscore.Hbond.Weighted>
-0.0000

> <Gold.Chemscore.Metal.Weighted>
-0.0000

> <Gold.Chemscore.Lipo.Weighted>
-13.3886

> <Gold.Chemscore.Internal_Hbond.Weighted>
0.0000

> <Gold.Chemscore.DEClash.Weighted>
0.0132

> <Gold.Chemscore.DEInternal.Weighted>
0.9550

> <Gold.Chemscore.Rot.Weighted>
4.0574

> <Gold.Chemscore.Internal.Correction.Weighted>
   9.000000E+99

> <Gold.Protein.RotatedTorsions>
[ 6907 6896 6895 6894 ] final  -22.04 input  -60.11 | X-H torsion
[ 7974 7965 7964 7962 ] final   11.57 input  175.53 | X-H torsion
[ 8008 7997 7996 7995 ] final  107.90 input   59.86 | X-H torsion
[ 10167 10162 10161 10158 ] final  147.49 input  -65.29 | X-H torsion
[ 10718 10713 10712 10709 ] final  165.32 input   66.30 | X-H torsion
[ 10763 10752 10751 10750 ] final   31.64 input  -60.55 | X-H torsion
[ 11005 11000 10999 10996 ] final   25.21 input  -57.11 | X-H torsion

> <Gold.Protein.ActiveResidues>
 VAL166  LYS551  ARG553  GLY616  TRP617  ASP618  TYR619  PRO620  LYS621  CYS622 
 ASP623  PHE694  ASN695  SER759  ASP760  ASP761  ALA762  ILE779  LEU786  VAL792 
 PHE793  MET794  SER795  GLU796  ALA797  LYS798  CYS799  TRP800  GLU811  SER814 

> <Gold.Protein.RotatedAtoms>
  151.2245  135.0531  159.8962 H   0  0  0  0  0  0  0  0  0  0  0  0  # atno 6907 bound_to 6896
  152.5412  134.0604  159.8160 H   0  0  0  0  0  0  0  0  0  0  0  0  # atno 6908 bound_to 6896
  151.0775  133.5368  159.2654 H   0  0  0  0  0  0  0  0  0  0  0  0  # atno 6909 bound_to 6896
  146.2368  139.9465  142.8476 H   0  0  0  0  0  0  0  0  0  0  0  0  # atno 7974 bound_to 7965
  156.1860  140.3086  155.9240 H   0  0  0  0  0  0  0  0  0  0  0  0  # atno 8008 bound_to 7997
  155.3279  140.0459  157.3058 H   0  0  0  0  0  0  0  0  0  0  0  0  # atno 8009 bound_to 7997
  154.5397  140.2257  155.8672 H   0  0  0  0  0  0  0  0  0  0  0  0  # atno 8010 bound_to 7997
  139.4889  144.5751  151.6980 H   0  0  0  0  0  0  0  0  0  0  0  0  # atno 10167 bound_to 10162
  157.0817  131.0394  151.2572 H   0  0  0  0  0  0  0  0  0  0  0  0  # atno 10718 bound_to 10713
  153.0305  135.6434  154.1230 H   0  0  0  0  0  0  0  0  0  0  0  0  # atno 10763 bound_to 10752
  154.0953  135.2863  155.3264 H   0  0  0  0  0  0  0  0  0  0  0  0  # atno 10764 bound_to 10752
  154.6436  135.5451  153.7882 H   0  0  0  0  0  0  0  0  0  0  0  0  # atno 10765 bound_to 10752
  140.3504  134.2235  155.7680 H   0  0  0  0  0  0  0  0  0  0  0  0  # atno 11005 bound_to 11000
  145.1902  140.9808  143.4215 LP  0  0  0  0  0  0  0  0  0  0  0  0  # atno 17320 bound_to 7965
  144.9864  139.3732  143.6236 LP  0  0  0  0  0  0  0  0  0  0  0  0  # atno 17321 bound_to 7965
  140.5346  144.0676  150.6066 LP  0  0  0  0  0  0  0  0  0  0  0  0  # atno 17342 bound_to 10162
  140.3678  143.2871  152.0312 LP  0  0  0  0  0  0  0  0  0  0  0  0  # atno 17343 bound_to 10162
  157.4794  130.7756  149.7399 LP  0  0  0  0  0  0  0  0  0  0  0  0  # atno 17370 bound_to 10713
  155.9922  130.3933  150.2954 LP  0  0  0  0  0  0  0  0  0  0  0  0  # atno 17371 bound_to 10713
  141.2014  133.7964  157.0444 LP  0  0  0  0  0  0  0  0  0  0  0  0  # atno 17394 bound_to 11000
  140.0708  134.9703  157.1464 LP  0  0  0  0  0  0  0  0  0  0  0  0  # atno 17395 bound_to 11000

$$$$
