AV-unprocessed.smi:2151|AV-procd|sdf|8758|dock9
  -GOLD-   2272011533D 1   1.00000     0.00000
 Structure written by MMmdl.
 39 40  0  0  0  0  0  0  0  0  1 V2000
  146.6574  141.9677  158.7794 C   0  0  0  0  0  0  0  0  0  0  0  0
  146.8364  141.7964  157.2605 C   0  0  2  0  0  0  0  0  0  0  0  0
  148.2324  142.0300  156.8998 N   0  0  0  0  0  0  0  0  0  0  0  0
  149.0295  141.1558  156.2670 C   0  0  0  0  0  0  0  0  0  0  0  0
  148.6647  140.0265  155.9367 O   0  0  0  0  0  0  0  0  0  0  0  0
  150.4617  141.6342  155.9891 C   0  0  0  0  0  0  0  0  0  0  0  0
  151.2625  141.8161  157.2112 N   0  0  0  0  0  0  0  0  0  0  0  0
  150.9216  142.8990  158.0452 C   0  0  0  0  0  0  0  0  0  0  0  0
  151.5767  143.1785  159.1883 C   0  0  0  0  0  0  0  0  0  0  0  0
  151.1438  144.3138  160.1030 C   0  0  0  0  0  0  0  0  0  0  0  0
  151.7332  144.2197  161.2950 F   0  0  0  0  0  0  0  0  0  0  0  0
  151.4833  145.4838  159.5640 F   0  0  0  0  0  0  0  0  0  0  0  0
  149.8230  144.3092  160.2873 F   0  0  0  0  0  0  0  0  0  0  0  0
  152.6553  142.2798  159.5496 C   0  0  0  0  0  0  0  0  0  0  0  0
  152.9849  141.2310  158.7705 C   0  0  0  0  0  0  0  0  0  0  0  0
  152.2721  140.9491  157.5225 C   0  0  0  0  0  0  0  0  0  0  0  0
  152.5636  139.9936  156.8026 O   0  0  0  0  0  0  0  0  0  0  0  0
  145.9411  142.7587  156.4567 C   0  0  2  0  0  0  0  0  0  0  0  0
  144.4366  142.5390  156.6378 C   0  0  0  0  0  0  0  0  0  0  0  0
  143.8319  143.0058  155.3212 C   0  0  0  0  0  0  0  0  0  0  0  0
  145.0409  143.2235  154.4096 C   0  0  0  0  0  0  0  0  0  0  0  0
  146.1070  142.5514  155.0620 O   0  0  0  0  0  0  0  0  0  0  0  0
  145.6310  141.7628  159.0837 H   0  0  0  0  0  0  0  0  0  0  0  0
  146.9024  142.9821  159.0958 H   0  0  0  0  0  0  0  0  0  0  0  0
  147.2998  141.2826  159.3333 H   0  0  0  0  0  0  0  0  0  0  0  0
  146.5665  140.7738  156.9897 H   0  0  0  0  0  0  0  0  0  0  0  0
  148.6140  142.9354  157.1325 H   0  0  0  0  0  0  0  0  0  0  0  0
  150.9541  140.9291  155.3166 H   0  0  0  0  0  0  0  0  0  0  0  0
  150.4051  142.5685  155.4288 H   0  0  0  0  0  0  0  0  0  0  0  0
  150.0804  143.4826  157.7000 H   0  0  0  0  0  0  0  0  0  0  0  0
  153.2109  142.4516  160.4597 H   0  0  0  0  0  0  0  0  0  0  0  0
  153.7949  140.5827  159.0711 H   0  0  0  0  0  0  0  0  0  0  0  0
  146.1929  143.7960  156.6878 H   0  0  0  0  0  0  0  0  0  0  0  0
  144.2207  141.4791  156.7795 H   0  0  0  0  0  0  0  0  0  0  0  0
  144.0393  143.0786  157.4979 H   0  0  0  0  0  0  0  0  0  0  0  0
  143.1658  142.2427  154.9172 H   0  0  0  0  0  0  0  0  0  0  0  0
  143.2581  143.9257  155.4369 H   0  0  0  0  0  0  0  0  0  0  0  0
  144.8837  142.8372  153.4025 H   0  0  0  0  0  0  0  0  0  0  0  0
  145.2792  144.2854  154.3346 H   0  0  0  0  0  0  0  0  0  0  0  0
  1  2  1  0  0  0  0
  1 23  1  0  0  0  0
  1 24  1  0  0  0  0
  1 25  1  0  0  0  0
  2  3  1  0  0  0  0
  2 18  1  0  0  0  0
  2 26  1  0  0  0  0
  3  4  1  0  0  0  0
  3 27  1  0  0  0  0
  4  5  2  0  0  0  0
  4  6  1  0  0  0  0
  6  7  1  0  0  0  0
  6 28  1  0  0  0  0
  6 29  1  0  0  0  0
  7 16  1  0  0  0  0
  7  8  1  0  0  0  0
  8  9  2  0  0  0  0
  8 30  1  0  0  0  0
  9 10  1  0  0  0  0
  9 14  1  0  0  0  0
 10 11  1  0  0  0  0
 10 12  1  0  0  0  0
 10 13  1  0  0  0  0
 14 15  2  0  0  0  0
 14 31  1  0  0  0  0
 15 16  1  0  0  0  0
 15 32  1  0  0  0  0
 16 17  2  0  0  0  0
 18 22  1  0  0  0  0
 18 19  1  0  0  0  0
 18 33  1  0  0  0  0
 19 20  1  0  0  0  0
 19 34  1  0  0  0  0
 19 35  1  0  0  0  0
 20 21  1  0  0  0  0
 20 36  1  0  0  0  0
 20 37  1  0  0  0  0
 21 22  1  0  0  0  0
 21 38  1  0  0  0  0
 21 39  1  0  0  0  0
M  END
> <s_m_source_file>
AV-unprocessed.smi

> <i_m_source_file_index>
2151

> <i_lp_mmshare_version>
43012

> <i_f3d_flags>
0

> <s_epik_input>
TzFbQ0gyXVtDSDJdW0NIMl1bQ0BIXTFbQ0BIXShbQ0gzXSlbTkhdQyg9TylbQ0gyXW4yW2NIXWMoQyhGKShGKUYpW2NIXVtjSF1jMj1P

> <s_epik_cmdline>
J2VwaWtfcHl0aG9uJywgJy1waCcsICc3LjAnLCAnLXRuJywgJzgnLCAnLW1hJywgJzIwMCcsICctbWV0YWxfYmluZGluZycsICctaW1hZScsICc8aW5maWxlLm1hZT4nLCAnLW9tYWUnLCAnPG91dGZpbGUubWFlPic=

> <r_lp_tautomer_probability>
1

> <r_epik_Ionization_Penalty>
4.20109e-08

> <r_epik_Ionization_Penalty_Charging>
1.89977e-08

> <r_epik_Ionization_Penalty_Neutral>
2.30132e-08

> <r_epik_State_Penalty>
-0

> <r_epik_Charging_Adjusted_Penalty>
1.89977e-08

> <i_epik_Tot_Q>
0

> <i_epik_Tot_abs_Q>
0

> <r_epik_Metal_State_Penalty>
-0

> <b_epik_Metal_Only>
0

> <s_lp_Force_Field>
OPLS_2005

> <r_lp_Energy>
29.9007

> <b_lp_Chiralities_Consistent>
1

> <s_lp_Variant>
AV-unprocessed.smi:2151-1

> <Gold.Version>
5.8.1

> <Gold.Id.Protein>
6NUR|6NUR_protein|mol2

> <Gold.PLP.Fitness>
48.0942

> <Gold.PLP.PLP>
-41.9129

> <Gold.PLP.part.hbond>
-2.0000

> <Gold.PLP.part.metal>
0.0000

> <Gold.PLP.part.buried>
-5.0661

> <Gold.PLP.part.nonpolar>
-34.1111

> <Gold.PLP.part.repulsive>
0.2211

> <Gold.PLP.ligand.clash>
0.0000

> <Gold.PLP.ligand.torsion>
0.5983

> <Gold.PLP.Chemscore.Hbond>
1.4940

> <Gold.PLP.Chemscore.CHOScore>
0.9325

> <Gold.PLP.Chemscore.Metal>
0.0000

> <Gold.Chemscore.Hbonds>
donor molecule, donor type, donor heavy atom, donor atom, acceptor molecule, acceptor atom, score
      L1  H     3    27       P1  8028  0.15
      P1  H  7997  8009       L1    17  1.00
      L1  C     8    30       P1  8028  0.70

> <Gold.PLP.Chemscore.Internal.Correction>
0.0982

> <Gold.Rescore>
     Score         DG    S(hbond)    S(metal)    S(lipo)     H(rot)  DE(clash)    DE(int)     intcor
     11.37     -13.60       1.14        0.00      76.69       1.82       0.67       1.56       ----

> <Gold.Chemscore.Fitness>
11.3656

> <Gold.Chemscore.DG>
-13.5991

> <Gold.Chemscore.ZeroCoef>
-5.4800

> <Gold.Chemscore.Hbond>
1.1416

> <Gold.Chemscore.Metal>
0.0000

> <Gold.Chemscore.Lipo>
76.6884

> <Gold.Chemscore.Internal_Hbond>
0.0000

> <Gold.Chemscore.DEClash>
0.6701

> <Gold.Chemscore.DEInternal>
1.5635

> <Gold.Chemscore.Rot>
1.8228

> <Gold.Chemscore.Internal.Correction>
   9.000000E+99

> <Gold.Chemscore.Hbonds>
donor molecule, donor type, donor heavy atom, donor atom, acceptor molecule, acceptor atom, score
      L1  H     3    27       P1  8028  0.08
      P1  H  7997  8009       L1    17  0.50

> <Gold.Chemscore.Hbond.Weighted>
-3.8130

> <Gold.Chemscore.Metal.Weighted>
-0.0000

> <Gold.Chemscore.Lipo.Weighted>
-8.9725

> <Gold.Chemscore.Internal_Hbond.Weighted>
0.0000

> <Gold.Chemscore.DEClash.Weighted>
0.6701

> <Gold.Chemscore.DEInternal.Weighted>
1.5635

> <Gold.Chemscore.Rot.Weighted>
4.6665

> <Gold.Chemscore.Internal.Correction.Weighted>
   9.000000E+99

> <Gold.Protein.RotatedTorsions>
[ 6907 6896 6895 6894 ] final  -11.00 input  -60.11 | X-H torsion
[ 7974 7965 7964 7962 ] final -171.61 input  175.53 | X-H torsion
[ 8008 7997 7996 7995 ] final -177.31 input   59.86 | X-H torsion
[ 10167 10162 10161 10158 ] final  152.88 input  -65.29 | X-H torsion
[ 10718 10713 10712 10709 ] final  -99.32 input   66.30 | X-H torsion
[ 10763 10752 10751 10750 ] final   43.87 input  -60.55 | X-H torsion
[ 11005 11000 10999 10996 ] final  -19.71 input  -57.11 | X-H torsion

> <Gold.Protein.ActiveResidues>
 VAL166  LYS551  ARG553  GLY616  TRP617  ASP618  TYR619  PRO620  LYS621  CYS622 
 ASP623  PHE694  ASN695  SER759  ASP760  ASP761  ALA762  ILE779  LEU786  VAL792 
 PHE793  MET794  SER795  GLU796  ALA797  LYS798  CYS799  TRP800  GLU811  SER814 

> <Gold.Protein.RotatedAtoms>
  151.3931  135.0959  159.9532 H   0  0  0  0  0  0  0  0  0  0  0  0  # atno 6907 bound_to 6896
  152.5073  133.8960  159.7428 H   0  0  0  0  0  0  0  0  0  0  0  0  # atno 6908 bound_to 6896
  150.9418  133.6592  159.2818 H   0  0  0  0  0  0  0  0  0  0  0  0  # atno 6909 bound_to 6896
  144.7155  140.1897  143.6350 H   0  0  0  0  0  0  0  0  0  0  0  0  # atno 7974 bound_to 7965
  156.0054  140.1229  157.0507 H   0  0  0  0  0  0  0  0  0  0  0  0  # atno 8008 bound_to 7997
  154.4257  140.1098  156.5824 H   0  0  0  0  0  0  0  0  0  0  0  0  # atno 8009 bound_to 7997
  155.6154  140.3472  155.4637 H   0  0  0  0  0  0  0  0  0  0  0  0  # atno 8010 bound_to 7997
  139.4830  144.5321  151.7706 H   0  0  0  0  0  0  0  0  0  0  0  0  # atno 10167 bound_to 10162
  156.0131  130.5277  150.6653 H   0  0  0  0  0  0  0  0  0  0  0  0  # atno 10718 bound_to 10713
  152.9852  135.6088  154.3182 H   0  0  0  0  0  0  0  0  0  0  0  0  # atno 10763 bound_to 10752
  154.2893  135.2775  155.2664 H   0  0  0  0  0  0  0  0  0  0  0  0  # atno 10764 bound_to 10752
  154.4967  135.5878  153.6556 H   0  0  0  0  0  0  0  0  0  0  0  0  # atno 10765 bound_to 10752
  140.8393  133.7938  155.9843 H   0  0  0  0  0  0  0  0  0  0  0  0  # atno 11005 bound_to 11000
  145.8780  139.2307  143.1622 LP  0  0  0  0  0  0  0  0  0  0  0  0  # atno 17320 bound_to 7965
  146.0022  140.8510  143.0013 LP  0  0  0  0  0  0  0  0  0  0  0  0  # atno 17321 bound_to 7965
  140.4848  144.1397  150.5939 LP  0  0  0  0  0  0  0  0  0  0  0  0  # atno 17342 bound_to 10162
  140.4237  143.2600  151.9683 LP  0  0  0  0  0  0  0  0  0  0  0  0  # atno 17343 bound_to 10162
  157.4387  131.0858  151.0966 LP  0  0  0  0  0  0  0  0  0  0  0  0  # atno 17370 bound_to 10713
  157.1516  130.6187  149.5584 LP  0  0  0  0  0  0  0  0  0  0  0  0  # atno 17371 bound_to 10713
  140.8913  134.2492  157.5093 LP  0  0  0  0  0  0  0  0  0  0  0  0  # atno 17394 bound_to 11000
  139.8703  134.9663  156.4557 LP  0  0  0  0  0  0  0  0  0  0  0  0  # atno 17395 bound_to 11000

$$$$
