AV-unprocessed.smi:460|AV-procd|sdf|2629|dock9
  -GOLD-   2262023 33D 1   1.00000     0.00000
 Structure written by MMmdl.
 47 49  0  0  0  0  0  0  0  0  2 V2000
  147.0026  140.9387  153.8351 C   0  0  0  0  0  0  0  0  0  0  0  0
  147.7893  141.1941  155.1286 C   0  0  0  0  0  0  0  0  0  0  0  0
  149.2489  140.7048  155.0767 C   0  0  1  0  0  0  0  0  0  0  0  0
  149.7688  140.9896  153.7952 O   0  0  0  0  0  0  0  0  0  0  0  0
  150.0834  141.3211  156.1593 C   0  0  0  0  0  0  0  0  0  0  0  0
  150.4471  142.6336  156.2292 N   0  3  0  0  0  0  0  0  0  0  0  0
  151.2274  142.8505  157.3646 C   0  0  0  0  0  0  0  0  0  0  0  0
  151.8278  144.0079  157.8501 C   0  0  0  0  0  0  0  0  0  0  0  0
  152.5687  143.8832  159.0438 C   0  0  0  0  0  0  0  0  0  0  0  0
  152.6910  142.6442  159.7058 C   0  0  0  0  0  0  0  0  0  0  0  0
  152.0762  141.4778  159.2041 C   0  0  0  0  0  0  0  0  0  0  0  0
  151.3435  141.6106  158.0249 C   0  0  0  0  0  0  0  0  0  0  0  0
  150.6158  140.6987  157.2524 N   0  0  0  0  0  0  0  0  0  0  0  0
  150.5489  139.2935  157.6807 C   0  0  0  0  0  0  0  0  0  0  0  0
  149.1177  138.7427  157.6204 C   0  0  0  0  0  0  0  0  0  0  0  0
  148.8235  138.1009  158.8539 O   0  0  0  0  0  0  0  0  0  0  0  0
  148.7471  136.7249  158.8842 C   0  0  0  0  0  0  0  0  0  0  0  0
  148.9784  135.9001  157.7547 C   0  0  0  0  0  0  0  0  0  0  0  0
  148.8830  134.5008  157.8621 C   0  0  0  0  0  0  0  0  0  0  0  0
  148.5566  133.9117  159.0954 C   0  0  0  0  0  0  0  0  0  0  0  0
  148.3260  134.7213  160.2224 C   0  0  0  0  0  0  0  0  0  0  0  0
  148.4194  136.1331  160.1260 C   0  0  0  0  0  0  0  0  0  0  0  0
  148.2032  136.9879  161.1875 O   0  0  0  0  0  0  0  0  0  0  0  0
  147.5738  136.4706  162.3506 C   0  0  0  0  0  0  0  0  0  0  0  0
  145.9915  141.3387  153.9133 H   0  0  0  0  0  0  0  0  0  0  0  0
  146.9180  139.8736  153.6184 H   0  0  0  0  0  0  0  0  0  0  0  0
  147.4830  141.4187  152.9822 H   0  0  0  0  0  0  0  0  0  0  0  0
  147.7784  142.2662  155.3299 H   0  0  0  0  0  0  0  0  0  0  0  0
  147.2695  140.7240  155.9645 H   0  0  0  0  0  0  0  0  0  0  0  0
  149.2658  139.6206  155.1854 H   0  0  0  0  0  0  0  0  0  0  0  0
  149.5177  140.2905  153.2100 H   0  0  0  0  0  0  0  0  0  0  0  0
  151.7377  144.9574  157.3428 H   0  0  0  0  0  0  0  0  0  0  0  0
  153.0543  144.7547  159.4587 H   0  0  0  0  0  0  0  0  0  0  0  0
  153.2685  142.5864  160.6171 H   0  0  0  0  0  0  0  0  0  0  0  0
  152.1784  140.5335  159.7179 H   0  0  0  0  0  0  0  0  0  0  0  0
  151.2268  138.6987  157.0681 H   0  0  0  0  0  0  0  0  0  0  0  0
  150.9301  139.2354  158.6999 H   0  0  0  0  0  0  0  0  0  0  0  0
  148.4179  139.5612  157.4444 H   0  0  0  0  0  0  0  0  0  0  0  0
  149.0305  138.0372  156.7930 H   0  0  0  0  0  0  0  0  0  0  0  0
  149.2336  136.3170  156.7925 H   0  0  0  0  0  0  0  0  0  0  0  0
  149.0614  133.8792  156.9971 H   0  0  0  0  0  0  0  0  0  0  0  0
  148.4829  132.8373  159.1780 H   0  0  0  0  0  0  0  0  0  0  0  0
  148.0772  134.2328  161.1521 H   0  0  0  0  0  0  0  0  0  0  0  0
  147.4820  137.2637  163.0922 H   0  0  0  0  0  0  0  0  0  0  0  0
  148.1608  135.6678  162.7987 H   0  0  0  0  0  0  0  0  0  0  0  0
  146.5691  136.1068  162.1318 H   0  0  0  0  0  0  0  0  0  0  0  0
  150.1829  143.3254  155.5397 H   0  0  0  0  0  0  0  0  0  0  0  0
  1  2  1  0  0  0  0
  1 25  1  0  0  0  0
  1 26  1  0  0  0  0
  1 27  1  0  0  0  0
  2  3  1  0  0  0  0
  2 28  1  0  0  0  0
  2 29  1  0  0  0  0
  3  4  1  0  0  0  0
  3  5  1  0  0  0  0
  3 30  1  0  0  0  0
  4 31  1  0  0  0  0
  5 13  1  0  0  0  0
  5  6  2  0  0  0  0
  6  7  1  0  0  0  0
  6 47  1  0  0  0  0
  7 12  2  0  0  0  0
  7  8  1  0  0  0  0
  8  9  2  0  0  0  0
  8 32  1  0  0  0  0
  9 10  1  0  0  0  0
  9 33  1  0  0  0  0
 10 11  2  0  0  0  0
 10 34  1  0  0  0  0
 11 12  1  0  0  0  0
 11 35  1  0  0  0  0
 12 13  1  0  0  0  0
 13 14  1  0  0  0  0
 14 15  1  0  0  0  0
 14 36  1  0  0  0  0
 14 37  1  0  0  0  0
 15 16  1  0  0  0  0
 15 38  1  0  0  0  0
 15 39  1  0  0  0  0
 16 17  1  0  0  0  0
 17 22  1  0  0  0  0
 17 18  2  0  0  0  0
 18 19  1  0  0  0  0
 18 40  1  0  0  0  0
 19 20  2  0  0  0  0
 19 41  1  0  0  0  0
 20 21  1  0  0  0  0
 20 42  1  0  0  0  0
 21 22  2  0  0  0  0
 21 43  1  0  0  0  0
 22 23  1  0  0  0  0
 23 24  1  0  0  0  0
 24 44  1  0  0  0  0
 24 45  1  0  0  0  0
 24 46  1  0  0  0  0
M  CHG  1   6   1
M  END
> <s_m_source_file>
AV-unprocessed.smi

> <i_m_source_file_index>
460

> <i_lp_mmshare_version>
43012

> <i_f3d_flags>
0

> <s_epik_input>
W2NIXTFbY0hdW2NIXVtjSF1jKGMxMiluKGMobjIpW0NAQEhdKFtPSF0pW0NIMl1bQ0gzXSlbQ0gyXVtDSDJdT2MzW2NIXVtjSF1bY0hdW2NIXWMzT1tDSDNd

> <s_epik_cmdline>
J2VwaWtfcHl0aG9uJywgJy1waCcsICc3LjAnLCAnLXRuJywgJzgnLCAnLW1hJywgJzIwMCcsICctbWV0YWxfYmluZGluZycsICctaW1hZScsICc8aW5maWxlLm1hZT4nLCAnLW9tYWUnLCAnPG91dGZpbGUubWFlPic=

> <r_lp_tautomer_probability>
1

> <r_epik_Ionization_Penalty>
1.48085

> <r_epik_Ionization_Penalty_Charging>
1.48083

> <r_epik_Ionization_Penalty_Neutral>
1.80167e-05

> <r_epik_State_Penalty>
1.56944

> <r_epik_Charging_Adjusted_Penalty>
3.05027

> <i_epik_Tot_Q>
1

> <i_epik_Tot_abs_Q>
1

> <r_epik_Metal_State_Penalty>
5.61877

> <b_epik_Metal_Only>
0

> <s_lp_Force_Field>
OPLS_2005

> <r_lp_Energy>
21.4697

> <b_lp_Chiralities_Consistent>
1

> <s_lp_Variant>
AV-unprocessed.smi:460-4

> <Gold.Version>
5.8.1

> <Gold.Id.Protein>
6NUR|6NUR_protein|mol2

> <Gold.PLP.Fitness>
59.7809

> <Gold.PLP.PLP>
-48.9952

> <Gold.PLP.part.hbond>
-6.8170

> <Gold.PLP.part.metal>
0.0000

> <Gold.PLP.part.buried>
-5.0657

> <Gold.PLP.part.nonpolar>
-37.4314

> <Gold.PLP.part.repulsive>
0.1111

> <Gold.PLP.ligand.clash>
0.0000

> <Gold.PLP.ligand.torsion>
1.3143

> <Gold.PLP.Chemscore.Hbond>
4.4351

> <Gold.PLP.Chemscore.CHOScore>
0.0000

> <Gold.PLP.Chemscore.Metal>
0.0000

> <Gold.Chemscore.Hbonds>
donor molecule, donor type, donor heavy atom, donor atom, acceptor molecule, acceptor atom, score
      L1  H     4    31       P1  7957  0.61
      L1  H     6    47       P1  8028  1.22
      P1  H  6931  6943       L1    23  0.95
      P1  H  6934  6947       L1    23  0.25
      P1  H  7989  7998       L1     4  0.33
      P1  H  8011  8017       L1     4  0.63

> <Gold.PLP.Chemscore.Internal.Correction>
0.1089

> <Gold.Rescore>
     Score         DG    S(hbond)    S(metal)    S(lipo)     H(rot)  DE(clash)    DE(int)     intcor
     19.91     -21.15       2.60        0.00     113.32       2.45       0.00       1.24       ----

> <Gold.Chemscore.Fitness>
19.9077

> <Gold.Chemscore.DG>
-21.1517

> <Gold.Chemscore.ZeroCoef>
-5.4800

> <Gold.Chemscore.Hbond>
2.5966

> <Gold.Chemscore.Metal>
0.0000

> <Gold.Chemscore.Lipo>
113.3184

> <Gold.Chemscore.Internal_Hbond>
0.0000

> <Gold.Chemscore.DEClash>
0.0048

> <Gold.Chemscore.DEInternal>
1.2392

> <Gold.Chemscore.Rot>
2.4450

> <Gold.Chemscore.Internal.Correction>
   9.000000E+99

> <Gold.Chemscore.Hbonds>
donor molecule, donor type, donor heavy atom, donor atom, acceptor molecule, acceptor atom, score
      L1  H     4    31       P1  7957  0.57
      L1  H     6    47       P1  8028  0.60
      P1  H  6931  6943       L1    23  0.21
      P1  H  6934  6947       L1    23  0.10
      P1  H  7989  7998       L1     4  0.05
      P1  H  8011  8017       L1     4  0.06

> <Gold.Chemscore.Hbond.Weighted>
-8.6727

> <Gold.Chemscore.Metal.Weighted>
-0.0000

> <Gold.Chemscore.Lipo.Weighted>
-13.2583

> <Gold.Chemscore.Internal_Hbond.Weighted>
0.0000

> <Gold.Chemscore.DEClash.Weighted>
0.0048

> <Gold.Chemscore.DEInternal.Weighted>
1.2392

> <Gold.Chemscore.Rot.Weighted>
6.2593

> <Gold.Chemscore.Internal.Correction.Weighted>
   9.000000E+99

> <Gold.Protein.RotatedTorsions>
[ 6907 6896 6895 6894 ] final   33.72 input  -60.11 | X-H torsion
[ 7974 7965 7964 7962 ] final  173.26 input  175.53 | X-H torsion
[ 8008 7997 7996 7995 ] final   19.17 input   59.86 | X-H torsion
[ 10167 10162 10161 10158 ] final  132.68 input  -65.29 | X-H torsion
[ 10718 10713 10712 10709 ] final  109.59 input   66.30 | X-H torsion
[ 10763 10752 10751 10750 ] final    9.97 input  -60.55 | X-H torsion
[ 11005 11000 10999 10996 ] final  -67.31 input  -57.11 | X-H torsion

> <Gold.Protein.ActiveResidues>
 VAL166  LYS551  ARG553  GLY616  TRP617  ASP618  TYR619  PRO620  LYS621  CYS622 
 ASP623  PHE694  ASN695  SER759  ASP760  ASP761  ALA762  ILE779  LEU786  VAL792 
 PHE793  MET794  SER795  GLU796  ALA797  LYS798  CYS799  TRP800  GLU811  SER814 

> <Gold.Protein.RotatedAtoms>
  152.0924  134.9398  160.0571 H   0  0  0  0  0  0  0  0  0  0  0  0  # atno 6907 bound_to 6896
  152.0644  133.4072  159.4440 H   0  0  0  0  0  0  0  0  0  0  0  0  # atno 6908 bound_to 6896
  150.6837  134.3083  159.4779 H   0  0  0  0  0  0  0  0  0  0  0  0  # atno 6909 bound_to 6896
  144.7248  139.9621  143.6435 H   0  0  0  0  0  0  0  0  0  0  0  0  # atno 7974 bound_to 7965
  154.9169  140.3022  155.5237 H   0  0  0  0  0  0  0  0  0  0  0  0  # atno 8008 bound_to 7997
  156.3012  140.2379  156.4150 H   0  0  0  0  0  0  0  0  0  0  0  0  # atno 8009 bound_to 7997
  154.8370  140.0415  157.1504 H   0  0  0  0  0  0  0  0  0  0  0  0  # atno 8010 bound_to 7997
  139.5329  144.6651  151.4887 H   0  0  0  0  0  0  0  0  0  0  0  0  # atno 10167 bound_to 10162
  157.6534  131.0916  150.6477 H   0  0  0  0  0  0  0  0  0  0  0  0  # atno 10718 bound_to 10713
  153.2082  135.6865  153.8146 H   0  0  0  0  0  0  0  0  0  0  0  0  # atno 10763 bound_to 10752
  153.7388  135.3241  155.3301 H   0  0  0  0  0  0  0  0  0  0  0  0  # atno 10764 bound_to 10752
  154.8208  135.4653  154.0878 H   0  0  0  0  0  0  0  0  0  0  0  0  # atno 10765 bound_to 10752
  141.1505  133.6716  156.6273 H   0  0  0  0  0  0  0  0  0  0  0  0  # atno 11005 bound_to 11000
  146.0629  139.3621  143.0570 LP  0  0  0  0  0  0  0  0  0  0  0  0  # atno 17320 bound_to 7965
  145.8069  140.9744  143.0969 LP  0  0  0  0  0  0  0  0  0  0  0  0  # atno 17321 bound_to 7965
  140.6518  143.8680  150.6794 LP  0  0  0  0  0  0  0  0  0  0  0  0  # atno 17342 bound_to 10162
  140.2047  143.3931  152.1764 LP  0  0  0  0  0  0  0  0  0  0  0  0  # atno 17343 bound_to 10162
  156.6785  130.4560  149.5635 LP  0  0  0  0  0  0  0  0  0  0  0  0  # atno 17370 bound_to 10713
  156.1946  130.6581  151.1099 LP  0  0  0  0  0  0  0  0  0  0  0  0  # atno 17371 bound_to 10713
  140.3494  134.7781  157.4456 LP  0  0  0  0  0  0  0  0  0  0  0  0  # atno 17394 bound_to 11000
  140.0873  134.5649  155.8479 LP  0  0  0  0  0  0  0  0  0  0  0  0  # atno 17395 bound_to 11000

$$$$
