AV-unprocessed.smi:3002|AV-procd|sdf|11434|dock9
  -GOLD-   2272016363D 1   1.00000     0.00000
 Structure written by MMmdl.
 34 35  0  0  0  0  0  0  0  0  1 V2000
  145.6152  135.5471  151.6166 C   0  0  0  0  0  0  0  0  0  0  0  0
  146.2392  134.1949  151.2160 C   0  0  1  0  0  0  0  0  0  0  0  0
  147.0081  133.5373  152.3724 C   0  0  0  0  0  0  0  0  0  0  0  0
  146.6421  132.4564  152.8353 O   0  0  0  0  0  0  0  0  0  0  0  0
  148.0779  134.2051  152.8327 N   0  0  0  0  0  0  0  0  0  0  0  0
  148.9433  133.7562  153.9184 C   0  0  0  0  0  0  0  0  0  0  0  0
  149.1328  134.8332  155.0059 C   0  0  2  0  0  0  0  0  0  0  0  0
  149.6142  136.1911  154.4519 C   0  0  0  0  0  0  0  0  0  0  0  0
  150.0456  137.0728  155.6276 C   0  0  0  0  0  0  0  0  0  0  0  0
  150.7747  135.9288  156.8569 S   0  0  0  0  0  0  0  0  0  0  0  0
  152.2394  135.9376  156.7247 O   0  0  0  0  0  0  0  0  0  0  0  0
  150.1303  136.1494  158.1603 O   0  0  0  0  0  0  0  0  0  0  0  0
  150.1212  134.3925  156.0979 C   0  0  0  0  0  0  0  0  0  0  0  0
  145.2517  133.2683  150.6756 N   0  0  0  0  0  0  0  0  0  0  0  0
  145.4093  132.0344  150.1911 C   0  0  0  0  0  0  0  0  0  0  0  0
  144.2778  131.4513  149.8213 N   0  0  0  0  0  0  0  0  0  0  0  0
  143.3956  132.4454  150.1372 C   0  0  0  0  0  0  0  0  0  0  0  0
  143.9248  133.5504  150.6618 N   0  0  0  0  0  0  0  0  0  0  0  0
  146.3781  136.2422  151.9689 H   0  0  0  0  0  0  0  0  0  0  0  0
  144.8750  135.4403  152.4105 H   0  0  0  0  0  0  0  0  0  0  0  0
  145.1189  136.0125  150.7645 H   0  0  0  0  0  0  0  0  0  0  0  0
  146.9559  134.3977  150.4182 H   0  0  0  0  0  0  0  0  0  0  0  0
  148.3120  135.0853  152.3973 H   0  0  0  0  0  0  0  0  0  0  0  0
  148.5381  132.8429  154.3577 H   0  0  0  0  0  0  0  0  0  0  0  0
  149.9082  133.4869  153.4881 H   0  0  0  0  0  0  0  0  0  0  0  0
  148.1739  135.0078  155.4964 H   0  0  0  0  0  0  0  0  0  0  0  0
  150.4727  136.0282  153.7991 H   0  0  0  0  0  0  0  0  0  0  0  0
  148.8467  136.6823  153.8530 H   0  0  0  0  0  0  0  0  0  0  0  0
  150.7675  137.8404  155.3483 H   0  0  0  0  0  0  0  0  0  0  0  0
  149.1818  137.5547  156.0862 H   0  0  0  0  0  0  0  0  0  0  0  0
  149.6568  133.7658  156.8596 H   0  0  0  0  0  0  0  0  0  0  0  0
  150.9652  133.8496  155.6718 H   0  0  0  0  0  0  0  0  0  0  0  0
  146.3718  131.5509  150.1099 H   0  0  0  0  0  0  0  0  0  0  0  0
  142.3310  132.3493  149.9817 H   0  0  0  0  0  0  0  0  0  0  0  0
  1  2  1  0  0  0  0
  1 19  1  0  0  0  0
  1 20  1  0  0  0  0
  1 21  1  0  0  0  0
  2  3  1  0  0  0  0
  2 14  1  0  0  0  0
  2 22  1  0  0  0  0
  3  4  2  0  0  0  0
  3  5  1  0  0  0  0
  5  6  1  0  0  0  0
  5 23  1  0  0  0  0
  6  7  1  0  0  0  0
  6 24  1  0  0  0  0
  6 25  1  0  0  0  0
  7 13  1  0  0  0  0
  7  8  1  0  0  0  0
  7 26  1  0  0  0  0
  8  9  1  0  0  0  0
  8 27  1  0  0  0  0
  8 28  1  0  0  0  0
  9 10  1  0  0  0  0
  9 29  1  0  0  0  0
  9 30  1  0  0  0  0
 10 11  2  0  0  0  0
 10 12  2  0  0  0  0
 10 13  1  0  0  0  0
 13 31  1  0  0  0  0
 13 32  1  0  0  0  0
 14 18  1  0  0  0  0
 14 15  1  0  0  0  0
 15 16  2  0  0  0  0
 15 33  1  0  0  0  0
 16 17  1  0  0  0  0
 17 18  2  0  0  0  0
 17 34  1  0  0  0  0
M  END
> <s_m_source_file>
AV-unprocessed.smi

> <i_m_source_file_index>
3002

> <i_lp_mmshare_version>
43012

> <i_f3d_flags>
0

> <s_epik_input>
bjFbY0hdbltjSF1uMVtDQEhdKFtDSDNdKUMoPU8pW05IXVtDSDJdW0NAQEhdKFtDSDJdMilbQ0gyXVtDSDJdUzIoPU8pPU8=

> <s_epik_cmdline>
J2VwaWtfcHl0aG9uJywgJy1waCcsICc3LjAnLCAnLXRuJywgJzgnLCAnLW1hJywgJzIwMCcsICctbWV0YWxfYmluZGluZycsICctaW1hZScsICc8aW5maWxlLm1hZT4nLCAnLW9tYWUnLCAnPG91dGZpbGUubWFlPic=

> <r_lp_tautomer_probability>
1

> <r_epik_Ionization_Penalty>
1.1748e-05

> <r_epik_Ionization_Penalty_Charging>
0

> <r_epik_Ionization_Penalty_Neutral>
1.1748e-05

> <r_epik_State_Penalty>
-0

> <r_epik_Charging_Adjusted_Penalty>
0

> <i_epik_Tot_Q>
0

> <i_epik_Tot_abs_Q>
0

> <r_epik_Metal_State_Penalty>
-0

> <b_epik_Metal_Only>
0

> <s_lp_Force_Field>
OPLS_2005

> <r_lp_Energy>
11.4636

> <b_lp_Chiralities_Consistent>
1

> <s_lp_Variant>
AV-unprocessed.smi:3002-2

> <Gold.Version>
5.8.1

> <Gold.Id.Protein>
6NUR|6NUR_protein|mol2

> <Gold.PLP.Fitness>
41.4923

> <Gold.PLP.PLP>
-23.9289

> <Gold.PLP.part.hbond>
-3.9026

> <Gold.PLP.part.metal>
0.0000

> <Gold.PLP.part.buried>
1.4934

> <Gold.PLP.part.nonpolar>
-22.9771

> <Gold.PLP.part.repulsive>
0.4472

> <Gold.PLP.ligand.clash>
0.0000

> <Gold.PLP.ligand.torsion>
0.1712

> <Gold.PLP.Chemscore.Hbond>
3.3600

> <Gold.PLP.Chemscore.CHOScore>
2.5742

> <Gold.PLP.Chemscore.Metal>
0.0000

> <Gold.Chemscore.Hbonds>
donor molecule, donor type, donor heavy atom, donor atom, acceptor molecule, acceptor atom, score
      L1  H     5    23       P1  7948  0.62
      P1  H  6896  6908       L1    12  0.49
      P1  H 10752 10765       L1    11  1.00
      P1  H 10785 10796       L1    16  0.54
      L1  C    15    33       P1 10747  0.60
      L1  C    17    34       P1 10186  0.78
      L1  C    17    34       P1 10952  1.00

> <Gold.PLP.Chemscore.Internal.Correction>
0.1029

> <Gold.Rescore>
     Score         DG    S(hbond)    S(metal)    S(lipo)     H(rot)  DE(clash)    DE(int)     intcor
     11.21     -12.96       2.93        0.00      32.62       2.39       1.01       0.75       ----

> <Gold.Chemscore.Fitness>
11.2085

> <Gold.Chemscore.DG>
-12.9632

> <Gold.Chemscore.ZeroCoef>
-5.4800

> <Gold.Chemscore.Hbond>
2.9333

> <Gold.Chemscore.Metal>
0.0000

> <Gold.Chemscore.Lipo>
32.6154

> <Gold.Chemscore.Internal_Hbond>
0.0000

> <Gold.Chemscore.DEClash>
1.0087

> <Gold.Chemscore.DEInternal>
0.7461

> <Gold.Chemscore.Rot>
2.3946

> <Gold.Chemscore.Internal.Correction>
   9.000000E+99

> <Gold.Chemscore.Hbonds>
donor molecule, donor type, donor heavy atom, donor atom, acceptor molecule, acceptor atom, score
      L1  H     5    23       P1  7948  0.38
      P1  H  6896  6908       L1    12  0.33
      P1  H 10752 10765       L1    11  0.99
      P1  H 10785 10796       L1    16  0.29

> <Gold.Chemscore.Hbond.Weighted>
-9.7973

> <Gold.Chemscore.Metal.Weighted>
-0.0000

> <Gold.Chemscore.Lipo.Weighted>
-3.8160

> <Gold.Chemscore.Internal_Hbond.Weighted>
0.0000

> <Gold.Chemscore.DEClash.Weighted>
1.0087

> <Gold.Chemscore.DEInternal.Weighted>
0.7461

> <Gold.Chemscore.Rot.Weighted>
6.1301

> <Gold.Chemscore.Internal.Correction.Weighted>
   9.000000E+99

> <Gold.Protein.RotatedTorsions>
[ 6907 6896 6895 6894 ] final  164.45 input  -60.11 | X-H torsion
[ 7974 7965 7964 7962 ] final  -35.49 input  175.53 | X-H torsion
[ 8008 7997 7996 7995 ] final  -95.60 input   59.86 | X-H torsion
[ 10167 10162 10161 10158 ] final  -97.09 input  -65.29 | X-H torsion
[ 10718 10713 10712 10709 ] final  -55.90 input   66.30 | X-H torsion
[ 10763 10752 10751 10750 ] final -144.19 input  -60.55 | X-H torsion
[ 11005 11000 10999 10996 ] final   -3.33 input  -57.11 | X-H torsion

> <Gold.Protein.ActiveResidues>
 VAL166  LYS551  ARG553  GLY616  TRP617  ASP618  TYR619  PRO620  LYS621  CYS622 
 ASP623  PHE694  ASN695  SER759  ASP760  ASP761  ALA762  ILE779  LEU786  VAL792 
 PHE793  MET794  SER795  GLU796  ALA797  LYS798  CYS799  TRP800  GLU811  SER814 

> <Gold.Protein.RotatedAtoms>
  151.9096  133.3558  159.3858 H   0  0  0  0  0  0  0  0  0  0  0  0  # atno 6907 bound_to 6896
  150.7061  134.4745  159.5450 H   0  0  0  0  0  0  0  0  0  0  0  0  # atno 6908 bound_to 6896
  152.2349  134.8286  160.0519 H   0  0  0  0  0  0  0  0  0  0  0  0  # atno 6909 bound_to 6896
  146.0742  140.6165  142.8938 H   0  0  0  0  0  0  0  0  0  0  0  0  # atno 7974 bound_to 7965
  154.7634  140.0478  157.0992 H   0  0  0  0  0  0  0  0  0  0  0  0  # atno 8008 bound_to 7997
  154.9909  140.3113  155.4887 H   0  0  0  0  0  0  0  0  0  0  0  0  # atno 8009 bound_to 7997
  156.2908  140.2219  156.5014 H   0  0  0  0  0  0  0  0  0  0  0  0  # atno 8010 bound_to 7997
  140.2871  143.3245  152.0383 H   0  0  0  0  0  0  0  0  0  0  0  0  # atno 10167 bound_to 10162
  156.1331  130.4158  150.0233 H   0  0  0  0  0  0  0  0  0  0  0  0  # atno 10718 bound_to 10713
  154.8439  135.3447  154.6306 H   0  0  0  0  0  0  0  0  0  0  0  0  # atno 10763 bound_to 10752
  153.6916  135.6974  153.5093 H   0  0  0  0  0  0  0  0  0  0  0  0  # atno 10764 bound_to 10752
  153.2591  135.4329  155.0831 H   0  0  0  0  0  0  0  0  0  0  0  0  # atno 10765 bound_to 10752
  140.6681  133.9261  155.8477 H   0  0  0  0  0  0  0  0  0  0  0  0  # atno 11005 bound_to 11000
  144.7251  140.4498  143.6979 LP  0  0  0  0  0  0  0  0  0  0  0  0  # atno 17320 bound_to 7965
  145.6336  139.1540  143.2955 LP  0  0  0  0  0  0  0  0  0  0  0  0  # atno 17321 bound_to 7965
  139.4947  144.6551  151.6590 LP  0  0  0  0  0  0  0  0  0  0  0  0  # atno 17342 bound_to 10162
  140.5764  144.0022  150.6244 LP  0  0  0  0  0  0  0  0  0  0  0  0  # atno 17343 bound_to 10162
  156.8139  130.9334  151.3643 LP  0  0  0  0  0  0  0  0  0  0  0  0  # atno 17370 bound_to 10713
  157.6507  130.8882  149.9628 LP  0  0  0  0  0  0  0  0  0  0  0  0  # atno 17371 bound_to 10713
  141.0413  134.0617  157.3898 LP  0  0  0  0  0  0  0  0  0  0  0  0  # atno 17394 bound_to 11000
  139.8990  135.0157  156.7177 LP  0  0  0  0  0  0  0  0  0  0  0  0  # atno 17395 bound_to 11000

$$$$
