AV-unprocessed.smi:2567|AV-procd|sdf|10078|dock10
  -GOLD-   2272014103D 1   1.00000     0.00000
 Structure written by MMmdl.
 34 35  0  0  0  0  0  0  0  0  2 V2000
  152.4826  143.5869  160.2731 C   0  0  0  0  0  0  0  0  0  0  0  0
  151.7629  144.1833  159.0430 C   0  0  0  0  0  0  0  0  0  0  0  0
  150.7821  145.2500  159.5775 C   0  0  0  0  0  0  0  0  0  0  0  0
  152.7899  144.8477  158.1084 C   0  0  0  0  0  0  0  0  0  0  0  0
  151.0123  143.1106  158.2888 C   0  0  0  0  0  0  0  0  0  0  0  0
  150.1901  142.2654  158.9157 N   0  0  0  0  0  0  0  0  0  0  0  0
  149.8497  141.4060  157.9336 N   0  0  0  0  0  0  0  0  0  0  0  0
  150.5059  141.7293  156.8190 C   0  0  0  0  0  0  0  0  0  0  0  0
  150.3724  140.9415  155.5542 C   0  0  2  0  0  0  0  0  0  0  0  0
  148.9146  140.8648  155.0609 C   0  0  0  0  0  0  0  0  0  0  0  0
  148.8282  139.9923  153.8735 N   0  3  0  0  0  0  0  0  0  0  0  0
  149.4008  138.6582  154.1414 C   0  0  0  0  0  0  0  0  0  0  0  0
  150.8395  138.7954  154.6696 C   0  0  0  0  0  0  0  0  0  0  0  0
  150.8498  139.6259  155.8261 O   0  0  0  0  0  0  0  0  0  0  0  0
  151.2921  142.7871  156.9866 N   0  0  0  0  0  0  0  0  0  0  0  0
  149.2124  140.6349  158.0735 H   0  0  0  0  0  0  0  0  0  0  0  0
  152.9932  144.3607  160.8474 H   0  0  0  0  0  0  0  0  0  0  0  0
  153.2383  142.8549  159.9859 H   0  0  0  0  0  0  0  0  0  0  0  0
  151.7800  143.0910  160.9440 H   0  0  0  0  0  0  0  0  0  0  0  0
  150.0276  144.8065  160.2283 H   0  0  0  0  0  0  0  0  0  0  0  0
  150.2601  145.7617  158.7681 H   0  0  0  0  0  0  0  0  0  0  0  0
  151.3031  146.0154  160.1535 H   0  0  0  0  0  0  0  0  0  0  0  0
  153.3477  145.6305  158.6232 H   0  0  0  0  0  0  0  0  0  0  0  0
  152.3030  145.3038  157.2457 H   0  0  0  0  0  0  0  0  0  0  0  0
  153.5121  144.1217  157.7330 H   0  0  0  0  0  0  0  0  0  0  0  0
  151.0033  141.4019  154.7909 H   0  0  0  0  0  0  0  0  0  0  0  0
  148.2677  140.4635  155.8427 H   0  0  0  0  0  0  0  0  0  0  0  0
  148.5386  141.8568  154.8091 H   0  0  0  0  0  0  0  0  0  0  0  0
  147.8614  139.8938  153.5981 H   0  0  0  0  0  0  0  0  0  0  0  0
  148.7790  138.1417  154.8738 H   0  0  0  0  0  0  0  0  0  0  0  0
  149.3817  138.0649  153.2269 H   0  0  0  0  0  0  0  0  0  0  0  0
  151.2380  137.8159  154.9342 H   0  0  0  0  0  0  0  0  0  0  0  0
  151.4980  139.2106  153.9049 H   0  0  0  0  0  0  0  0  0  0  0  0
  149.3442  140.4202  153.1179 H   0  0  0  0  0  0  0  0  0  0  0  0
  1  2  1  0  0  0  0
  1 17  1  0  0  0  0
  1 18  1  0  0  0  0
  1 19  1  0  0  0  0
  2  3  1  0  0  0  0
  2  4  1  0  0  0  0
  2  5  1  0  0  0  0
  3 20  1  0  0  0  0
  3 21  1  0  0  0  0
  3 22  1  0  0  0  0
  4 23  1  0  0  0  0
  4 24  1  0  0  0  0
  4 25  1  0  0  0  0
  5 15  1  0  0  0  0
  5  6  2  0  0  0  0
  6  7  1  0  0  0  0
  7 16  1  0  0  0  0
  7  8  1  0  0  0  0
  8  9  1  0  0  0  0
  8 15  2  0  0  0  0
  9 14  1  0  0  0  0
  9 10  1  0  0  0  0
  9 26  1  0  0  0  0
 10 11  1  0  0  0  0
 10 27  1  0  0  0  0
 10 28  1  0  0  0  0
 11 12  1  0  0  0  0
 11 29  1  0  0  0  0
 11 34  1  0  0  0  0
 12 13  1  0  0  0  0
 12 30  1  0  0  0  0
 12 31  1  0  0  0  0
 13 14  1  0  0  0  0
 13 32  1  0  0  0  0
 13 33  1  0  0  0  0
M  CHG  1  11   1
M  END
> <s_m_source_file>
AV-unprocessed.smi

> <i_m_source_file_index>
2567

> <i_lp_mmshare_version>
43012

> <i_f3d_flags>
0

> <s_epik_input>
W0NIM11DKFtDSDNdKShbQ0gzXSljMW5bbkhdYyhuMSlbQ0BASF0yW0NIMl1bTkhdW0NIMl1bQ0gyXU8y

> <s_epik_cmdline>
J2VwaWtfcHl0aG9uJywgJy1waCcsICc3LjAnLCAnLXRuJywgJzgnLCAnLW1hJywgJzIwMCcsICctbWV0YWxfYmluZGluZycsICctaW1hZScsICc8aW5maWxlLm1hZT4nLCAnLW9tYWUnLCAnPG91dGZpbGUubWFlPic=

> <r_epik_Ionization_Penalty>
0.162344

> <r_epik_Ionization_Penalty_Charging>
0.125708

> <r_epik_Ionization_Penalty_Neutral>
0.0366363

> <r_epik_State_Penalty>
1.18286

> <r_epik_Charging_Adjusted_Penalty>
1.30856

> <i_epik_Tot_Q>
1

> <i_epik_Tot_abs_Q>
1

> <r_epik_Metal_State_Penalty>
1.49333

> <b_epik_Metal_Only>
0

> <s_lp_Force_Field>
OPLS_2005

> <r_lp_Energy>
12.4699

> <b_lp_Chiralities_Consistent>
1

> <s_lp_Variant>
AV-unprocessed.smi:2567-3

> <Gold.Version>
5.8.1

> <Gold.Id.Protein>
6NUR|6NUR_protein|mol2

> <Gold.PLP.Fitness>
35.2288

> <Gold.PLP.PLP>
-33.2104

> <Gold.PLP.part.hbond>
-1.7606

> <Gold.PLP.part.metal>
0.0000

> <Gold.PLP.part.buried>
-3.9111

> <Gold.PLP.part.nonpolar>
-27.4924

> <Gold.PLP.part.repulsive>
0.4196

> <Gold.PLP.ligand.clash>
0.0000

> <Gold.PLP.ligand.torsion>
0.1496

> <Gold.PLP.Chemscore.Hbond>
0.7040

> <Gold.PLP.Chemscore.CHOScore>
0.0000

> <Gold.PLP.Chemscore.Metal>
0.0000

> <Gold.Chemscore.Hbonds>
donor molecule, donor type, donor heavy atom, donor atom, acceptor molecule, acceptor atom, score
      L1  H    11    34       P1  7957  0.72

> <Gold.PLP.Chemscore.Internal.Correction>
0.2056

> <Gold.Rescore>
     Score         DG    S(hbond)    S(metal)    S(lipo)     H(rot)  DE(clash)    DE(int)     intcor
     14.03     -14.47       0.88        0.00      79.36       1.26       0.24       0.19       ----

> <Gold.Chemscore.Fitness>
14.0319

> <Gold.Chemscore.DG>
-14.4687

> <Gold.Chemscore.ZeroCoef>
-5.4800

> <Gold.Chemscore.Hbond>
0.8806

> <Gold.Chemscore.Metal>
0.0000

> <Gold.Chemscore.Lipo>
79.3605

> <Gold.Chemscore.Internal_Hbond>
0.0000

> <Gold.Chemscore.DEClash>
0.2434

> <Gold.Chemscore.DEInternal>
0.1934

> <Gold.Chemscore.Rot>
1.2647

> <Gold.Chemscore.Internal.Correction>
   9.000000E+99

> <Gold.Chemscore.Hbonds>
donor molecule, donor type, donor heavy atom, donor atom, acceptor molecule, acceptor atom, score
      L1  H    11    34       P1  7957  0.69

> <Gold.Chemscore.Hbond.Weighted>
-2.9411

> <Gold.Chemscore.Metal.Weighted>
-0.0000

> <Gold.Chemscore.Lipo.Weighted>
-9.2852

> <Gold.Chemscore.Internal_Hbond.Weighted>
0.0000

> <Gold.Chemscore.DEClash.Weighted>
0.2434

> <Gold.Chemscore.DEInternal.Weighted>
0.1934

> <Gold.Chemscore.Rot.Weighted>
3.2375

> <Gold.Chemscore.Internal.Correction.Weighted>
   9.000000E+99

> <Gold.Protein.RotatedTorsions>
[ 6907 6896 6895 6894 ] final   37.32 input  -60.11 | X-H torsion
[ 7974 7965 7964 7962 ] final  -21.62 input  175.53 | X-H torsion
[ 8008 7997 7996 7995 ] final   28.19 input   59.86 | X-H torsion
[ 10167 10162 10161 10158 ] final -152.78 input  -65.29 | X-H torsion
[ 10718 10713 10712 10709 ] final  -99.36 input   66.30 | X-H torsion
[ 10763 10752 10751 10750 ] final  105.44 input  -60.55 | X-H torsion
[ 11005 11000 10999 10996 ] final   -2.53 input  -57.11 | X-H torsion

> <Gold.Protein.ActiveResidues>
 VAL166  LYS551  ARG553  GLY616  TRP617  ASP618  TYR619  PRO620  LYS621  CYS622 
 ASP623  PHE694  ASN695  SER759  ASP760  ASP761  ALA762  ILE779  LEU786  VAL792 
 PHE793  MET794  SER795  GLU796  ALA797  LYS798  CYS799  TRP800  GLU811  SER814 

> <Gold.Protein.RotatedAtoms>
  152.1416  134.9058  160.0553 H   0  0  0  0  0  0  0  0  0  0  0  0  # atno 6907 bound_to 6896
  152.0123  133.3861  159.4233 H   0  0  0  0  0  0  0  0  0  0  0  0  # atno 6908 bound_to 6896
  150.6866  134.3638  159.5006 H   0  0  0  0  0  0  0  0  0  0  0  0  # atno 6909 bound_to 6896
  146.1723  140.4366  142.8527 H   0  0  0  0  0  0  0  0  0  0  0  0  # atno 7974 bound_to 7965
  155.0547  140.3183  155.4680 H   0  0  0  0  0  0  0  0  0  0  0  0  # atno 8008 bound_to 7997
  156.2826  140.2139  156.5618 H   0  0  0  0  0  0  0  0  0  0  0  0  # atno 8009 bound_to 7997
  154.7181  140.0492  157.0601 H   0  0  0  0  0  0  0  0  0  0  0  0  # atno 8010 bound_to 7997
  139.7152  143.9044  152.2483 H   0  0  0  0  0  0  0  0  0  0  0  0  # atno 10167 bound_to 10162
  156.0132  130.5279  150.6659 H   0  0  0  0  0  0  0  0  0  0  0  0  # atno 10718 bound_to 10713
  153.3794  135.3910  155.1846 H   0  0  0  0  0  0  0  0  0  0  0  0  # atno 10763 bound_to 10752
  154.8705  135.3721  154.4877 H   0  0  0  0  0  0  0  0  0  0  0  0  # atno 10764 bound_to 10752
  153.5352  135.7085  153.5724 H   0  0  0  0  0  0  0  0  0  0  0  0  # atno 10765 bound_to 10752
  140.6593  133.9334  155.8427 H   0  0  0  0  0  0  0  0  0  0  0  0  # atno 11005 bound_to 11000
  144.8181  140.6503  143.6371 LP  0  0  0  0  0  0  0  0  0  0  0  0  # atno 17320 bound_to 7965
  145.4308  139.1549  143.4023 LP  0  0  0  0  0  0  0  0  0  0  0  0  # atno 17321 bound_to 7965
  139.8925  144.6958  150.8755 LP  0  0  0  0  0  0  0  0  0  0  0  0  # atno 17342 bound_to 10162
  140.7742  143.3576  151.1892 LP  0  0  0  0  0  0  0  0  0  0  0  0  # atno 17343 bound_to 10162
  157.4391  131.0859  151.0961 LP  0  0  0  0  0  0  0  0  0  0  0  0  # atno 17370 bound_to 10713
  157.1511  130.6184  149.5582 LP  0  0  0  0  0  0  0  0  0  0  0  0  # atno 17371 bound_to 10713
  141.0477  134.0530  157.3823 LP  0  0  0  0  0  0  0  0  0  0  0  0  # atno 17394 bound_to 11000
  139.9018  135.0167  156.7305 LP  0  0  0  0  0  0  0  0  0  0  0  0  # atno 17395 bound_to 11000

$$$$
