#       Name:                AV-unprocessed.smi:1684
#       Creating user name   scv26
#       Creation time:       Fri Mar 27 07:51:27 2020


#       File generated by GOLD software.
#

@<TRIPOS>MOLECULE
AV-unprocessed.smi:1684
    48    49     1
SMALL
NO_CHARGES


@<TRIPOS>ATOM
      1 ****        -4.1571  -0.9344  -1.6468 C.3            1 S1                 0.0000
      2 ****        -3.8754   0.4686  -1.1340 C.ar           1 S1                 0.0000
      3 ****        -4.9566   1.3341  -0.8628 C.ar           1 S1                 0.0000
      4 ****        -4.6947   2.6303  -0.3873 C.ar           1 S1                 0.0000
      5 ****        -3.3541   3.0086  -0.2016 C.ar           1 S1                 0.0000
      6 ****        -2.3149   2.1879  -0.4575 N.ar           1 S1                 0.0000
      7 ****        -2.5504   0.9343  -0.9203 C.ar           1 S1                 0.0000
      8 ****        -1.5034   0.0133  -1.2081 N.am           1 S1                 0.0000
      9 ****        -0.1761   0.2012  -1.1070 C.2            1 S1                 0.0000
     10 ****         0.3724   1.2578  -0.7930 O.2            1 S1                 0.0000
     11 ****         0.4979  -0.9263  -1.3811 N.am           1 S1                 0.0000
     12 ****         1.9537  -1.0818  -1.3728 C.3            1 S1                 0.0000
     13 ****         2.3515  -2.1103  -2.4402 C.3            1 S1                 0.0000
     14 ****         2.4721  -1.4962   0.0245 C.3            1 S1                 0.0000
     15 ****         2.1422  -0.5095   1.0839 N.4            1 S1                 1.0000
     16 ****         2.0596  -1.1068   2.4367 C.3            1 S1                 0.0000
     17 ****         1.6227  -0.0428   3.4585 C.3            1 S1                 0.0000
     18 ****         2.5286   1.0538   3.4271 O.3            1 S1                 0.0000
     19 ****         2.5622   1.6829   2.1513 C.3            1 S1                 0.0000
     20 ****         3.0372   0.6727   1.0943 C.3            1 S1                 0.0000
     21 ****        -5.2286  -1.1205  -1.7271 H              1 S1                 0.0000
     22 ****        -3.7379  -1.6804  -0.9709 H              1 S1                 0.0000
     23 ****        -3.7175  -1.0744  -2.6348 H              1 S1                 0.0000
     24 ****        -5.9761   1.0116  -1.0157 H              1 S1                 0.0000
     25 ****        -5.5001   3.3164  -0.1706 H              1 S1                 0.0000
     26 ****        -3.1086   3.9950   0.1629 H              1 S1                 0.0000
     27 ****        -1.8059  -0.9024  -1.5056 H              1 S1                 0.0000
     28 ****        -0.0387  -1.7445  -1.6311 H              1 S1                 0.0000
     29 ****         2.4135  -0.1356  -1.6615 H              1 S1                 0.0000
     30 ****         3.4351  -2.2183  -2.4956 H              1 S1                 0.0000
     31 ****         2.0021  -1.8077  -3.4281 H              1 S1                 0.0000
     32 ****         1.9303  -3.0929  -2.2246 H              1 S1                 0.0000
     33 ****         2.0234  -2.4575   0.2798 H              1 S1                 0.0000
     34 ****         3.5502  -1.6627   0.0037 H              1 S1                 0.0000
     35 ****         1.3431  -1.9290   2.4375 H              1 S1                 0.0000
     36 ****         3.0294  -1.5225   2.7150 H              1 S1                 0.0000
     37 ****         0.6088   0.3028   3.2503 H              1 S1                 0.0000
     38 ****         1.6150  -0.4661   4.4629 H              1 S1                 0.0000
     39 ****         1.5761   2.0767   1.8983 H              1 S1                 0.0000
     40 ****         3.2440   2.5323   2.1934 H              1 S1                 0.0000
     41 ****         4.0601   0.3596   1.3091 H              1 S1                 0.0000
     42 ****         3.0493   1.1512   0.1154 H              1 S1                 0.0000
     43 ****         1.2149  -0.1688   0.8717 H              1 S1                 0.0000
     44 ****        -1.3772   2.5011  -0.3071 LP             1 S1                 0.0000
     45 ****        -0.1796   2.0662  -0.5885 LP             1 S1                 0.0000
     46 ****         1.3699   1.3076  -0.7424 LP             1 S1                 0.0000
     47 ****         3.4457   0.7211   3.6470 LP             1 S1                 0.0000
     48 ****         2.2451   1.7261   4.1110 LP             1 S1                 0.0000
@<TRIPOS>BOND
    1    1    2 1     
    2    1   21 1     
    3    1   22 1     
    4    1   23 1     
    5    2    7 ar    
    6    2    3 ar    
    7    3    4 ar    
    8    3   24 1     
    9    4    5 ar    
   10    4   25 1     
   11    5    6 ar    
   12    5   26 1     
   13    6    7 ar    
   14    7    8 1     
   15    8    9 am    
   16    8   27 1     
   17    9   10 2     
   18    9   11 am    
   19   11   12 1     
   20   11   28 1     
   21   12   13 1     
   22   12   14 1     
   23   12   29 1     
   24   13   30 1     
   25   13   31 1     
   26   13   32 1     
   27   14   15 1     
   28   14   33 1     
   29   14   34 1     
   30   15   20 1     
   31   15   16 1     
   32   15   43 1     
   33   16   17 1     
   34   16   35 1     
   35   16   36 1     
   36   17   18 1     
   37   17   37 1     
   38   17   38 1     
   39   18   19 1     
   40   19   20 1     
   41   19   39 1     
   42   19   40 1     
   43   20   41 1     
   44   20   42 1     
   45    6   44 1     
   46   10   45 1     
   47   10   46 1     
   48   18   47 1     
   49   18   48 1     
@<TRIPOS>SUBSTRUCTURE
      1 S1             1
@<TRIPOS>SET
LONE_PAIRS      STATIC     ATOMS    <user>   **** ""
5 44 45 46 47 48
DONOR_HYDROGENS      STATIC     ATOMS    <user>   **** ""
3 27 28 43
ATOM$BLUE        STATIC     ATOMS    COLORGROUP SYSTEM
5 44 45 46 47 48
ATOM$RED        STATIC     ATOMS    COLORGROUP SYSTEM
3 27 28 43
