AV-unprocessed.smi:2446|AV-procd|sdf|9644|dock10
  -GOLD-   2272013273D 1   1.00000     0.00000
 Structure written by MMmdl.
 39 40  0  0  0  0  0  0  0  0  1 V2000
  150.9727  137.9390  154.2027 C   0  0  0  0  0  0  0  0  0  0  0  0
  150.2845  139.2822  154.0311 C   0  0  0  0  0  0  0  0  0  0  0  0
  150.9854  140.4737  154.3159 C   0  0  0  0  0  0  0  0  0  0  0  0
  150.4462  141.7040  154.1933 N   0  0  0  0  0  0  0  0  0  0  0  0
  149.1653  141.7908  153.7801 C   0  0  0  0  0  0  0  0  0  0  0  0
  148.3735  140.6685  153.4677 C   0  0  0  0  0  0  0  0  0  0  0  0
  148.9450  139.3781  153.5816 C   0  0  0  0  0  0  0  0  0  0  0  0
  148.2334  138.1766  153.3068 N   0  0  0  0  0  0  0  0  0  0  0  0
  146.9518  137.8618  153.5796 C   0  0  0  0  0  0  0  0  0  0  0  0
  146.1568  138.5934  154.1653 O   0  0  0  0  0  0  0  0  0  0  0  0
  146.5779  136.6478  153.1357 N   0  0  0  0  0  0  0  0  0  0  0  0
  145.2726  135.9885  153.2555 C   0  0  1  0  0  0  0  0  0  0  0  0
  144.3326  136.4718  152.1349 C   0  0  0  0  0  0  0  0  0  0  0  0
  144.7474  135.9333  150.7553 C   0  0  0  0  0  0  0  0  0  0  0  0
  144.8583  134.4010  150.7618 C   0  0  0  0  0  0  0  0  0  0  0  0
  145.8326  133.9047  151.8506 C   0  0  2  0  0  0  0  0  0  0  0  0
  145.9635  132.3676  151.8521 C   0  0  0  0  0  0  0  0  0  0  0  0
  146.8042  131.9634  152.8046 F   0  0  0  0  0  0  0  0  0  0  0  0
  144.7722  131.8079  152.0628 F   0  0  0  0  0  0  0  0  0  0  0  0
  146.4172  131.9479  150.6710 F   0  0  0  0  0  0  0  0  0  0  0  0
  145.4053  134.4486  153.2327 C   0  0  0  0  0  0  0  0  0  0  0  0
  151.9851  138.0596  154.5895 H   0  0  0  0  0  0  0  0  0  0  0  0
  151.0363  137.4193  153.2464 H   0  0  0  0  0  0  0  0  0  0  0  0
  150.4184  137.3120  154.9018 H   0  0  0  0  0  0  0  0  0  0  0  0
  152.0104  140.4416  154.6550 H   0  0  0  0  0  0  0  0  0  0  0  0
  148.7547  142.7865  153.7022 H   0  0  0  0  0  0  0  0  0  0  0  0
  147.3503  140.8217  153.1623 H   0  0  0  0  0  0  0  0  0  0  0  0
  148.7406  137.4954  152.7615 H   0  0  0  0  0  0  0  0  0  0  0  0
  147.2897  136.1126  152.6597 H   0  0  0  0  0  0  0  0  0  0  0  0
  144.8221  136.2872  154.2035 H   0  0  0  0  0  0  0  0  0  0  0  0
  143.3168  136.1402  152.3538 H   0  0  0  0  0  0  0  0  0  0  0  0
  144.2965  137.5617  152.1152 H   0  0  0  0  0  0  0  0  0  0  0  0
  144.0230  136.2476  150.0035 H   0  0  0  0  0  0  0  0  0  0  0  0
  145.7028  136.3682  150.4597 H   0  0  0  0  0  0  0  0  0  0  0  0
  143.8709  133.9668  150.9230 H   0  0  0  0  0  0  0  0  0  0  0  0
  145.1872  134.0597  149.7799 H   0  0  0  0  0  0  0  0  0  0  0  0
  146.8191  134.3103  151.6215 H   0  0  0  0  0  0  0  0  0  0  0  0
  146.1098  134.1203  153.9966 H   0  0  0  0  0  0  0  0  0  0  0  0
  144.4454  134.0102  153.5082 H   0  0  0  0  0  0  0  0  0  0  0  0
  1  2  1  0  0  0  0
  1 22  1  0  0  0  0
  1 23  1  0  0  0  0
  1 24  1  0  0  0  0
  2  7  1  0  0  0  0
  2  3  2  0  0  0  0
  3  4  1  0  0  0  0
  3 25  1  0  0  0  0
  4  5  2  0  0  0  0
  5  6  1  0  0  0  0
  5 26  1  0  0  0  0
  6  7  2  0  0  0  0
  6 27  1  0  0  0  0
  7  8  1  0  0  0  0
  8  9  1  0  0  0  0
  8 28  1  0  0  0  0
  9 10  2  0  0  0  0
  9 11  1  0  0  0  0
 11 12  1  0  0  0  0
 11 29  1  0  0  0  0
 12 21  1  0  0  0  0
 12 13  1  0  0  0  0
 12 30  1  0  0  0  0
 13 14  1  0  0  0  0
 13 31  1  0  0  0  0
 13 32  1  0  0  0  0
 14 15  1  0  0  0  0
 14 33  1  0  0  0  0
 14 34  1  0  0  0  0
 15 16  1  0  0  0  0
 15 35  1  0  0  0  0
 15 36  1  0  0  0  0
 16 17  1  0  0  0  0
 16 21  1  0  0  0  0
 16 37  1  0  0  0  0
 17 18  1  0  0  0  0
 17 19  1  0  0  0  0
 17 20  1  0  0  0  0
 21 38  1  0  0  0  0
 21 39  1  0  0  0  0
M  END
> <s_m_source_file>
AV-unprocessed.smi

> <i_m_source_file_index>
2446

> <i_lp_mmshare_version>
43012

> <i_f3d_flags>
0

> <s_epik_input>
W0NIM11jMVtjSF1uW2NIXVtjSF1jMVtOSF1DKD1PKVtOSF1bQ0BASF0yW0NIMl1bQ0gyXVtDSDJdW0NAQEhdKEMoRikoRilGKVtDSDJdMg==

> <s_epik_cmdline>
J2VwaWtfcHl0aG9uJywgJy1waCcsICc3LjAnLCAnLXRuJywgJzgnLCAnLW1hJywgJzIwMCcsICctbWV0YWxfYmluZGluZycsICctaW1hZScsICc8aW5maWxlLm1hZT4nLCAnLW9tYWUnLCAnPG91dGZpbGUubWFlPic=

> <r_epik_Ionization_Penalty>
0.20168

> <r_epik_Ionization_Penalty_Charging>
0

> <r_epik_Ionization_Penalty_Neutral>
0.20168

> <r_epik_State_Penalty>
0.191514

> <r_epik_Charging_Adjusted_Penalty>
0.191514

> <i_epik_Tot_Q>
0

> <i_epik_Tot_abs_Q>
0

> <r_epik_Metal_State_Penalty>
0.142371

> <b_epik_Metal_Only>
0

> <s_lp_Force_Field>
OPLS_2005

> <r_lp_Energy>
25.5489

> <b_lp_Chiralities_Consistent>
1

> <s_lp_Variant>
AV-unprocessed.smi:2446-4

> <Gold.Version>
5.8.1

> <Gold.Id.Protein>
6NUR|6NUR_protein|mol2

> <Gold.PLP.Fitness>
42.2113

> <Gold.PLP.PLP>
-34.8288

> <Gold.PLP.part.hbond>
-3.0000

> <Gold.PLP.part.metal>
0.0000

> <Gold.PLP.part.buried>
2.9541

> <Gold.PLP.part.nonpolar>
-34.2847

> <Gold.PLP.part.repulsive>
0.1646

> <Gold.PLP.ligand.clash>
0.0000

> <Gold.PLP.ligand.torsion>
0.6633

> <Gold.PLP.Chemscore.Hbond>
1.8960

> <Gold.PLP.Chemscore.CHOScore>
1.0000

> <Gold.PLP.Chemscore.Metal>
0.0000

> <Gold.Chemscore.Hbonds>
donor molecule, donor type, donor heavy atom, donor atom, acceptor molecule, acceptor atom, score
      L1  H     8    28       P1  7948  1.00
      L1  H    11    29       P1  7948  0.88
      L1  C     5    26       P1  8028  0.50

> <Gold.PLP.Chemscore.Internal.Correction>
0.0212

> <Gold.Rescore>
     Score         DG    S(hbond)    S(metal)    S(lipo)     H(rot)  DE(clash)    DE(int)     intcor
     16.45     -17.97       1.94        0.00      73.20       1.00       0.94       0.58       ----

> <Gold.Chemscore.Fitness>
16.4512

> <Gold.Chemscore.DG>
-17.9727

> <Gold.Chemscore.ZeroCoef>
-5.4800

> <Gold.Chemscore.Hbond>
1.9427

> <Gold.Chemscore.Metal>
0.0000

> <Gold.Chemscore.Lipo>
73.1956

> <Gold.Chemscore.Internal_Hbond>
0.0000

> <Gold.Chemscore.DEClash>
0.9406

> <Gold.Chemscore.DEInternal>
0.5809

> <Gold.Chemscore.Rot>
1.0000

> <Gold.Chemscore.Internal.Correction>
   9.000000E+99

> <Gold.Chemscore.Hbonds>
donor molecule, donor type, donor heavy atom, donor atom, acceptor molecule, acceptor atom, score
      L1  H     8    28       P1  7948  0.94
      L1  H    11    29       P1  7948  0.87

> <Gold.Chemscore.Hbond.Weighted>
-6.4888

> <Gold.Chemscore.Metal.Weighted>
-0.0000

> <Gold.Chemscore.Lipo.Weighted>
-8.5639

> <Gold.Chemscore.Internal_Hbond.Weighted>
0.0000

> <Gold.Chemscore.DEClash.Weighted>
0.9406

> <Gold.Chemscore.DEInternal.Weighted>
0.5809

> <Gold.Chemscore.Rot.Weighted>
2.5600

> <Gold.Chemscore.Internal.Correction.Weighted>
   9.000000E+99

> <Gold.Protein.RotatedTorsions>
[ 6907 6896 6895 6894 ] final  -16.22 input  -60.11 | X-H torsion
[ 7974 7965 7964 7962 ] final   27.39 input  175.53 | X-H torsion
[ 8008 7997 7996 7995 ] final   34.21 input   59.86 | X-H torsion
[ 10167 10162 10161 10158 ] final   17.85 input  -65.29 | X-H torsion
[ 10718 10713 10712 10709 ] final  145.39 input   66.30 | X-H torsion
[ 10763 10752 10751 10750 ] final -135.43 input  -60.55 | X-H torsion
[ 11005 11000 10999 10996 ] final  122.71 input  -57.11 | X-H torsion

> <Gold.Protein.ActiveResidues>
 VAL166  LYS551  ARG553  GLY616  TRP617  ASP618  TYR619  PRO620  LYS621  CYS622 
 ASP623  PHE694  ASN695  SER759  ASP760  ASP761  ALA762  ILE779  LEU786  VAL792 
 PHE793  MET794  SER795  GLU796  ALA797  LYS798  CYS799  TRP800  GLU811  SER814 

> <Gold.Protein.RotatedAtoms>
  151.3120  135.0796  159.9275 H   0  0  0  0  0  0  0  0  0  0  0  0  # atno 6907 bound_to 6896
  152.5276  133.9726  159.7779 H   0  0  0  0  0  0  0  0  0  0  0  0  # atno 6908 bound_to 6896
  151.0032  133.5984  159.2722 H   0  0  0  0  0  0  0  0  0  0  0  0  # atno 6909 bound_to 6896
  146.1787  139.7198  142.8916 H   0  0  0  0  0  0  0  0  0  0  0  0  # atno 7974 bound_to 7965
  155.1511  140.3275  155.4431 H   0  0  0  0  0  0  0  0  0  0  0  0  # atno 8008 bound_to 7997
  156.2574  140.1977  156.6572 H   0  0  0  0  0  0  0  0  0  0  0  0  # atno 8009 bound_to 7997
  154.6473  140.0563  156.9901 H   0  0  0  0  0  0  0  0  0  0  0  0  # atno 8010 bound_to 7997
  140.5696  143.9186  150.6703 H   0  0  0  0  0  0  0  0  0  0  0  0  # atno 10167 bound_to 10162
  157.3458  131.0943  151.1043 H   0  0  0  0  0  0  0  0  0  0  0  0  # atno 10718 bound_to 10713
  154.8703  135.3703  154.4898 H   0  0  0  0  0  0  0  0  0  0  0  0  # atno 10763 bound_to 10752
  153.5545  135.7024  153.5580 H   0  0  0  0  0  0  0  0  0  0  0  0  # atno 10764 bound_to 10752
  153.3684  135.4028  155.1734 H   0  0  0  0  0  0  0  0  0  0  0  0  # atno 10765 bound_to 10752
  139.9280  134.9641  156.8149 H   0  0  0  0  0  0  0  0  0  0  0  0  # atno 11005 bound_to 11000
  145.4139  141.0399  143.3001 LP  0  0  0  0  0  0  0  0  0  0  0  0  # atno 17320 bound_to 7965
  144.8278  139.5680  143.6957 LP  0  0  0  0  0  0  0  0  0  0  0  0  # atno 17321 bound_to 7965
  140.2658  143.3491  152.1282 LP  0  0  0  0  0  0  0  0  0  0  0  0  # atno 17342 bound_to 10162
  139.5111  144.6894  151.5799 LP  0  0  0  0  0  0  0  0  0  0  0  0  # atno 17343 bound_to 10162
  157.2238  130.6493  149.5822 LP  0  0  0  0  0  0  0  0  0  0  0  0  # atno 17370 bound_to 10713
  155.9714  130.4621  150.6132 LP  0  0  0  0  0  0  0  0  0  0  0  0  # atno 17371 bound_to 10713
  140.6281  133.9931  155.7649 LP  0  0  0  0  0  0  0  0  0  0  0  0  # atno 17394 bound_to 11000
  141.0850  134.0004  157.3327 LP  0  0  0  0  0  0  0  0  0  0  0  0  # atno 17395 bound_to 11000

$$$$
