AV-unprocessed.smi:3340|AV-procd|sdf|12881|dock8
  -GOLD-   2272019283D 1   1.00000     0.00000
 Structure written by MMmdl.
 41 42  0  0  0  0  0  0  0  0  1 V2000
  152.9218  143.6557  159.5969 C   0  0  0  0  0  0  0  0  0  0  0  0
  152.8199  142.2025  159.1273 C   0  0  0  0  0  0  0  0  0  0  0  0
  153.7253  141.4300  159.4424 O   0  0  0  0  0  0  0  0  0  0  0  0
  151.7502  141.8159  158.3913 N   0  0  0  0  0  0  0  0  0  0  0  0
  150.6954  142.7501  157.9688 C   0  0  0  0  0  0  0  0  0  0  0  0
  150.6868  142.8371  156.4291 C   0  0  0  0  0  0  0  0  0  0  0  0
  150.4656  141.4869  155.8763 N   0  0  0  0  0  0  0  0  0  0  0  0
  149.3436  141.0527  155.2493 C   0  0  0  0  0  0  0  0  0  0  0  0
  149.2610  139.9539  154.6983 O   0  0  0  0  0  0  0  0  0  0  0  0
  148.3338  141.9397  155.2285 N   0  0  0  0  0  0  0  0  0  0  0  0
  147.0340  141.7346  154.5959 C   0  0  2  0  0  0  0  0  0  0  0  0
  147.2438  141.1231  153.2011 C   0  0  0  0  0  0  0  0  0  0  0  0
  146.2445  143.0609  154.5641 C   0  0  0  0  0  0  0  0  0  0  0  0
  145.1031  143.0545  155.4593 N   0  0  0  0  0  0  0  0  0  0  0  0
  143.9728  142.2532  155.3652 C   0  0  0  0  0  0  0  0  0  0  0  0
  143.1637  142.5886  156.4272 C   0  0  0  0  0  0  0  0  0  0  0  0
  143.7748  143.5840  157.1863 N   0  0  0  0  0  0  0  0  0  0  0  0
  144.9202  143.8057  156.5541 C   0  0  0  0  0  0  0  0  0  0  0  0
  151.5312  140.5638  156.2952 C   0  0  0  0  0  0  0  0  0  0  0  0
  151.5391  140.4703  157.8339 C   0  0  0  0  0  0  0  0  0  0  0  0
  152.0754  143.9168  160.2329 H   0  0  0  0  0  0  0  0  0  0  0  0
  152.9510  144.3363  158.7457 H   0  0  0  0  0  0  0  0  0  0  0  0
  153.8329  143.8098  160.1762 H   0  0  0  0  0  0  0  0  0  0  0  0
  149.7311  142.3924  158.3330 H   0  0  0  0  0  0  0  0  0  0  0  0
  150.8220  143.7488  158.3881 H   0  0  0  0  0  0  0  0  0  0  0  0
  149.9456  143.5720  156.1157 H   0  0  0  0  0  0  0  0  0  0  0  0
  151.6445  143.2168  156.0704 H   0  0  0  0  0  0  0  0  0  0  0  0
  148.4812  142.8286  155.6842 H   0  0  0  0  0  0  0  0  0  0  0  0
  146.4726  141.0082  155.1866 H   0  0  0  0  0  0  0  0  0  0  0  0
  146.2943  140.8688  152.7292 H   0  0  0  0  0  0  0  0  0  0  0  0
  147.8305  140.2058  153.2599 H   0  0  0  0  0  0  0  0  0  0  0  0
  147.7698  141.8133  152.5406 H   0  0  0  0  0  0  0  0  0  0  0  0
  146.8871  143.8956  154.8474 H   0  0  0  0  0  0  0  0  0  0  0  0
  145.8926  143.2680  153.5523 H   0  0  0  0  0  0  0  0  0  0  0  0
  143.8413  141.5334  154.5708 H   0  0  0  0  0  0  0  0  0  0  0  0
  142.1973  142.1923  156.7018 H   0  0  0  0  0  0  0  0  0  0  0  0
  145.6412  144.5349  156.8934 H   0  0  0  0  0  0  0  0  0  0  0  0
  151.4191  139.5677  155.8650 H   0  0  0  0  0  0  0  0  0  0  0  0
  152.4918  140.9351  155.9352 H   0  0  0  0  0  0  0  0  0  0  0  0
  152.2871  139.7437  158.1466 H   0  0  0  0  0  0  0  0  0  0  0  0
  150.5841  140.0824  158.1916 H   0  0  0  0  0  0  0  0  0  0  0  0
  1  2  1  0  0  0  0
  1 21  1  0  0  0  0
  1 22  1  0  0  0  0
  1 23  1  0  0  0  0
  2  3  2  0  0  0  0
  2  4  1  0  0  0  0
  4 20  1  0  0  0  0
  4  5  1  0  0  0  0
  5  6  1  0  0  0  0
  5 24  1  0  0  0  0
  5 25  1  0  0  0  0
  6  7  1  0  0  0  0
  6 26  1  0  0  0  0
  6 27  1  0  0  0  0
  7  8  1  0  0  0  0
  7 19  1  0  0  0  0
  8  9  2  0  0  0  0
  8 10  1  0  0  0  0
 10 11  1  0  0  0  0
 10 28  1  0  0  0  0
 11 12  1  0  0  0  0
 11 13  1  0  0  0  0
 11 29  1  0  0  0  0
 12 30  1  0  0  0  0
 12 31  1  0  0  0  0
 12 32  1  0  0  0  0
 13 14  1  0  0  0  0
 13 33  1  0  0  0  0
 13 34  1  0  0  0  0
 14 18  1  0  0  0  0
 14 15  1  0  0  0  0
 15 16  2  0  0  0  0
 15 35  1  0  0  0  0
 16 17  1  0  0  0  0
 16 36  1  0  0  0  0
 17 18  2  0  0  0  0
 18 37  1  0  0  0  0
 19 20  1  0  0  0  0
 19 38  1  0  0  0  0
 19 39  1  0  0  0  0
 20 40  1  0  0  0  0
 20 41  1  0  0  0  0
M  END
> <s_m_source_file>
AV-unprocessed.smi

> <i_m_source_file_index>
3340

> <i_lp_mmshare_version>
43012

> <i_f3d_flags>
0

> <s_epik_input>
W0NIM11DKD1PKU4xW0NIMl1bQ0gyXU4oW0NIMl1bQ0gyXTEpQyg9TylbTkhdW0NASF0oW0NIM10pW0NIMl1uMltjSF1bY0hdbltjSF0y

> <s_epik_cmdline>
J2VwaWtfcHl0aG9uJywgJy1waCcsICc3LjAnLCAnLXRuJywgJzgnLCAnLW1hJywgJzIwMCcsICctbWV0YWxfYmluZGluZycsICctaW1hZScsICc8aW5maWxlLm1hZT4nLCAnLW9tYWUnLCAnPG91dGZpbGUubWFlPic=

> <r_lp_tautomer_probability>
1

> <r_epik_Ionization_Penalty>
0.622948

> <r_epik_Ionization_Penalty_Charging>
0.622904

> <r_epik_Ionization_Penalty_Neutral>
4.39259e-05

> <r_epik_State_Penalty>
0.639086

> <r_epik_Charging_Adjusted_Penalty>
1.26199

> <i_epik_Tot_Q>
0

> <i_epik_Tot_abs_Q>
0

> <r_epik_Metal_State_Penalty>
0.307185

> <b_epik_Metal_Only>
0

> <s_lp_Force_Field>
OPLS_2005

> <r_lp_Energy>
49.2595

> <b_lp_Chiralities_Consistent>
1

> <s_lp_Variant>
AV-unprocessed.smi:3340-3

> <Gold.Version>
5.8.1

> <Gold.Id.Protein>
6NUR|6NUR_protein|mol2

> <Gold.PLP.Fitness>
38.8442

> <Gold.PLP.PLP>
-34.4624

> <Gold.PLP.part.hbond>
-1.0000

> <Gold.PLP.part.metal>
0.0000

> <Gold.PLP.part.buried>
-2.7486

> <Gold.PLP.part.nonpolar>
-31.1830

> <Gold.PLP.part.repulsive>
0.2355

> <Gold.PLP.ligand.clash>
0.0000

> <Gold.PLP.ligand.torsion>
0.9590

> <Gold.PLP.Chemscore.Hbond>
1.0000

> <Gold.PLP.Chemscore.CHOScore>
1.0831

> <Gold.PLP.Chemscore.Metal>
0.0000

> <Gold.Chemscore.Hbonds>
donor molecule, donor type, donor heavy atom, donor atom, acceptor molecule, acceptor atom, score
      L1  H    10    28       P1  8028  1.00
      L1  C    15    35       P1 10175  1.00
      L1  C    18    37       P1  8029  0.09

> <Gold.PLP.Chemscore.Internal.Correction>
0.0502

> <Gold.Rescore>
     Score         DG    S(hbond)    S(metal)    S(lipo)     H(rot)  DE(clash)    DE(int)     intcor
      8.85     -12.43       1.00        0.00      66.97       1.65       1.36       2.22       ----

> <Gold.Chemscore.Fitness>
8.8512

> <Gold.Chemscore.DG>
-12.4275

> <Gold.Chemscore.ZeroCoef>
-5.4800

> <Gold.Chemscore.Hbond>
0.9966

> <Gold.Chemscore.Metal>
0.0000

> <Gold.Chemscore.Lipo>
66.9704

> <Gold.Chemscore.Internal_Hbond>
0.0000

> <Gold.Chemscore.DEClash>
1.3613

> <Gold.Chemscore.DEInternal>
2.2151

> <Gold.Chemscore.Rot>
1.6471

> <Gold.Chemscore.Internal.Correction>
   9.000000E+99

> <Gold.Chemscore.Hbonds>
donor molecule, donor type, donor heavy atom, donor atom, acceptor molecule, acceptor atom, score
      L1  H    10    28       P1  8028  0.95

> <Gold.Chemscore.Hbond.Weighted>
-3.3286

> <Gold.Chemscore.Metal.Weighted>
-0.0000

> <Gold.Chemscore.Lipo.Weighted>
-7.8355

> <Gold.Chemscore.Internal_Hbond.Weighted>
0.0000

> <Gold.Chemscore.DEClash.Weighted>
1.3613

> <Gold.Chemscore.DEInternal.Weighted>
2.2151

> <Gold.Chemscore.Rot.Weighted>
4.2166

> <Gold.Chemscore.Internal.Correction.Weighted>
   9.000000E+99

> <Gold.Protein.RotatedTorsions>
[ 6907 6896 6895 6894 ] final  -84.69 input  -60.11 | X-H torsion
[ 7974 7965 7964 7962 ] final  146.18 input  175.53 | X-H torsion
[ 8008 7997 7996 7995 ] final -109.56 input   59.86 | X-H torsion
[ 10167 10162 10161 10158 ] final  178.36 input  -65.29 | X-H torsion
[ 10718 10713 10712 10709 ] final   12.55 input   66.30 | X-H torsion
[ 10763 10752 10751 10750 ] final   67.02 input  -60.55 | X-H torsion
[ 11005 11000 10999 10996 ] final  173.73 input  -57.11 | X-H torsion

> <Gold.Protein.ActiveResidues>
 VAL166  LYS551  ARG553  GLY616  TRP617  ASP618  TYR619  PRO620  LYS621  CYS622 
 ASP623  PHE694  ASN695  SER759  ASP760  ASP761  ALA762  ILE779  LEU786  VAL792 
 PHE793  MET794  SER795  GLU796  ALA797  LYS798  CYS799  TRP800  GLU811  SER814 

> <Gold.Protein.RotatedAtoms>
  150.6875  134.3320  159.4830 H   0  0  0  0  0  0  0  0  0  0  0  0  # atno 6907 bound_to 6896
  152.1184  134.9221  160.0573 H   0  0  0  0  0  0  0  0  0  0  0  0  # atno 6908 bound_to 6896
  152.0437  133.3954  159.4384 H   0  0  0  0  0  0  0  0  0  0  0  0  # atno 6909 bound_to 6896
  144.8692  139.5874  143.5895 H   0  0  0  0  0  0  0  0  0  0  0  0  # atno 7974 bound_to 7965
  154.9612  140.0399  157.2191 H   0  0  0  0  0  0  0  0  0  0  0  0  # atno 8008 bound_to 7997
  154.7887  140.2831  155.5986 H   0  0  0  0  0  0  0  0  0  0  0  0  # atno 8009 bound_to 7997
  156.2946  140.2577  156.2730 H   0  0  0  0  0  0  0  0  0  0  0  0  # atno 8010 bound_to 7997
  139.5290  144.2690  152.0644 H   0  0  0  0  0  0  0  0  0  0  0  0  # atno 10167 bound_to 10162
  157.0117  130.6120  149.5709 H   0  0  0  0  0  0  0  0  0  0  0  0  # atno 10718 bound_to 10713
  153.0166  135.5299  154.6914 H   0  0  0  0  0  0  0  0  0  0  0  0  # atno 10763 bound_to 10752
  154.6048  135.2872  155.0499 H   0  0  0  0  0  0  0  0  0  0  0  0  # atno 10764 bound_to 10752
  154.1543  135.6558  153.5023 H   0  0  0  0  0  0  0  0  0  0  0  0  # atno 10765 bound_to 10752
  140.3436  134.7255  157.4219 H   0  0  0  0  0  0  0  0  0  0  0  0  # atno 11005 bound_to 11000
  146.2918  139.7160  142.9156 LP  0  0  0  0  0  0  0  0  0  0  0  0  # atno 17320 bound_to 7965
  145.4164  141.0402  143.2988 LP  0  0  0  0  0  0  0  0  0  0  0  0  # atno 17321 bound_to 7965
  140.2150  144.4524  150.6368 LP  0  0  0  0  0  0  0  0  0  0  0  0  # atno 17342 bound_to 10162
  140.6455  143.2212  151.6194 LP  0  0  0  0  0  0  0  0  0  0  0  0  # atno 17343 bound_to 10162
  156.0133  130.5226  150.8058 LP  0  0  0  0  0  0  0  0  0  0  0  0  # atno 17370 bound_to 10713
  157.5315  131.0937  150.9948 LP  0  0  0  0  0  0  0  0  0  0  0  0  # atno 17371 bound_to 10713
  140.0760  134.5796  155.8590 LP  0  0  0  0  0  0  0  0  0  0  0  0  # atno 17394 bound_to 11000
  141.2032  133.6630  156.6047 LP  0  0  0  0  0  0  0  0  0  0  0  0  # atno 17395 bound_to 11000

$$$$
