AV-unprocessed.smi:3081|AV-procd|sdf|11740|dock2
  -GOLD-   2272017133D 1   1.00000     0.00000
 Structure written by MMmdl.
 26 27  0  0  0  0  0  0  0  0  2 V2000
  151.1042  138.0493  154.1789 C   0  0  0  0  0  0  0  0  0  0  0  0
  150.8502  139.2628  154.8503 C   0  0  0  0  0  0  0  0  0  0  0  0
  151.8308  139.6839  155.7743 C   0  0  0  0  0  0  0  0  0  0  0  0
  151.6702  140.9754  156.5643 C   0  0  2  0  0  0  0  0  0  0  0  0
  151.5963  140.7258  158.0839 C   0  0  0  0  0  0  0  0  0  0  0  0
  151.4292  142.0537  158.8386 C   0  0  0  0  0  0  0  0  0  0  0  0
  150.2196  142.8403  158.3063 C   0  0  0  0  0  0  0  0  0  0  0  0
  150.3423  143.0651  156.8495 N   0  3  0  0  0  0  0  0  0  0  0  0
  150.4651  141.8081  156.0782 C   0  0  0  0  0  0  0  0  0  0  0  0
  152.9494  138.9564  155.9981 N   0  0  0  0  0  0  0  0  0  0  0  0
  153.0836  137.8231  155.3033 C   0  0  0  0  0  0  0  0  0  0  0  0
  152.2237  137.3300  154.4090 N   0  0  0  0  0  0  0  0  0  0  0  0
  150.4061  137.6543  153.4558 H   0  0  0  0  0  0  0  0  0  0  0  0
  149.9524  139.8327  154.6613 H   0  0  0  0  0  0  0  0  0  0  0  0
  152.5665  141.5702  156.3807 H   0  0  0  0  0  0  0  0  0  0  0  0
  150.7559  140.0706  158.3178 H   0  0  0  0  0  0  0  0  0  0  0  0
  152.4959  140.2135  158.4273 H   0  0  0  0  0  0  0  0  0  0  0  0
  151.3108  141.8636  159.9057 H   0  0  0  0  0  0  0  0  0  0  0  0
  152.3336  142.6538  158.7302 H   0  0  0  0  0  0  0  0  0  0  0  0
  149.2943  142.2997  158.5104 H   0  0  0  0  0  0  0  0  0  0  0  0
  150.1439  143.8040  158.8099 H   0  0  0  0  0  0  0  0  0  0  0  0
  149.5289  143.5692  156.5257 H   0  0  0  0  0  0  0  0  0  0  0  0
  150.5745  142.0529  155.0214 H   0  0  0  0  0  0  0  0  0  0  0  0
  149.5379  141.2422  156.1802 H   0  0  0  0  0  0  0  0  0  0  0  0
  153.9782  137.2463  155.4851 H   0  0  0  0  0  0  0  0  0  0  0  0
  151.1632  143.6287  156.6795 H   0  0  0  0  0  0  0  0  0  0  0  0
  1 12  1  0  0  0  0
  1  2  2  0  0  0  0
  1 13  1  0  0  0  0
  2  3  1  0  0  0  0
  2 14  1  0  0  0  0
  3  4  1  0  0  0  0
  3 10  2  0  0  0  0
  4  9  1  0  0  0  0
  4  5  1  0  0  0  0
  4 15  1  0  0  0  0
  5  6  1  0  0  0  0
  5 16  1  0  0  0  0
  5 17  1  0  0  0  0
  6  7  1  0  0  0  0
  6 18  1  0  0  0  0
  6 19  1  0  0  0  0
  7  8  1  0  0  0  0
  7 20  1  0  0  0  0
  7 21  1  0  0  0  0
  8  9  1  0  0  0  0
  8 22  1  0  0  0  0
  8 26  1  0  0  0  0
  9 23  1  0  0  0  0
  9 24  1  0  0  0  0
 10 11  1  0  0  0  0
 11 12  2  0  0  0  0
 11 25  1  0  0  0  0
M  CHG  1   8   1
M  END
> <s_m_source_file>
AV-unprocessed.smi

> <i_m_source_file_index>
3081

> <i_lp_mmshare_version>
43012

> <i_f3d_flags>
0

> <s_epik_input>
bjFbY0hdbltjSF1bY0hdYzFbQ0BASF0yW0NIMl1bQ0gyXVtDSDJdW05IXVtDSDJdMg==

> <s_epik_cmdline>
J2VwaWtfcHl0aG9uJywgJy1waCcsICc3LjAnLCAnLXRuJywgJzgnLCAnLW1hJywgJzIwMCcsICctbWV0YWxfYmluZGluZycsICctaW1hZScsICc8aW5maWxlLm1hZT4nLCAnLW9tYWUnLCAnPG91dGZpbGUubWFlPic=

> <r_lp_tautomer_probability>
1

> <r_epik_Ionization_Penalty>
0.000373217

> <r_epik_Ionization_Penalty_Charging>
0.000372054

> <r_epik_Ionization_Penalty_Neutral>
1.16293e-06

> <r_epik_State_Penalty>
0.00022692

> <r_epik_Charging_Adjusted_Penalty>
0.000598973

> <i_epik_Tot_Q>
1

> <i_epik_Tot_abs_Q>
1

> <r_epik_Metal_State_Penalty>
-0

> <b_epik_Metal_Only>
0

> <s_epik_Chemistry_Notes>
This compound contains an electron-poor aromatic ring that is susceptible to covalent hydrolysis at low pH, typically resulting in measured values for nitrogen ring protonation that are around two units higher than predicted values.

> <s_lp_Force_Field>
OPLS_2005

> <r_lp_Energy>
7.17513

> <b_lp_Chiralities_Consistent>
1

> <s_lp_Variant>
AV-unprocessed.smi:3081-1

> <Gold.Version>
5.8.1

> <Gold.Id.Protein>
6NUR|6NUR_protein|mol2

> <Gold.PLP.Fitness>
36.8841

> <Gold.PLP.PLP>
-22.6206

> <Gold.PLP.part.hbond>
-2.8880

> <Gold.PLP.part.metal>
0.0000

> <Gold.PLP.part.buried>
-1.5412

> <Gold.PLP.part.nonpolar>
-18.0471

> <Gold.PLP.part.repulsive>
0.1608

> <Gold.PLP.ligand.clash>
0.0000

> <Gold.PLP.ligand.torsion>
0.0691

> <Gold.PLP.Chemscore.Hbond>
3.7360

> <Gold.PLP.Chemscore.CHOScore>
1.0526

> <Gold.PLP.Chemscore.Metal>
0.0000

> <Gold.Chemscore.Hbonds>
donor molecule, donor type, donor heavy atom, donor atom, acceptor molecule, acceptor atom, score
      L1  H     8    22       P1  8028  2.00
      P1  H  7997  8008       L1    10  1.00
      P1  H 10752 10764       L1    12  0.74
      L1  C     1    13       P1  7948  0.81
      L1  C     1    13       P1  7949  0.24

> <Gold.PLP.Chemscore.Internal.Correction>
0.0361

> <Gold.Rescore>
     Score         DG    S(hbond)    S(metal)    S(lipo)     H(rot)  DE(clash)    DE(int)     intcor
     16.05     -16.87       2.13        0.00      58.34       1.00       0.71       0.12       ----

> <Gold.Chemscore.Fitness>
16.0494

> <Gold.Chemscore.DG>
-16.8732

> <Gold.Chemscore.ZeroCoef>
-5.4800

> <Gold.Chemscore.Hbond>
2.1339

> <Gold.Chemscore.Metal>
0.0000

> <Gold.Chemscore.Lipo>
58.3411

> <Gold.Chemscore.Internal_Hbond>
0.0000

> <Gold.Chemscore.DEClash>
0.7071

> <Gold.Chemscore.DEInternal>
0.1166

> <Gold.Chemscore.Rot>
1.0000

> <Gold.Chemscore.Internal.Correction>
   9.000000E+99

> <Gold.Chemscore.Hbonds>
donor molecule, donor type, donor heavy atom, donor atom, acceptor molecule, acceptor atom, score
      L1  H     8    22       P1  8028  0.92
      P1  H  7997  8008       L1    10  0.69
      P1  H 10752 10764       L1    12  0.19

> <Gold.Chemscore.Hbond.Weighted>
-7.1273

> <Gold.Chemscore.Metal.Weighted>
-0.0000

> <Gold.Chemscore.Lipo.Weighted>
-6.8259

> <Gold.Chemscore.Internal_Hbond.Weighted>
0.0000

> <Gold.Chemscore.DEClash.Weighted>
0.7071

> <Gold.Chemscore.DEInternal.Weighted>
0.1166

> <Gold.Chemscore.Rot.Weighted>
2.5600

> <Gold.Chemscore.Internal.Correction.Weighted>
   9.000000E+99

> <Gold.Protein.RotatedTorsions>
[ 6907 6896 6895 6894 ] final  -20.99 input  -60.11 | X-H torsion
[ 7974 7965 7964 7962 ] final  112.28 input  175.53 | X-H torsion
[ 8008 7997 7996 7995 ] final  -46.47 input   59.86 | X-H torsion
[ 10167 10162 10161 10158 ] final  146.19 input  -65.29 | X-H torsion
[ 10718 10713 10712 10709 ] final   63.51 input   66.30 | X-H torsion
[ 10763 10752 10751 10750 ] final  -93.86 input  -60.55 | X-H torsion
[ 11005 11000 10999 10996 ] final  -83.17 input  -57.11 | X-H torsion

> <Gold.Protein.ActiveResidues>
 VAL166  LYS551  ARG553  GLY616  TRP617  ASP618  TYR619  PRO620  LYS621  CYS622 
 ASP623  PHE694  ASN695  SER759  ASP760  ASP761  ALA762  ILE779  LEU786  VAL792 
 PHE793  MET794  SER795  GLU796  ALA797  LYS798  CYS799  TRP800  GLU811  SER814 

> <Gold.Protein.RotatedAtoms>
  151.2399  135.0585  159.9020 H   0  0  0  0  0  0  0  0  0  0  0  0  # atno 6907 bound_to 6896
  152.5394  134.0445  159.8093 H   0  0  0  0  0  0  0  0  0  0  0  0  # atno 6908 bound_to 6896
  151.0638  133.5473  159.2663 H   0  0  0  0  0  0  0  0  0  0  0  0  # atno 6909 bound_to 6896
  145.2315  139.2817  143.4165 H   0  0  0  0  0  0  0  0  0  0  0  0  # atno 7974 bound_to 7965
  154.4008  140.1370  156.4017 H   0  0  0  0  0  0  0  0  0  0  0  0  # atno 8008 bound_to 7997
  155.7818  140.3481  155.5281 H   0  0  0  0  0  0  0  0  0  0  0  0  # atno 8009 bound_to 7997
  155.8666  140.0965  157.1568 H   0  0  0  0  0  0  0  0  0  0  0  0  # atno 8010 bound_to 7997
  139.4912  144.5847  151.6802 H   0  0  0  0  0  0  0  0  0  0  0  0  # atno 10167 bound_to 10162
  157.5976  130.9109  149.9726 H   0  0  0  0  0  0  0  0  0  0  0  0  # atno 10718 bound_to 10713
  154.6999  135.5179  153.8512 H   0  0  0  0  0  0  0  0  0  0  0  0  # atno 10763 bound_to 10752
  153.0696  135.6596  154.0286 H   0  0  0  0  0  0  0  0  0  0  0  0  # atno 10764 bound_to 10752
  154.0146  135.2999  155.3368 H   0  0  0  0  0  0  0  0  0  0  0  0  # atno 10765 bound_to 10752
  141.1659  133.7281  156.8681 H   0  0  0  0  0  0  0  0  0  0  0  0  # atno 11005 bound_to 11000
  146.3351  140.2652  142.8603 LP  0  0  0  0  0  0  0  0  0  0  0  0  # atno 17320 bound_to 7965
  144.9672  140.8333  143.5477 LP  0  0  0  0  0  0  0  0  0  0  0  0  # atno 17321 bound_to 7965
  140.5461  144.0501  150.6107 LP  0  0  0  0  0  0  0  0  0  0  0  0  # atno 17342 bound_to 10162
  140.3540  143.2946  152.0456 LP  0  0  0  0  0  0  0  0  0  0  0  0  # atno 17343 bound_to 10162
  156.1042  130.3654  150.0163 LP  0  0  0  0  0  0  0  0  0  0  0  0  # atno 17370 bound_to 10713
  156.8273  130.9380  151.3639 LP  0  0  0  0  0  0  0  0  0  0  0  0  # atno 17371 bound_to 10713
  140.1801  134.9039  157.2938 LP  0  0  0  0  0  0  0  0  0  0  0  0  # atno 17394 bound_to 11000
  140.2405  134.3802  155.7483 LP  0  0  0  0  0  0  0  0  0  0  0  0  # atno 17395 bound_to 11000

$$$$
