AV-unprocessed.smi:2368|AV-procd|sdf|9425|dock3
  -GOLD-   2272013 63D 1   1.00000     0.00000
 Structure written by MMmdl.
 35 36  0  0  0  0  0  0  0  0  1 V2000
  146.1985  130.3972  151.7032 C   0  0  0  0  0  0  0  0  0  0  0  0
  145.6331  131.7695  151.3881 C   0  0  0  0  0  0  0  0  0  0  0  0
  144.5070  131.7805  150.6419 N   0  0  0  0  0  0  0  0  0  0  0  0
  143.9585  132.9745  150.3384 C   0  0  0  0  0  0  0  0  0  0  0  0
  144.5025  134.2050  150.7537 C   0  0  0  0  0  0  0  0  0  0  0  0
  145.6920  134.1985  151.5211 C   0  0  0  0  0  0  0  0  0  0  0  0
  146.3164  135.3815  152.0065 N   0  0  0  0  0  0  0  0  0  0  0  0
  145.7428  136.5029  152.4748 C   0  0  0  0  0  0  0  0  0  0  0  0
  144.5312  136.7031  152.5617 O   0  0  0  0  0  0  0  0  0  0  0  0
  146.6662  137.4075  152.8294 N   0  0  0  0  0  0  0  0  0  0  0  0
  146.3718  138.7323  153.3643 C   0  0  2  0  0  0  0  0  0  0  0  0
  146.8805  139.8006  152.4358 C   0  0  0  0  0  0  0  0  0  0  0  0
  147.7060  140.6537  153.0375 C   0  0  0  0  0  0  0  0  0  0  0  0
  147.9277  140.3268  154.4924 C   0  0  2  0  0  0  0  0  0  0  0  0
  149.4160  140.1714  154.8503 C   0  0  0  0  0  0  0  0  0  0  0  0
  150.1183  139.5423  153.7990 O   0  0  0  0  0  0  0  0  0  0  0  0
  147.1142  139.0231  154.6956 C   0  0  0  0  0  0  0  0  0  0  0  0
  146.2612  132.9474  151.8570 C   0  0  0  0  0  0  0  0  0  0  0  0
  147.7006  132.8582  152.8167 Cl  0  0  0  0  0  0  0  0  0  0  0  0
  145.2947  138.8631  153.4813 H   0  0  0  0  0  0  0  0  0  0  0  0
  147.4873  141.1279  155.0881 H   0  0  0  0  0  0  0  0  0  0  0  0
  147.2097  130.3045  151.3066 H   0  0  0  0  0  0  0  0  0  0  0  0
  145.5918  129.6026  151.2668 H   0  0  0  0  0  0  0  0  0  0  0  0
  146.2341  130.2402  152.7816 H   0  0  0  0  0  0  0  0  0  0  0  0
  143.0524  132.9489  149.7515 H   0  0  0  0  0  0  0  0  0  0  0  0
  143.9939  135.1187  150.4881 H   0  0  0  0  0  0  0  0  0  0  0  0
  147.3217  135.4028  151.9168 H   0  0  0  0  0  0  0  0  0  0  0  0
  147.6405  137.1653  152.7221 H   0  0  0  0  0  0  0  0  0  0  0  0
  146.5785  139.8555  151.4001 H   0  0  0  0  0  0  0  0  0  0  0  0
  148.1736  141.5030  152.5616 H   0  0  0  0  0  0  0  0  0  0  0  0
  149.8655  141.1487  155.0293 H   0  0  0  0  0  0  0  0  0  0  0  0
  149.5378  139.5869  155.7631 H   0  0  0  0  0  0  0  0  0  0  0  0
  149.6255  139.6526  153.0001 H   0  0  0  0  0  0  0  0  0  0  0  0
  146.4050  139.1316  155.5170 H   0  0  0  0  0  0  0  0  0  0  0  0
  147.7749  138.1970  154.9637 H   0  0  0  0  0  0  0  0  0  0  0  0
  1  2  1  0  0  0  0
  1 22  1  0  0  0  0
  1 23  1  0  0  0  0
  1 24  1  0  0  0  0
  2 18  1  0  0  0  0
  2  3  2  0  0  0  0
  3  4  1  0  0  0  0
  4  5  2  0  0  0  0
  4 25  1  0  0  0  0
  5  6  1  0  0  0  0
  5 26  1  0  0  0  0
  6  7  1  0  0  0  0
  6 18  2  0  0  0  0
  7  8  1  0  0  0  0
  7 27  1  0  0  0  0
  8  9  2  0  0  0  0
  8 10  1  0  0  0  0
 10 11  1  0  0  0  0
 10 28  1  0  0  0  0
 11 20  1  0  0  0  0
 11 17  1  0  0  0  0
 11 12  1  0  0  0  0
 12 13  2  0  0  0  0
 12 29  1  0  0  0  0
 13 14  1  0  0  0  0
 13 30  1  0  0  0  0
 14 21  1  0  0  0  0
 14 15  1  0  0  0  0
 14 17  1  0  0  0  0
 15 16  1  0  0  0  0
 15 31  1  0  0  0  0
 15 32  1  0  0  0  0
 16 33  1  0  0  0  0
 17 34  1  0  0  0  0
 17 35  1  0  0  0  0
 18 19  1  0  0  0  0
M  END
> <s_m_source_file>
AV-unprocessed.smi

> <i_m_source_file_index>
2368

> <i_lp_mmshare_version>
43012

> <i_f3d_flags>
0

> <s_epik_input>
W0NIM11jMW5bY0hdW2NIXWMoYzFDbClbTkhdQyg9TylbTkhdW0NAQEhdMltDSF09W0NIXVtDQEBIXShbQ0gyXTIpW0NIMl1bT0hd

> <s_epik_cmdline>
J2VwaWtfcHl0aG9uJywgJy1waCcsICc3LjAnLCAnLXRuJywgJzgnLCAnLW1hJywgJzIwMCcsICctbWV0YWxfYmluZGluZycsICctaW1hZScsICc8aW5maWxlLm1hZT4nLCAnLW9tYWUnLCAnPG91dGZpbGUubWFlPic=

> <r_epik_Ionization_Penalty>
0.00964582

> <r_epik_Ionization_Penalty_Charging>
0

> <r_epik_Ionization_Penalty_Neutral>
0.00964582

> <r_epik_State_Penalty>
0.00730775

> <r_epik_Charging_Adjusted_Penalty>
0.00730775

> <i_epik_Tot_Q>
0

> <i_epik_Tot_abs_Q>
0

> <r_epik_Metal_State_Penalty>
0.00719079

> <b_epik_Metal_Only>
0

> <s_lp_Force_Field>
OPLS_2005

> <r_lp_Energy>
20.8925

> <b_lp_Chiralities_Consistent>
1

> <s_lp_Variant>
AV-unprocessed.smi:2368-1

> <Gold.Version>
5.8.1

> <Gold.Id.Protein>
6NUR|6NUR_protein|mol2

> <Gold.PLP.Fitness>
44.2534

> <Gold.PLP.PLP>
-30.5624

> <Gold.PLP.part.hbond>
-4.0000

> <Gold.PLP.part.metal>
0.0000

> <Gold.PLP.part.buried>
-0.2494

> <Gold.PLP.part.nonpolar>
-26.7868

> <Gold.PLP.part.repulsive>
0.3810

> <Gold.PLP.ligand.clash>
0.0000

> <Gold.PLP.ligand.torsion>
0.5310

> <Gold.PLP.Chemscore.Hbond>
3.9120

> <Gold.PLP.Chemscore.CHOScore>
1.0000

> <Gold.PLP.Chemscore.Metal>
0.0000

> <Gold.Chemscore.Hbonds>
donor molecule, donor type, donor heavy atom, donor atom, acceptor molecule, acceptor atom, score
      L1  H     7    27       P1  7948  1.00
      L1  H    10    28       P1  7948  0.99
      L1  H    16    33       P1  7957  0.98
      P1  H  7989  7998       L1    16  0.94
      L1  C     4    25       P1 10186  1.00

> <Gold.PLP.Chemscore.Internal.Correction>
0.0170

> <Gold.Rescore>
     Score         DG    S(hbond)    S(metal)    S(lipo)     H(rot)  DE(clash)    DE(int)     intcor
     19.15     -20.98       3.01        0.00      85.51       1.78       1.19       0.64       ----

> <Gold.Chemscore.Fitness>
19.1521

> <Gold.Chemscore.DG>
-20.9823

> <Gold.Chemscore.ZeroCoef>
-5.4800

> <Gold.Chemscore.Hbond>
3.0100

> <Gold.Chemscore.Metal>
0.0000

> <Gold.Chemscore.Lipo>
85.5109

> <Gold.Chemscore.Internal_Hbond>
0.0000

> <Gold.Chemscore.DEClash>
1.1911

> <Gold.Chemscore.DEInternal>
0.6391

> <Gold.Chemscore.Rot>
1.7796

> <Gold.Chemscore.Internal.Correction>
   9.000000E+99

> <Gold.Chemscore.Hbonds>
donor molecule, donor type, donor heavy atom, donor atom, acceptor molecule, acceptor atom, score
      L1  H     7    27       P1  7948  0.98
      L1  H    10    28       P1  7948  0.94
      L1  H    16    33       P1  7957  0.92
      P1  H  7989  7998       L1    16  0.08

> <Gold.Chemscore.Hbond.Weighted>
-10.0534

> <Gold.Chemscore.Metal.Weighted>
-0.0000

> <Gold.Chemscore.Lipo.Weighted>
-10.0048

> <Gold.Chemscore.Internal_Hbond.Weighted>
0.0000

> <Gold.Chemscore.DEClash.Weighted>
1.1911

> <Gold.Chemscore.DEInternal.Weighted>
0.6391

> <Gold.Chemscore.Rot.Weighted>
4.5558

> <Gold.Chemscore.Internal.Correction.Weighted>
   9.000000E+99

> <Gold.Protein.RotatedTorsions>
[ 6907 6896 6895 6894 ] final  125.65 input  -60.11 | X-H torsion
[ 7974 7965 7964 7962 ] final  -54.00 input  175.53 | X-H torsion
[ 8008 7997 7996 7995 ] final -155.69 input   59.86 | X-H torsion
[ 10167 10162 10161 10158 ] final   26.39 input  -65.29 | X-H torsion
[ 10718 10713 10712 10709 ] final   92.49 input   66.30 | X-H torsion
[ 10763 10752 10751 10750 ] final  178.77 input  -60.55 | X-H torsion
[ 11005 11000 10999 10996 ] final  117.42 input  -57.11 | X-H torsion

> <Gold.Protein.ActiveResidues>
 VAL166  LYS551  ARG553  GLY616  TRP617  ASP618  TYR619  PRO620  LYS621  CYS622 
 ASP623  PHE694  ASN695  SER759  ASP760  ASP761  ALA762  ILE779  LEU786  VAL792 
 PHE793  MET794  SER795  GLU796  ALA797  LYS798  CYS799  TRP800  GLU811  SER814 

> <Gold.Protein.RotatedAtoms>
  152.3973  133.6766  159.6286 H   0  0  0  0  0  0  0  0  0  0  0  0  # atno 6907 bound_to 6896
  150.7870  133.8851  159.3306 H   0  0  0  0  0  0  0  0  0  0  0  0  # atno 6908 bound_to 6896
  151.6625  135.0989  160.0233 H   0  0  0  0  0  0  0  0  0  0  0  0  # atno 6909 bound_to 6896
  145.8905  140.8074  142.9794 H   0  0  0  0  0  0  0  0  0  0  0  0  # atno 7974 bound_to 7965
  155.7057  140.0772  157.2392 H   0  0  0  0  0  0  0  0  0  0  0  0  # atno 8008 bound_to 7997
  154.4066  140.1639  156.2294 H   0  0  0  0  0  0  0  0  0  0  0  0  # atno 8009 bound_to 7997
  155.9328  140.3390  155.6266 H   0  0  0  0  0  0  0  0  0  0  0  0  # atno 8010 bound_to 7997
  140.5027  144.0289  150.6339 H   0  0  0  0  0  0  0  0  0  0  0  0  # atno 10167 bound_to 10162
  157.6958  131.0445  150.3889 H   0  0  0  0  0  0  0  0  0  0  0  0  # atno 10718 bound_to 10713
  154.5120  135.2789  155.1335 H   0  0  0  0  0  0  0  0  0  0  0  0  # atno 10763 bound_to 10752
  154.2926  135.6264  153.5395 H   0  0  0  0  0  0  0  0  0  0  0  0  # atno 10764 bound_to 10752
  152.9920  135.5677  154.5588 H   0  0  0  0  0  0  0  0  0  0  0  0  # atno 10765 bound_to 10752
  139.9074  134.9610  156.7348 H   0  0  0  0  0  0  0  0  0  0  0  0  # atno 11005 bound_to 11000
  144.6730  140.1522  143.7429 LP  0  0  0  0  0  0  0  0  0  0  0  0  # atno 17320 bound_to 7965
  145.8914  139.2378  143.1547 LP  0  0  0  0  0  0  0  0  0  0  0  0  # atno 17321 bound_to 7965
  140.3590  143.2919  152.0405 LP  0  0  0  0  0  0  0  0  0  0  0  0  # atno 17342 bound_to 10162
  139.4876  144.6317  151.7056 LP  0  0  0  0  0  0  0  0  0  0  0  0  # atno 17343 bound_to 10162
  156.4295  130.3969  149.6770 LP  0  0  0  0  0  0  0  0  0  0  0  0  # atno 17370 bound_to 10713
  156.3992  130.7666  151.2673 LP  0  0  0  0  0  0  0  0  0  0  0  0  # atno 17371 bound_to 10713
  140.6897  133.9401  155.7959 LP  0  0  0  0  0  0  0  0  0  0  0  0  # atno 17394 bound_to 11000
  141.0451  134.0566  157.3854 LP  0  0  0  0  0  0  0  0  0  0  0  0  # atno 17395 bound_to 11000

$$$$
