#       Name:                AV-unprocessed.smi:1056
#       Creating user name   scv26
#       Creation time:       Fri Mar 27 03:14:54 2020


#       File generated by GOLD software.
#

@<TRIPOS>MOLECULE
AV-unprocessed.smi:1056
    50    52     1
SMALL
NO_CHARGES


@<TRIPOS>ATOM
      1 ****        -2.9899   4.5811  -2.2411 C.3            1 S1                 0.0000
      2 ****        -2.6575   3.3859  -1.3653 C.ar           1 S1                 0.0000
      3 ****        -2.9812   3.4306   0.0095 C.ar           1 S1                 0.0000
      4 ****        -2.6893   2.3406   0.8581 C.ar           1 S1                 0.0000
      5 ****        -2.9124   2.1707   2.2137 N.2            1 S1                 0.0000
      6 ****        -2.4224   0.9513   2.4163 C.2            1 S1                 0.0000
      7 ****        -1.9007   0.3126   1.3513 N.pl3          1 S1                 0.0000
      8 ****        -1.3078  -1.0123   1.3249 C.3            1 S1                 0.0000
      9 ****         0.2283  -0.9640   1.2253 C.3            1 S1                 0.0000
     10 ****         0.7478  -0.2835   2.3514 O.3            1 S1                 0.0000
     11 ****         0.8438  -2.3756   1.1731 C.3            1 S1                 0.0000
     12 ****         2.3027  -2.3430   0.9030 N.4            1 S1                 1.0000
     13 ****         2.6390  -2.1339  -0.5298 C.3            1 S1                 0.0000
     14 ****         4.1344  -1.7974  -0.6808 C.3            1 S1                 0.0000
     15 ****         4.9488  -2.7464   0.0880 N.pl3          1 S1                -1.0000
     16 ****         4.5342  -3.4923   1.1597 C.2            1 S1                 0.0000
     17 ****         5.2614  -4.1774   1.8751 O.2            1 S1                 0.0000
     18 ****         3.0131  -3.5220   1.4711 C.3            1 S1                 0.0000
     19 ****        -2.0592   1.1956   0.2890 C.ar           1 S1                 0.0000
     20 ****        -1.7327   1.1384  -1.0774 C.ar           1 S1                 0.0000
     21 ****        -2.0310   2.2367  -1.9109 C.ar           1 S1                 0.0000
     22 ****        -1.6732   2.1670  -3.3849 C.3            1 S1                 0.0000
     23 ****        -3.4751   5.3721  -1.6685 H              1 S1                 0.0000
     24 ****        -3.6649   4.2895  -3.0461 H              1 S1                 0.0000
     25 ****        -2.0830   4.9957  -2.6817 H              1 S1                 0.0000
     26 ****        -3.4586   4.3058   0.4252 H              1 S1                 0.0000
     27 ****        -2.4385   0.4982   3.3969 H              1 S1                 0.0000
     28 ****        -1.6175  -1.5546   2.2197 H              1 S1                 0.0000
     29 ****        -1.7240  -1.5512   0.4729 H              1 S1                 0.0000
     30 ****         0.5010  -0.3983   0.3351 H              1 S1                 0.0000
     31 ****         0.3902   0.5916   2.3652 H              1 S1                 0.0000
     32 ****         0.6530  -2.8741   2.1250 H              1 S1                 0.0000
     33 ****         0.3547  -2.9826   0.4096 H              1 S1                 0.0000
     34 ****         2.3921  -3.0340  -1.0954 H              1 S1                 0.0000
     35 ****         2.0493  -1.3252  -0.9594 H              1 S1                 0.0000
     36 ****         4.3984  -1.7959  -1.7380 H              1 S1                 0.0000
     37 ****         4.2979  -0.7775  -0.3319 H              1 S1                 0.0000
     38 ****         2.8717  -3.5467   2.5525 H              1 S1                 0.0000
     39 ****         2.5902  -4.4423   1.0653 H              1 S1                 0.0000
     40 ****        -1.2561   0.2570  -1.4801 H              1 S1                 0.0000
     41 ****        -1.1950   1.2194  -3.6342 H              1 S1                 0.0000
     42 ****        -0.9839   2.9693  -3.6489 H              1 S1                 0.0000
     43 ****        -2.5681   2.2625  -4.0001 H              1 S1                 0.0000
     44 ****         2.6679  -1.5421   1.3985 H              1 S1                 0.0000
     45 ****        -3.3317   2.7996   2.8684 LP             1 S1                 0.0000
     46 ****         1.7449  -0.2393   2.2883 LP             1 S1                 0.0000
     47 ****         0.4879  -0.7672   3.1871 LP             1 S1                 0.0000
     48 ****         5.9001  -2.8596  -0.1989 LP             1 S1                 0.0000
     49 ****         6.2438  -4.2211   1.6935 LP             1 S1                 0.0000
     50 ****         4.8708  -4.6912   2.6389 LP             1 S1                 0.0000
@<TRIPOS>BOND
    1    1    2 1     
    2    1   23 1     
    3    1   24 1     
    4    1   25 1     
    5    2   21 ar    
    6    2    3 ar    
    7    3    4 ar    
    8    3   26 1     
    9    4   19 ar    
   10    4    5 1     
   11    5    6 2     
   12    6    7 1     
   13    6   27 1     
   14    7    8 1     
   15    7   19 1     
   16    8    9 1     
   17    8   28 1     
   18    8   29 1     
   19    9   10 1     
   20    9   11 1     
   21    9   30 1     
   22   10   31 1     
   23   11   12 1     
   24   11   32 1     
   25   11   33 1     
   26   12   18 1     
   27   12   13 1     
   28   12   44 1     
   29   13   14 1     
   30   13   34 1     
   31   13   35 1     
   32   14   15 1     
   33   14   36 1     
   34   14   37 1     
   35   15   16 1     
   36   16   17 2     
   37   16   18 1     
   38   18   38 1     
   39   18   39 1     
   40   19   20 ar    
   41   20   21 ar    
   42   20   40 1     
   43   21   22 1     
   44   22   41 1     
   45   22   42 1     
   46   22   43 1     
   47    5   45 1     
   48   10   46 1     
   49   10   47 1     
   50   15   48 1     
   51   17   49 1     
   52   17   50 1     
@<TRIPOS>SUBSTRUCTURE
      1 S1             1
@<TRIPOS>SET
LONE_PAIRS      STATIC     ATOMS    <user>   **** ""
6 45 46 47 48 49 50
DONOR_HYDROGENS      STATIC     ATOMS    <user>   **** ""
2 31 44
ATOM$BLUE        STATIC     ATOMS    COLORGROUP SYSTEM
6 45 46 47 48 49 50
ATOM$RED        STATIC     ATOMS    COLORGROUP SYSTEM
2 31 44
