AV-unprocessed.smi:2961|AV-procd|sdf|11314|dock3
  -GOLD-   2272016213D 1   1.00000     0.00000
 Structure written by MMmdl.
 49 51  0  0  0  0  0  0  0  0  2 V2000
  147.0338  141.3012  154.4449 C   0  0  0  0  0  0  0  0  0  0  0  0
  147.2367  139.9029  153.8718 C   0  0  0  0  0  0  0  0  0  0  0  0
  148.2326  139.2481  154.1768 O   0  0  0  0  0  0  0  0  0  0  0  0
  146.2777  139.4535  153.0492 N   0  0  0  0  0  0  0  0  0  0  0  0
  146.2783  138.1508  152.3887 C   0  0  0  0  0  0  0  0  0  0  0  0
  145.1368  137.2248  152.8576 C   0  0  0  0  0  0  0  0  0  0  0  0
  145.0056  135.9860  152.0277 C   0  0  0  0  0  0  0  0  0  0  0  0
  146.0084  135.3929  151.3200 N   0  3  0  0  0  0  0  0  0  0  0  0
  145.5228  134.2567  150.6726 C   0  0  0  0  0  0  0  0  0  0  0  0
  146.1599  133.3395  149.8425 C   0  0  0  0  0  0  0  0  0  0  0  0
  145.3679  132.2887  149.3352 C   0  0  0  0  0  0  0  0  0  0  0  0
  143.9997  132.1788  149.6579 C   0  0  0  0  0  0  0  0  0  0  0  0
  143.3662  133.1129  150.5038 C   0  0  0  0  0  0  0  0  0  0  0  0
  144.1560  134.1491  151.0021 C   0  0  0  0  0  0  0  0  0  0  0  0
  143.8819  135.2348  151.8434 N   0  0  0  0  0  0  0  0  0  0  0  0
  142.5194  135.4219  152.3657 C   0  0  0  0  0  0  0  0  0  0  0  0
  142.4846  135.4510  153.9003 C   0  0  0  0  0  0  0  0  0  0  0  0
  141.1341  135.4622  154.3433 O   0  0  0  0  0  0  0  0  0  0  0  0
  140.3918  136.6073  154.1557 C   0  0  0  0  0  0  0  0  0  0  0  0
  140.9184  137.8274  153.6618 C   0  0  0  0  0  0  0  0  0  0  0  0
  140.0820  138.9487  153.4992 C   0  0  0  0  0  0  0  0  0  0  0  0
  138.7163  138.8668  153.8278 C   0  0  0  0  0  0  0  0  0  0  0  0
  138.1826  137.6610  154.3227 C   0  0  0  0  0  0  0  0  0  0  0  0
  136.7118  137.5730  154.6740 C   0  0  0  0  0  0  0  0  0  0  0  0
  139.0221  136.5394  154.4836 C   0  0  0  0  0  0  0  0  0  0  0  0
  146.7688  142.0061  153.6558 H   0  0  0  0  0  0  0  0  0  0  0  0
  147.9443  141.6576  154.9280 H   0  0  0  0  0  0  0  0  0  0  0  0
  146.2335  141.2937  155.1855 H   0  0  0  0  0  0  0  0  0  0  0  0
  145.4973  140.0641  152.8532 H   0  0  0  0  0  0  0  0  0  0  0  0
  146.1837  138.3328  151.3183 H   0  0  0  0  0  0  0  0  0  0  0  0
  147.2430  137.6614  152.5302 H   0  0  0  0  0  0  0  0  0  0  0  0
  145.2952  136.9409  153.8981 H   0  0  0  0  0  0  0  0  0  0  0  0
  144.1881  137.7619  152.8329 H   0  0  0  0  0  0  0  0  0  0  0  0
  147.2073  133.4234  149.5919 H   0  0  0  0  0  0  0  0  0  0  0  0
  145.8177  131.5537  148.6835 H   0  0  0  0  0  0  0  0  0  0  0  0
  143.4236  131.3622  149.2475 H   0  0  0  0  0  0  0  0  0  0  0  0
  142.3162  133.0215  150.7395 H   0  0  0  0  0  0  0  0  0  0  0  0
  142.0952  136.3341  151.9461 H   0  0  0  0  0  0  0  0  0  0  0  0
  141.9041  134.6018  151.9965 H   0  0  0  0  0  0  0  0  0  0  0  0
  143.0023  134.5754  154.2941 H   0  0  0  0  0  0  0  0  0  0  0  0
  143.0064  136.3407  154.2566 H   0  0  0  0  0  0  0  0  0  0  0  0
  141.9607  137.9295  153.4010 H   0  0  0  0  0  0  0  0  0  0  0  0
  140.4902  139.8745  153.1211 H   0  0  0  0  0  0  0  0  0  0  0  0
  138.0807  139.7310  153.6997 H   0  0  0  0  0  0  0  0  0  0  0  0
  136.5032  136.6952  155.2867 H   0  0  0  0  0  0  0  0  0  0  0  0
  136.1118  137.5079  153.7663 H   0  0  0  0  0  0  0  0  0  0  0  0
  136.3980  138.4564  155.2309 H   0  0  0  0  0  0  0  0  0  0  0  0
  138.6146  135.6129  154.8609 H   0  0  0  0  0  0  0  0  0  0  0  0
  146.9563  135.7453  151.2832 H   0  0  0  0  0  0  0  0  0  0  0  0
  1  2  1  0  0  0  0
  1 26  1  0  0  0  0
  1 27  1  0  0  0  0
  1 28  1  0  0  0  0
  2  3  2  0  0  0  0
  2  4  1  0  0  0  0
  4  5  1  0  0  0  0
  4 29  1  0  0  0  0
  5  6  1  0  0  0  0
  5 30  1  0  0  0  0
  5 31  1  0  0  0  0
  6  7  1  0  0  0  0
  6 32  1  0  0  0  0
  6 33  1  0  0  0  0
  7 15  1  0  0  0  0
  7  8  2  0  0  0  0
  8  9  1  0  0  0  0
  8 49  1  0  0  0  0
  9 14  2  0  0  0  0
  9 10  1  0  0  0  0
 10 11  2  0  0  0  0
 10 34  1  0  0  0  0
 11 12  1  0  0  0  0
 11 35  1  0  0  0  0
 12 13  2  0  0  0  0
 12 36  1  0  0  0  0
 13 14  1  0  0  0  0
 13 37  1  0  0  0  0
 14 15  1  0  0  0  0
 15 16  1  0  0  0  0
 16 17  1  0  0  0  0
 16 38  1  0  0  0  0
 16 39  1  0  0  0  0
 17 18  1  0  0  0  0
 17 40  1  0  0  0  0
 17 41  1  0  0  0  0
 18 19  1  0  0  0  0
 19 25  1  0  0  0  0
 19 20  2  0  0  0  0
 20 21  1  0  0  0  0
 20 42  1  0  0  0  0
 21 22  2  0  0  0  0
 21 43  1  0  0  0  0
 22 23  1  0  0  0  0
 22 44  1  0  0  0  0
 23 24  1  0  0  0  0
 23 25  2  0  0  0  0
 24 45  1  0  0  0  0
 24 46  1  0  0  0  0
 24 47  1  0  0  0  0
 25 48  1  0  0  0  0
M  CHG  1   8   1
M  END
> <s_m_source_file>
AV-unprocessed.smi

> <i_m_source_file_index>
2961

> <i_lp_mmshare_version>
43012

> <i_f3d_flags>
0

> <s_epik_input>
W0NIM11DKD1PKVtOSF1bQ0gyXVtDSDJdYyhuMSluKGMoYzEyKVtjSF1bY0hdW2NIXVtjSF0yKVtDSDJdW0NIMl1PYzNbY0hdW2NIXVtjSF1jKFtDSDNdKVtjSF0z

> <s_epik_cmdline>
J2VwaWtfcHl0aG9uJywgJy1waCcsICc3LjAnLCAnLXRuJywgJzgnLCAnLW1hJywgJzIwMCcsICctbWV0YWxfYmluZGluZycsICctaW1hZScsICc8aW5maWxlLm1hZT4nLCAnLW9tYWUnLCAnPG91dGZpbGUubWFlPic=

> <r_lp_tautomer_probability>
1

> <r_epik_Ionization_Penalty>
1.11168

> <r_epik_Ionization_Penalty_Charging>
1.11168

> <r_epik_Ionization_Penalty_Neutral>
3.05925e-07

> <r_epik_State_Penalty>
1.16973

> <r_epik_Charging_Adjusted_Penalty>
2.28141

> <i_epik_Tot_Q>
1

> <i_epik_Tot_abs_Q>
1

> <r_epik_Metal_State_Penalty>
1.2554

> <b_epik_Metal_Only>
0

> <s_lp_Force_Field>
OPLS_2005

> <r_lp_Energy>
19.5135

> <b_lp_Chiralities_Consistent>
1

> <s_lp_Variant>
AV-unprocessed.smi:2961-2

> <Gold.Version>
5.8.1

> <Gold.Id.Protein>
6NUR|6NUR_protein|mol2

> <Gold.PLP.Fitness>
64.4609

> <Gold.PLP.PLP>
-54.1185

> <Gold.PLP.part.hbond>
-3.0000

> <Gold.PLP.part.metal>
0.0000

> <Gold.PLP.part.buried>
-8.2653

> <Gold.PLP.part.nonpolar>
-45.5480

> <Gold.PLP.part.repulsive>
0.6472

> <Gold.PLP.ligand.clash>
0.0000

> <Gold.PLP.ligand.torsion>
0.4804

> <Gold.PLP.Chemscore.Hbond>
3.7200

> <Gold.PLP.Chemscore.CHOScore>
0.0000

> <Gold.PLP.Chemscore.Metal>
0.0000

> <Gold.Chemscore.Hbonds>
donor molecule, donor type, donor heavy atom, donor atom, acceptor molecule, acceptor atom, score
      L1  H     4    29       P1 10175  1.00
      L1  H     8    49       P1  7948  1.72
      P1  H 11000 11005       L1    18  0.85

> <Gold.PLP.Chemscore.Internal.Correction>
0.1432

> <Gold.Rescore>
     Score         DG    S(hbond)    S(metal)    S(lipo)     H(rot)  DE(clash)    DE(int)     intcor
     22.52     -23.25       2.60        0.00     125.44       2.18       0.06       0.68       ----

> <Gold.Chemscore.Fitness>
22.5195

> <Gold.Chemscore.DG>
-23.2528

> <Gold.Chemscore.ZeroCoef>
-5.4800

> <Gold.Chemscore.Hbond>
2.5974

> <Gold.Chemscore.Metal>
0.0000

> <Gold.Chemscore.Lipo>
125.4412

> <Gold.Chemscore.Internal_Hbond>
0.0000

> <Gold.Chemscore.DEClash>
0.0566

> <Gold.Chemscore.DEInternal>
0.6768

> <Gold.Chemscore.Rot>
2.1793

> <Gold.Chemscore.Internal.Correction>
   9.000000E+99

> <Gold.Chemscore.Hbonds>
donor molecule, donor type, donor heavy atom, donor atom, acceptor molecule, acceptor atom, score
      L1  H     4    29       P1 10175  0.97
      L1  H     8    49       P1  7948  0.83
      P1  H 11000 11005       L1    18  0.57

> <Gold.Chemscore.Hbond.Weighted>
-8.6753

> <Gold.Chemscore.Metal.Weighted>
-0.0000

> <Gold.Chemscore.Lipo.Weighted>
-14.6766

> <Gold.Chemscore.Internal_Hbond.Weighted>
0.0000

> <Gold.Chemscore.DEClash.Weighted>
0.0566

> <Gold.Chemscore.DEInternal.Weighted>
0.6768

> <Gold.Chemscore.Rot.Weighted>
5.5791

> <Gold.Chemscore.Internal.Correction.Weighted>
   9.000000E+99

> <Gold.Protein.RotatedTorsions>
[ 6907 6896 6895 6894 ] final -158.81 input  -60.11 | X-H torsion
[ 7974 7965 7964 7962 ] final -111.48 input  175.53 | X-H torsion
[ 8008 7997 7996 7995 ] final -143.16 input   59.86 | X-H torsion
[ 10167 10162 10161 10158 ] final    5.44 input  -65.29 | X-H torsion
[ 10718 10713 10712 10709 ] final  108.31 input   66.30 | X-H torsion
[ 10763 10752 10751 10750 ] final   15.11 input  -60.55 | X-H torsion
[ 11005 11000 10999 10996 ] final   33.96 input  -57.11 | X-H torsion

> <Gold.Protein.ActiveResidues>
 VAL166  LYS551  ARG553  GLY616  TRP617  ASP618  TYR619  PRO620  LYS621  CYS622 
 ASP623  PHE694  ASN695  SER759  ASP760  ASP761  ALA762  ILE779  LEU786  VAL792 
 PHE793  MET794  SER795  GLU796  ALA797  LYS798  CYS799  TRP800  GLU811  SER814 

> <Gold.Protein.RotatedAtoms>
  151.3239  133.4028  159.2656 H   0  0  0  0  0  0  0  0  0  0  0  0  # atno 6907 bound_to 6896
  151.0011  134.9323  159.7965 H   0  0  0  0  0  0  0  0  0  0  0  0  # atno 6908 bound_to 6896
  152.5275  134.3204  159.9199 H   0  0  0  0  0  0  0  0  0  0  0  0  # atno 6909 bound_to 6896
  145.1556  140.8852  143.3621 H   0  0  0  0  0  0  0  0  0  0  0  0  # atno 7974 bound_to 7965
  155.5061  140.0579  157.2931 H   0  0  0  0  0  0  0  0  0  0  0  0  # atno 8008 bound_to 7997
  154.4569  140.1977  156.0303 H   0  0  0  0  0  0  0  0  0  0  0  0  # atno 8009 bound_to 7997
  156.0816  140.3246  155.7705 H   0  0  0  0  0  0  0  0  0  0  0  0  # atno 8010 bound_to 7997
  140.6482  143.7610  150.7532 H   0  0  0  0  0  0  0  0  0  0  0  0  # atno 10167 bound_to 10162
  157.6591  131.0891  150.6286 H   0  0  0  0  0  0  0  0  0  0  0  0  # atno 10718 bound_to 10713
  153.1556  135.6786  153.8817 H   0  0  0  0  0  0  0  0  0  0  0  0  # atno 10763 bound_to 10752
  153.8229  135.3128  155.3413 H   0  0  0  0  0  0  0  0  0  0  0  0  # atno 10764 bound_to 10752
  154.7895  135.4843  154.0109 H   0  0  0  0  0  0  0  0  0  0  0  0  # atno 10765 bound_to 10752
  140.2578  134.3228  155.7868 H   0  0  0  0  0  0  0  0  0  0  0  0  # atno 11005 bound_to 11000
  145.0384  139.3280  143.5989 LP  0  0  0  0  0  0  0  0  0  0  0  0  # atno 17320 bound_to 7965
  146.3489  139.9749  142.8702 LP  0  0  0  0  0  0  0  0  0  0  0  0  # atno 17321 bound_to 7965
  140.1256  143.4573  152.2286 LP  0  0  0  0  0  0  0  0  0  0  0  0  # atno 17342 bound_to 10162
  139.5694  144.7454  151.3932 LP  0  0  0  0  0  0  0  0  0  0  0  0  # atno 17343 bound_to 10162
  156.6590  130.4507  149.5694 LP  0  0  0  0  0  0  0  0  0  0  0  0  # atno 17370 bound_to 10713
  156.2081  130.6662  151.1240 LP  0  0  0  0  0  0  0  0  0  0  0  0  # atno 17371 bound_to 10713
  141.2194  133.7391  156.9138 LP  0  0  0  0  0  0  0  0  0  0  0  0  # atno 17394 bound_to 11000
  140.1495  134.9240  157.2573 LP  0  0  0  0  0  0  0  0  0  0  0  0  # atno 17395 bound_to 11000

$$$$
