AV-unprocessed.smi:72|AV-procd|sdf|671|dock2
  -GOLD-   2262016573D 1   1.00000     0.00000
 Structure written by MMmdl.
 29 30  0  0  0  0  0  0  0  0  1 V2000
  145.9588  130.8200  148.4687 N   0  0  0  0  0  0  0  0  0  0  0  0
  145.6431  131.7144  149.3359 C   0  0  0  0  0  0  0  0  0  0  0  0
  144.4216  132.4034  149.3813 N   0  0  0  0  0  0  0  0  0  0  0  0
  144.2370  133.2797  150.3200 C   0  0  0  0  0  0  0  0  0  0  0  0
  145.2495  133.5640  151.3252 N   0  0  0  0  0  0  0  0  0  0  0  0
  144.9947  134.5883  152.4116 C   0  0  2  0  0  0  0  0  0  0  0  0
  143.7698  134.2947  153.0096 O   0  0  0  0  0  0  0  0  0  0  0  0
  143.0776  135.5020  153.2882 C   0  0  2  0  0  0  0  0  0  0  0  0
  141.5715  135.2092  153.3780 C   0  0  0  0  0  0  0  0  0  0  0  0
  141.3350  134.0443  154.1391 O   0  0  0  0  0  0  0  0  0  0  0  0
  143.4893  136.4323  152.1410 C   0  0  1  0  0  0  0  0  0  0  0  0
  143.4029  137.7858  152.5399 O   0  0  0  0  0  0  0  0  0  0  0  0
  144.9408  136.0422  151.8872 C   0  0  2  0  0  0  0  0  0  0  0  0
  145.2715  136.1900  150.5179 O   0  0  0  0  0  0  0  0  0  0  0  0
  146.4944  132.8906  151.2839 C   0  0  0  0  0  0  0  0  0  0  0  0
  147.3976  133.1146  152.0892 O   0  0  0  0  0  0  0  0  0  0  0  0
  146.6340  131.9874  150.2892 N   0  0  0  0  0  0  0  0  0  0  0  0
  145.7704  134.4496  153.1657 H   0  0  0  0  0  0  0  0  0  0  0  0
  143.4554  135.8769  154.2418 H   0  0  0  0  0  0  0  0  0  0  0  0
  142.8745  136.2469  151.2587 H   0  0  0  0  0  0  0  0  0  0  0  0
  145.6223  136.6379  152.4964 H   0  0  0  0  0  0  0  0  0  0  0  0
  145.2018  130.6752  147.8166 H   0  0  0  0  0  0  0  0  0  0  0  0
  143.3188  133.8611  150.4152 H   0  0  0  0  0  0  0  0  0  0  0  0
  141.0327  136.0513  153.8128 H   0  0  0  0  0  0  0  0  0  0  0  0
  141.1635  135.0475  152.3801 H   0  0  0  0  0  0  0  0  0  0  0  0
  142.1673  133.6555  154.3605 H   0  0  0  0  0  0  0  0  0  0  0  0
  143.3925  138.3276  151.7661 H   0  0  0  0  0  0  0  0  0  0  0  0
  144.8733  136.9847  150.1976 H   0  0  0  0  0  0  0  0  0  0  0  0
  147.5101  131.4890  150.2336 H   0  0  0  0  0  0  0  0  0  0  0  0
  1  2  2  0  0  0  0
  1 22  1  0  0  0  0
  2 17  1  0  0  0  0
  2  3  1  0  0  0  0
  3  4  2  0  0  0  0
  4  5  1  0  0  0  0
  4 23  1  0  0  0  0
  5  6  1  0  0  0  0
  5 15  1  0  0  0  0
  6 18  1  0  0  0  0
  6 13  1  0  0  0  0
  6  7  1  0  0  0  0
  7  8  1  0  0  0  0
  8 19  1  0  0  0  0
  8  9  1  0  0  0  0
  8 11  1  0  0  0  0
  9 10  1  0  0  0  0
  9 24  1  0  0  0  0
  9 25  1  0  0  0  0
 10 26  1  0  0  0  0
 11 20  1  0  0  0  0
 11 12  1  0  0  0  0
 11 13  1  0  0  0  0
 12 27  1  0  0  0  0
 13 21  1  0  0  0  0
 13 14  1  0  0  0  0
 14 28  1  0  0  0  0
 15 16  2  0  0  0  0
 15 17  1  0  0  0  0
 17 29  1  0  0  0  0
M  END
> <s_m_source_file>
AV-unprocessed.smi

> <i_m_source_file_index>
72

> <i_lp_mmshare_version>
43012

> <i_f3d_flags>
0

> <s_epik_input>
W05IMl1jMW5bY0hdbihjKD1PKW4xKVtDQEBIXTJPW0NASF0oW0NIMl1bT0hdKVtDQEBIXShbT0hdKVtDQEhdMltPSF0=

> <s_epik_cmdline>
J2VwaWtfcHl0aG9uJywgJy1waCcsICc3LjAnLCAnLXRuJywgJzgnLCAnLW1hJywgJzIwMCcsICctbWV0YWxfYmluZGluZycsICctaW1hZScsICc8aW5maWxlLm1hZT4nLCAnLW9tYWUnLCAnPG91dGZpbGUubWFlPic=

> <r_lp_tautomer_probability>
7.17554e-07

> <r_epik_Ionization_Penalty>
0.0066451

> <r_epik_Ionization_Penalty_Charging>
0.00663793

> <r_epik_Ionization_Penalty_Neutral>
7.17052e-06

> <r_epik_State_Penalty>
0.419231

> <r_epik_Charging_Adjusted_Penalty>
0.425868

> <i_epik_Tot_Q>
0

> <i_epik_Tot_abs_Q>
0

> <r_epik_Metal_State_Penalty>
1.44144

> <b_epik_Metal_Only>
0

> <s_epik_Chemistry_Notes>
This compound contains an acetal/aminal-like group ( X-CH(R)-Y where X, Y are N, S, or O) that may be acid/base labile, releasing an aldehyde.

> <s_lp_Force_Field>
OPLS_2005

> <r_lp_Energy>
42.2993

> <b_lp_Chiralities_Consistent>
1

> <s_lp_Variant>
AV-unprocessed.smi:72-9

> <Gold.Version>
5.8.1

> <Gold.Id.Protein>
6NUR|6NUR_protein|mol2

> <Gold.PLP.Fitness>
42.8823

> <Gold.PLP.PLP>
-26.7073

> <Gold.PLP.part.hbond>
-8.9883

> <Gold.PLP.part.metal>
0.0000

> <Gold.PLP.part.buried>
-3.4131

> <Gold.PLP.part.nonpolar>
-16.9997

> <Gold.PLP.part.repulsive>
0.6752

> <Gold.PLP.ligand.clash>
0.0000

> <Gold.PLP.ligand.torsion>
0.3190

> <Gold.PLP.Chemscore.Hbond>
4.6160

> <Gold.PLP.Chemscore.CHOScore>
0.9528

> <Gold.PLP.Chemscore.Metal>
0.0000

> <Gold.Chemscore.Hbonds>
donor molecule, donor type, donor heavy atom, donor atom, acceptor molecule, acceptor atom, score
      L1  H    10    26       P1 10957  0.59
      L1  H    12    27       P1 10171  1.00
      L1  H    14    28       P1 10171  1.00
      L1  H    17    29       P1 10747  1.00
      P1  H 11000 11005       L1    10  1.00
      L1  C     4    23       P1 10186  1.00

> <Gold.PLP.Chemscore.Internal.Correction>
0.1066

> <Gold.Rescore>
     Score         DG    S(hbond)    S(metal)    S(lipo)     H(rot)  DE(clash)    DE(int)     intcor
      8.30     -10.58       3.98        0.00      18.93       4.06       1.92       0.36       ----

> <Gold.Chemscore.Fitness>
8.2985

> <Gold.Chemscore.DG>
-10.5784

> <Gold.Chemscore.ZeroCoef>
-5.4800

> <Gold.Chemscore.Hbond>
3.9751

> <Gold.Chemscore.Metal>
0.0000

> <Gold.Chemscore.Lipo>
18.9343

> <Gold.Chemscore.Internal_Hbond>
0.0000

> <Gold.Chemscore.DEClash>
1.9169

> <Gold.Chemscore.DEInternal>
0.3631

> <Gold.Chemscore.Rot>
4.0600

> <Gold.Chemscore.Internal.Correction>
   9.000000E+99

> <Gold.Chemscore.Hbonds>
donor molecule, donor type, donor heavy atom, donor atom, acceptor molecule, acceptor atom, score
      L1  H    10    26       P1 10957  0.58
      L1  H    12    27       P1 10171  0.60
      L1  H    14    28       P1 10171  1.00
      L1  H    17    29       P1 10747  0.98
      P1  H 11000 11005       L1    10  0.48

> <Gold.Chemscore.Hbond.Weighted>
-13.2767

> <Gold.Chemscore.Metal.Weighted>
-0.0000

> <Gold.Chemscore.Lipo.Weighted>
-2.2153

> <Gold.Chemscore.Internal_Hbond.Weighted>
0.0000

> <Gold.Chemscore.DEClash.Weighted>
1.9169

> <Gold.Chemscore.DEInternal.Weighted>
0.3631

> <Gold.Chemscore.Rot.Weighted>
10.3936

> <Gold.Chemscore.Internal.Correction.Weighted>
   9.000000E+99

> <Gold.Protein.RotatedTorsions>
[ 6907 6896 6895 6894 ] final  -87.28 input  -60.11 | X-H torsion
[ 7974 7965 7964 7962 ] final  178.61 input  175.53 | X-H torsion
[ 8008 7997 7996 7995 ] final -150.40 input   59.86 | X-H torsion
[ 10167 10162 10161 10158 ] final -145.26 input  -65.29 | X-H torsion
[ 10718 10713 10712 10709 ] final -125.07 input   66.30 | X-H torsion
[ 10763 10752 10751 10750 ] final  -96.54 input  -60.55 | X-H torsion
[ 11005 11000 10999 10996 ] final   20.18 input  -57.11 | X-H torsion

> <Gold.Protein.ActiveResidues>
 VAL166  LYS551  ARG553  GLY616  TRP617  ASP618  TYR619  PRO620  LYS621  CYS622 
 ASP623  PHE694  ASN695  SER759  ASP760  ASP761  ALA762  ILE779  LEU786  VAL792 
 PHE793  MET794  SER795  GLU796  ALA797  LYS798  CYS799  TRP800  GLU811  SER814 

> <Gold.Protein.RotatedAtoms>
  150.6866  134.2920  159.4670 H   0  0  0  0  0  0  0  0  0  0  0  0  # atno 6907 bound_to 6896
  152.0824  134.9459  160.0582 H   0  0  0  0  0  0  0  0  0  0  0  0  # atno 6908 bound_to 6896
  152.0807  133.4116  159.4537 H   0  0  0  0  0  0  0  0  0  0  0  0  # atno 6909 bound_to 6896
  144.7154  140.0424  143.6437 H   0  0  0  0  0  0  0  0  0  0  0  0  # atno 7974 bound_to 7965
  155.6229  140.0683  157.2672 H   0  0  0  0  0  0  0  0  0  0  0  0  # atno 8008 bound_to 7997
  154.4225  140.1781  156.1439 H   0  0  0  0  0  0  0  0  0  0  0  0  # atno 8009 bound_to 7997
  155.9995  140.3337  155.6835 H   0  0  0  0  0  0  0  0  0  0  0  0  # atno 8010 bound_to 7997
  139.7822  143.8084  152.2640 H   0  0  0  0  0  0  0  0  0  0  0  0  # atno 10167 bound_to 10162
  156.1643  130.6623  151.0093 H   0  0  0  0  0  0  0  0  0  0  0  0  # atno 10718 bound_to 10713
  154.7248  135.5080  153.8870 H   0  0  0  0  0  0  0  0  0  0  0  0  # atno 10763 bound_to 10752
  153.0895  135.6655  153.9890 H   0  0  0  0  0  0  0  0  0  0  0  0  # atno 10764 bound_to 10752
  153.9705  135.3039  155.3407 H   0  0  0  0  0  0  0  0  0  0  0  0  # atno 10765 bound_to 10752
  140.4055  134.1673  155.7665 H   0  0  0  0  0  0  0  0  0  0  0  0  # atno 11005 bound_to 11000
  146.0013  139.3093  143.0926 LP  0  0  0  0  0  0  0  0  0  0  0  0  # atno 17320 bound_to 7965
  145.8790  140.9374  143.0611 LP  0  0  0  0  0  0  0  0  0  0  0  0  # atno 17321 bound_to 7965
  139.8150  144.7320  150.9647 LP  0  0  0  0  0  0  0  0  0  0  0  0  # atno 17342 bound_to 10162
  140.7818  143.4213  151.0837 LP  0  0  0  0  0  0  0  0  0  0  0  0  # atno 17343 bound_to 10162
  157.6756  131.0851  150.7503 LP  0  0  0  0  0  0  0  0  0  0  0  0  # atno 17370 bound_to 10713
  156.7564  130.4785  149.5446 LP  0  0  0  0  0  0  0  0  0  0  0  0  # atno 17371 bound_to 10713
  141.1841  133.8351  157.1152 LP  0  0  0  0  0  0  0  0  0  0  0  0  # atno 17394 bound_to 11000
  140.0305  134.9903  157.0771 LP  0  0  0  0  0  0  0  0  0  0  0  0  # atno 17395 bound_to 11000

$$$$
