AV-unprocessed.smi:3335|AV-procd|sdf|12846|dock6
  -GOLD-   2272019233D 1   1.00000     0.00000
 Structure written by MMmdl.
 46 47  0  0  0  0  0  0  0  0  1 V2000
  153.2999  137.4409  156.9189 C   0  0  0  0  0  0  0  0  0  0  0  0
  152.4210  138.4744  156.2759 C   0  0  0  0  0  0  0  0  0  0  0  0
  151.9191  138.4911  154.9442 C   0  0  0  0  0  0  0  0  0  0  0  0
  151.1608  139.5452  154.6950 N   0  0  0  0  0  0  0  0  0  0  0  0
  151.1547  140.2462  155.8517 N   0  0  0  0  0  0  0  0  0  0  0  0
  150.3828  141.4810  155.9751 C   0  0  1  0  0  0  0  0  0  0  0  0
  148.9565  141.3378  155.4070 C   0  0  0  0  0  0  0  0  0  0  0  0
  150.4068  142.0845  157.4060 C   0  0  2  0  0  0  0  0  0  0  0  0
  149.0116  142.1847  158.0473 C   0  0  0  0  0  0  0  0  0  0  0  0
  150.9907  143.4244  157.3858 N   0  0  0  0  0  0  0  0  0  0  0  0
  151.4167  143.9284  158.7016 C   0  0  2  0  0  0  0  0  0  0  0  0
  152.0768  145.3151  158.5823 C   0  0  0  0  0  0  0  0  0  0  0  0
  152.3979  142.9397  159.3624 C   0  0  0  0  0  0  0  0  0  0  0  0
  152.8354  141.9987  158.6971 O   0  0  0  0  0  0  0  0  0  0  0  0
  152.7614  143.1256  160.6507 N   0  0  0  0  0  0  0  0  0  0  0  0
  153.6663  142.2247  161.3629 C   0  0  0  0  0  0  0  0  0  0  0  0
  153.6281  142.6633  162.8268 C   0  0  0  0  0  0  0  0  0  0  0  0
  153.2356  144.1321  162.7628 C   0  0  0  0  0  0  0  0  0  0  0  0
  152.3494  144.2276  161.5208 C   0  0  0  0  0  0  0  0  0  0  0  0
  151.9049  139.6148  156.8227 C   0  0  0  0  0  0  0  0  0  0  0  0
  153.7298  136.7595  156.1844 H   0  0  0  0  0  0  0  0  0  0  0  0
  152.7462  136.8337  157.6351 H   0  0  0  0  0  0  0  0  0  0  0  0
  154.1304  137.8977  157.4574 H   0  0  0  0  0  0  0  0  0  0  0  0
  152.0794  137.7697  154.1566 H   0  0  0  0  0  0  0  0  0  0  0  0
  150.8833  142.2058  155.3311 H   0  0  0  0  0  0  0  0  0  0  0  0
  148.4349  142.2951  155.4191 H   0  0  0  0  0  0  0  0  0  0  0  0
  148.3562  140.6313  155.9813 H   0  0  0  0  0  0  0  0  0  0  0  0
  148.9801  140.9892  154.3743 H   0  0  0  0  0  0  0  0  0  0  0  0
  151.0070  141.4171  158.0262 H   0  0  0  0  0  0  0  0  0  0  0  0
  148.5198  141.2120  158.0642 H   0  0  0  0  0  0  0  0  0  0  0  0
  148.3634  142.8755  157.5073 H   0  0  0  0  0  0  0  0  0  0  0  0
  149.0747  142.5348  159.0778 H   0  0  0  0  0  0  0  0  0  0  0  0
  150.3764  144.0705  156.9108 H   0  0  0  0  0  0  0  0  0  0  0  0
  150.5262  144.0079  159.3244 H   0  0  0  0  0  0  0  0  0  0  0  0
  152.4428  145.6657  159.5479 H   0  0  0  0  0  0  0  0  0  0  0  0
  151.3736  146.0642  158.2186 H   0  0  0  0  0  0  0  0  0  0  0  0
  152.9239  145.2959  157.8953 H   0  0  0  0  0  0  0  0  0  0  0  0
  153.3721  141.1793  161.2554 H   0  0  0  0  0  0  0  0  0  0  0  0
  154.6723  142.3376  160.9558 H   0  0  0  0  0  0  0  0  0  0  0  0
  152.8573  142.1026  163.3573 H   0  0  0  0  0  0  0  0  0  0  0  0
  154.5749  142.4996  163.3422 H   0  0  0  0  0  0  0  0  0  0  0  0
  152.7342  144.4769  163.6677 H   0  0  0  0  0  0  0  0  0  0  0  0
  154.1291  144.7419  162.6222 H   0  0  0  0  0  0  0  0  0  0  0  0
  152.4586  145.1997  161.0385 H   0  0  0  0  0  0  0  0  0  0  0  0
  151.3013  144.0945  161.7925 H   0  0  0  0  0  0  0  0  0  0  0  0
  152.0047  140.0238  157.8174 H   0  0  0  0  0  0  0  0  0  0  0  0
  1  2  1  0  0  0  0
  1 21  1  0  0  0  0
  1 22  1  0  0  0  0
  1 23  1  0  0  0  0
  2 20  2  0  0  0  0
  2  3  1  0  0  0  0
  3  4  2  0  0  0  0
  3 24  1  0  0  0  0
  4  5  1  0  0  0  0
  5  6  1  0  0  0  0
  5 20  1  0  0  0  0
  6  7  1  0  0  0  0
  6  8  1  0  0  0  0
  6 25  1  0  0  0  0
  7 26  1  0  0  0  0
  7 27  1  0  0  0  0
  7 28  1  0  0  0  0
  8  9  1  0  0  0  0
  8 10  1  0  0  0  0
  8 29  1  0  0  0  0
  9 30  1  0  0  0  0
  9 31  1  0  0  0  0
  9 32  1  0  0  0  0
 10 11  1  0  0  0  0
 10 33  1  0  0  0  0
 11 12  1  0  0  0  0
 11 13  1  0  0  0  0
 11 34  1  0  0  0  0
 12 35  1  0  0  0  0
 12 36  1  0  0  0  0
 12 37  1  0  0  0  0
 13 14  2  0  0  0  0
 13 15  1  0  0  0  0
 15 19  1  0  0  0  0
 15 16  1  0  0  0  0
 16 17  1  0  0  0  0
 16 38  1  0  0  0  0
 16 39  1  0  0  0  0
 17 18  1  0  0  0  0
 17 40  1  0  0  0  0
 17 41  1  0  0  0  0
 18 19  1  0  0  0  0
 18 42  1  0  0  0  0
 18 43  1  0  0  0  0
 19 44  1  0  0  0  0
 19 45  1  0  0  0  0
 20 46  1  0  0  0  0
M  END
> <s_m_source_file>
AV-unprocessed.smi

> <i_m_source_file_index>
3335

> <i_lp_mmshare_version>
43012

> <i_f3d_flags>
0

> <s_epik_input>
W0NIM11jMVtjSF1ubihbY0hdMSlbQ0BIXShbQ0gzXSlbQ0BIXShbQ0gzXSlbTkhdW0NASF0oW0NIM10pQyg9TylOMltDSDJdW0NIMl1bQ0gyXVtDSDJdMg==

> <s_epik_cmdline>
J2VwaWtfcHl0aG9uJywgJy1waCcsICc3LjAnLCAnLXRuJywgJzgnLCAnLW1hJywgJzIwMCcsICctbWV0YWxfYmluZGluZycsICctaW1hZScsICc8aW5maWxlLm1hZT4nLCAnLW9tYWUnLCAnPG91dGZpbGUubWFlPic=

> <r_lp_tautomer_probability>
1

> <r_epik_Ionization_Penalty>
0.918803

> <r_epik_Ionization_Penalty_Charging>
0

> <r_epik_Ionization_Penalty_Neutral>
0.918803

> <r_epik_State_Penalty>
0.958258

> <r_epik_Charging_Adjusted_Penalty>
0.958258

> <i_epik_Tot_Q>
0

> <i_epik_Tot_abs_Q>
0

> <r_epik_Metal_State_Penalty>
0.956786

> <b_epik_Metal_Only>
0

> <s_lp_Force_Field>
OPLS_2005

> <r_lp_Energy>
40.4571

> <b_lp_Chiralities_Consistent>
1

> <s_lp_Variant>
AV-unprocessed.smi:3335-10

> <Gold.Version>
5.8.1

> <Gold.Id.Protein>
6NUR|6NUR_protein|mol2

> <Gold.PLP.Fitness>
53.7825

> <Gold.PLP.PLP>
-51.2912

> <Gold.PLP.part.hbond>
-2.0000

> <Gold.PLP.part.metal>
0.0000

> <Gold.PLP.part.buried>
-5.6911

> <Gold.PLP.part.nonpolar>
-43.3212

> <Gold.PLP.part.repulsive>
0.0892

> <Gold.PLP.ligand.clash>
0.0000

> <Gold.PLP.ligand.torsion>
1.8499

> <Gold.PLP.Chemscore.Hbond>
2.0000

> <Gold.PLP.Chemscore.CHOScore>
0.0000

> <Gold.PLP.Chemscore.Metal>
0.0000

> <Gold.Chemscore.Hbonds>
donor molecule, donor type, donor heavy atom, donor atom, acceptor molecule, acceptor atom, score
      L1  H    10    33       P1  8028  1.00
      P1  H  7989  7998       L1     4  1.00

> <Gold.PLP.Chemscore.Internal.Correction>
0.1911

> <Gold.Rescore>
     Score         DG    S(hbond)    S(metal)    S(lipo)     H(rot)  DE(clash)    DE(int)     intcor
     16.64     -20.36       1.57        0.00     117.67       1.62       0.45       3.27       ----

> <Gold.Chemscore.Fitness>
16.6434

> <Gold.Chemscore.DG>
-20.3590

> <Gold.Chemscore.ZeroCoef>
-5.4800

> <Gold.Chemscore.Hbond>
1.5748

> <Gold.Chemscore.Metal>
0.0000

> <Gold.Chemscore.Lipo>
117.6692

> <Gold.Chemscore.Internal_Hbond>
0.0000

> <Gold.Chemscore.DEClash>
0.4460

> <Gold.Chemscore.DEInternal>
3.2696

> <Gold.Chemscore.Rot>
1.6204

> <Gold.Chemscore.Internal.Correction>
   9.000000E+99

> <Gold.Chemscore.Hbonds>
donor molecule, donor type, donor heavy atom, donor atom, acceptor molecule, acceptor atom, score
      L1  H    10    33       P1  8028  0.92
      P1  H  7989  7998       L1     4  0.30

> <Gold.Chemscore.Hbond.Weighted>
-5.2599

> <Gold.Chemscore.Metal.Weighted>
-0.0000

> <Gold.Chemscore.Lipo.Weighted>
-13.7673

> <Gold.Chemscore.Internal_Hbond.Weighted>
0.0000

> <Gold.Chemscore.DEClash.Weighted>
0.4460

> <Gold.Chemscore.DEInternal.Weighted>
3.2696

> <Gold.Chemscore.Rot.Weighted>
4.1482

> <Gold.Chemscore.Internal.Correction.Weighted>
   9.000000E+99

> <Gold.Protein.RotatedTorsions>
[ 6907 6896 6895 6894 ] final -166.79 input  -60.11 | X-H torsion
[ 7974 7965 7964 7962 ] final   69.36 input  175.53 | X-H torsion
[ 8008 7997 7996 7995 ] final   91.35 input   59.86 | X-H torsion
[ 10167 10162 10161 10158 ] final   96.57 input  -65.29 | X-H torsion
[ 10718 10713 10712 10709 ] final   71.90 input   66.30 | X-H torsion
[ 10763 10752 10751 10750 ] final   75.95 input  -60.55 | X-H torsion
[ 11005 11000 10999 10996 ] final   60.54 input  -57.11 | X-H torsion

> <Gold.Protein.ActiveResidues>
 VAL166  LYS551  ARG553  GLY616  TRP617  ASP618  TYR619  PRO620  LYS621  CYS622 
 ASP623  PHE694  ASN695  SER759  ASP760  ASP761  ALA762  ILE779  LEU786  VAL792 
 PHE793  MET794  SER795  GLU796  ALA797  LYS798  CYS799  TRP800  GLU811  SER814 

> <Gold.Protein.RotatedAtoms>
  151.4492  133.3622  159.2792 H   0  0  0  0  0  0  0  0  0  0  0  0  # atno 6907 bound_to 6896
  150.9103  134.8521  159.7431 H   0  0  0  0  0  0  0  0  0  0  0  0  # atno 6908 bound_to 6896
  152.4928  134.4421  159.9599 H   0  0  0  0  0  0  0  0  0  0  0  0  # atno 6909 bound_to 6896
  145.7914  139.2936  143.1208 H   0  0  0  0  0  0  0  0  0  0  0  0  # atno 7974 bound_to 7965
  156.0227  140.3338  155.7056 H   0  0  0  0  0  0  0  0  0  0  0  0  # atno 8008 bound_to 7997
  155.5999  140.0654  157.2753 H   0  0  0  0  0  0  0  0  0  0  0  0  # atno 8009 bound_to 7997
  154.4322  140.1812  156.1150 H   0  0  0  0  0  0  0  0  0  0  0  0  # atno 8010 bound_to 7997
  139.7882  144.6862  150.9928 H   0  0  0  0  0  0  0  0  0  0  0  0  # atno 10167 bound_to 10162
  157.6475  130.9552  150.0854 H   0  0  0  0  0  0  0  0  0  0  0  0  # atno 10718 bound_to 10713
  153.0690  135.4970  154.8264 H   0  0  0  0  0  0  0  0  0  0  0  0  # atno 10763 bound_to 10752
  154.6996  135.2999  154.9363 H   0  0  0  0  0  0  0  0  0  0  0  0  # atno 10764 bound_to 10752
  154.0092  135.6756  153.4817 H   0  0  0  0  0  0  0  0  0  0  0  0  # atno 10765 bound_to 10752
  140.0224  134.6133  155.9620 H   0  0  0  0  0  0  0  0  0  0  0  0  # atno 11005 bound_to 11000
  145.9973  140.8551  143.0036 LP  0  0  0  0  0  0  0  0  0  0  0  0  # atno 17320 bound_to 7965
  144.6781  140.2301  143.7356 LP  0  0  0  0  0  0  0  0  0  0  0  0  # atno 17321 bound_to 7965
  140.7820  143.4409  151.0553 LP  0  0  0  0  0  0  0  0  0  0  0  0  # atno 17342 bound_to 10162
  139.8087  143.7982  152.3169 LP  0  0  0  0  0  0  0  0  0  0  0  0  # atno 17343 bound_to 10162
  156.1818  130.3650  149.9025 LP  0  0  0  0  0  0  0  0  0  0  0  0  # atno 17370 bound_to 10713
  156.6975  130.8920  151.3595 LP  0  0  0  0  0  0  0  0  0  0  0  0  # atno 17371 bound_to 10713
  141.1782  133.6543  156.4913 LP  0  0  0  0  0  0  0  0  0  0  0  0  # atno 17394 bound_to 11000
  140.4364  134.7055  157.4969 LP  0  0  0  0  0  0  0  0  0  0  0  0  # atno 17395 bound_to 11000

$$$$
