#       Name:                AV-unprocessed.smi:1918
#       Creating user name   scv26
#       Creation time:       Fri Mar 27 09:51:48 2020


#       File generated by GOLD software.
#

@<TRIPOS>MOLECULE
AV-unprocessed.smi:1918
    38    40     1
SMALL
NO_CHARGES


@<TRIPOS>ATOM
      1 ****        -1.4761  -0.0892   3.1863 C.3            1 S1                 0.0000
      2 ****        -1.5071   0.8556   2.0325 C.2            1 S1                 0.0000
      3 ****        -1.9762   2.1352   2.0556 N.pl3          1 S1                 1.0000
      4 ****        -1.8446   2.7093   0.7900 C.ar           1 S1                 0.0000
      5 ****        -2.1785   3.9771   0.3238 C.ar           1 S1                 0.0000
      6 ****        -1.9109   4.2420  -1.0355 C.ar           1 S1                 0.0000
      7 ****        -1.3333   3.2665  -1.8745 C.ar           1 S1                 0.0000
      8 ****        -0.9990   1.9845  -1.3907 C.ar           1 S1                 0.0000
      9 ****        -1.2673   1.7316  -0.0459 C.ar           1 S1                 0.0000
     10 ****        -1.0755   0.6070   0.7631 N.pl3          1 S1                 0.0000
     11 ****        -0.4781  -0.6028   0.1787 C.3            1 S1                 0.0000
     12 ****         1.0567  -0.5187   0.0598 C.3            1 S1                 0.0000
     13 ****         1.6227  -0.2728   1.3336 O.3            1 S1                 0.0000
     14 ****         1.6233  -1.7659  -0.6052 C.ar           1 S1                 0.0000
     15 ****         1.9350  -2.9120   0.1610 C.ar           1 S1                 0.0000
     16 ****         2.4499  -4.0657  -0.4612 C.ar           1 S1                 0.0000
     17 ****         2.6530  -4.0839  -1.8540 C.ar           1 S1                 0.0000
     18 ****         3.1472  -5.1935  -2.4522 F              1 S1                 0.0000
     19 ****         2.3377  -2.9488  -2.6246 C.ar           1 S1                 0.0000
     20 ****         1.8216  -1.7941  -2.0046 C.ar           1 S1                 0.0000
     21 ****         1.5127  -0.7137  -2.7622 F              1 S1                 0.0000
     22 ****        -1.7880   0.4134   4.1022 H              1 S1                 0.0000
     23 ****        -0.4674  -0.4765   3.3302 H              1 S1                 0.0000
     24 ****        -2.1488  -0.9272   3.0027 H              1 S1                 0.0000
     25 ****        -2.6207   4.7259   0.9645 H              1 S1                 0.0000
     26 ****        -2.1535   5.2128  -1.4428 H              1 S1                 0.0000
     27 ****        -1.1427   3.5060  -2.9107 H              1 S1                 0.0000
     28 ****        -0.5565   1.2437  -2.0406 H              1 S1                 0.0000
     29 ****        -0.7648  -1.4510   0.8014 H              1 S1                 0.0000
     30 ****        -0.9357  -0.7717  -0.7971 H              1 S1                 0.0000
     31 ****         1.3194   0.3432  -0.5539 H              1 S1                 0.0000
     32 ****         2.5508  -0.1291   1.2262 H              1 S1                 0.0000
     33 ****         1.7774  -2.9147   1.2297 H              1 S1                 0.0000
     34 ****         2.6875  -4.9378   0.1303 H              1 S1                 0.0000
     35 ****         2.4896  -2.9644  -3.6939 H              1 S1                 0.0000
     36 ****        -2.3582   2.5812   2.8797 H              1 S1                 0.0000
     37 ****         1.4700  -1.0618   1.9287 LP             1 S1                 0.0000
     38 ****         1.2005   0.5376   1.7397 LP             1 S1                 0.0000
@<TRIPOS>BOND
    1    1    2 1     
    2    1   22 1     
    3    1   23 1     
    4    1   24 1     
    5    2   10 1     
    6    2    3 2     
    7    3    4 1     
    8    3   36 1     
    9    4    9 ar    
   10    4    5 ar    
   11    5    6 ar    
   12    5   25 1     
   13    6    7 ar    
   14    6   26 1     
   15    7    8 ar    
   16    7   27 1     
   17    8    9 ar    
   18    8   28 1     
   19    9   10 1     
   20   10   11 1     
   21   11   12 1     
   22   11   29 1     
   23   11   30 1     
   24   12   13 1     
   25   12   14 1     
   26   12   31 1     
   27   13   32 1     
   28   14   20 ar    
   29   14   15 ar    
   30   15   16 ar    
   31   15   33 1     
   32   16   17 ar    
   33   16   34 1     
   34   17   18 1     
   35   17   19 ar    
   36   19   20 ar    
   37   19   35 1     
   38   20   21 1     
   39   13   37 1     
   40   13   38 1     
@<TRIPOS>SUBSTRUCTURE
      1 S1             1
@<TRIPOS>SET
LONE_PAIRS      STATIC     ATOMS    <user>   **** ""
2 37 38
DONOR_HYDROGENS      STATIC     ATOMS    <user>   **** ""
2 36 32
ATOM$BLUE        STATIC     ATOMS    COLORGROUP SYSTEM
2 37 38
ATOM$RED        STATIC     ATOMS    COLORGROUP SYSTEM
2 36 32
