AV-unprocessed.smi:1550|AV-procd|sdf|6231|dock4
  -GOLD-   22720 6413D 1   1.00000     0.00000
 Structure written by MMmdl.
 42 43  0  0  0  0  0  0  0  0  2 V2000
  150.0266  139.6694  154.4012 C   0  0  0  0  0  0  0  0  0  0  0  0
  151.2050  139.3134  155.3195 C   0  0  1  0  0  0  0  0  0  0  0  0
  151.0174  140.0105  156.5481 O   0  0  0  0  0  0  0  0  0  0  0  0
  151.1222  141.4279  156.4676 C   0  0  0  0  0  0  0  0  0  0  0  0
  151.2907  141.9937  157.8834 C   0  0  1  0  0  0  0  0  0  0  0  0
  152.5819  141.4933  158.5613 C   0  0  0  0  0  0  0  0  0  0  0  0
  152.7602  142.1495  159.9348 C   0  0  0  0  0  0  0  0  0  0  0  0
  152.6695  143.6724  159.7941 C   0  0  0  0  0  0  0  0  0  0  0  0
  151.3767  144.0640  159.0608 C   0  0  0  0  0  0  0  0  0  0  0  0
  151.3216  143.4168  157.7930 O   0  0  0  0  0  0  0  0  0  0  0  0
  151.2764  137.7988  155.5735 C   0  0  0  0  0  0  0  0  0  0  0  0
  152.3753  137.2460  155.6170 O   0  0  0  0  0  0  0  0  0  0  0  0
  150.0859  137.1803  155.6998 N   0  0  0  0  0  0  0  0  0  0  0  0
  149.7957  135.8255  155.9359 C   0  0  0  0  0  0  0  0  0  0  0  0
  149.5154  134.9060  154.9708 C   0  0  0  0  0  0  0  0  0  0  0  0
  149.2324  133.5101  155.2810 C   0  0  0  0  0  0  0  0  0  0  0  0
  148.8157  132.4835  154.2426 C   0  0  0  0  0  0  0  0  0  0  0  0
  148.8280  133.0345  153.0296 F   0  0  0  0  0  0  0  0  0  0  0  0
  149.6497  131.4431  154.2349 F   0  0  0  0  0  0  0  0  0  0  0  0
  147.5841  132.0336  154.4827 F   0  0  0  0  0  0  0  0  0  0  0  0
  149.2772  133.2555  156.6380 C   0  0  0  0  0  0  0  0  0  0  0  0
  149.5741  134.0971  157.6522 N   0  5  0  0  0  0  0  0  0  0  0  0
  149.8370  135.3998  157.3504 C   0  0  0  0  0  0  0  0  0  0  0  0
  150.1076  136.2217  158.2268 O   0  0  0  0  0  0  0  0  0  0  0  0
  150.1010  139.1530  153.4434 H   0  0  0  0  0  0  0  0  0  0  0  0
  150.0071  140.7401  154.1965 H   0  0  0  0  0  0  0  0  0  0  0  0
  149.0700  139.4038  154.8529 H   0  0  0  0  0  0  0  0  0  0  0  0
  152.1257  139.6577  154.8439 H   0  0  0  0  0  0  0  0  0  0  0  0
  151.9572  141.7408  155.8395 H   0  0  0  0  0  0  0  0  0  0  0  0
  150.2114  141.8261  156.0184 H   0  0  0  0  0  0  0  0  0  0  0  0
  150.4230  141.7049  158.4792 H   0  0  0  0  0  0  0  0  0  0  0  0
  152.5591  140.4082  158.6676 H   0  0  0  0  0  0  0  0  0  0  0  0
  153.4418  141.7270  157.9322 H   0  0  0  0  0  0  0  0  0  0  0  0
  151.9840  141.7961  160.6144 H   0  0  0  0  0  0  0  0  0  0  0  0
  153.7167  141.8629  160.3726 H   0  0  0  0  0  0  0  0  0  0  0  0
  152.7066  144.1454  160.7757 H   0  0  0  0  0  0  0  0  0  0  0  0
  153.5308  144.0410  159.2354 H   0  0  0  0  0  0  0  0  0  0  0  0
  150.4985  143.8023  159.6533 H   0  0  0  0  0  0  0  0  0  0  0  0
  151.3452  145.1427  158.9069 H   0  0  0  0  0  0  0  0  0  0  0  0
  149.2689  137.7606  155.5751 H   0  0  0  0  0  0  0  0  0  0  0  0
  149.5107  135.1784  153.9287 H   0  0  0  0  0  0  0  0  0  0  0  0
  149.0319  132.2202  156.9575 H   0  0  0  0  0  0  0  0  0  0  0  0
  1  2  1  0  0  0  0
  1 25  1  0  0  0  0
  1 26  1  0  0  0  0
  1 27  1  0  0  0  0
  2  3  1  0  0  0  0
  2 11  1  0  0  0  0
  2 28  1  0  0  0  0
  3  4  1  0  0  0  0
  4  5  1  0  0  0  0
  4 29  1  0  0  0  0
  4 30  1  0  0  0  0
  5 10  1  0  0  0  0
  5  6  1  0  0  0  0
  5 31  1  0  0  0  0
  6  7  1  0  0  0  0
  6 32  1  0  0  0  0
  6 33  1  0  0  0  0
  7  8  1  0  0  0  0
  7 34  1  0  0  0  0
  7 35  1  0  0  0  0
  8  9  1  0  0  0  0
  8 36  1  0  0  0  0
  8 37  1  0  0  0  0
  9 10  1  0  0  0  0
  9 38  1  0  0  0  0
  9 39  1  0  0  0  0
 11 12  2  0  0  0  0
 11 13  1  0  0  0  0
 13 14  1  0  0  0  0
 13 40  1  0  0  0  0
 14 23  1  0  0  0  0
 14 15  2  0  0  0  0
 15 16  1  0  0  0  0
 15 41  1  0  0  0  0
 16 17  1  0  0  0  0
 16 21  2  0  0  0  0
 17 18  1  0  0  0  0
 17 19  1  0  0  0  0
 17 20  1  0  0  0  0
 21 22  1  0  0  0  0
 21 42  1  0  0  0  0
 22 23  1  0  0  0  0
 23 24  2  0  0  0  0
M  CHG  1  22  -1
M  END
> <s_m_source_file>
AV-unprocessed.smi

> <i_m_source_file_index>
1550

> <i_lp_mmshare_version>
43012

> <i_f3d_flags>
0

> <s_epik_input>
TzFbQ0gyXVtDSDJdW0NIMl1bQ0gyXVtDQEhdMVtDSDJdT1tDQEBIXShbQ0gzXSlDKD1PKVtOSF1jMltjSF1jKEMoRikoRilGKVtjSF1bbkhdYzI9Tw==

> <s_epik_cmdline>
J2VwaWtfcHl0aG9uJywgJy1waCcsICc3LjAnLCAnLXRuJywgJzgnLCAnLW1hJywgJzIwMCcsICctbWV0YWxfYmluZGluZycsICctaW1hZScsICc8aW5maWxlLm1hZT4nLCAnLW9tYWUnLCAnPG91dGZpbGUubWFlPic=

> <r_epik_Ionization_Penalty>
2.54933

> <r_epik_Ionization_Penalty_Charging>
0.0583423

> <r_epik_Ionization_Penalty_Neutral>
2.49099

> <r_epik_State_Penalty>
2.65532

> <r_epik_Charging_Adjusted_Penalty>
2.71366

> <i_epik_Tot_Q>
-1

> <i_epik_Tot_abs_Q>
1

> <r_epik_Metal_State_Penalty>
0.516364

> <b_epik_Metal_Only>
0

> <s_lp_Force_Field>
OPLS_2005

> <r_lp_Energy>
27.8976

> <b_lp_Chiralities_Consistent>
1

> <s_lp_Variant>
AV-unprocessed.smi:1550-8

> <Gold.Version>
5.8.1

> <Gold.Id.Protein>
6NUR|6NUR_protein|mol2

> <Gold.PLP.Fitness>
47.4091

> <Gold.PLP.PLP>
-41.8193

> <Gold.PLP.part.hbond>
-3.0000

> <Gold.PLP.part.metal>
0.0000

> <Gold.PLP.part.buried>
-5.3057

> <Gold.PLP.part.nonpolar>
-34.5946

> <Gold.PLP.part.repulsive>
0.1730

> <Gold.PLP.ligand.clash>
0.0000

> <Gold.PLP.ligand.torsion>
1.4692

> <Gold.PLP.Chemscore.Hbond>
2.7680

> <Gold.PLP.Chemscore.CHOScore>
0.0000

> <Gold.PLP.Chemscore.Metal>
0.0000

> <Gold.Chemscore.Hbonds>
donor molecule, donor type, donor heavy atom, donor atom, acceptor molecule, acceptor atom, score
      P1  H  6896  6908       L1    22  1.95
      P1  H 10752 10765       L1    12  0.75

> <Gold.PLP.Chemscore.Internal.Correction>
0.2242

> <Gold.Rescore>
     Score         DG    S(hbond)    S(metal)    S(lipo)     H(rot)  DE(clash)    DE(int)     intcor
     15.07     -16.93       1.37        0.00      98.68       1.82       0.29       1.57       ----

> <Gold.Chemscore.Fitness>
15.0730

> <Gold.Chemscore.DG>
-16.9311

> <Gold.Chemscore.ZeroCoef>
-5.4800

> <Gold.Chemscore.Hbond>
1.3694

> <Gold.Chemscore.Metal>
0.0000

> <Gold.Chemscore.Lipo>
98.6799

> <Gold.Chemscore.Internal_Hbond>
0.0000

> <Gold.Chemscore.DEClash>
0.2865

> <Gold.Chemscore.DEInternal>
1.5715

> <Gold.Chemscore.Rot>
1.8236

> <Gold.Chemscore.Internal.Correction>
   9.000000E+99

> <Gold.Chemscore.Hbonds>
donor molecule, donor type, donor heavy atom, donor atom, acceptor molecule, acceptor atom, score
      P1  H  6896  6908       L1    22  0.30
      P1  H  6896  6909       L1    24  0.01
      P1  H 10752 10765       L1    12  0.74

> <Gold.Chemscore.Hbond.Weighted>
-4.5739

> <Gold.Chemscore.Metal.Weighted>
-0.0000

> <Gold.Chemscore.Lipo.Weighted>
-11.5455

> <Gold.Chemscore.Internal_Hbond.Weighted>
0.0000

> <Gold.Chemscore.DEClash.Weighted>
0.2865

> <Gold.Chemscore.DEInternal.Weighted>
1.5715

> <Gold.Chemscore.Rot.Weighted>
4.6684

> <Gold.Chemscore.Internal.Correction.Weighted>
   9.000000E+99

> <Gold.Protein.RotatedTorsions>
[ 6907 6896 6895 6894 ] final  117.77 input  -60.11 | X-H torsion
[ 7974 7965 7964 7962 ] final  -19.43 input  175.53 | X-H torsion
[ 8008 7997 7996 7995 ] final  -28.09 input   59.86 | X-H torsion
[ 10167 10162 10161 10158 ] final  -57.75 input  -65.29 | X-H torsion
[ 10718 10713 10712 10709 ] final   12.87 input   66.30 | X-H torsion
[ 10763 10752 10751 10750 ] final -156.23 input  -60.55 | X-H torsion
[ 11005 11000 10999 10996 ] final  158.43 input  -57.11 | X-H torsion

> <Gold.Protein.ActiveResidues>
 VAL166  LYS551  ARG553  GLY616  TRP617  ASP618  TYR619  PRO620  LYS621  CYS622 
 ASP623  PHE694  ASN695  SER759  ASP760  ASP761  ALA762  ILE779  LEU786  VAL792 
 PHE793  MET794  SER795  GLU796  ALA797  LYS798  CYS799  TRP800  GLU811  SER814 

> <Gold.Protein.RotatedAtoms>
  152.4589  133.7781  159.6835 H   0  0  0  0  0  0  0  0  0  0  0  0  # atno 6907 bound_to 6896
  150.8525  133.7755  159.3026 H   0  0  0  0  0  0  0  0  0  0  0  0  # atno 6908 bound_to 6896
  151.5345  135.1071  159.9963 H   0  0  0  0  0  0  0  0  0  0  0  0  # atno 6909 bound_to 6896
  146.1842  140.4060  142.8483 H   0  0  0  0  0  0  0  0  0  0  0  0  # atno 7974 bound_to 7965
  154.4348  140.1855  156.1034 H   0  0  0  0  0  0  0  0  0  0  0  0  # atno 8008 bound_to 7997
  156.0274  140.3334  155.7077 H   0  0  0  0  0  0  0  0  0  0  0  0  # atno 8009 bound_to 7997
  155.5889  140.0629  157.2754 H   0  0  0  0  0  0  0  0  0  0  0  0  # atno 8010 bound_to 7997
  140.6239  143.2430  151.5412 H   0  0  0  0  0  0  0  0  0  0  0  0  # atno 10167 bound_to 10162
  157.0164  130.6137  149.5715 H   0  0  0  0  0  0  0  0  0  0  0  0  # atno 10718 bound_to 10713
  154.7728  135.3150  154.8154 H   0  0  0  0  0  0  0  0  0  0  0  0  # atno 10763 bound_to 10752
  153.8885  135.6828  153.4766 H   0  0  0  0  0  0  0  0  0  0  0  0  # atno 10764 bound_to 10752
  153.1346  135.4765  154.9337 H   0  0  0  0  0  0  0  0  0  0  0  0  # atno 10765 bound_to 10752
  140.1865  134.8438  157.2863 H   0  0  0  0  0  0  0  0  0  0  0  0  # atno 11005 bound_to 11000
  144.8367  140.6793  143.6256 LP  0  0  0  0  0  0  0  0  0  0  0  0  # atno 17320 bound_to 7965
  145.3989  139.1601  143.4188 LP  0  0  0  0  0  0  0  0  0  0  0  0  # atno 17321 bound_to 7965
  139.5462  144.2514  152.1447 LP  0  0  0  0  0  0  0  0  0  0  0  0  # atno 17342 bound_to 10162
  140.1741  144.4908  150.6564 LP  0  0  0  0  0  0  0  0  0  0  0  0  # atno 17343 bound_to 10162
  156.0118  130.5210  150.8011 LP  0  0  0  0  0  0  0  0  0  0  0  0  # atno 17370 bound_to 10713
  157.5282  131.0935  150.9989 LP  0  0  0  0  0  0  0  0  0  0  0  0  # atno 17371 bound_to 10713
  140.2208  134.4025  155.7567 LP  0  0  0  0  0  0  0  0  0  0  0  0  # atno 17394 bound_to 11000
  141.2225  133.7165  156.8487 LP  0  0  0  0  0  0  0  0  0  0  0  0  # atno 17395 bound_to 11000

$$$$
