#       Name:                AV-unprocessed.smi:653
#       Creating user name   scv26
#       Creation time:       Fri Mar 27 00:14:43 2020


#       File generated by GOLD software.
#

@<TRIPOS>MOLECULE
AV-unprocessed.smi:653
    49    50     1
SMALL
NO_CHARGES


@<TRIPOS>ATOM
      1 ****        -5.1707   2.7116   4.0993 C.3            1 S1                 0.0000
      2 ****        -4.5248   1.9533   2.9589 C.ar           1 S1                 0.0000
      3 ****        -3.9459   0.6786   3.1373 C.ar           1 S1                 0.0000
      4 ****        -3.3642   0.0252   2.0311 C.ar           1 S1                 0.0000
      5 ****        -3.3739   0.6580   0.7683 C.ar           1 S1                 0.0000
      6 ****        -2.7544  -0.0187  -0.4413 C.3            1 S1                 0.0000
      7 ****        -1.2764   0.3553  -0.5611 C.2            1 S1                 0.0000
      8 ****        -0.9580   1.5080  -0.8529 O.2            1 S1                 0.0000
      9 ****        -0.3893  -0.6256  -0.3324 N.am           1 S1                 0.0000
     10 ****         1.0633  -0.4863  -0.3785 C.3            1 S1                 0.0000
     11 ****         1.6724  -1.1507  -1.6381 C.3            1 S1                 0.0000
     12 ****         1.2752  -0.4544  -2.9325 C.3            1 S1                 0.0000
     13 ****         2.2947   0.6803  -3.0450 C.3            1 S1                 0.0000
     14 ****         3.3868   0.3100  -2.2073 O.3            1 S1                 0.0000
     15 ****         3.2027  -1.0235  -1.7462 C.3            1 S1                 0.0000
     16 ****         4.0370  -1.3055  -0.4756 C.3            1 S1                 0.0000
     17 ****         5.5327  -1.0619  -0.7339 C.3            1 S1                 0.0000
     18 ****         3.8236  -2.7389   0.0408 C.3            1 S1                 0.0000
     19 ****        -3.9690   1.9329   0.6499 C.ar           1 S1                 0.0000
     20 ****        -4.5150   2.5258   1.7340 N.pl3          1 S1                 1.0000
     21 ****        -4.7550   2.3988   5.0576 H              1 S1                 0.0000
     22 ****        -6.2448   2.5250   4.1146 H              1 S1                 0.0000
     23 ****        -5.0085   3.7849   3.9946 H              1 S1                 0.0000
     24 ****        -3.9468   0.2057   4.1087 H              1 S1                 0.0000
     25 ****        -2.9147  -0.9498   2.1527 H              1 S1                 0.0000
     26 ****        -2.8745  -1.1005  -0.3635 H              1 S1                 0.0000
     27 ****        -3.2773   0.2911  -1.3470 H              1 S1                 0.0000
     28 ****        -0.7469  -1.5419  -0.1041 H              1 S1                 0.0000
     29 ****         1.3655   0.5600  -0.3075 H              1 S1                 0.0000
     30 ****         1.4435  -0.9682   0.5212 H              1 S1                 0.0000
     31 ****         1.3746  -2.1997  -1.6631 H              1 S1                 0.0000
     32 ****         1.4056  -1.1433  -3.7683 H              1 S1                 0.0000
     33 ****         0.2444  -0.1042  -2.9638 H              1 S1                 0.0000
     34 ****         2.6226   0.8270  -4.0744 H              1 S1                 0.0000
     35 ****         1.8777   1.6210  -2.6840 H              1 S1                 0.0000
     36 ****         3.5473  -1.6887  -2.5408 H              1 S1                 0.0000
     37 ****         3.7323  -0.6115   0.3079 H              1 S1                 0.0000
     38 ****         5.9113  -1.7153  -1.5206 H              1 S1                 0.0000
     39 ****         6.1223  -1.2475   0.1644 H              1 S1                 0.0000
     40 ****         5.7208  -0.0320  -1.0380 H              1 S1                 0.0000
     41 ****         4.1243  -3.4757  -0.7046 H              1 S1                 0.0000
     42 ****         2.7802  -2.9291   0.2905 H              1 S1                 0.0000
     43 ****         4.4096  -2.9215   0.9421 H              1 S1                 0.0000
     44 ****        -4.0211   2.4936  -0.2720 H              1 S1                 0.0000
     45 ****        -4.9382   3.4475   1.6232 H              1 S1                 0.0000
     46 ****        -1.6651   2.1973  -1.0110 LP             1 S1                 0.0000
     47 ****         0.0077   1.7552  -0.9319 LP             1 S1                 0.0000
     48 ****         3.4308   0.9301  -1.4240 LP             1 S1                 0.0000
     49 ****         4.2394   0.3680  -2.7266 LP             1 S1                 0.0000
@<TRIPOS>BOND
    1    1    2 1     
    2    1   21 1     
    3    1   22 1     
    4    1   23 1     
    5    2   20 ar    
    6    2    3 ar    
    7    3    4 ar    
    8    3   24 1     
    9    4    5 ar    
   10    4   25 1     
   11    5    6 1     
   12    5   19 ar    
   13    6    7 1     
   14    6   26 1     
   15    6   27 1     
   16    7    8 2     
   17    7    9 am    
   18    9   10 1     
   19    9   28 1     
   20   10   11 1     
   21   10   29 1     
   22   10   30 1     
   23   11   15 1     
   24   11   12 1     
   25   11   31 1     
   26   12   13 1     
   27   12   32 1     
   28   12   33 1     
   29   13   14 1     
   30   13   34 1     
   31   13   35 1     
   32   14   15 1     
   33   15   16 1     
   34   15   36 1     
   35   16   17 1     
   36   16   18 1     
   37   16   37 1     
   38   17   38 1     
   39   17   39 1     
   40   17   40 1     
   41   18   41 1     
   42   18   42 1     
   43   18   43 1     
   44   19   20 ar    
   45   19   44 1     
   46   20   45 1     
   47    8   46 1     
   48    8   47 1     
   49   14   48 1     
   50   14   49 1     
@<TRIPOS>SUBSTRUCTURE
      1 S1             1
@<TRIPOS>SET
LONE_PAIRS      STATIC     ATOMS    <user>   **** ""
4 46 47 48 49
DONOR_HYDROGENS      STATIC     ATOMS    <user>   **** ""
2 28 45
ATOM$BLUE        STATIC     ATOMS    COLORGROUP SYSTEM
4 46 47 48 49
ATOM$RED        STATIC     ATOMS    COLORGROUP SYSTEM
2 28 45
