#       Name:                AV-unprocessed.smi:1840
#       Creating user name   scv26
#       Creation time:       Fri Mar 27 09:18:50 2020


#       File generated by GOLD software.
#

@<TRIPOS>MOLECULE
AV-unprocessed.smi:1840
    46    47     1
SMALL
NO_CHARGES


@<TRIPOS>ATOM
      1 ****        -2.9630  -1.0146   0.7598 C.3            1 S1                 0.0000
      2 ****        -2.4127  -0.3757  -0.5294 C.3            1 S1                 0.0000
      3 ****        -2.9099  -1.0751  -1.8114 C.3            1 S1                 0.0000
      4 ****        -4.3577  -1.1425  -1.8988 N.pl3          1 S1                 0.0000
      5 ****        -5.1728  -2.2500  -1.7916 C.2            1 S1                 0.0000
      6 ****        -6.4607  -1.8226  -1.9438 C.2            1 S1                 0.0000
      7 ****        -6.3297  -0.4204  -2.1461 C.2            1 S1                 0.0000
      8 ****        -5.0696  -0.0169  -2.1235 N.2            1 S1                 0.0000
      9 ****        -0.9524  -0.3910  -0.5143 N.am           1 S1                 0.0000
     10 ****        -0.1722   0.5112   0.0977 C.2            1 S1                 0.0000
     11 ****        -0.5997   1.4838   0.7196 O.2            1 S1                 0.0000
     12 ****         1.1277   0.2143  -0.0421 N.am           1 S1                 0.0000
     13 ****         2.2443   0.9679   0.5266 C.3            1 S1                 0.0000
     14 ****         3.0546   1.6059  -0.6190 C.3            1 S1                 0.0000
     15 ****         4.2857   2.3574  -0.0924 C.3            1 S1                 0.0000
     16 ****         5.1726   1.4340   0.7537 C.3            1 S1                 0.0000
     17 ****         4.3738   0.8075   1.9068 C.3            1 S1                 0.0000
     18 ****         3.1310   0.0465   1.4017 C.3            1 S1                 0.0000
     19 ****         2.3564  -0.5686   2.5814 C.3            1 S1                 0.0000
     20 ****        -4.0503  -0.9504   0.8053 H              1 S1                 0.0000
     21 ****        -2.5761  -0.5118   1.6468 H              1 S1                 0.0000
     22 ****        -2.6876  -2.0674   0.8278 H              1 S1                 0.0000
     23 ****        -2.7491   0.6624  -0.5644 H              1 S1                 0.0000
     24 ****        -2.5378  -0.5550  -2.6956 H              1 S1                 0.0000
     25 ****        -2.5177  -2.0922  -1.8612 H              1 S1                 0.0000
     26 ****        -4.7737  -3.2379  -1.6147 H              1 S1                 0.0000
     27 ****        -7.3595  -2.4205  -1.9153 H              1 S1                 0.0000
     28 ****        -7.1074   0.3111  -2.3096 H              1 S1                 0.0000
     29 ****        -0.5030  -1.1539  -0.9990 H              1 S1                 0.0000
     30 ****         1.3673  -0.6094  -0.5739 H              1 S1                 0.0000
     31 ****         1.8694   1.7737   1.1607 H              1 S1                 0.0000
     32 ****         3.3769   0.8337  -1.3191 H              1 S1                 0.0000
     33 ****         2.4231   2.2915  -1.1856 H              1 S1                 0.0000
     34 ****         4.8590   2.7639  -0.9261 H              1 S1                 0.0000
     35 ****         3.9653   3.2096   0.5080 H              1 S1                 0.0000
     36 ****         5.5892   0.6462   0.1245 H              1 S1                 0.0000
     37 ****         6.0198   1.9944   1.1503 H              1 S1                 0.0000
     38 ****         5.0202   0.1333   2.4699 H              1 S1                 0.0000
     39 ****         4.0676   1.5909   2.6015 H              1 S1                 0.0000
     40 ****         3.4829  -0.7769   0.7779 H              1 S1                 0.0000
     41 ****         1.9378   0.2053   3.2255 H              1 S1                 0.0000
     42 ****         3.0062  -1.1948   3.1933 H              1 S1                 0.0000
     43 ****         1.5334  -1.1964   2.2397 H              1 S1                 0.0000
     44 ****        -4.7224   0.9129  -2.2455 LP             1 S1                 0.0000
     45 ****        -1.5852   1.6380   0.7908 LP             1 S1                 0.0000
     46 ****         0.0385   2.1197   1.1535 LP             1 S1                 0.0000
@<TRIPOS>BOND
    1    1    2 1     
    2    1   20 1     
    3    1   21 1     
    4    1   22 1     
    5    2    3 1     
    6    2    9 1     
    7    2   23 1     
    8    3    4 1     
    9    3   24 1     
   10    3   25 1     
   11    4    8 1     
   12    4    5 1     
   13    5    6 2     
   14    5   26 1     
   15    6    7 1     
   16    6   27 1     
   17    7    8 2     
   18    7   28 1     
   19    9   10 am    
   20    9   29 1     
   21   10   11 2     
   22   10   12 am    
   23   12   13 1     
   24   12   30 1     
   25   13   18 1     
   26   13   14 1     
   27   13   31 1     
   28   14   15 1     
   29   14   32 1     
   30   14   33 1     
   31   15   16 1     
   32   15   34 1     
   33   15   35 1     
   34   16   17 1     
   35   16   36 1     
   36   16   37 1     
   37   17   18 1     
   38   17   38 1     
   39   17   39 1     
   40   18   19 1     
   41   18   40 1     
   42   19   41 1     
   43   19   42 1     
   44   19   43 1     
   45    8   44 1     
   46   11   45 1     
   47   11   46 1     
@<TRIPOS>SUBSTRUCTURE
      1 S1             1
@<TRIPOS>SET
LONE_PAIRS      STATIC     ATOMS    <user>   **** ""
3 44 45 46
DONOR_HYDROGENS      STATIC     ATOMS    <user>   **** ""
2 29 30
ATOM$BLUE        STATIC     ATOMS    COLORGROUP SYSTEM
3 44 45 46
ATOM$RED        STATIC     ATOMS    COLORGROUP SYSTEM
2 29 30
