#       Name:                AV-unprocessed.smi:823
#       Creating user name   scv26
#       Creation time:       Fri Mar 27 01:29:21 2020


#       File generated by GOLD software.
#

@<TRIPOS>MOLECULE
AV-unprocessed.smi:823
    54    55     1
SMALL
NO_CHARGES


@<TRIPOS>ATOM
      1 ****        -0.9870   5.4912   1.2620 C.3            1 S1                 0.0000
      2 ****        -1.8937   4.4457   0.6042 C.3            1 S1                 0.0000
      3 ****        -1.3940   3.0097   0.8521 C.3            1 S1                 0.0000
      4 ****        -2.3389   2.0365   0.3073 N.3            1 S1                 0.0000
      5 ****        -1.9215   0.6910   0.2095 C.ar           1 S1                 0.0000
      6 ****        -2.6976  -0.2457  -0.5142 C.ar           1 S1                 0.0000
      7 ****        -2.2593  -1.5808  -0.6005 C.ar           1 S1                 0.0000
      8 ****        -1.0557  -1.9505   0.0308 C.ar           1 S1                 0.0000
      9 ****        -0.5633  -3.3898  -0.0491 C.3            1 S1                 0.0000
     10 ****         0.8851  -3.5396   0.0471 N.am           1 S1                 0.0000
     11 ****         1.7543  -3.2408  -0.9302 C.2            1 S1                 0.0000
     12 ****         1.4081  -2.8362  -2.0413 O.2            1 S1                 0.0000
     13 ****         3.2422  -3.4259  -0.5951 C.3            1 S1                 0.0000
     14 ****         3.7830  -4.6113  -1.4121 C.3            1 S1                 0.0000
     15 ****         3.9961  -2.2314  -0.9713 N.am           1 S1                 0.0000
     16 ****         4.0561  -1.1019  -0.2501 C.2            1 S1                 0.0000
     17 ****         4.8003  -0.1642  -0.8370 N.am           1 S1                 0.0000
     18 ****         3.4939  -0.9339   0.8306 O.2            1 S1                 0.0000
     19 ****        -0.3491  -0.9498   0.7332 C.ar           1 S1                 0.0000
     20 ****        -0.7645   0.3312   0.8183 N.ar           1 S1                 0.0000
     21 ****        -3.7105   2.2453   0.7638 C.3            1 S1                 0.0000
     22 ****        -4.1361   3.7039   0.5263 C.3            1 S1                 0.0000
     23 ****        -3.2046   4.5853   1.1449 O.3            1 S1                 0.0000
     24 ****         0.0296   5.4290   0.8726 H              1 S1                 0.0000
     25 ****        -0.9411   5.3499   2.3422 H              1 S1                 0.0000
     26 ****        -1.3543   6.5001   1.0732 H              1 S1                 0.0000
     27 ****        -1.9272   4.6419  -0.4693 H              1 S1                 0.0000
     28 ****        -0.4153   2.8836   0.3870 H              1 S1                 0.0000
     29 ****        -1.2726   2.8322   1.9218 H              1 S1                 0.0000
     30 ****        -3.6088   0.0448  -1.0152 H              1 S1                 0.0000
     31 ****        -2.8384  -2.3074  -1.1512 H              1 S1                 0.0000
     32 ****        -1.0173  -3.9510   0.7678 H              1 S1                 0.0000
     33 ****        -0.9165  -3.8497  -0.9737 H              1 S1                 0.0000
     34 ****         1.2545  -3.8669   0.9281 H              1 S1                 0.0000
     35 ****         3.3721  -3.6272   0.4703 H              1 S1                 0.0000
     36 ****         3.2538  -5.5336  -1.1688 H              1 S1                 0.0000
     37 ****         4.8395  -4.7791  -1.2001 H              1 S1                 0.0000
     38 ****         3.6859  -4.4451  -2.4863 H              1 S1                 0.0000
     39 ****         4.4882  -2.2633  -1.8518 H              1 S1                 0.0000
     40 ****         4.9299   0.7332  -0.3940 H              1 S1                 0.0000
     41 ****         5.2371  -0.3604  -1.7259 H              1 S1                 0.0000
     42 ****         0.5753  -1.1747   1.2447 H              1 S1                 0.0000
     43 ****        -4.4126   1.5852   0.2567 H              1 S1                 0.0000
     44 ****        -3.7657   2.0095   1.8274 H              1 S1                 0.0000
     45 ****        -4.2045   3.9199  -0.5412 H              1 S1                 0.0000
     46 ****        -5.1249   3.8797   0.9499 H              1 S1                 0.0000
     47 ****        -2.3435   2.2642  -0.6664 LP             1 S1                 0.0000
     48 ****         0.4374  -2.7163  -2.2496 LP             1 S1                 0.0000
     49 ****         2.0978  -2.6277  -2.7347 LP             1 S1                 0.0000
     50 ****         2.9457  -1.6694   1.2287 LP             1 S1                 0.0000
     51 ****         3.5849  -0.0618   1.3113 LP             1 S1                 0.0000
     52 ****        -0.2264   1.0060   1.3234 LP             1 S1                 0.0000
     53 ****        -3.5115   5.5270   1.0073 LP             1 S1                 0.0000
     54 ****        -3.1725   4.3849   2.1241 LP             1 S1                 0.0000
@<TRIPOS>BOND
    1    1    2 1     
    2    1   24 1     
    3    1   25 1     
    4    1   26 1     
    5    2   23 1     
    6    2    3 1     
    7    2   27 1     
    8    3    4 1     
    9    3   28 1     
   10    3   29 1     
   11    4    5 1     
   12    4   21 1     
   13    5   20 ar    
   14    5    6 ar    
   15    6    7 ar    
   16    6   30 1     
   17    7    8 ar    
   18    7   31 1     
   19    8    9 1     
   20    8   19 ar    
   21    9   10 1     
   22    9   32 1     
   23    9   33 1     
   24   10   11 am    
   25   10   34 1     
   26   11   12 2     
   27   11   13 1     
   28   13   14 1     
   29   13   15 1     
   30   13   35 1     
   31   14   36 1     
   32   14   37 1     
   33   14   38 1     
   34   15   16 am    
   35   15   39 1     
   36   16   17 am    
   37   16   18 2     
   38   17   40 1     
   39   17   41 1     
   40   19   20 ar    
   41   19   42 1     
   42   21   22 1     
   43   21   43 1     
   44   21   44 1     
   45   22   23 1     
   46   22   45 1     
   47   22   46 1     
   48    4   47 1     
   49   12   48 1     
   50   12   49 1     
   51   18   50 1     
   52   18   51 1     
   53   20   52 1     
   54   23   53 1     
   55   23   54 1     
@<TRIPOS>SUBSTRUCTURE
      1 S1             1
@<TRIPOS>SET
LONE_PAIRS      STATIC     ATOMS    <user>   **** ""
8 47 48 49 50 51 52 53 54
DONOR_HYDROGENS      STATIC     ATOMS    <user>   **** ""
4 34 39 40 41
ATOM$BLUE        STATIC     ATOMS    COLORGROUP SYSTEM
8 47 48 49 50 51 52 53 54
ATOM$RED        STATIC     ATOMS    COLORGROUP SYSTEM
4 34 39 40 41
