AV-unprocessed.smi:895|AV-procd|sdf|4075|dock10
  -GOLD-   22720 1563D 1   1.00000     0.00000
 Structure written by MMmdl.
 44 45  0  0  0  0  0  0  0  0  1 V2000
  145.4185  131.8751  151.2755 C   0  0  0  0  0  0  0  0  0  0  0  0
  146.1955  133.0848  151.8294 C   0  0  0  0  0  0  0  0  0  0  0  0
  146.2072  133.0507  153.3669 C   0  0  0  0  0  0  0  0  0  0  0  0
  147.5448  132.9687  151.4220 O   0  0  0  0  0  0  0  0  0  0  0  0
  145.6637  134.4521  151.3354 C   0  0  0  0  0  0  0  0  0  0  0  0
  146.4492  135.5870  151.8175 N   0  0  0  0  0  0  0  0  0  0  0  0
  145.9687  136.6318  152.5056 C   0  0  0  0  0  0  0  0  0  0  0  0
  144.7846  136.7747  152.8110 O   0  0  0  0  0  0  0  0  0  0  0  0
  146.9364  137.5019  152.8248 N   0  0  0  0  0  0  0  0  0  0  0  0
  146.7471  138.7298  153.5953 C   0  0  2  0  0  0  0  0  0  0  0  0
  146.9805  139.9572  152.6917 C   0  0  0  0  0  0  0  0  0  0  0  0
  146.7883  141.2676  153.4704 C   0  0  0  0  0  0  0  0  0  0  0  0
  147.7023  141.3299  154.7033 C   0  0  0  0  0  0  0  0  0  0  0  0
  147.4986  140.1078  155.6181 C   0  0  0  0  0  0  0  0  0  0  0  0
  147.6177  138.7510  154.8848 C   0  0  2  0  0  0  0  0  0  0  0  0
  149.0076  138.3417  154.6716 N   0  0  0  0  0  0  0  0  0  0  0  0
  149.9630  138.9923  153.9160 C   0  0  0  0  0  0  0  0  0  0  0  0
  151.1212  138.2749  154.0032 C   0  0  0  0  0  0  0  0  0  0  0  0
  150.7771  137.1840  154.8475 C   0  0  0  0  0  0  0  0  0  0  0  0
  149.5173  137.2281  155.2457 N   0  0  0  0  0  0  0  0  0  0  0  0
  144.3600  131.9404  151.5294 H   0  0  0  0  0  0  0  0  0  0  0  0
  145.7980  130.9394  151.6871 H   0  0  0  0  0  0  0  0  0  0  0  0
  145.4951  131.8014  150.1903 H   0  0  0  0  0  0  0  0  0  0  0  0
  145.1971  133.1313  153.7699 H   0  0  0  0  0  0  0  0  0  0  0  0
  146.7923  133.8738  153.7795 H   0  0  0  0  0  0  0  0  0  0  0  0
  146.6371  132.1213  153.7429 H   0  0  0  0  0  0  0  0  0  0  0  0
  147.6671  132.1161  151.0333 H   0  0  0  0  0  0  0  0  0  0  0  0
  145.6336  134.4603  150.2443 H   0  0  0  0  0  0  0  0  0  0  0  0
  144.6310  134.5930  151.6567 H   0  0  0  0  0  0  0  0  0  0  0  0
  147.4392  135.5653  151.6217 H   0  0  0  0  0  0  0  0  0  0  0  0
  147.8796  137.2933  152.5314 H   0  0  0  0  0  0  0  0  0  0  0  0
  145.7008  138.7679  153.9053 H   0  0  0  0  0  0  0  0  0  0  0  0
  147.9784  139.9320  152.2545 H   0  0  0  0  0  0  0  0  0  0  0  0
  146.2854  139.9329  151.8517 H   0  0  0  0  0  0  0  0  0  0  0  0
  146.9860  142.1190  152.8184 H   0  0  0  0  0  0  0  0  0  0  0  0
  145.7474  141.3548  153.7842 H   0  0  0  0  0  0  0  0  0  0  0  0
  148.7424  141.4022  154.3876 H   0  0  0  0  0  0  0  0  0  0  0  0
  147.4979  142.2425  155.2639 H   0  0  0  0  0  0  0  0  0  0  0  0
  148.1968  140.1462  156.4551 H   0  0  0  0  0  0  0  0  0  0  0  0
  146.5029  140.1745  156.0583 H   0  0  0  0  0  0  0  0  0  0  0  0
  147.1976  138.0056  155.5621 H   0  0  0  0  0  0  0  0  0  0  0  0
  149.7422  139.9067  153.3849 H   0  0  0  0  0  0  0  0  0  0  0  0
  152.0693  138.4968  153.5363 H   0  0  0  0  0  0  0  0  0  0  0  0
  151.4008  136.3682  155.1821 H   0  0  0  0  0  0  0  0  0  0  0  0
  1  2  1  0  0  0  0
  1 21  1  0  0  0  0
  1 22  1  0  0  0  0
  1 23  1  0  0  0  0
  2  3  1  0  0  0  0
  2  4  1  0  0  0  0
  2  5  1  0  0  0  0
  3 24  1  0  0  0  0
  3 25  1  0  0  0  0
  3 26  1  0  0  0  0
  4 27  1  0  0  0  0
  5  6  1  0  0  0  0
  5 28  1  0  0  0  0
  5 29  1  0  0  0  0
  6  7  1  0  0  0  0
  6 30  1  0  0  0  0
  7  8  2  0  0  0  0
  7  9  1  0  0  0  0
  9 10  1  0  0  0  0
  9 31  1  0  0  0  0
 10 15  1  0  0  0  0
 10 11  1  0  0  0  0
 10 32  1  0  0  0  0
 11 12  1  0  0  0  0
 11 33  1  0  0  0  0
 11 34  1  0  0  0  0
 12 13  1  0  0  0  0
 12 35  1  0  0  0  0
 12 36  1  0  0  0  0
 13 14  1  0  0  0  0
 13 37  1  0  0  0  0
 13 38  1  0  0  0  0
 14 15  1  0  0  0  0
 14 39  1  0  0  0  0
 14 40  1  0  0  0  0
 15 16  1  0  0  0  0
 15 41  1  0  0  0  0
 16 20  1  0  0  0  0
 16 17  1  0  0  0  0
 17 18  2  0  0  0  0
 17 42  1  0  0  0  0
 18 19  1  0  0  0  0
 18 43  1  0  0  0  0
 19 20  2  0  0  0  0
 19 44  1  0  0  0  0
M  END
> <s_m_source_file>
AV-unprocessed.smi

> <i_m_source_file_index>
895

> <i_lp_mmshare_version>
43012

> <i_f3d_flags>
0

> <s_epik_input>
W0NIM11DKFtDSDNdKShbT0hdKVtDSDJdW05IXUMoPU8pW05IXVtDQEBIXTFbQ0gyXVtDSDJdW0NIMl1bQ0gyXVtDQEhdMW4yW2NIXVtjSF1bY0hdbjI=

> <s_epik_cmdline>
J2VwaWtfcHl0aG9uJywgJy1waCcsICc3LjAnLCAnLXRuJywgJzgnLCAnLW1hJywgJzIwMCcsICctbWV0YWxfYmluZGluZycsICctaW1hZScsICc8aW5maWxlLm1hZT4nLCAnLW9tYWUnLCAnPG91dGZpbGUubWFlPic=

> <r_lp_tautomer_probability>
1

> <r_epik_Ionization_Penalty>
0.000440451

> <r_epik_Ionization_Penalty_Charging>
0

> <r_epik_Ionization_Penalty_Neutral>
0.000440451

> <r_epik_State_Penalty>
-0

> <r_epik_Charging_Adjusted_Penalty>
0

> <i_epik_Tot_Q>
0

> <i_epik_Tot_abs_Q>
0

> <r_epik_Metal_State_Penalty>
-0

> <b_epik_Metal_Only>
0

> <s_lp_Force_Field>
OPLS_2005

> <r_lp_Energy>
14.0773

> <b_lp_Chiralities_Consistent>
1

> <s_lp_Variant>
AV-unprocessed.smi:895-3

> <Gold.Version>
5.8.1

> <Gold.Id.Protein>
6NUR|6NUR_protein|mol2

> <Gold.PLP.Fitness>
40.2577

> <Gold.PLP.PLP>
-29.1898

> <Gold.PLP.part.hbond>
-3.0000

> <Gold.PLP.part.metal>
0.0000

> <Gold.PLP.part.buried>
-2.5661

> <Gold.PLP.part.nonpolar>
-23.5122

> <Gold.PLP.part.repulsive>
0.4049

> <Gold.PLP.ligand.clash>
0.0000

> <Gold.PLP.ligand.torsion>
0.0777

> <Gold.PLP.Chemscore.Hbond>
2.7956

> <Gold.PLP.Chemscore.CHOScore>
0.9128

> <Gold.PLP.Chemscore.Metal>
0.0000

> <Gold.Chemscore.Hbonds>
donor molecule, donor type, donor heavy atom, donor atom, acceptor molecule, acceptor atom, score
      L1  H     4    27       P1 10747  0.90
      L1  H     6    30       P1  7948  1.00
      L1  H     9    31       P1  7948  0.99
      L1  C    17    42       P1  7957  0.87

> <Gold.PLP.Chemscore.Internal.Correction>
0.0981

> <Gold.Rescore>
     Score         DG    S(hbond)    S(metal)    S(lipo)     H(rot)  DE(clash)    DE(int)     intcor
     16.76     -17.32       2.67        0.00      72.88       2.19       0.45       0.11       ----

> <Gold.Chemscore.Fitness>
16.7558

> <Gold.Chemscore.DG>
-17.3189

> <Gold.Chemscore.ZeroCoef>
-5.4800

> <Gold.Chemscore.Hbond>
2.6717

> <Gold.Chemscore.Metal>
0.0000

> <Gold.Chemscore.Lipo>
72.8786

> <Gold.Chemscore.Internal_Hbond>
0.0000

> <Gold.Chemscore.DEClash>
0.4508

> <Gold.Chemscore.DEInternal>
0.1123

> <Gold.Chemscore.Rot>
2.1919

> <Gold.Chemscore.Internal.Correction>
   9.000000E+99

> <Gold.Chemscore.Hbonds>
donor molecule, donor type, donor heavy atom, donor atom, acceptor molecule, acceptor atom, score
      L1  H     4    27       P1 10747  0.87
      L1  H     6    30       P1  7948  0.92
      L1  H     9    31       P1  7948  0.94

> <Gold.Chemscore.Hbond.Weighted>
-8.9234

> <Gold.Chemscore.Metal.Weighted>
-0.0000

> <Gold.Chemscore.Lipo.Weighted>
-8.5268

> <Gold.Chemscore.Internal_Hbond.Weighted>
0.0000

> <Gold.Chemscore.DEClash.Weighted>
0.4508

> <Gold.Chemscore.DEInternal.Weighted>
0.1123

> <Gold.Chemscore.Rot.Weighted>
5.6113

> <Gold.Chemscore.Internal.Correction.Weighted>
   9.000000E+99

> <Gold.Protein.RotatedTorsions>
[ 6907 6896 6895 6894 ] final  150.04 input  -60.11 | X-H torsion
[ 7974 7965 7964 7962 ] final   79.26 input  175.53 | X-H torsion
[ 8008 7997 7996 7995 ] final   74.33 input   59.86 | X-H torsion
[ 10167 10162 10161 10158 ] final  120.96 input  -65.29 | X-H torsion
[ 10718 10713 10712 10709 ] final  -16.07 input   66.30 | X-H torsion
[ 10763 10752 10751 10750 ] final  177.38 input  -60.55 | X-H torsion
[ 11005 11000 10999 10996 ] final  -27.38 input  -57.11 | X-H torsion

> <Gold.Protein.ActiveResidues>
 VAL166  LYS551  ARG553  GLY616  TRP617  ASP618  TYR619  PRO620  LYS621  CYS622 
 ASP623  PHE694  ASN695  SER759  ASP760  ASP761  ALA762  ILE779  LEU786  VAL792 
 PHE793  MET794  SER795  GLU796  ALA797  LYS798  CYS799  TRP800  GLU811  SER814 

> <Gold.Protein.RotatedAtoms>
  152.1198  133.4347  159.4669 H   0  0  0  0  0  0  0  0  0  0  0  0  # atno 6907 bound_to 6896
  150.6871  134.2549  159.4535 H   0  0  0  0  0  0  0  0  0  0  0  0  # atno 6908 bound_to 6896
  152.0424  134.9703  160.0624 H   0  0  0  0  0  0  0  0  0  0  0  0  # atno 6909 bound_to 6896
  145.6665  139.2485  143.1893 H   0  0  0  0  0  0  0  0  0  0  0  0  # atno 7974 bound_to 7965
  155.7967  140.3477  155.5380 H   0  0  0  0  0  0  0  0  0  0  0  0  # atno 8008 bound_to 7997
  155.8579  140.0966  157.1653 H   0  0  0  0  0  0  0  0  0  0  0  0  # atno 8009 bound_to 7997
  154.4010  140.1364  156.3912 H   0  0  0  0  0  0  0  0  0  0  0  0  # atno 8010 bound_to 7997
  139.5949  144.7038  151.3199 H   0  0  0  0  0  0  0  0  0  0  0  0  # atno 10167 bound_to 10162
  156.5928  130.4803  149.6272 H   0  0  0  0  0  0  0  0  0  0  0  0  # atno 10718 bound_to 10713
  154.4937  135.2780  155.1476 H   0  0  0  0  0  0  0  0  0  0  0  0  # atno 10763 bound_to 10752
  154.3137  135.6224  153.5480 H   0  0  0  0  0  0  0  0  0  0  0  0  # atno 10764 bound_to 10752
  152.9892  135.5726  154.5364 H   0  0  0  0  0  0  0  0  0  0  0  0  # atno 10765 bound_to 10752
  140.9114  133.7458  156.0676 H   0  0  0  0  0  0  0  0  0  0  0  0  # atno 11005 bound_to 11000
  146.1082  140.7461  142.9516 LP  0  0  0  0  0  0  0  0  0  0  0  0  # atno 17320 bound_to 7965
  144.7071  140.3896  143.7109 LP  0  0  0  0  0  0  0  0  0  0  0  0  # atno 17321 bound_to 7965
  140.7204  143.7152  150.7739 LP  0  0  0  0  0  0  0  0  0  0  0  0  # atno 17342 bound_to 10162
  140.0716  143.5056  152.2577 LP  0  0  0  0  0  0  0  0  0  0  0  0  # atno 17343 bound_to 10162
  156.2535  130.6921  151.1666 LP  0  0  0  0  0  0  0  0  0  0  0  0  # atno 17370 bound_to 10713
  157.7299  131.0620  150.5751 LP  0  0  0  0  0  0  0  0  0  0  0  0  # atno 17371 bound_to 10713
  140.8105  134.3405  157.5413 LP  0  0  0  0  0  0  0  0  0  0  0  0  # atno 17394 bound_to 11000
  139.8758  134.9251  156.3366 LP  0  0  0  0  0  0  0  0  0  0  0  0  # atno 17395 bound_to 11000

$$$$
