AV-unprocessed.smi:109|AV-procd|sdf|1036|dock2
  -GOLD-   2262018 53D 1   1.00000     0.00000
 Structure written by MMmdl.
 58 61  0  0  0  0  0  0  0  0  1 V2000
  149.7416  140.8577  153.8265 O   0  0  0  0  0  0  0  0  0  0  0  0
  149.9133  141.1729  155.1913 C   0  0  0  0  0  0  0  0  0  0  0  0
  150.4156  139.9367  155.9541 C   0  0  0  0  0  0  0  0  0  0  0  0
  150.5909  140.1923  157.4679 C   0  0  1  0  0  0  0  0  0  0  0  0
  150.9894  138.9538  158.1367 N   0  0  0  0  0  0  0  0  0  0  0  0
  150.1229  137.9310  158.3115 C   0  0  0  0  0  0  0  0  0  0  0  0
  149.6076  137.6418  159.5346 N   0  0  0  0  0  0  0  0  0  0  0  0
  148.7528  136.6251  159.6756 C   0  0  0  0  0  0  0  0  0  0  0  0
  148.2905  135.7895  158.7434 N   0  0  0  0  0  0  0  0  0  0  0  0
  148.8008  136.0750  157.5107 C   0  0  0  0  0  0  0  0  0  0  0  0
  149.7166  137.1244  157.2173 C   0  0  0  0  0  0  0  0  0  0  0  0
  150.0193  137.1211  155.8629 N   0  0  0  0  0  0  0  0  0  0  0  0
  149.3180  136.1283  155.3867 C   0  0  0  0  0  0  0  0  0  0  0  0
  148.5624  135.4364  156.3080 N   0  0  0  0  0  0  0  0  0  0  0  0
  147.6581  134.2732  156.0352 C   0  0  2  0  0  0  0  0  0  0  0  0
  147.8794  133.8459  154.7232 O   0  0  0  0  0  0  0  0  0  0  0  0
  146.7041  134.0114  153.9311 C   0  0  1  0  0  0  0  0  0  0  0  0
  146.6471  132.9697  152.7995 C   0  0  0  0  0  0  0  0  0  0  0  0
  147.9231  132.3997  152.5995 O   0  0  0  0  0  0  0  0  0  0  0  0
  145.5667  133.9388  154.9581 C   0  0  1  0  0  0  0  0  0  0  0  0
  145.2358  132.5875  155.2407 O   0  0  0  0  0  0  0  0  0  0  0  0
  146.1751  134.6544  156.1603 C   0  0  1  0  0  0  0  0  0  0  0  0
  145.5850  134.2336  157.3761 O   0  0  0  0  0  0  0  0  0  0  0  0
  151.5773  141.3447  157.8060 C   0  0  0  0  0  0  0  0  0  0  0  0
  152.2109  141.2007  159.2070 C   0  0  0  0  0  0  0  0  0  0  0  0
  153.2635  142.2922  159.4605 C   0  0  0  0  0  0  0  0  0  0  0  0
  152.6636  143.6954  159.2786 C   0  0  0  0  0  0  0  0  0  0  0  0
  152.0231  143.8497  157.8902 C   0  0  0  0  0  0  0  0  0  0  0  0
  150.9719  142.7566  157.6359 C   0  0  0  0  0  0  0  0  0  0  0  0
  147.9712  133.4928  156.7300 H   0  0  0  0  0  0  0  0  0  0  0  0
  146.7026  135.0131  153.5017 H   0  0  0  0  0  0  0  0  0  0  0  0
  144.6674  134.4427  154.6025 H   0  0  0  0  0  0  0  0  0  0  0  0
  146.0515  135.7315  156.0473 H   0  0  0  0  0  0  0  0  0  0  0  0
  149.4156  139.9729  153.7616 H   0  0  0  0  0  0  0  0  0  0  0  0
  150.6259  141.9938  155.2781 H   0  0  0  0  0  0  0  0  0  0  0  0
  148.9619  141.5223  155.5931 H   0  0  0  0  0  0  0  0  0  0  0  0
  149.7297  139.1047  155.7900 H   0  0  0  0  0  0  0  0  0  0  0  0
  151.3663  139.6378  155.5149 H   0  0  0  0  0  0  0  0  0  0  0  0
  149.6095  140.4817  157.8458 H   0  0  0  0  0  0  0  0  0  0  0  0
  151.9173  138.9541  158.5355 H   0  0  0  0  0  0  0  0  0  0  0  0
  148.3872  136.4570  160.6777 H   0  0  0  0  0  0  0  0  0  0  0  0
  149.3346  135.8705  154.3376 H   0  0  0  0  0  0  0  0  0  0  0  0
  145.9141  132.1906  153.0106 H   0  0  0  0  0  0  0  0  0  0  0  0
  146.3551  133.4481  151.8639 H   0  0  0  0  0  0  0  0  0  0  0  0
  147.9800  132.0962  151.7064 H   0  0  0  0  0  0  0  0  0  0  0  0
  144.3035  132.4809  155.1252 H   0  0  0  0  0  0  0  0  0  0  0  0
  146.2160  133.7132  157.8493 H   0  0  0  0  0  0  0  0  0  0  0  0
  152.4048  141.2717  157.0991 H   0  0  0  0  0  0  0  0  0  0  0  0
  151.4475  141.2654  159.9817 H   0  0  0  0  0  0  0  0  0  0  0  0
  152.6732  140.2184  159.3091 H   0  0  0  0  0  0  0  0  0  0  0  0
  153.6696  142.1899  160.4672 H   0  0  0  0  0  0  0  0  0  0  0  0
  154.1013  142.1597  158.7746 H   0  0  0  0  0  0  0  0  0  0  0  0
  151.9126  143.8743  160.0491 H   0  0  0  0  0  0  0  0  0  0  0  0
  153.4367  144.4515  159.4183 H   0  0  0  0  0  0  0  0  0  0  0  0
  151.5644  144.8346  157.8001 H   0  0  0  0  0  0  0  0  0  0  0  0
  152.7963  143.7981  157.1226 H   0  0  0  0  0  0  0  0  0  0  0  0
  150.5646  142.8767  156.6316 H   0  0  0  0  0  0  0  0  0  0  0  0
  150.1401  142.8963  158.3265 H   0  0  0  0  0  0  0  0  0  0  0  0
  1  2  1  0  0  0  0
  1 34  1  0  0  0  0
  2  3  1  0  0  0  0
  2 35  1  0  0  0  0
  2 36  1  0  0  0  0
  3  4  1  0  0  0  0
  3 37  1  0  0  0  0
  3 38  1  0  0  0  0
  4  5  1  0  0  0  0
  4 24  1  0  0  0  0
  4 39  1  0  0  0  0
  5  6  1  0  0  0  0
  5 40  1  0  0  0  0
  6 11  1  0  0  0  0
  6  7  2  0  0  0  0
  7  8  1  0  0  0  0
  8  9  2  0  0  0  0
  8 41  1  0  0  0  0
  9 10  1  0  0  0  0
 10 14  1  0  0  0  0
 10 11  2  0  0  0  0
 11 12  1  0  0  0  0
 12 13  2  0  0  0  0
 13 14  1  0  0  0  0
 13 42  1  0  0  0  0
 14 15  1  0  0  0  0
 15 30  1  0  0  0  0
 15 22  1  0  0  0  0
 15 16  1  0  0  0  0
 16 17  1  0  0  0  0
 17 31  1  0  0  0  0
 17 18  1  0  0  0  0
 17 20  1  0  0  0  0
 18 19  1  0  0  0  0
 18 43  1  0  0  0  0
 18 44  1  0  0  0  0
 19 45  1  0  0  0  0
 20 32  1  0  0  0  0
 20 21  1  0  0  0  0
 20 22  1  0  0  0  0
 21 46  1  0  0  0  0
 22 33  1  0  0  0  0
 22 23  1  0  0  0  0
 23 47  1  0  0  0  0
 24 29  1  0  0  0  0
 24 25  1  0  0  0  0
 24 48  1  0  0  0  0
 25 26  1  0  0  0  0
 25 49  1  0  0  0  0
 25 50  1  0  0  0  0
 26 27  1  0  0  0  0
 26 51  1  0  0  0  0
 26 52  1  0  0  0  0
 27 28  1  0  0  0  0
 27 53  1  0  0  0  0
 27 54  1  0  0  0  0
 28 29  1  0  0  0  0
 28 55  1  0  0  0  0
 28 56  1  0  0  0  0
 29 57  1  0  0  0  0
 29 58  1  0  0  0  0
M  END
> <s_m_source_file>
AV-unprocessed.smi

> <i_m_source_file_index>
109

> <i_lp_mmshare_version>
43012

> <i_f3d_flags>
0

> <s_epik_input>
W0NIMl0xW0NIMl1bQ0gyXVtDSDJdW0NIMl1bQ0hdMVtDQEhdKFtDSDJdW0NIMl1bT0hdKVtOSF1jKG5bY0hdbjIpYyhjMjMpbltjSF1uM1tDQEBIXTRPW0NASF0oW0NIMl1bT0hdKVtDQEBIXShbT0hdKVtDQEhdNFtPSF0=

> <s_epik_cmdline>
J2VwaWtfcHl0aG9uJywgJy1waCcsICc3LjAnLCAnLXRuJywgJzgnLCAnLW1hJywgJzIwMCcsICctbWV0YWxfYmluZGluZycsICctaW1hZScsICc8aW5maWxlLm1hZT4nLCAnLW9tYWUnLCAnPG91dGZpbGUubWFlPic=

> <r_lp_tautomer_probability>
1

> <r_epik_Ionization_Penalty>
0.000793976

> <r_epik_Ionization_Penalty_Charging>
0

> <r_epik_Ionization_Penalty_Neutral>
0.000793976

> <r_epik_State_Penalty>
-0

> <r_epik_Charging_Adjusted_Penalty>
0

> <i_epik_Tot_Q>
0

> <i_epik_Tot_abs_Q>
0

> <r_epik_Metal_State_Penalty>
-0

> <b_epik_Metal_Only>
0

> <s_epik_Chemistry_Notes>
This compound contains an acetal/aminal-like group ( X-CH(R)-Y where X, Y are N, S, or O) that may be acid/base labile, releasing an aldehyde.

> <s_lp_Force_Field>
OPLS_2005

> <r_lp_Energy>
57.9321

> <b_lp_Chiralities_Consistent>
1

> <s_lp_Variant>
AV-unprocessed.smi:109-6

> <Gold.Version>
5.8.1

> <Gold.Id.Protein>
6NUR|6NUR_protein|mol2

> <Gold.PLP.Fitness>
48.1822

> <Gold.PLP.PLP>
-40.0939

> <Gold.PLP.part.hbond>
-5.8806

> <Gold.PLP.part.metal>
0.0000

> <Gold.PLP.part.buried>
-6.0942

> <Gold.PLP.part.nonpolar>
-29.0939

> <Gold.PLP.part.repulsive>
0.2056

> <Gold.PLP.ligand.clash>
0.0000

> <Gold.PLP.ligand.torsion>
2.2167

> <Gold.PLP.Chemscore.Hbond>
3.0108

> <Gold.PLP.Chemscore.CHOScore>
1.0000

> <Gold.PLP.Chemscore.Metal>
0.0000

> <Gold.Chemscore.Hbonds>
donor molecule, donor type, donor heavy atom, donor atom, acceptor molecule, acceptor atom, score
      L1  H    19    45       P1 10747  0.71
      L1  H    21    46       P1 10957  1.00
      P1  H  7989  7998       L1     1  0.31
      P1  H  8011  8017       L1     1  0.66
      L1  C    13    42       P1  7948  1.00

> <Gold.PLP.Chemscore.Internal.Correction>
0.4892

> <Gold.Rescore>
     Score         DG    S(hbond)    S(metal)    S(lipo)     H(rot)  DE(clash)    DE(int)     intcor
      7.34     -10.86       2.94        0.00      81.62       5.47       0.05       3.48       ----

> <Gold.Chemscore.Fitness>
7.3412

> <Gold.Chemscore.DG>
-10.8644

> <Gold.Chemscore.ZeroCoef>
-5.4800

> <Gold.Chemscore.Hbond>
2.9426

> <Gold.Chemscore.Metal>
0.0000

> <Gold.Chemscore.Lipo>
81.6198

> <Gold.Chemscore.Internal_Hbond>
0.0000

> <Gold.Chemscore.DEClash>
0.0465

> <Gold.Chemscore.DEInternal>
3.4766

> <Gold.Chemscore.Rot>
5.4662

> <Gold.Chemscore.Internal.Correction>
   9.000000E+99

> <Gold.Chemscore.Hbonds>
donor molecule, donor type, donor heavy atom, donor atom, acceptor molecule, acceptor atom, score
      L1  H    19    45       P1 10747  0.66
      L1  H    21    46       P1 10957  0.98
      P1  H  7989  7998       L1     1  0.03
      P1  H  8011  8017       L1     1  0.62

> <Gold.Chemscore.Hbond.Weighted>
-9.8284

> <Gold.Chemscore.Metal.Weighted>
-0.0000

> <Gold.Chemscore.Lipo.Weighted>
-9.5495

> <Gold.Chemscore.Internal_Hbond.Weighted>
0.0000

> <Gold.Chemscore.DEClash.Weighted>
0.0465

> <Gold.Chemscore.DEInternal.Weighted>
3.4766

> <Gold.Chemscore.Rot.Weighted>
13.9935

> <Gold.Chemscore.Internal.Correction.Weighted>
   9.000000E+99

> <Gold.Protein.RotatedTorsions>
[ 6907 6896 6895 6894 ] final   40.75 input  -60.11 | X-H torsion
[ 7974 7965 7964 7962 ] final  -63.95 input  175.53 | X-H torsion
[ 8008 7997 7996 7995 ] final  -18.00 input   59.86 | X-H torsion
[ 10167 10162 10161 10158 ] final  -86.11 input  -65.29 | X-H torsion
[ 10718 10713 10712 10709 ] final -163.91 input   66.30 | X-H torsion
[ 10763 10752 10751 10750 ] final   72.22 input  -60.55 | X-H torsion
[ 11005 11000 10999 10996 ] final  166.33 input  -57.11 | X-H torsion

> <Gold.Protein.ActiveResidues>
 VAL166  LYS551  ARG553  GLY616  TRP617  ASP618  TYR619  PRO620  LYS621  CYS622 
 ASP623  PHE694  ASN695  SER759  ASP760  ASP761  ALA762  ILE779  LEU786  VAL792 
 PHE793  MET794  SER795  GLU796  ALA797  LYS798  CYS799  TRP800  GLU811  SER814 

> <Gold.Protein.RotatedAtoms>
  152.1865  134.8709  160.0521 H   0  0  0  0  0  0  0  0  0  0  0  0  # atno 6907 bound_to 6896
  151.9613  133.3691  159.4044 H   0  0  0  0  0  0  0  0  0  0  0  0  # atno 6908 bound_to 6896
  150.6927  134.4161  159.5227 H   0  0  0  0  0  0  0  0  0  0  0  0  # atno 6909 bound_to 6896
  145.7727  140.8804  143.0371 H   0  0  0  0  0  0  0  0  0  0  0  0  # atno 7974 bound_to 7965
  154.4937  140.2127  155.9492 H   0  0  0  0  0  0  0  0  0  0  0  0  # atno 8008 bound_to 7997
  156.1341  140.3191  155.8362 H   0  0  0  0  0  0  0  0  0  0  0  0  # atno 8009 bound_to 7997
  155.4242  140.0499  157.3014 H   0  0  0  0  0  0  0  0  0  0  0  0  # atno 8010 bound_to 7997
  140.3973  143.2678  151.9188 H   0  0  0  0  0  0  0  0  0  0  0  0  # atno 10167 bound_to 10162
  156.6315  130.8931  151.2978 H   0  0  0  0  0  0  0  0  0  0  0  0  # atno 10718 bound_to 10713
  153.0446  135.5108  154.7711 H   0  0  0  0  0  0  0  0  0  0  0  0  # atno 10763 bound_to 10752
  154.6622  135.2940  154.9854 H   0  0  0  0  0  0  0  0  0  0  0  0  # atno 10764 bound_to 10752
  154.0701  135.6678  153.4876 H   0  0  0  0  0  0  0  0  0  0  0  0  # atno 10765 bound_to 10752
  140.2653  134.7870  157.3627 H   0  0  0  0  0  0  0  0  0  0  0  0  # atno 11005 bound_to 11000
  144.6810  139.9878  143.7484 LP  0  0  0  0  0  0  0  0  0  0  0  0  # atno 17320 bound_to 7965
  146.0154  139.3205  143.0845 LP  0  0  0  0  0  0  0  0  0  0  0  0  # atno 17321 bound_to 7965
  139.4786  144.5668  151.8151 LP  0  0  0  0  0  0  0  0  0  0  0  0  # atno 17342 bound_to 10162
  140.4777  144.1495  150.5927 LP  0  0  0  0  0  0  0  0  0  0  0  0  # atno 17343 bound_to 10162
  157.7198  130.9544  150.1395 LP  0  0  0  0  0  0  0  0  0  0  0  0  # atno 17370 bound_to 10713
  156.2231  130.3675  149.8533 LP  0  0  0  0  0  0  0  0  0  0  0  0  # atno 17371 bound_to 10713
  140.1425  134.4953  155.8021 LP  0  0  0  0  0  0  0  0  0  0  0  0  # atno 17394 bound_to 11000
  141.2185  133.6831  156.7235 LP  0  0  0  0  0  0  0  0  0  0  0  0  # atno 17395 bound_to 11000

$$$$
