AV-unprocessed.smi:1885|AV-procd|sdf|7652|dock2
  -GOLD-   22720 9383D 1   1.00000     0.00000
 Structure written by MMmdl.
 44 46  0  0  0  0  0  0  0  0  2 V2000
  143.9502  133.6448  151.0868 C   0  0  0  0  0  0  0  0  0  0  0  0
  144.0303  134.4358  152.2633 O   0  0  0  0  0  0  0  0  0  0  0  0
  144.7252  135.6245  152.1996 C   0  0  0  0  0  0  0  0  0  0  0  0
  145.4011  136.0920  151.0443 C   0  0  0  0  0  0  0  0  0  0  0  0
  146.0889  137.3210  151.0688 C   0  0  0  0  0  0  0  0  0  0  0  0
  146.1077  138.1050  152.2398 C   0  0  0  0  0  0  0  0  0  0  0  0
  146.8671  139.4185  152.2603 C   0  0  0  0  0  0  0  0  0  0  0  0
  147.0060  139.9360  153.5736 O   0  0  0  0  0  0  0  0  0  0  0  0
  148.3594  140.0925  153.9654 C   0  0  0  0  0  0  0  0  0  0  0  0
  148.4522  141.2495  154.9698 C   0  0  2  0  0  0  0  0  0  0  0  0
  147.6969  142.3399  154.4807 O   0  0  0  0  0  0  0  0  0  0  0  0
  149.9064  141.6974  155.2185 C   0  0  0  0  0  0  0  0  0  0  0  0
  150.5365  140.9817  156.3350 N   0  0  0  0  0  0  0  0  0  0  0  0
  150.6461  139.6464  156.5723 C   0  0  0  0  0  0  0  0  0  0  0  0
  151.3244  139.4921  157.7435 N   0  3  0  0  0  0  0  0  0  0  0  0
  151.6523  140.7473  158.2615 C   0  0  0  0  0  0  0  0  0  0  0  0
  152.3344  141.1076  159.4191 C   0  0  0  0  0  0  0  0  0  0  0  0
  152.5032  142.4884  159.6532 C   0  0  0  0  0  0  0  0  0  0  0  0
  153.1607  142.8939  160.7653 F   0  0  0  0  0  0  0  0  0  0  0  0
  152.0014  143.4527  158.7530 C   0  0  0  0  0  0  0  0  0  0  0  0
  152.1856  144.7683  159.0154 F   0  0  0  0  0  0  0  0  0  0  0  0
  151.3100  143.0750  157.5831 C   0  0  0  0  0  0  0  0  0  0  0  0
  151.1489  141.7085  157.3607 C   0  0  0  0  0  0  0  0  0  0  0  0
  145.4452  137.6395  153.3942 C   0  0  0  0  0  0  0  0  0  0  0  0
  144.7579  136.4109  153.3690 C   0  0  0  0  0  0  0  0  0  0  0  0
  143.3687  132.7470  151.2961 H   0  0  0  0  0  0  0  0  0  0  0  0
  144.9384  133.3267  150.7518 H   0  0  0  0  0  0  0  0  0  0  0  0
  143.4493  134.1811  150.2795 H   0  0  0  0  0  0  0  0  0  0  0  0
  145.4088  135.5249  150.1261 H   0  0  0  0  0  0  0  0  0  0  0  0
  146.6029  137.6609  150.1816 H   0  0  0  0  0  0  0  0  0  0  0  0
  147.8512  139.2520  151.8194 H   0  0  0  0  0  0  0  0  0  0  0  0
  146.3468  140.1456  151.6344 H   0  0  0  0  0  0  0  0  0  0  0  0
  148.7405  139.1705  154.4081 H   0  0  0  0  0  0  0  0  0  0  0  0
  148.9654  140.3103  153.0844 H   0  0  0  0  0  0  0  0  0  0  0  0
  147.9972  140.9347  155.9096 H   0  0  0  0  0  0  0  0  0  0  0  0
  148.0237  143.1332  154.8770 H   0  0  0  0  0  0  0  0  0  0  0  0
  150.5203  141.5510  154.3287 H   0  0  0  0  0  0  0  0  0  0  0  0
  149.9432  142.7634  155.4473 H   0  0  0  0  0  0  0  0  0  0  0  0
  150.2672  138.8532  155.9438 H   0  0  0  0  0  0  0  0  0  0  0  0
  152.7205  140.3730  160.1106 H   0  0  0  0  0  0  0  0  0  0  0  0
  150.9308  143.8198  156.8990 H   0  0  0  0  0  0  0  0  0  0  0  0
  145.4603  138.2204  154.3047 H   0  0  0  0  0  0  0  0  0  0  0  0
  144.2519  136.0666  154.2591 H   0  0  0  0  0  0  0  0  0  0  0  0
  151.5467  138.5945  158.1550 H   0  0  0  0  0  0  0  0  0  0  0  0
  1  2  1  0  0  0  0
  1 26  1  0  0  0  0
  1 27  1  0  0  0  0
  1 28  1  0  0  0  0
  2  3  1  0  0  0  0
  3 25  1  0  0  0  0
  3  4  2  0  0  0  0
  4  5  1  0  0  0  0
  4 29  1  0  0  0  0
  5  6  2  0  0  0  0
  5 30  1  0  0  0  0
  6  7  1  0  0  0  0
  6 24  1  0  0  0  0
  7  8  1  0  0  0  0
  7 31  1  0  0  0  0
  7 32  1  0  0  0  0
  8  9  1  0  0  0  0
  9 10  1  0  0  0  0
  9 33  1  0  0  0  0
  9 34  1  0  0  0  0
 10 11  1  0  0  0  0
 10 12  1  0  0  0  0
 10 35  1  0  0  0  0
 11 36  1  0  0  0  0
 12 13  1  0  0  0  0
 12 37  1  0  0  0  0
 12 38  1  0  0  0  0
 13 23  1  0  0  0  0
 13 14  1  0  0  0  0
 14 15  2  0  0  0  0
 14 39  1  0  0  0  0
 15 16  1  0  0  0  0
 15 44  1  0  0  0  0
 16 23  2  0  0  0  0
 16 17  1  0  0  0  0
 17 18  2  0  0  0  0
 17 40  1  0  0  0  0
 18 19  1  0  0  0  0
 18 20  1  0  0  0  0
 20 21  1  0  0  0  0
 20 22  2  0  0  0  0
 22 23  1  0  0  0  0
 22 41  1  0  0  0  0
 24 25  2  0  0  0  0
 24 42  1  0  0  0  0
 25 43  1  0  0  0  0
M  CHG  1  15   1
M  END
> <s_m_source_file>
AV-unprocessed.smi

> <i_m_source_file_index>
1885

> <i_lp_mmshare_version>
43012

> <i_f3d_flags>
0

> <s_epik_input>
W0NIM11PYzFbY0hdW2NIXWMoW2NIXVtjSF0xKVtDSDJdT1tDSDJdW0NASF0oW09IXSlbQ0gyXW4oW2NIXW4yKWMoYzIzKVtjSF1jKEYpYyhGKVtjSF0z

> <s_epik_cmdline>
J2VwaWtfcHl0aG9uJywgJy1waCcsICc3LjAnLCAnLXRuJywgJzgnLCAnLW1hJywgJzIwMCcsICctbWV0YWxfYmluZGluZycsICctaW1hZScsICc8aW5maWxlLm1hZT4nLCAnLW9tYWUnLCAnPG91dGZpbGUubWFlPic=

> <r_lp_tautomer_probability>
1

> <r_epik_Ionization_Penalty>
2.14697

> <r_epik_Ionization_Penalty_Charging>
2.14697

> <r_epik_Ionization_Penalty_Neutral>
9.74819e-07

> <r_epik_State_Penalty>
2.28651

> <r_epik_Charging_Adjusted_Penalty>
4.43348

> <i_epik_Tot_Q>
1

> <i_epik_Tot_abs_Q>
1

> <r_epik_Metal_State_Penalty>
6.36664

> <b_epik_Metal_Only>
0

> <s_lp_Force_Field>
OPLS_2005

> <r_lp_Energy>
20.6569

> <b_lp_Chiralities_Consistent>
1

> <s_lp_Variant>
AV-unprocessed.smi:1885-3

> <Gold.Version>
5.8.1

> <Gold.Id.Protein>
6NUR|6NUR_protein|mol2

> <Gold.PLP.Fitness>
51.2620

> <Gold.PLP.PLP>
-50.2315

> <Gold.PLP.part.hbond>
-1.0000

> <Gold.PLP.part.metal>
0.0000

> <Gold.PLP.part.buried>
1.3914

> <Gold.PLP.part.nonpolar>
-50.7740

> <Gold.PLP.part.repulsive>
0.3433

> <Gold.PLP.ligand.clash>
0.0000

> <Gold.PLP.ligand.torsion>
1.2165

> <Gold.PLP.Chemscore.Hbond>
1.0000

> <Gold.PLP.Chemscore.CHOScore>
0.0000

> <Gold.PLP.Chemscore.Metal>
0.0000

> <Gold.Chemscore.Hbonds>
donor molecule, donor type, donor heavy atom, donor atom, acceptor molecule, acceptor atom, score
      L1  H    11    36       P1  8028  1.00

> <Gold.PLP.Chemscore.Internal.Correction>
0.4634

> <Gold.Rescore>
     Score         DG    S(hbond)    S(metal)    S(lipo)     H(rot)  DE(clash)    DE(int)     intcor
     12.72     -15.12       0.90        0.00     123.08       3.03       1.31       1.09       ----

> <Gold.Chemscore.Fitness>
12.7208

> <Gold.Chemscore.DG>
-15.1236

> <Gold.Chemscore.ZeroCoef>
-5.4800

> <Gold.Chemscore.Hbond>
0.8965

> <Gold.Chemscore.Metal>
0.0000

> <Gold.Chemscore.Lipo>
123.0800

> <Gold.Chemscore.Internal_Hbond>
0.0000

> <Gold.Chemscore.DEClash>
1.3110

> <Gold.Chemscore.DEInternal>
1.0918

> <Gold.Chemscore.Rot>
3.0278

> <Gold.Chemscore.Internal.Correction>
   9.000000E+99

> <Gold.Chemscore.Hbonds>
donor molecule, donor type, donor heavy atom, donor atom, acceptor molecule, acceptor atom, score
      L1  H    11    36       P1  8028  0.90

> <Gold.Chemscore.Hbond.Weighted>
-2.9944

> <Gold.Chemscore.Metal.Weighted>
-0.0000

> <Gold.Chemscore.Lipo.Weighted>
-14.4004

> <Gold.Chemscore.Internal_Hbond.Weighted>
0.0000

> <Gold.Chemscore.DEClash.Weighted>
1.3110

> <Gold.Chemscore.DEInternal.Weighted>
1.0918

> <Gold.Chemscore.Rot.Weighted>
7.7512

> <Gold.Chemscore.Internal.Correction.Weighted>
   9.000000E+99

> <Gold.Protein.RotatedTorsions>
[ 6907 6896 6895 6894 ] final  118.10 input  -60.11 | X-H torsion
[ 7974 7965 7964 7962 ] final  -87.09 input  175.53 | X-H torsion
[ 8008 7997 7996 7995 ] final   77.87 input   59.86 | X-H torsion
[ 10167 10162 10161 10158 ] final  -98.81 input  -65.29 | X-H torsion
[ 10718 10713 10712 10709 ] final  -13.83 input   66.30 | X-H torsion
[ 10763 10752 10751 10750 ] final  136.23 input  -60.55 | X-H torsion
[ 11005 11000 10999 10996 ] final  139.48 input  -57.11 | X-H torsion

> <Gold.Protein.ActiveResidues>
 VAL166  LYS551  ARG553  GLY616  TRP617  ASP618  TYR619  PRO620  LYS621  CYS622 
 ASP623  PHE694  ASN695  SER759  ASP760  ASP761  ALA762  ILE779  LEU786  VAL792 
 PHE793  MET794  SER795  GLU796  ALA797  LYS798  CYS799  TRP800  GLU811  SER814 

> <Gold.Protein.RotatedAtoms>
  152.4567  133.7737  159.6812 H   0  0  0  0  0  0  0  0  0  0  0  0  # atno 6907 bound_to 6896
  150.8495  133.7798  159.3037 H   0  0  0  0  0  0  0  0  0  0  0  0  # atno 6908 bound_to 6896
  151.5398  135.1071  159.9975 H   0  0  0  0  0  0  0  0  0  0  0  0  # atno 6909 bound_to 6896
  145.4712  140.9559  143.1916 H   0  0  0  0  0  0  0  0  0  0  0  0  # atno 7974 bound_to 7965
  155.8477  140.3459  155.5673 H   0  0  0  0  0  0  0  0  0  0  0  0  # atno 8008 bound_to 7997
  155.8071  140.0893  157.1944 H   0  0  0  0  0  0  0  0  0  0  0  0  # atno 8009 bound_to 7997
  154.4006  140.1454  156.3330 H   0  0  0  0  0  0  0  0  0  0  0  0  # atno 8010 bound_to 7997
  140.2690  143.3356  152.0552 H   0  0  0  0  0  0  0  0  0  0  0  0  # atno 10167 bound_to 10162
  156.6246  130.4885  149.6152 H   0  0  0  0  0  0  0  0  0  0  0  0  # atno 10718 bound_to 10713
  153.8532  135.3077  155.3433 H   0  0  0  0  0  0  0  0  0  0  0  0  # atno 10763 bound_to 10752
  154.7882  135.4797  153.9996 H   0  0  0  0  0  0  0  0  0  0  0  0  # atno 10764 bound_to 10752
  153.1506  135.6842  153.8981 H   0  0  0  0  0  0  0  0  0  0  0  0  # atno 10765 bound_to 10752
  140.0258  134.9375  157.0565 H   0  0  0  0  0  0  0  0  0  0  0  0  # atno 11005 bound_to 11000
  144.7944  139.6263  143.7099 LP  0  0  0  0  0  0  0  0  0  0  0  0  # atno 17320 bound_to 7965
  146.2396  139.5974  142.9500 LP  0  0  0  0  0  0  0  0  0  0  0  0  # atno 17321 bound_to 7965
  139.4994  144.6669  151.6336 LP  0  0  0  0  0  0  0  0  0  0  0  0  # atno 17342 bound_to 10162
  140.5905  143.9789  150.6321 LP  0  0  0  0  0  0  0  0  0  0  0  0  # atno 17343 bound_to 10162
  156.2284  130.6779  151.1439 LP  0  0  0  0  0  0  0  0  0  0  0  0  # atno 17370 bound_to 10713
  157.7218  131.0677  150.6105 LP  0  0  0  0  0  0  0  0  0  0  0  0  # atno 17371 bound_to 10713
  140.4309  134.1781  155.7168 LP  0  0  0  0  0  0  0  0  0  0  0  0  # atno 17394 bound_to 11000
  141.1802  133.8431  157.1285 LP  0  0  0  0  0  0  0  0  0  0  0  0  # atno 17395 bound_to 11000

$$$$
