AV-unprocessed.smi:2054|AV-procd|sdf|8332|dock9
  -GOLD-   2272011 03D 1   1.00000     0.00000
 Structure written by MMmdl.
 42 43  0  0  0  0  0  0  0  0  1 V2000
  149.6857  132.8789  154.8332 C   0  0  0  0  0  0  0  0  0  0  0  0
  149.1029  133.7430  156.3504 S   0  0  0  0  0  0  0  0  0  0  0  0
  147.6418  133.5860  156.4174 O   0  0  0  0  0  0  0  0  0  0  0  0
  149.9385  133.3343  157.4896 O   0  0  0  0  0  0  0  0  0  0  0  0
  149.4463  135.4100  156.0133 N   0  0  0  0  0  0  0  0  0  0  0  0
  148.3110  136.2747  155.6339 C   0  0  0  0  0  0  0  0  0  0  0  0
  148.6658  137.7644  155.7685 C   0  0  0  0  0  0  0  0  0  0  0  0
  149.9229  138.1120  154.9552 C   0  0  0  0  0  0  0  0  0  0  0  0
  150.2842  139.5969  155.0929 C   0  0  0  0  0  0  0  0  0  0  0  0
  150.3024  140.3273  154.1018 O   0  0  0  0  0  0  0  0  0  0  0  0
  150.5709  140.0302  156.3301 N   0  0  0  0  0  0  0  0  0  0  0  0
  150.9325  141.3998  156.6768 C   0  0  0  0  0  0  0  0  0  0  0  0
  151.8746  141.4489  157.8912 C   0  0  0  0  0  0  0  0  0  0  0  0
  151.8121  142.7834  158.6102 C   0  0  0  0  0  0  0  0  0  0  0  0
  152.5766  143.0106  159.7747 C   0  0  0  0  0  0  0  0  0  0  0  0
  152.4748  144.2633  160.4102 C   0  0  0  0  0  0  0  0  0  0  0  0
  151.6166  145.2351  159.8606 C   0  0  0  0  0  0  0  0  0  0  0  0
  150.8951  144.9093  158.6949 C   0  0  0  0  0  0  0  0  0  0  0  0
  150.9849  143.7112  158.0781 N   0  0  0  0  0  0  0  0  0  0  0  0
  151.0711  137.2113  155.4373 C   0  0  0  0  0  0  0  0  0  0  0  0
  150.7077  135.7223  155.3109 C   0  0  0  0  0  0  0  0  0  0  0  0
  149.4449  131.8189  154.9097 H   0  0  0  0  0  0  0  0  0  0  0  0
  150.7637  132.9911  154.7266 H   0  0  0  0  0  0  0  0  0  0  0  0
  149.1868  133.2995  153.9606 H   0  0  0  0  0  0  0  0  0  0  0  0
  148.0207  136.0465  154.6075 H   0  0  0  0  0  0  0  0  0  0  0  0
  147.4489  136.0504  156.2601 H   0  0  0  0  0  0  0  0  0  0  0  0
  147.8221  138.3697  155.4348 H   0  0  0  0  0  0  0  0  0  0  0  0
  148.8176  138.0023  156.8228 H   0  0  0  0  0  0  0  0  0  0  0  0
  149.7282  137.8956  153.9031 H   0  0  0  0  0  0  0  0  0  0  0  0
  150.5322  139.3631  157.0873 H   0  0  0  0  0  0  0  0  0  0  0  0
  151.3864  141.8974  155.8179 H   0  0  0  0  0  0  0  0  0  0  0  0
  150.0140  141.9432  156.8999 H   0  0  0  0  0  0  0  0  0  0  0  0
  151.6207  140.6524  158.5921 H   0  0  0  0  0  0  0  0  0  0  0  0
  152.9041  141.2656  157.5796 H   0  0  0  0  0  0  0  0  0  0  0  0
  153.2239  142.2440  160.1745 H   0  0  0  0  0  0  0  0  0  0  0  0
  153.0439  144.4743  161.3035 H   0  0  0  0  0  0  0  0  0  0  0  0
  151.5133  146.2062  160.3215 H   0  0  0  0  0  0  0  0  0  0  0  0
  150.2271  145.6301  158.2468 H   0  0  0  0  0  0  0  0  0  0  0  0
  151.9753  137.4138  154.8618 H   0  0  0  0  0  0  0  0  0  0  0  0
  151.3132  137.4325  156.4782 H   0  0  0  0  0  0  0  0  0  0  0  0
  151.5200  135.1237  155.7223 H   0  0  0  0  0  0  0  0  0  0  0  0
  150.6072  135.4416  154.2617 H   0  0  0  0  0  0  0  0  0  0  0  0
  1  2  1  0  0  0  0
  1 22  1  0  0  0  0
  1 23  1  0  0  0  0
  1 24  1  0  0  0  0
  2  3  2  0  0  0  0
  2  4  2  0  0  0  0
  2  5  1  0  0  0  0
  5 21  1  0  0  0  0
  5  6  1  0  0  0  0
  6  7  1  0  0  0  0
  6 25  1  0  0  0  0
  6 26  1  0  0  0  0
  7  8  1  0  0  0  0
  7 27  1  0  0  0  0
  7 28  1  0  0  0  0
  8  9  1  0  0  0  0
  8 20  1  0  0  0  0
  8 29  1  0  0  0  0
  9 10  2  0  0  0  0
  9 11  1  0  0  0  0
 11 12  1  0  0  0  0
 11 30  1  0  0  0  0
 12 13  1  0  0  0  0
 12 31  1  0  0  0  0
 12 32  1  0  0  0  0
 13 14  1  0  0  0  0
 13 33  1  0  0  0  0
 13 34  1  0  0  0  0
 14 19  1  0  0  0  0
 14 15  2  0  0  0  0
 15 16  1  0  0  0  0
 15 35  1  0  0  0  0
 16 17  2  0  0  0  0
 16 36  1  0  0  0  0
 17 18  1  0  0  0  0
 17 37  1  0  0  0  0
 18 19  2  0  0  0  0
 18 38  1  0  0  0  0
 20 21  1  0  0  0  0
 20 39  1  0  0  0  0
 20 40  1  0  0  0  0
 21 41  1  0  0  0  0
 21 42  1  0  0  0  0
M  END
> <s_m_source_file>
AV-unprocessed.smi

> <i_m_source_file_index>
2054

> <i_lp_mmshare_version>
43012

> <i_f3d_flags>
0

> <s_epik_input>
W0NIM11TKD1PKSg9TylOMVtDSDJdW0NIMl1bQ0hdKFtDSDJdW0NIMl0xKUMoPU8pW05IXVtDSDJdW0NIMl1jMltjSF1bY0hdW2NIXVtjSF1uMg==

> <s_epik_cmdline>
J2VwaWtfcHl0aG9uJywgJy1waCcsICc3LjAnLCAnLXRuJywgJzgnLCAnLW1hJywgJzIwMCcsICctbWV0YWxfYmluZGluZycsICctaW1hZScsICc8aW5maWxlLm1hZT4nLCAnLW9tYWUnLCAnPG91dGZpbGUubWFlPic=

> <r_epik_Ionization_Penalty>
0.0277532

> <r_epik_Ionization_Penalty_Charging>
0

> <r_epik_Ionization_Penalty_Neutral>
0.0277532

> <r_epik_State_Penalty>
0.022734

> <r_epik_Charging_Adjusted_Penalty>
0.022734

> <i_epik_Tot_Q>
0

> <i_epik_Tot_abs_Q>
0

> <r_epik_Metal_State_Penalty>
0.021713

> <b_epik_Metal_Only>
0

> <s_lp_Force_Field>
OPLS_2005

> <r_lp_Energy>
2.16831

> <b_lp_Chiralities_Consistent>
1

> <s_lp_Variant>
AV-unprocessed.smi:2054-1

> <Gold.Version>
5.8.1

> <Gold.Id.Protein>
6NUR|6NUR_protein|mol2

> <Gold.PLP.Fitness>
41.5982

> <Gold.PLP.PLP>
-34.1140

> <Gold.PLP.part.hbond>
-1.6983

> <Gold.PLP.part.metal>
0.0000

> <Gold.PLP.part.buried>
-6.3784

> <Gold.PLP.part.nonpolar>
-27.3343

> <Gold.PLP.part.repulsive>
1.0010

> <Gold.PLP.ligand.clash>
0.0000

> <Gold.PLP.ligand.torsion>
1.0605

> <Gold.PLP.Chemscore.Hbond>
1.9440

> <Gold.PLP.Chemscore.CHOScore>
1.0000

> <Gold.PLP.Chemscore.Metal>
0.0000

> <Gold.Chemscore.Hbonds>
donor molecule, donor type, donor heavy atom, donor atom, acceptor molecule, acceptor atom, score
      P1  H  6896  6909       L1     4  1.00
      P1  H  7989  7998       L1    10  0.93
      L1  C    18    38       P1  8029  1.00

> <Gold.PLP.Chemscore.Internal.Correction>
0.7732

> <Gold.Rescore>
     Score         DG    S(hbond)    S(metal)    S(lipo)     H(rot)  DE(clash)    DE(int)     intcor
     17.01     -18.14       1.93        0.00      93.40       1.84       0.05       1.09       ----

> <Gold.Chemscore.Fitness>
17.0064

> <Gold.Chemscore.DG>
-18.1435

> <Gold.Chemscore.ZeroCoef>
-5.4800

> <Gold.Chemscore.Hbond>
1.9316

> <Gold.Chemscore.Metal>
0.0000

> <Gold.Chemscore.Lipo>
93.3952

> <Gold.Chemscore.Internal_Hbond>
0.0000

> <Gold.Chemscore.DEClash>
0.0516

> <Gold.Chemscore.DEInternal>
1.0855

> <Gold.Chemscore.Rot>
1.8419

> <Gold.Chemscore.Internal.Correction>
   9.000000E+99

> <Gold.Chemscore.Hbonds>
donor molecule, donor type, donor heavy atom, donor atom, acceptor molecule, acceptor atom, score
      P1  H  6896  6909       L1     4  0.95
      P1  H  7989  7998       L1    10  0.86

> <Gold.Chemscore.Hbond.Weighted>
-6.4516

> <Gold.Chemscore.Metal.Weighted>
-0.0000

> <Gold.Chemscore.Lipo.Weighted>
-10.9272

> <Gold.Chemscore.Internal_Hbond.Weighted>
0.0000

> <Gold.Chemscore.DEClash.Weighted>
0.0516

> <Gold.Chemscore.DEInternal.Weighted>
1.0855

> <Gold.Chemscore.Rot.Weighted>
4.7153

> <Gold.Chemscore.Internal.Correction.Weighted>
   9.000000E+99

> <Gold.Protein.RotatedTorsions>
[ 6907 6896 6895 6894 ] final  -11.97 input  -60.11 | X-H torsion
[ 7974 7965 7964 7962 ] final -165.34 input  175.53 | X-H torsion
[ 8008 7997 7996 7995 ] final   51.48 input   59.86 | X-H torsion
[ 10167 10162 10161 10158 ] final   82.28 input  -65.29 | X-H torsion
[ 10718 10713 10712 10709 ] final  -85.58 input   66.30 | X-H torsion
[ 10763 10752 10751 10750 ] final  -94.32 input  -60.55 | X-H torsion
[ 11005 11000 10999 10996 ] final   61.00 input  -57.11 | X-H torsion

> <Gold.Protein.ActiveResidues>
 VAL166  LYS551  ARG553  GLY616  TRP617  ASP618  TYR619  PRO620  LYS621  CYS622 
 ASP623  PHE694  ASN695  SER759  ASP760  ASP761  ALA762  ILE779  LEU786  VAL792 
 PHE793  MET794  SER795  GLU796  ALA797  LYS798  CYS799  TRP800  GLU811  SER814 

> <Gold.Protein.RotatedAtoms>
  151.3779  135.0934  159.9486 H   0  0  0  0  0  0  0  0  0  0  0  0  # atno 6907 bound_to 6896
  152.5117  133.9101  159.7494 H   0  0  0  0  0  0  0  0  0  0  0  0  # atno 6908 bound_to 6896
  150.9528  133.6475  159.2797 H   0  0  0  0  0  0  0  0  0  0  0  0  # atno 6909 bound_to 6896
  144.7272  140.2829  143.6233 H   0  0  0  0  0  0  0  0  0  0  0  0  # atno 7974 bound_to 7965
  155.4360  140.3452  155.4285 H   0  0  0  0  0  0  0  0  0  0  0  0  # atno 8008 bound_to 7997
  156.1308  140.1513  156.9099 H   0  0  0  0  0  0  0  0  0  0  0  0  # atno 8009 bound_to 7997
  154.4893  140.0846  156.7538 H   0  0  0  0  0  0  0  0  0  0  0  0  # atno 8010 bound_to 7997
  139.9305  144.6155  150.8350 H   0  0  0  0  0  0  0  0  0  0  0  0  # atno 10167 bound_to 10162
  155.9995  130.4736  150.4585 H   0  0  0  0  0  0  0  0  0  0  0  0  # atno 10718 bound_to 10713
  154.7044  135.5162  153.8573 H   0  0  0  0  0  0  0  0  0  0  0  0  # atno 10763 bound_to 10752
  153.0729  135.6607  154.0217 H   0  0  0  0  0  0  0  0  0  0  0  0  # atno 10764 bound_to 10752
  154.0070  135.3005  155.3376 H   0  0  0  0  0  0  0  0  0  0  0  0  # atno 10765 bound_to 10752
  140.0191  134.6179  155.9665 H   0  0  0  0  0  0  0  0  0  0  0  0  # atno 11005 bound_to 11000
  145.7932  139.1935  143.2091 LP  0  0  0  0  0  0  0  0  0  0  0  0  # atno 17320 bound_to 7965
  146.0739  140.7839  142.9675 LP  0  0  0  0  0  0  0  0  0  0  0  0  # atno 17321 bound_to 7965
  140.7639  143.3234  151.2571 LP  0  0  0  0  0  0  0  0  0  0  0  0  # atno 17342 bound_to 10162
  139.6786  143.9893  152.2796 LP  0  0  0  0  0  0  0  0  0  0  0  0  # atno 17343 bound_to 10162
  157.2611  131.0567  151.2319 LP  0  0  0  0  0  0  0  0  0  0  0  0  # atno 17370 bound_to 10713
  157.3434  130.7045  149.6395 LP  0  0  0  0  0  0  0  0  0  0  0  0  # atno 17371 bound_to 10713
  141.1762  133.6541  156.4840 LP  0  0  0  0  0  0  0  0  0  0  0  0  # atno 17394 bound_to 11000
  140.4418  134.7009  157.4995 LP  0  0  0  0  0  0  0  0  0  0  0  0  # atno 17395 bound_to 11000

$$$$
