AV-unprocessed.smi:406|AV-procd|sdf|2499|dock6
  -GOLD-   2262022443D 1   1.00000     0.00000
 Structure written by MMmdl.
 35 36  0  0  0  0  0  0  0  0  1 V2000
  149.1940  133.5858  153.8993 C   0  0  0  0  0  0  0  0  0  0  0  0
  150.0569  133.4926  155.1620 C   0  0  0  0  0  0  0  0  0  0  0  0
  150.1233  134.8241  155.9274 C   0  0  0  0  0  0  0  0  0  0  0  0
  150.5313  135.9232  155.0604 N   0  0  0  0  0  0  0  0  0  0  0  0
  150.9967  137.1089  155.4843 C   0  0  0  0  0  0  0  0  0  0  0  0
  151.1266  137.4011  156.6731 O   0  0  0  0  0  0  0  0  0  0  0  0
  151.3770  138.1208  154.4024 C   0  0  0  0  0  0  0  0  0  0  0  0
  150.6191  139.3999  154.6054 C   0  0  0  0  0  0  0  0  0  0  0  0
  149.4949  139.8115  153.9308 C   0  0  0  0  0  0  0  0  0  0  0  0
  148.9311  141.3657  154.4848 S   0  0  0  0  0  0  0  0  0  0  0  0
  150.2788  141.4100  155.6103 C   0  0  0  0  0  0  0  0  0  0  0  0
  150.4636  142.4798  156.5253 N   0  0  0  0  0  0  0  0  0  0  0  0
  151.2577  142.5608  157.6123 C   0  0  0  0  0  0  0  0  0  0  0  0
  151.9645  141.6040  157.9258 O   0  0  0  0  0  0  0  0  0  0  0  0
  151.2544  143.8324  158.4091 C   0  0  0  0  0  0  0  0  0  0  0  0
  152.4957  144.6954  158.3287 C   0  0  0  0  0  0  0  0  0  0  0  0
  152.1915  143.9424  159.5979 C   0  0  0  0  0  0  0  0  0  0  0  0
  151.0422  140.3127  155.5766 N   0  0  0  0  0  0  0  0  0  0  0  0
  149.1625  132.6283  153.3788 H   0  0  0  0  0  0  0  0  0  0  0  0
  149.5900  134.3284  153.2060 H   0  0  0  0  0  0  0  0  0  0  0  0
  148.1689  133.8661  154.1430 H   0  0  0  0  0  0  0  0  0  0  0  0
  149.6577  132.7141  155.8131 H   0  0  0  0  0  0  0  0  0  0  0  0
  151.0622  133.1749  154.8824 H   0  0  0  0  0  0  0  0  0  0  0  0
  149.1609  135.0494  156.3900 H   0  0  0  0  0  0  0  0  0  0  0  0
  150.8473  134.7495  156.7392 H   0  0  0  0  0  0  0  0  0  0  0  0
  150.4580  135.7701  154.0651 H   0  0  0  0  0  0  0  0  0  0  0  0
  152.4526  138.3018  154.4235 H   0  0  0  0  0  0  0  0  0  0  0  0
  151.1577  137.6914  153.4240 H   0  0  0  0  0  0  0  0  0  0  0  0
  148.9646  139.2949  153.1445 H   0  0  0  0  0  0  0  0  0  0  0  0
  149.8914  143.2925  156.3489 H   0  0  0  0  0  0  0  0  0  0  0  0
  150.2983  144.3398  158.5219 H   0  0  0  0  0  0  0  0  0  0  0  0
  153.3294  144.3420  157.7244 H   0  0  0  0  0  0  0  0  0  0  0  0
  152.3443  145.7728  158.3200 H   0  0  0  0  0  0  0  0  0  0  0  0
  151.8358  144.5115  160.4543 H   0  0  0  0  0  0  0  0  0  0  0  0
  152.8377  143.1020  159.8444 H   0  0  0  0  0  0  0  0  0  0  0  0
  1  2  1  0  0  0  0
  1 19  1  0  0  0  0
  1 20  1  0  0  0  0
  1 21  1  0  0  0  0
  2  3  1  0  0  0  0
  2 22  1  0  0  0  0
  2 23  1  0  0  0  0
  3  4  1  0  0  0  0
  3 24  1  0  0  0  0
  3 25  1  0  0  0  0
  4  5  1  0  0  0  0
  4 26  1  0  0  0  0
  5  6  2  0  0  0  0
  5  7  1  0  0  0  0
  7  8  1  0  0  0  0
  7 27  1  0  0  0  0
  7 28  1  0  0  0  0
  8 18  1  0  0  0  0
  8  9  2  0  0  0  0
  9 10  1  0  0  0  0
  9 29  1  0  0  0  0
 10 11  1  0  0  0  0
 11 12  1  0  0  0  0
 11 18  2  0  0  0  0
 12 13  1  0  0  0  0
 12 30  1  0  0  0  0
 13 14  2  0  0  0  0
 13 15  1  0  0  0  0
 15 17  1  0  0  0  0
 15 16  1  0  0  0  0
 15 31  1  0  0  0  0
 16 17  1  0  0  0  0
 16 32  1  0  0  0  0
 16 33  1  0  0  0  0
 17 34  1  0  0  0  0
 17 35  1  0  0  0  0
M  END
> <s_m_source_file>
AV-unprocessed.smi

> <i_m_source_file_index>
406

> <i_lp_mmshare_version>
43012

> <i_f3d_flags>
0

> <s_epik_input>
W0NIM11bQ0gyXVtDSDJdW05IXUMoPU8pW0NIMl1jMVtjSF1zYyhuMSlbTkhdQyg9TylbQ0hdMltDSDJdW0NIMl0y

> <s_epik_cmdline>
J2VwaWtfcHl0aG9uJywgJy1waCcsICc3LjAnLCAnLXRuJywgJzgnLCAnLW1hJywgJzIwMCcsICctbWV0YWxfYmluZGluZycsICctaW1hZScsICc8aW5maWxlLm1hZT4nLCAnLW9tYWUnLCAnPG91dGZpbGUubWFlPic=

> <r_lp_tautomer_probability>
1

> <r_epik_Ionization_Penalty>
0.000156784

> <r_epik_Ionization_Penalty_Charging>
0

> <r_epik_Ionization_Penalty_Neutral>
0.000156784

> <r_epik_State_Penalty>
-0

> <r_epik_Charging_Adjusted_Penalty>
0

> <i_epik_Tot_Q>
0

> <i_epik_Tot_abs_Q>
0

> <r_epik_Metal_State_Penalty>
0.0968639

> <b_epik_Metal_Only>
0

> <s_lp_Force_Field>
OPLS_2005

> <r_lp_Energy>
11.5054

> <b_lp_Chiralities_Consistent>
1

> <s_lp_Variant>
AV-unprocessed.smi:406-1

> <Gold.Version>
5.8.1

> <Gold.Id.Protein>
6NUR|6NUR_protein|mol2

> <Gold.PLP.Fitness>
42.7759

> <Gold.PLP.PLP>
-38.9541

> <Gold.PLP.part.hbond>
-1.6945

> <Gold.PLP.part.metal>
0.0000

> <Gold.PLP.part.buried>
0.0693

> <Gold.PLP.part.nonpolar>
-36.0278

> <Gold.PLP.part.repulsive>
0.1736

> <Gold.PLP.ligand.clash>
0.0000

> <Gold.PLP.ligand.torsion>
0.5618

> <Gold.PLP.Chemscore.Hbond>
1.0000

> <Gold.PLP.Chemscore.CHOScore>
0.6178

> <Gold.PLP.Chemscore.Metal>
0.0000

> <Gold.Chemscore.Hbonds>
donor molecule, donor type, donor heavy atom, donor atom, acceptor molecule, acceptor atom, score
      L1  H    12    30       P1  8028  1.00
      L1  C     9    29       P1  7957  0.62

> <Gold.PLP.Chemscore.Internal.Correction>
0.0919

> <Gold.Rescore>
     Score         DG    S(hbond)    S(metal)    S(lipo)     H(rot)  DE(clash)    DE(int)     intcor
     11.98     -13.82       1.00        0.00      84.64       1.91       0.01       1.83       ----

> <Gold.Chemscore.Fitness>
11.9834

> <Gold.Chemscore.DG>
-13.8240

> <Gold.Chemscore.ZeroCoef>
-5.4800

> <Gold.Chemscore.Hbond>
0.9950

> <Gold.Chemscore.Metal>
0.0000

> <Gold.Chemscore.Lipo>
84.6377

> <Gold.Chemscore.Internal_Hbond>
0.0000

> <Gold.Chemscore.DEClash>
0.0064

> <Gold.Chemscore.DEInternal>
1.8342

> <Gold.Chemscore.Rot>
1.9070

> <Gold.Chemscore.Internal.Correction>
   9.000000E+99

> <Gold.Chemscore.Hbonds>
donor molecule, donor type, donor heavy atom, donor atom, acceptor molecule, acceptor atom, score
      L1  H    12    30       P1  8028  1.00

> <Gold.Chemscore.Hbond.Weighted>
-3.3233

> <Gold.Chemscore.Metal.Weighted>
-0.0000

> <Gold.Chemscore.Lipo.Weighted>
-9.9026

> <Gold.Chemscore.Internal_Hbond.Weighted>
0.0000

> <Gold.Chemscore.DEClash.Weighted>
0.0064

> <Gold.Chemscore.DEInternal.Weighted>
1.8342

> <Gold.Chemscore.Rot.Weighted>
4.8820

> <Gold.Chemscore.Internal.Correction.Weighted>
   9.000000E+99

> <Gold.Protein.RotatedTorsions>
[ 6907 6896 6895 6894 ] final  154.34 input  -60.11 | X-H torsion
[ 7974 7965 7964 7962 ] final -159.58 input  175.53 | X-H torsion
[ 8008 7997 7996 7995 ] final  -42.65 input   59.86 | X-H torsion
[ 10167 10162 10161 10158 ] final  126.27 input  -65.29 | X-H torsion
[ 10718 10713 10712 10709 ] final  166.09 input   66.30 | X-H torsion
[ 10763 10752 10751 10750 ] final   41.13 input  -60.55 | X-H torsion
[ 11005 11000 10999 10996 ] final   61.28 input  -57.11 | X-H torsion

> <Gold.Protein.ActiveResidues>
 VAL166  LYS551  ARG553  GLY616  TRP617  ASP618  TYR619  PRO620  LYS621  CYS622 
 ASP623  PHE694  ASN695  SER759  ASP760  ASP761  ALA762  ILE779  LEU786  VAL792 
 PHE793  MET794  SER795  GLU796  ALA797  LYS798  CYS799  TRP800  GLU811  SER814 

> <Gold.Protein.RotatedAtoms>
  152.0598  133.4057  159.4412 H   0  0  0  0  0  0  0  0  0  0  0  0  # atno 6907 bound_to 6896
  150.6866  134.3213  159.4797 H   0  0  0  0  0  0  0  0  0  0  0  0  # atno 6908 bound_to 6896
  152.1033  134.9326  160.0619 H   0  0  0  0  0  0  0  0  0  0  0  0  # atno 6909 bound_to 6896
  144.7460  140.3664  143.6085 H   0  0  0  0  0  0  0  0  0  0  0  0  # atno 7974 bound_to 7965
  154.3998  140.1468  156.3390 H   0  0  0  0  0  0  0  0  0  0  0  0  # atno 8008 bound_to 7997
  155.8374  140.3463  155.5589 H   0  0  0  0  0  0  0  0  0  0  0  0  # atno 8009 bound_to 7997
  155.8124  140.0886  157.1887 H   0  0  0  0  0  0  0  0  0  0  0  0  # atno 8010 bound_to 7997
  139.5640  144.6900  151.3962 H   0  0  0  0  0  0  0  0  0  0  0  0  # atno 10167 bound_to 10162
  157.0708  131.0366  151.2612 H   0  0  0  0  0  0  0  0  0  0  0  0  # atno 10718 bound_to 10713
  152.9916  135.6171  154.2738 H   0  0  0  0  0  0  0  0  0  0  0  0  # atno 10763 bound_to 10752
  154.2470  135.2786  155.2833 H   0  0  0  0  0  0  0  0  0  0  0  0  # atno 10764 bound_to 10752
  154.5320  135.5785  153.6825 H   0  0  0  0  0  0  0  0  0  0  0  0  # atno 10765 bound_to 10752
  140.0172  134.6207  155.9692 H   0  0  0  0  0  0  0  0  0  0  0  0  # atno 11005 bound_to 11000
  145.7123  139.1688  143.2531 LP  0  0  0  0  0  0  0  0  0  0  0  0  # atno 17320 bound_to 7965
  146.1338  140.7150  142.9399 LP  0  0  0  0  0  0  0  0  0  0  0  0  # atno 17321 bound_to 7965
  140.6922  143.7834  150.7272 LP  0  0  0  0  0  0  0  0  0  0  0  0  # atno 17342 bound_to 10162
  140.1320  143.4518  152.2248 LP  0  0  0  0  0  0  0  0  0  0  0  0  # atno 17343 bound_to 10162
  157.4879  130.7804  149.7478 LP  0  0  0  0  0  0  0  0  0  0  0  0  # atno 17370 bound_to 10713
  155.9951  130.3914  150.2833 LP  0  0  0  0  0  0  0  0  0  0  0  0  # atno 17371 bound_to 10713
  141.1750  133.6540  156.4796 LP  0  0  0  0  0  0  0  0  0  0  0  0  # atno 17394 bound_to 11000
  140.4450  134.6981  157.5011 LP  0  0  0  0  0  0  0  0  0  0  0  0  # atno 17395 bound_to 11000

$$$$
