#       Name:                AV-unprocessed.smi:37
#       Creating user name   scv26
#       Creation time:       Thu Mar 26 16:14:47 2020


#       File generated by GOLD software.
#

@<TRIPOS>MOLECULE
AV-unprocessed.smi:37
    54    55     1
SMALL
NO_CHARGES


@<TRIPOS>ATOM
      1 ****        -4.6955   2.1256   0.0663 C.3            1 S1                 0.0000
      2 ****        -3.5850   1.4789  -0.7749 C.3            1 S1                 0.0000
      3 ****        -3.0656   0.1610  -0.1965 C.2            1 S1                 0.0000
      4 ****        -3.5284  -0.3341   0.8327 O.2            1 S1                 0.0000
      5 ****        -2.0656  -0.3485  -0.9375 O.3            1 S1                 0.0000
      6 ****        -1.4269  -1.5679  -0.5734 C.3            1 S1                 0.0000
      7 ****         0.1049  -1.4119  -0.5899 C.3            1 S1                 0.0000
      8 ****         0.5237  -0.9688  -1.8776 O.3            1 S1                 0.0000
      9 ****         1.6921  -0.2208  -1.7486 C.3            1 S1                 0.0000
     10 ****         2.8808  -1.1761  -1.7550 N.am           1 S1                 0.0000
     11 ****         3.6495  -1.4407  -0.6295 C.2            1 S1                 0.0000
     12 ****         4.6698  -2.3218  -0.6649 C.2            1 S1                 0.0000
     13 ****         5.3946  -2.5499   0.4440 F              1 S1                 0.0000
     14 ****         4.9786  -3.0231  -1.9079 C.2            1 S1                 0.0000
     15 ****         5.9124  -3.8232  -1.9339 O.2            1 S1                 0.0000
     16 ****         4.2049  -2.7543  -2.9978 N.pl3          1 S1                -1.0000
     17 ****         3.1697  -1.8648  -2.9672 C.2            1 S1                 0.0000
     18 ****         2.4667  -1.6253  -3.9492 O.2            1 S1                 0.0000
     19 ****         1.4964   0.5654  -0.4483 C.3            1 S1                 0.0000
     20 ****         0.3662   2.1573  -0.8687 Br             1 S1                 0.0000
     21 ****         0.7282  -0.4315   0.4274 C.3            1 S1                 0.0000
     22 ****        -0.2132   0.1934   1.2916 O.3            1 S1                 0.0000
     23 ****         0.1625   0.6606   2.4944 C.2            1 S1                 0.0000
     24 ****         1.2959   0.6055   2.9716 O.2            1 S1                 0.0000
     25 ****        -0.9943   1.3027   3.2557 C.3            1 S1                 0.0000
     26 ****        -1.4687   2.6024   2.5921 C.3            1 S1                 0.0000
     27 ****        -5.0247   3.0602  -0.3879 H              1 S1                 0.0000
     28 ****        -4.3498   2.3539   1.0752 H              1 S1                 0.0000
     29 ****        -5.5660   1.4734   0.1458 H              1 S1                 0.0000
     30 ****        -3.9502   1.2929  -1.7851 H              1 S1                 0.0000
     31 ****        -2.7464   2.1695  -0.8662 H              1 S1                 0.0000
     32 ****        -1.7422  -1.9226   0.4085 H              1 S1                 0.0000
     33 ****        -1.7258  -2.3328  -1.2905 H              1 S1                 0.0000
     34 ****         0.5496  -2.3940  -0.4235 H              1 S1                 0.0000
     35 ****         1.8611   0.4329  -2.6060 H              1 S1                 0.0000
     36 ****         3.4588  -0.9466   0.3084 H              1 S1                 0.0000
     37 ****         2.4302   0.9339  -0.0251 H              1 S1                 0.0000
     38 ****         1.4302  -1.0106   1.0280 H              1 S1                 0.0000
     39 ****        -1.8172   0.5894   3.3062 H              1 S1                 0.0000
     40 ****        -0.6817   1.4999   4.2814 H              1 S1                 0.0000
     41 ****        -2.3081   3.0296   3.1405 H              1 S1                 0.0000
     42 ****        -1.7983   2.4332   1.5669 H              1 S1                 0.0000
     43 ****        -0.6729   3.3476   2.5694 H              1 S1                 0.0000
     44 ****        -4.2695   0.1275   1.3202 LP             1 S1                 0.0000
     45 ****        -3.1628  -1.1975   1.1804 LP             1 S1                 0.0000
     46 ****        -0.1925  -0.4024  -2.2854 LP             1 S1                 0.0000
     47 ****         0.6966  -1.7605  -2.4636 LP             1 S1                 0.0000
     48 ****         6.4523  -3.9885  -1.1086 LP             1 S1                 0.0000
     49 ****         6.1317  -4.3084  -2.7804 LP             1 S1                 0.0000
     50 ****         4.4040  -3.2285  -3.8554 LP             1 S1                 0.0000
     51 ****         1.7196  -0.9642  -3.8800 LP             1 S1                 0.0000
     52 ****         2.6428  -2.0918  -4.8160 LP             1 S1                 0.0000
     53 ****         2.0375   0.1824   2.4510 LP             1 S1                 0.0000
     54 ****         1.4750   0.9838   3.8798 LP             1 S1                 0.0000
@<TRIPOS>BOND
    1    1    2 1     
    2    1   27 1     
    3    1   28 1     
    4    1   29 1     
    5    2    3 1     
    6    2   30 1     
    7    2   31 1     
    8    3    4 2     
    9    3    5 1     
   10    5    6 1     
   11    6    7 1     
   12    6   32 1     
   13    6   33 1     
   14    7   21 1     
   15    7    8 1     
   16    7   34 1     
   17    8    9 1     
   18    9   10 1     
   19    9   19 1     
   20    9   35 1     
   21   10   17 am    
   22   10   11 1     
   23   11   12 2     
   24   11   36 1     
   25   12   13 1     
   26   12   14 1     
   27   14   15 2     
   28   14   16 1     
   29   16   17 1     
   30   17   18 2     
   31   19   20 1     
   32   19   21 1     
   33   19   37 1     
   34   21   22 1     
   35   21   38 1     
   36   22   23 1     
   37   23   24 2     
   38   23   25 1     
   39   25   26 1     
   40   25   39 1     
   41   25   40 1     
   42   26   41 1     
   43   26   42 1     
   44   26   43 1     
   45    4   44 1     
   46    4   45 1     
   47    8   46 1     
   48    8   47 1     
   49   15   48 1     
   50   15   49 1     
   51   16   50 1     
   52   18   51 1     
   53   18   52 1     
   54   24   53 1     
   55   24   54 1     
@<TRIPOS>SUBSTRUCTURE
      1 S1             1
@<TRIPOS>SET
LONE_PAIRS      STATIC     ATOMS    <user>   **** ""
11 44 45 46 47 48 49 50 51 52 53 54
ATOM$BLUE        STATIC     ATOMS    COLORGROUP SYSTEM
11 44 45 46 47 48 49 50 51 52 53 54
