#       Name:                AV-unprocessed.smi:1800
#       Creating user name   scv26
#       Creation time:       Fri Mar 27 08:51:38 2020


#       File generated by GOLD software.
#

@<TRIPOS>MOLECULE
AV-unprocessed.smi:1800
    38    39     1
SMALL
NO_CHARGES


@<TRIPOS>ATOM
      1 ****        -2.2251  -1.6359   2.7071 C.3            1 S1                 0.0000
      2 ****        -1.8511  -0.9732   1.3753 C.3            1 S1                 0.0000
      3 ****        -2.5030  -1.6753   0.1688 C.3            1 S1                 0.0000
      4 ****        -2.2611  -0.9710  -1.0787 N.pl3          1 S1                 0.0000
      5 ****        -2.8553   0.1860  -1.5371 C.2            1 S1                 0.0000
      6 ****        -2.3006   0.4748  -2.7508 C.2            1 S1                 0.0000
      7 ****        -1.3682  -0.5801  -2.9553 C.2            1 S1                 0.0000
      8 ****        -1.3488  -1.4456  -1.9545 N.2            1 S1                 0.0000
      9 ****        -0.3921  -0.9717   1.2307 N.3            1 S1                 0.0000
     10 ****         0.4404   0.5378   1.1803 S.o2           1 S1                 0.0000
     11 ****        -0.2573   1.3926   0.2068 O.2            1 S1                 0.0000
     12 ****         0.5988   0.9895   2.5711 O.2            1 S1                 0.0000
     13 ****         2.0935   0.0449   0.4937 C.3            1 S1                 0.0000
     14 ****         3.1886   1.0171   0.9407 C.3            1 S1                 0.0000
     15 ****         3.0665   2.2027  -0.0195 C.3            1 S1                 0.0000
     16 ****         2.5390   1.6165  -1.3381 C.3            1 S1                 0.0000
     17 ****         2.1280   0.1674  -1.0344 C.3            1 S1                 0.0000
     18 ****        -3.3045  -1.6248   2.8599 H              1 S1                 0.0000
     19 ****        -1.7689  -1.1123   3.5480 H              1 S1                 0.0000
     20 ****        -1.8953  -2.6748   2.7408 H              1 S1                 0.0000
     21 ****        -2.2052   0.0581   1.4091 H              1 S1                 0.0000
     22 ****        -2.1432  -2.7019   0.0797 H              1 S1                 0.0000
     23 ****        -3.5826  -1.7362   0.3116 H              1 S1                 0.0000
     24 ****        -3.6094   0.7050  -0.9641 H              1 S1                 0.0000
     25 ****        -2.5255   1.3128  -3.3935 H              1 S1                 0.0000
     26 ****        -0.7083  -0.7412  -3.7950 H              1 S1                 0.0000
     27 ****         0.0473  -1.6171   1.8864 H              1 S1                 0.0000
     28 ****         2.3077  -0.9691   0.8327 H              1 S1                 0.0000
     29 ****         3.1113   1.3118   1.9872 H              1 S1                 0.0000
     30 ****         4.1635   0.5455   0.8094 H              1 S1                 0.0000
     31 ****         2.3466   2.9211   0.3748 H              1 S1                 0.0000
     32 ****         4.0145   2.7261  -0.1472 H              1 S1                 0.0000
     33 ****         1.6890   2.1971  -1.6988 H              1 S1                 0.0000
     34 ****         3.3027   1.6414  -2.1161 H              1 S1                 0.0000
     35 ****         2.8859  -0.5100  -1.4297 H              1 S1                 0.0000
     36 ****         1.1825  -0.1069  -1.5016 H              1 S1                 0.0000
     37 ****        -0.7851  -2.2669  -1.8663 LP             1 S1                 0.0000
     38 ****        -0.2845  -1.2906   0.2890 LP             1 S1                 0.0000
@<TRIPOS>BOND
    1    1    2 1     
    2    1   18 1     
    3    1   19 1     
    4    1   20 1     
    5    2    3 1     
    6    2    9 1     
    7    2   21 1     
    8    3    4 1     
    9    3   22 1     
   10    3   23 1     
   11    4    8 1     
   12    4    5 1     
   13    5    6 2     
   14    5   24 1     
   15    6    7 1     
   16    6   25 1     
   17    7    8 2     
   18    7   26 1     
   19    9   10 1     
   20    9   27 1     
   21   10   11 2     
   22   10   12 2     
   23   10   13 1     
   24   13   17 1     
   25   13   14 1     
   26   13   28 1     
   27   14   15 1     
   28   14   29 1     
   29   14   30 1     
   30   15   16 1     
   31   15   31 1     
   32   15   32 1     
   33   16   17 1     
   34   16   33 1     
   35   16   34 1     
   36   17   35 1     
   37   17   36 1     
   38    8   37 1     
   39    9   38 1     
@<TRIPOS>SUBSTRUCTURE
      1 S1             1
@<TRIPOS>SET
LONE_PAIRS      STATIC     ATOMS    <user>   **** ""
4 37 38 11 12
DONOR_HYDROGENS      STATIC     ATOMS    <user>   **** ""
1 27
ATOM$BLUE        STATIC     ATOMS    COLORGROUP SYSTEM
4 37 38 11 12
ATOM$RED        STATIC     ATOMS    COLORGROUP SYSTEM
1 27
