AV-unprocessed.smi:20|AV-procd|sdf|119|dock8
  -GOLD-   2262015293D 1   1.00000     0.00000
 Structure written by MMmdl.
 57 61  0  0  0  0  0  0  0  0  1 V2000
  139.7487  136.1013  154.5127 O   0  0  0  0  0  0  0  0  0  0  0  0
  140.7848  136.3601  153.9053 C   0  0  0  0  0  0  0  0  0  0  0  0
  141.9076  135.3596  153.6852 C   0  0  0  0  0  0  0  0  0  0  0  0
  143.0922  136.2453  153.2428 C   0  0  2  0  0  0  0  0  0  0  0  0
  143.9785  135.5428  152.1883 C   0  0  0  0  0  0  0  0  0  0  0  0
  145.2185  136.3825  151.8404 C   0  0  0  0  0  0  0  0  0  0  0  0
  146.0135  136.7378  153.1048 C   0  0  0  0  0  0  0  0  0  0  0  0
  145.1483  137.3810  154.0905 N   0  0  0  0  0  0  0  0  0  0  0  0
  145.7970  138.0749  155.0586 C   0  0  0  0  0  0  0  0  0  0  0  0
  145.4470  137.9099  156.3622 N   0  0  0  0  0  0  0  0  0  0  0  0
  146.0868  138.5838  157.3224 C   0  0  0  0  0  0  0  0  0  0  0  0
  147.0829  139.4631  157.2023 N   0  0  0  0  0  0  0  0  0  0  0  0
  147.4297  139.6441  155.8962 C   0  0  0  0  0  0  0  0  0  0  0  0
  146.8483  138.9906  154.7730 C   0  0  0  0  0  0  0  0  0  0  0  0
  147.4605  139.4251  153.6033 N   0  0  0  0  0  0  0  0  0  0  0  0
  148.3581  140.2796  154.0117 C   0  0  0  0  0  0  0  0  0  0  0  0
  148.3911  140.4921  155.3720 N   0  0  0  0  0  0  0  0  0  0  0  0
  149.2904  141.3840  156.0847 C   0  0  0  0  0  0  0  0  0  0  0  0
  150.3325  140.6821  157.0011 C   0  0  1  0  0  0  0  0  0  0  0  0
  150.9855  139.5154  156.2205 C   0  0  0  0  0  0  0  0  0  0  0  0
  151.7207  139.9857  155.1094 O   0  0  0  0  0  0  0  0  0  0  0  0
  151.4170  141.6456  157.5702 C   0  0  1  0  0  0  0  0  0  0  0  0
  150.9167  142.7772  158.4566 C   0  0  0  0  0  0  0  0  0  0  0  0
  152.1720  143.1948  159.2120 C   0  0  0  0  0  0  0  0  0  0  0  0
  152.9362  142.0079  159.3684 O   0  0  0  0  0  0  0  0  0  0  0  0
  152.4077  140.9806  158.5376 C   0  0  0  0  0  0  0  0  0  0  0  0
  143.9593  136.6175  154.4745 C   0  0  0  0  0  0  0  0  0  0  0  0
  142.3829  137.5043  152.6834 C   0  0  0  0  0  0  0  0  0  0  0  0
  141.0944  137.5285  153.3478 N   0  0  0  0  0  0  0  0  0  0  0  0
  142.1176  134.7825  154.5867 H   0  0  0  0  0  0  0  0  0  0  0  0
  141.6043  134.6666  152.8993 H   0  0  0  0  0  0  0  0  0  0  0  0
  144.3016  134.5749  152.5741 H   0  0  0  0  0  0  0  0  0  0  0  0
  143.4059  135.3338  151.2840 H   0  0  0  0  0  0  0  0  0  0  0  0
  145.8549  135.8380  151.1424 H   0  0  0  0  0  0  0  0  0  0  0  0
  144.9151  137.2978  151.3310 H   0  0  0  0  0  0  0  0  0  0  0  0
  146.4329  135.8330  153.5467 H   0  0  0  0  0  0  0  0  0  0  0  0
  146.8571  137.3730  152.8364 H   0  0  0  0  0  0  0  0  0  0  0  0
  145.7515  138.3922  158.3311 H   0  0  0  0  0  0  0  0  0  0  0  0
  149.0135  140.7946  153.3246 H   0  0  0  0  0  0  0  0  0  0  0  0
  149.7925  141.9848  155.3261 H   0  0  0  0  0  0  0  0  0  0  0  0
  148.6934  142.0808  156.6744 H   0  0  0  0  0  0  0  0  0  0  0  0
  149.8104  140.2403  157.8503 H   0  0  0  0  0  0  0  0  0  0  0  0
  151.6427  138.9355  156.8693 H   0  0  0  0  0  0  0  0  0  0  0  0
  150.2390  138.8277  155.8260 H   0  0  0  0  0  0  0  0  0  0  0  0
  152.3881  139.3503  154.9000 H   0  0  0  0  0  0  0  0  0  0  0  0
  151.9827  142.0787  156.7437 H   0  0  0  0  0  0  0  0  0  0  0  0
  150.4980  143.6160  157.9037 H   0  0  0  0  0  0  0  0  0  0  0  0
  150.1622  142.4126  159.1556 H   0  0  0  0  0  0  0  0  0  0  0  0
  152.7520  143.9052  158.6217 H   0  0  0  0  0  0  0  0  0  0  0  0
  151.9465  143.6562  160.1739 H   0  0  0  0  0  0  0  0  0  0  0  0
  151.8973  140.2594  159.1777 H   0  0  0  0  0  0  0  0  0  0  0  0
  153.2123  140.4595  158.0184 H   0  0  0  0  0  0  0  0  0  0  0  0
  143.3637  137.1894  155.1880 H   0  0  0  0  0  0  0  0  0  0  0  0
  144.2832  135.7109  154.9878 H   0  0  0  0  0  0  0  0  0  0  0  0
  142.9368  138.4260  152.8642 H   0  0  0  0  0  0  0  0  0  0  0  0
  142.2120  137.4246  151.6090 H   0  0  0  0  0  0  0  0  0  0  0  0
  140.5010  138.3454  153.3653 H   0  0  0  0  0  0  0  0  0  0  0  0
  1  2  2  0  0  0  0
  2 29  1  0  0  0  0
  2  3  1  0  0  0  0
  3  4  1  0  0  0  0
  3 30  1  0  0  0  0
  3 31  1  0  0  0  0
  4 27  1  0  0  0  0
  4  5  1  0  0  0  0
  4 28  1  0  0  0  0
  5  6  1  0  0  0  0
  5 32  1  0  0  0  0
  5 33  1  0  0  0  0
  6  7  1  0  0  0  0
  6 34  1  0  0  0  0
  6 35  1  0  0  0  0
  7  8  1  0  0  0  0
  7 36  1  0  0  0  0
  7 37  1  0  0  0  0
  8  9  1  0  0  0  0
  8 27  1  0  0  0  0
  9 14  1  0  0  0  0
  9 10  2  0  0  0  0
 10 11  1  0  0  0  0
 11 12  2  0  0  0  0
 11 38  1  0  0  0  0
 12 13  1  0  0  0  0
 13 17  1  0  0  0  0
 13 14  2  0  0  0  0
 14 15  1  0  0  0  0
 15 16  2  0  0  0  0
 16 17  1  0  0  0  0
 16 39  1  0  0  0  0
 17 18  1  0  0  0  0
 18 19  1  0  0  0  0
 18 40  1  0  0  0  0
 18 41  1  0  0  0  0
 19 20  1  0  0  0  0
 19 22  1  0  0  0  0
 19 42  1  0  0  0  0
 20 21  1  0  0  0  0
 20 43  1  0  0  0  0
 20 44  1  0  0  0  0
 21 45  1  0  0  0  0
 22 26  1  0  0  0  0
 22 23  1  0  0  0  0
 22 46  1  0  0  0  0
 23 24  1  0  0  0  0
 23 47  1  0  0  0  0
 23 48  1  0  0  0  0
 24 25  1  0  0  0  0
 24 49  1  0  0  0  0
 24 50  1  0  0  0  0
 25 26  1  0  0  0  0
 26 51  1  0  0  0  0
 26 52  1  0  0  0  0
 27 53  1  0  0  0  0
 27 54  1  0  0  0  0
 28 29  1  0  0  0  0
 28 55  1  0  0  0  0
 28 56  1  0  0  0  0
 29 57  1  0  0  0  0
M  END
> <s_m_source_file>
AV-unprocessed.smi

> <i_m_source_file_index>
20

> <i_lp_mmshare_version>
43012

> <i_f3d_flags>
0

> <s_epik_input>
W0NIMl0xW05IXUMoPU8pW0NIMl1bQ0BAXTEyW0NIMl1bQ0gyXVtDSDJdTihbQ0gyXTIpYyhuW2NIXW4zKWMoYzM0KW5bY0hdbjRbQ0gyXVtDQEhdKFtDSDJdW09IXSlbQ0BASF01W0NIMl1bQ0gyXU9bQ0gyXTU=

> <s_epik_cmdline>
J2VwaWtfcHl0aG9uJywgJy1waCcsICc3LjAnLCAnLXRuJywgJzgnLCAnLW1hJywgJzIwMCcsICctbWV0YWxfYmluZGluZycsICctaW1hZScsICc8aW5maWxlLm1hZT4nLCAnLW9tYWUnLCAnPG91dGZpbGUubWFlPic=

> <r_lp_tautomer_probability>
1

> <r_epik_Ionization_Penalty>
0.0019697

> <r_epik_Ionization_Penalty_Charging>
0

> <r_epik_Ionization_Penalty_Neutral>
0.0019697

> <r_epik_State_Penalty>
0.00113613

> <r_epik_Charging_Adjusted_Penalty>
0.00113613

> <i_epik_Tot_Q>
0

> <i_epik_Tot_abs_Q>
0

> <r_epik_Metal_State_Penalty>
-0

> <b_epik_Metal_Only>
0

> <s_lp_Force_Field>
OPLS_2005

> <r_lp_Energy>
59.3743

> <b_lp_Chiralities_Consistent>
1

> <s_lp_Variant>
AV-unprocessed.smi:20-7

> <Gold.Version>
5.8.1

> <Gold.Id.Protein>
6NUR|6NUR_protein|mol2

> <Gold.PLP.Fitness>
42.6147

> <Gold.PLP.PLP>
-34.0045

> <Gold.PLP.part.hbond>
-2.0000

> <Gold.PLP.part.metal>
0.0000

> <Gold.PLP.part.buried>
-6.9007

> <Gold.PLP.part.nonpolar>
-25.6321

> <Gold.PLP.part.repulsive>
0.3968

> <Gold.PLP.ligand.clash>
0.0000

> <Gold.PLP.ligand.torsion>
0.3390

> <Gold.PLP.Chemscore.Hbond>
1.9920

> <Gold.PLP.Chemscore.CHOScore>
0.9361

> <Gold.PLP.Chemscore.Metal>
0.0000

> <Gold.Chemscore.Hbonds>
donor molecule, donor type, donor heavy atom, donor atom, acceptor molecule, acceptor atom, score
      P1  H  7989  7998       L1    21  0.94
      P1  H 11000 11005       L1     1  1.00
      L1  C    16    39       P1  7957  0.92

> <Gold.PLP.Chemscore.Internal.Correction>
0.5039

> <Gold.Rescore>
     Score         DG    S(hbond)    S(metal)    S(lipo)     H(rot)  DE(clash)    DE(int)     intcor
     11.92     -12.32       1.42        0.00      77.81       2.74       0.09       0.31       ----

> <Gold.Chemscore.Fitness>
11.9227

> <Gold.Chemscore.DG>
-12.3186

> <Gold.Chemscore.ZeroCoef>
-5.4800

> <Gold.Chemscore.Hbond>
1.4232

> <Gold.Chemscore.Metal>
0.0000

> <Gold.Chemscore.Lipo>
77.8058

> <Gold.Chemscore.Internal_Hbond>
0.0000

> <Gold.Chemscore.DEClash>
0.0891

> <Gold.Chemscore.DEInternal>
0.3068

> <Gold.Chemscore.Rot>
2.7415

> <Gold.Chemscore.Internal.Correction>
   9.000000E+99

> <Gold.Chemscore.Hbonds>
donor molecule, donor type, donor heavy atom, donor atom, acceptor molecule, acceptor atom, score
      P1  H  7989  7998       L1    21  0.20
      P1  H 11000 11005       L1     1  0.85

> <Gold.Chemscore.Hbond.Weighted>
-4.7535

> <Gold.Chemscore.Metal.Weighted>
-0.0000

> <Gold.Chemscore.Lipo.Weighted>
-9.1033

> <Gold.Chemscore.Internal_Hbond.Weighted>
0.0000

> <Gold.Chemscore.DEClash.Weighted>
0.0891

> <Gold.Chemscore.DEInternal.Weighted>
0.3068

> <Gold.Chemscore.Rot.Weighted>
7.0182

> <Gold.Chemscore.Internal.Correction.Weighted>
   9.000000E+99

> <Gold.Protein.RotatedTorsions>
[ 6907 6896 6895 6894 ] final  179.25 input  -60.11 | X-H torsion
[ 7974 7965 7964 7962 ] final -127.28 input  175.53 | X-H torsion
[ 8008 7997 7996 7995 ] final  -90.72 input   59.86 | X-H torsion
[ 10167 10162 10161 10158 ] final  -31.05 input  -65.29 | X-H torsion
[ 10718 10713 10712 10709 ] final  -57.31 input   66.30 | X-H torsion
[ 10763 10752 10751 10750 ] final -126.75 input  -60.55 | X-H torsion
[ 11005 11000 10999 10996 ] final   71.08 input  -57.11 | X-H torsion

> <Gold.Protein.ActiveResidues>
 VAL166  LYS551  ARG553  GLY616  TRP617  ASP618  TYR619  PRO620  LYS621  CYS622 
 ASP623  PHE694  ASN695  SER759  ASP760  ASP761  ALA762  ILE779  LEU786  VAL792 
 PHE793  MET794  SER795  GLU796  ALA797  LYS798  CYS799  TRP800  GLU811  SER814 

> <Gold.Protein.RotatedAtoms>
  151.6747  133.3313  159.3204 H   0  0  0  0  0  0  0  0  0  0  0  0  # atno 6907 bound_to 6896
  150.7851  134.6832  159.6465 H   0  0  0  0  0  0  0  0  0  0  0  0  # atno 6908 bound_to 6896
  152.3919  134.6432  160.0156 H   0  0  0  0  0  0  0  0  0  0  0  0  # atno 6909 bound_to 6896
  144.9787  140.7619  143.4625 H   0  0  0  0  0  0  0  0  0  0  0  0  # atno 7974 bound_to 7965
  154.7020  140.0527  157.0467 H   0  0  0  0  0  0  0  0  0  0  0  0  # atno 8008 bound_to 7997
  155.0672  140.3196  155.4623 H   0  0  0  0  0  0  0  0  0  0  0  0  # atno 8009 bound_to 7997
  156.2763  140.2088  156.5799 H   0  0  0  0  0  0  0  0  0  0  0  0  # atno 8010 bound_to 7997
  140.7241  143.3801  151.1616 H   0  0  0  0  0  0  0  0  0  0  0  0  # atno 10167 bound_to 10162
  156.1220  130.4165  150.0424 H   0  0  0  0  0  0  0  0  0  0  0  0  # atno 10718 bound_to 10713
  154.8748  135.3985  154.3481 H   0  0  0  0  0  0  0  0  0  0  0  0  # atno 10763 bound_to 10752
  153.4271  135.7024  153.6261 H   0  0  0  0  0  0  0  0  0  0  0  0  # atno 10764 bound_to 10752
  153.4898  135.3750  155.2456 H   0  0  0  0  0  0  0  0  0  0  0  0  # atno 10765 bound_to 10752
  139.9563  134.7139  156.0746 H   0  0  0  0  0  0  0  0  0  0  0  0  # atno 11005 bound_to 11000
  145.2452  139.2055  143.4971 LP  0  0  0  0  0  0  0  0  0  0  0  0  # atno 17320 bound_to 7965
  146.3402  140.2355  142.8594 LP  0  0  0  0  0  0  0  0  0  0  0  0  # atno 17321 bound_to 7965
  139.7388  143.8956  152.3043 LP  0  0  0  0  0  0  0  0  0  0  0  0  # atno 17342 bound_to 10162
  139.8770  144.7038  150.8921 LP  0  0  0  0  0  0  0  0  0  0  0  0  # atno 17343 bound_to 10162
  156.8359  130.9409  151.3634 LP  0  0  0  0  0  0  0  0  0  0  0  0  # atno 17370 bound_to 10713
  157.6403  130.8800  149.9436 LP  0  0  0  0  0  0  0  0  0  0  0  0  # atno 17371 bound_to 10713
  141.1234  133.6606  156.3275 LP  0  0  0  0  0  0  0  0  0  0  0  0  # atno 17394 bound_to 11000
  140.5602  134.5941  157.5431 LP  0  0  0  0  0  0  0  0  0  0  0  0  # atno 17395 bound_to 11000

$$$$
