#       Name:                AV-unprocessed.smi:123
#       Creating user name   scv26
#       Creation time:       Thu Mar 26 18:27:59 2020


#       File generated by GOLD software.
#

@<TRIPOS>MOLECULE
AV-unprocessed.smi:123
    53    55     1
SMALL
NO_CHARGES


@<TRIPOS>ATOM
      1 ****        -3.6154   3.9326  -0.0387 C.3            1 S1                 0.0000
      2 ****        -3.1223   2.4969  -0.2610 C.3            1 S1                 0.0000
      3 ****        -1.6674   2.5026  -0.3821 N.am           1 S1                 0.0000
      4 ****        -0.9339   1.5361  -0.9548 C.2            1 S1                 0.0000
      5 ****        -1.4272   0.5272  -1.4616 O.2            1 S1                 0.0000
      6 ****         0.5863   1.7586  -0.9451 C.3            1 S1                 0.0000
      7 ****         1.3541   0.6207  -1.4977 N.am           1 S1                 0.0000
      8 ****         1.6412   0.6060  -2.8849 C.2            1 S1                 0.0000
      9 ****         1.2827   1.5256  -3.6221 O.2            1 S1                 0.0000
     10 ****         2.3668  -0.5640  -3.3643 C.2            1 S1                 0.0000
     11 ****         2.6705  -0.6709  -4.6689 F              1 S1                 0.0000
     12 ****         2.7356  -1.5469  -2.5176 C.2            1 S1                 0.0000
     13 ****         2.4679  -1.5133  -1.1629 N.am           1 S1                 0.0000
     14 ****         2.8800  -2.6922  -0.3077 C.3            1 S1                 0.0000
     15 ****         3.8438  -2.3254   0.8307 C.3            1 S1                 0.0000
     16 ****         3.3884  -3.2734   1.9192 C.3            1 S1                 0.0000
     17 ****         1.8848  -3.3400   1.6746 C.3            1 S1                 0.0000
     18 ****         1.7394  -3.2704   0.2585 O.3            1 S1                 0.0000
     19 ****         1.7360  -0.4278  -0.6260 C.2            1 S1                 0.0000
     20 ****         1.4280  -0.3938   0.5662 O.2            1 S1                 0.0000
     21 ****        -3.5780   1.5708   0.8235 C.2            1 S1                 0.0000
     22 ****        -4.4889   0.5515   0.8644 C.2            1 S1                 0.0000
     23 ****        -4.4769   0.0552   2.1971 C.2            1 S1                 0.0000
     24 ****        -3.5628   0.8122   2.8727 C.2            1 S1                 0.0000
     25 ****        -3.0081   1.7439   2.0510 O.3            1 S1                 0.0000
     26 ****        -4.7041   3.9685   0.0079 H              1 S1                 0.0000
     27 ****        -3.2992   4.5874  -0.8512 H              1 S1                 0.0000
     28 ****        -3.2292   4.3469   0.8933 H              1 S1                 0.0000
     29 ****        -3.5411   2.1525  -1.2083 H              1 S1                 0.0000
     30 ****        -1.1816   3.2948   0.0123 H              1 S1                 0.0000
     31 ****         0.8030   2.6798  -1.4882 H              1 S1                 0.0000
     32 ****         0.8986   1.9771   0.0774 H              1 S1                 0.0000
     33 ****         3.2664  -2.3941  -2.9267 H              1 S1                 0.0000
     34 ****         3.3209  -3.4201  -0.9900 H              1 S1                 0.0000
     35 ****         4.8803  -2.4751   0.5280 H              1 S1                 0.0000
     36 ****         3.7184  -1.2906   1.1462 H              1 S1                 0.0000
     37 ****         3.8349  -4.2574   1.7696 H              1 S1                 0.0000
     38 ****         3.6432  -2.9293   2.9217 H              1 S1                 0.0000
     39 ****         1.4358  -4.2487   2.0755 H              1 S1                 0.0000
     40 ****         1.3836  -2.4881   2.1344 H              1 S1                 0.0000
     41 ****        -5.0873   0.2042   0.0353 H              1 S1                 0.0000
     42 ****        -5.0629  -0.7528   2.6094 H              1 S1                 0.0000
     43 ****        -3.2036   0.8225   3.8911 H              1 S1                 0.0000
     44 ****        -2.4191   0.3999  -1.4583 LP             1 S1                 0.0000
     45 ****        -0.8357  -0.1643  -1.8762 LP             1 S1                 0.0000
     46 ****         0.7787   2.3021  -3.2439 LP             1 S1                 0.0000
     47 ****         1.4957   1.4956  -4.5987 LP             1 S1                 0.0000
     48 ****         1.6179  -4.1927  -0.1084 LP             1 S1                 0.0000
     49 ****         0.9391  -2.7143   0.0340 LP             1 S1                 0.0000
     50 ****         0.9041   0.3786   0.9254 LP             1 S1                 0.0000
     51 ****         1.7018  -1.1385   1.1748 LP             1 S1                 0.0000
     52 ****        -3.1996   2.6637   2.3936 LP             1 S1                 0.0000
     53 ****        -2.0189   1.6086   1.9942 LP             1 S1                 0.0000
@<TRIPOS>BOND
    1    1    2 1     
    2    1   26 1     
    3    1   27 1     
    4    1   28 1     
    5    2    3 1     
    6    2   21 1     
    7    2   29 1     
    8    3    4 am    
    9    3   30 1     
   10    4    5 2     
   11    4    6 1     
   12    6    7 1     
   13    6   31 1     
   14    6   32 1     
   15    7   19 am    
   16    7    8 am    
   17    8    9 2     
   18    8   10 1     
   19   10   11 1     
   20   10   12 2     
   21   12   13 1     
   22   12   33 1     
   23   13   14 1     
   24   13   19 am    
   25   14   18 1     
   26   14   15 1     
   27   14   34 1     
   28   15   16 1     
   29   15   35 1     
   30   15   36 1     
   31   16   17 1     
   32   16   37 1     
   33   16   38 1     
   34   17   18 1     
   35   17   39 1     
   36   17   40 1     
   37   19   20 2     
   38   21   25 1     
   39   21   22 2     
   40   22   23 1     
   41   22   41 1     
   42   23   24 2     
   43   23   42 1     
   44   24   25 1     
   45   24   43 1     
   46    5   44 1     
   47    5   45 1     
   48    9   46 1     
   49    9   47 1     
   50   18   48 1     
   51   18   49 1     
   52   20   50 1     
   53   20   51 1     
   54   25   52 1     
   55   25   53 1     
@<TRIPOS>SUBSTRUCTURE
      1 S1             1
@<TRIPOS>SET
LONE_PAIRS      STATIC     ATOMS    <user>   **** ""
10 44 45 46 47 48 49 50 51 52 53
DONOR_HYDROGENS      STATIC     ATOMS    <user>   **** ""
1 30
ATOM$BLUE        STATIC     ATOMS    COLORGROUP SYSTEM
10 44 45 46 47 48 49 50 51 52 53
ATOM$RED        STATIC     ATOMS    COLORGROUP SYSTEM
1 30
