AV-unprocessed.smi:861|AV-procd|sdf|3972|dock9
  -GOLD-   22720 1443D 1   1.00000     0.00000
 Structure written by MMmdl.
 45 46  0  0  0  0  0  0  0  0  3 V2000
  152.2113  145.2285  159.1778 C   0  0  0  0  0  0  0  0  0  0  0  0
  151.9346  143.7152  159.1515 C   0  0  0  0  0  0  0  0  0  0  0  0
  153.2179  142.9349  159.4772 C   0  0  0  0  0  0  0  0  0  0  0  0
  151.3359  143.2446  157.8093 C   0  0  0  0  0  0  0  0  0  0  0  0
  150.1102  142.3209  157.9585 C   0  0  0  0  0  0  0  0  0  0  0  0
  149.3523  142.1653  156.6903 N   0  3  1  0  0  0  0  0  0  0  0  0
  149.9741  141.2100  155.7400 C   0  0  0  0  0  0  0  0  0  0  0  0
  149.1477  141.1211  154.4476 C   0  0  0  0  0  0  0  0  0  0  0  0
  147.8127  140.7466  154.7617 O   0  0  0  0  0  0  0  0  0  0  0  0
  147.1608  141.7013  155.5910 C   0  0  1  0  0  0  0  0  0  0  0  0
  145.7087  141.2218  155.7756 C   0  0  0  0  0  0  0  0  0  0  0  0
  144.7502  141.9827  154.9848 N   0  0  0  0  0  0  0  0  0  0  0  0
  144.3857  143.2948  155.3202 C   0  0  0  0  0  0  0  0  0  0  0  0
  144.8940  144.0096  156.4304 C   0  0  0  0  0  0  0  0  0  0  0  0
  144.4378  145.3215  156.6445 C   0  0  0  0  0  0  0  0  0  0  0  0
  143.5006  145.8424  155.7350 C   0  0  0  0  0  0  0  0  0  0  0  0
  143.0275  145.1438  154.6792 N   0  0  0  0  0  0  0  0  0  0  0  0
  143.4834  143.8915  154.5013 N   0  3  0  0  0  0  0  0  0  0  0  0
  147.9318  141.8064  156.9247 C   0  0  0  0  0  0  0  0  0  0  0  0
  152.8995  145.5197  158.3834 H   0  0  0  0  0  0  0  0  0  0  0  0
  152.6590  145.5264  160.1265 H   0  0  0  0  0  0  0  0  0  0  0  0
  151.2985  145.8114  159.0607 H   0  0  0  0  0  0  0  0  0  0  0  0
  151.2148  143.4922  159.9402 H   0  0  0  0  0  0  0  0  0  0  0  0
  153.9873  143.1043  158.7229 H   0  0  0  0  0  0  0  0  0  0  0  0
  153.0273  141.8623  159.5236 H   0  0  0  0  0  0  0  0  0  0  0  0
  153.6270  143.2342  160.4428 H   0  0  0  0  0  0  0  0  0  0  0  0
  151.0734  144.1119  157.2018 H   0  0  0  0  0  0  0  0  0  0  0  0
  152.1155  142.7172  157.2607 H   0  0  0  0  0  0  0  0  0  0  0  0
  150.4075  141.3408  158.3345 H   0  0  0  0  0  0  0  0  0  0  0  0
  149.4416  142.7481  158.7057 H   0  0  0  0  0  0  0  0  0  0  0  0
  150.9882  141.5185  155.4899 H   0  0  0  0  0  0  0  0  0  0  0  0
  150.0443  140.2250  156.2040 H   0  0  0  0  0  0  0  0  0  0  0  0
  149.1570  142.0706  153.9099 H   0  0  0  0  0  0  0  0  0  0  0  0
  149.5762  140.3732  153.7802 H   0  0  0  0  0  0  0  0  0  0  0  0
  147.1641  142.6673  155.0829 H   0  0  0  0  0  0  0  0  0  0  0  0
  145.6240  140.1632  155.5288 H   0  0  0  0  0  0  0  0  0  0  0  0
  145.4259  141.3052  156.8253 H   0  0  0  0  0  0  0  0  0  0  0  0
  144.3847  141.5653  154.1404 H   0  0  0  0  0  0  0  0  0  0  0  0
  145.6136  143.5793  157.1104 H   0  0  0  0  0  0  0  0  0  0  0  0
  144.7937  145.9111  157.4768 H   0  0  0  0  0  0  0  0  0  0  0  0
  143.1194  146.8458  155.8559 H   0  0  0  0  0  0  0  0  0  0  0  0
  147.8825  140.8594  157.4652 H   0  0  0  0  0  0  0  0  0  0  0  0
  147.4677  142.5620  157.5599 H   0  0  0  0  0  0  0  0  0  0  0  0
  149.3484  143.0708  156.2423 H   0  0  0  0  0  0  0  0  0  0  0  0
  143.1325  143.3608  153.7036 H   0  0  0  0  0  0  0  0  0  0  0  0
  1  2  1  0  0  0  0
  1 20  1  0  0  0  0
  1 21  1  0  0  0  0
  1 22  1  0  0  0  0
  2  3  1  0  0  0  0
  2  4  1  0  0  0  0
  2 23  1  0  0  0  0
  3 24  1  0  0  0  0
  3 25  1  0  0  0  0
  3 26  1  0  0  0  0
  4  5  1  0  0  0  0
  4 27  1  0  0  0  0
  4 28  1  0  0  0  0
  5  6  1  0  0  0  0
  5 29  1  0  0  0  0
  5 30  1  0  0  0  0
  6 19  1  0  0  0  0
  6  7  1  0  0  0  0
  6 44  1  0  0  0  0
  7  8  1  0  0  0  0
  7 31  1  0  0  0  0
  7 32  1  0  0  0  0
  8  9  1  0  0  0  0
  8 33  1  0  0  0  0
  8 34  1  0  0  0  0
  9 10  1  0  0  0  0
 10 11  1  0  0  0  0
 10 19  1  0  0  0  0
 10 35  1  0  0  0  0
 11 12  1  0  0  0  0
 11 36  1  0  0  0  0
 11 37  1  0  0  0  0
 12 13  1  0  0  0  0
 12 38  1  0  0  0  0
 13 18  1  0  0  0  0
 13 14  2  0  0  0  0
 14 15  1  0  0  0  0
 14 39  1  0  0  0  0
 15 16  2  0  0  0  0
 15 40  1  0  0  0  0
 16 17  1  0  0  0  0
 16 41  1  0  0  0  0
 17 18  2  0  0  0  0
 18 45  1  0  0  0  0
 19 42  1  0  0  0  0
 19 43  1  0  0  0  0
M  CHG  1   6   1
M  CHG  1  18   1
M  END
> <s_m_source_file>
AV-unprocessed.smi

> <i_m_source_file_index>
861

> <i_lp_mmshare_version>
43012

> <i_f3d_flags>
0

> <s_epik_input>
W0NIM11bQ0hdKFtDSDNdKVtDSDJdW0NIMl1OMVtDSDJdW0NIMl1PW0NASF0oW0NIMl0xKVtDSDJdW05IXWMyW2NIXVtjSF1bY0hdbm4y

> <s_epik_cmdline>
J2VwaWtfcHl0aG9uJywgJy1waCcsICc3LjAnLCAnLXRuJywgJzgnLCAnLW1hJywgJzIwMCcsICctbWV0YWxfYmluZGluZycsICctaW1hZScsICc8aW5maWxlLm1hZT4nLCAnLW9tYWUnLCAnPG91dGZpbGUubWFlPic=

> <r_lp_tautomer_probability>
0.966961

> <r_epik_Ionization_Penalty>
2.478

> <r_epik_Ionization_Penalty_Charging>
2.47799

> <r_epik_Ionization_Penalty_Neutral>
3.15286e-06

> <r_epik_State_Penalty>
2.10794

> <r_epik_Charging_Adjusted_Penalty>
4.58594

> <i_epik_Tot_Q>
2

> <i_epik_Tot_abs_Q>
2

> <r_epik_Metal_State_Penalty>
2.11378

> <b_epik_Metal_Only>
0

> <s_lp_Force_Field>
OPLS_2005

> <r_lp_Energy>
34.6119

> <b_lp_Chiralities_Consistent>
1

> <s_lp_Variant>
AV-unprocessed.smi:861-7

> <Gold.Version>
5.8.1

> <Gold.Id.Protein>
6NUR|6NUR_protein|mol2

> <Gold.PLP.Fitness>
50.1051

> <Gold.PLP.PLP>
-35.3158

> <Gold.PLP.part.hbond>
-3.0000

> <Gold.PLP.part.metal>
0.0000

> <Gold.PLP.part.buried>
-5.0981

> <Gold.PLP.part.nonpolar>
-28.3800

> <Gold.PLP.part.repulsive>
0.2462

> <Gold.PLP.ligand.clash>
0.0000

> <Gold.PLP.ligand.torsion>
1.6225

> <Gold.PLP.Chemscore.Hbond>
6.0000

> <Gold.PLP.Chemscore.CHOScore>
0.0000

> <Gold.PLP.Chemscore.Metal>
0.0000

> <Gold.Chemscore.Hbonds>
donor molecule, donor type, donor heavy atom, donor atom, acceptor molecule, acceptor atom, score
      L1  H     6    44       P1  8028  2.00
      L1  H    12    38       P1 10175  1.70
      L1  H    18    45       P1 10174  2.00

> <Gold.PLP.Chemscore.Internal.Correction>
0.0343

> <Gold.Rescore>
     Score         DG    S(hbond)    S(metal)    S(lipo)     H(rot)  DE(clash)    DE(int)     intcor
     18.39     -19.93       2.50        0.00      91.02       1.78       0.00       1.55       ----

> <Gold.Chemscore.Fitness>
18.3861

> <Gold.Chemscore.DG>
-19.9332

> <Gold.Chemscore.ZeroCoef>
-5.4800

> <Gold.Chemscore.Hbond>
2.4999

> <Gold.Chemscore.Metal>
0.0000

> <Gold.Chemscore.Lipo>
91.0221

> <Gold.Chemscore.Internal_Hbond>
0.0000

> <Gold.Chemscore.DEClash>
0.0000

> <Gold.Chemscore.DEInternal>
1.5471

> <Gold.Chemscore.Rot>
1.7759

> <Gold.Chemscore.Internal.Correction>
   9.000000E+99

> <Gold.Chemscore.Hbonds>
donor molecule, donor type, donor heavy atom, donor atom, acceptor molecule, acceptor atom, score
      L1  H     6    44       P1  8028  1.00
      L1  H    12    38       P1 10175  0.18
      L1  H    18    45       P1 10174  0.96

> <Gold.Chemscore.Hbond.Weighted>
-8.3498

> <Gold.Chemscore.Metal.Weighted>
-0.0000

> <Gold.Chemscore.Lipo.Weighted>
-10.6496

> <Gold.Chemscore.Internal_Hbond.Weighted>
0.0000

> <Gold.Chemscore.DEClash.Weighted>
0.0000

> <Gold.Chemscore.DEInternal.Weighted>
1.5471

> <Gold.Chemscore.Rot.Weighted>
4.5462

> <Gold.Chemscore.Internal.Correction.Weighted>
   9.000000E+99

> <Gold.Protein.RotatedTorsions>
[ 6907 6896 6895 6894 ] final  131.69 input  -60.11 | X-H torsion
[ 7974 7965 7964 7962 ] final -126.67 input  175.53 | X-H torsion
[ 8008 7997 7996 7995 ] final -179.41 input   59.86 | X-H torsion
[ 10167 10162 10161 10158 ] final   15.30 input  -65.29 | X-H torsion
[ 10718 10713 10712 10709 ] final   27.34 input   66.30 | X-H torsion
[ 10763 10752 10751 10750 ] final  170.72 input  -60.55 | X-H torsion
[ 11005 11000 10999 10996 ] final  -61.89 input  -57.11 | X-H torsion

> <Gold.Protein.ActiveResidues>
 VAL166  LYS551  ARG553  GLY616  TRP617  ASP618  TYR619  PRO620  LYS621  CYS622 
 ASP623  PHE694  ASN695  SER759  ASP760  ASP761  ALA762  ILE779  LEU786  VAL792 
 PHE793  MET794  SER795  GLU796  ALA797  LYS798  CYS799  TRP800  GLU811  SER814 

> <Gold.Protein.RotatedAtoms>
  152.3400  133.6056  159.5869 H   0  0  0  0  0  0  0  0  0  0  0  0  # atno 6907 bound_to 6896
  150.7473  133.9736  159.3562 H   0  0  0  0  0  0  0  0  0  0  0  0  # atno 6908 bound_to 6896
  151.7601  135.0813  160.0395 H   0  0  0  0  0  0  0  0  0  0  0  0  # atno 6909 bound_to 6896
  144.9849  140.7676  143.4590 H   0  0  0  0  0  0  0  0  0  0  0  0  # atno 7974 bound_to 7965
  156.0301  140.1280  157.0267 H   0  0  0  0  0  0  0  0  0  0  0  0  # atno 8008 bound_to 7997
  154.4346  140.1051  156.6158 H   0  0  0  0  0  0  0  0  0  0  0  0  # atno 8009 bound_to 7997
  155.5819  140.3468  155.4545 H   0  0  0  0  0  0  0  0  0  0  0  0  # atno 8010 bound_to 7997
  140.5877  143.8858  150.6845 H   0  0  0  0  0  0  0  0  0  0  0  0  # atno 10167 bound_to 10162
  157.2188  130.6969  149.6261 H   0  0  0  0  0  0  0  0  0  0  0  0  # atno 10718 bound_to 10713
  154.4017  135.2755  155.2092 H   0  0  0  0  0  0  0  0  0  0  0  0  # atno 10763 bound_to 10752
  154.4116  135.6021  153.5959 H   0  0  0  0  0  0  0  0  0  0  0  0  # atno 10764 bound_to 10752
  152.9831  135.5951  154.4285 H   0  0  0  0  0  0  0  0  0  0  0  0  # atno 10765 bound_to 10752
  141.1340  133.6634  156.5444 H   0  0  0  0  0  0  0  0  0  0  0  0  # atno 11005 bound_to 11000
  145.2368  139.2090  143.5013 LP  0  0  0  0  0  0  0  0  0  0  0  0  # atno 17320 bound_to 7965
  146.3417  140.2256  142.8592 LP  0  0  0  0  0  0  0  0  0  0  0  0  # atno 17321 bound_to 7965
  140.2373  143.3690  152.1516 LP  0  0  0  0  0  0  0  0  0  0  0  0  # atno 17342 bound_to 10162
  139.5208  144.7037  151.5418 LP  0  0  0  0  0  0  0  0  0  0  0  0  # atno 17343 bound_to 10162
  155.9684  130.4526  150.5782 LP  0  0  0  0  0  0  0  0  0  0  0  0  # atno 17370 bound_to 10713
  157.3597  131.0747  151.1647 LP  0  0  0  0  0  0  0  0  0  0  0  0  # atno 17371 bound_to 10713
  140.4114  134.7269  157.4838 LP  0  0  0  0  0  0  0  0  0  0  0  0  # atno 17394 bound_to 11000
  140.0425  134.6247  155.8963 LP  0  0  0  0  0  0  0  0  0  0  0  0  # atno 17395 bound_to 11000

$$$$
