#       Name:                AV-unprocessed.smi:2724
#       Creating user name   scv26
#       Creation time:       Fri Mar 27 14:55:11 2020


#       File generated by GOLD software.
#

@<TRIPOS>MOLECULE
AV-unprocessed.smi:2724
    28    29     1
SMALL
NO_CHARGES


@<TRIPOS>ATOM
      1 ****        -2.1764  -0.1031   1.5247 O.3            1 S1                 0.0000
      2 ****        -0.7683  -0.0190   1.4530 C.3            1 S1                 0.0000
      3 ****        -0.1086  -0.7462   2.6236 C.3            1 S1                 0.0000
      4 ****         1.3131  -1.0240   2.1353 C.3            1 S1                 0.0000
      5 ****         1.2073  -1.1967   0.6126 C.3            1 S1                 0.0000
      6 ****        -0.2077  -0.7315   0.2120 C.3            1 S1                 0.0000
      7 ****        -0.2358   0.1186  -1.0516 C.ar           1 S1                 0.0000
      8 ****         0.4724   1.3372  -1.1391 C.ar           1 S1                 0.0000
      9 ****         0.4049   2.0812  -2.3324 C.ar           1 S1                 0.0000
     10 ****        -0.3708   1.5759  -3.3942 C.ar           1 S1                 0.0000
     11 ****        -1.0537   0.4132  -3.3244 N.ar           1 S1                 0.0000
     12 ****        -0.9830  -0.2941  -2.1763 C.ar           1 S1                 0.0000
     13 ****        -2.5411   0.3403   0.7739 H              1 S1                 0.0000
     14 ****        -0.4631   1.0279   1.4743 H              1 S1                 0.0000
     15 ****        -0.1315  -0.1668   3.5472 H              1 S1                 0.0000
     16 ****        -0.6165  -1.6935   2.8119 H              1 S1                 0.0000
     17 ****         1.9483  -0.1661   2.3604 H              1 S1                 0.0000
     18 ****         1.7531  -1.8942   2.6233 H              1 S1                 0.0000
     19 ****         1.9884  -0.6094   0.1285 H              1 S1                 0.0000
     20 ****         1.3647  -2.2345   0.3161 H              1 S1                 0.0000
     21 ****        -0.8023  -1.6311   0.0406 H              1 S1                 0.0000
     22 ****         1.0594   1.6977  -0.3072 H              1 S1                 0.0000
     23 ****         0.9352   3.0167  -2.4321 H              1 S1                 0.0000
     24 ****        -0.4452   2.1201  -4.3239 H              1 S1                 0.0000
     25 ****        -1.5429  -1.2175  -2.1569 H              1 S1                 0.0000
     26 ****        -2.4983   0.3343   2.3644 LP             1 S1                 0.0000
     27 ****        -2.4579  -1.0627   1.5197 LP             1 S1                 0.0000
     28 ****        -1.5950   0.0860  -4.0989 LP             1 S1                 0.0000
@<TRIPOS>BOND
    1    1    2 1     
    2    1   13 1     
    3    2    6 1     
    4    2    3 1     
    5    2   14 1     
    6    3    4 1     
    7    3   15 1     
    8    3   16 1     
    9    4    5 1     
   10    4   17 1     
   11    4   18 1     
   12    5    6 1     
   13    5   19 1     
   14    5   20 1     
   15    6    7 1     
   16    6   21 1     
   17    7   12 ar    
   18    7    8 ar    
   19    8    9 ar    
   20    8   22 1     
   21    9   10 ar    
   22    9   23 1     
   23   10   11 ar    
   24   10   24 1     
   25   11   12 ar    
   26   12   25 1     
   27    1   26 1     
   28    1   27 1     
   29   11   28 1     
@<TRIPOS>SUBSTRUCTURE
      1 S1             1
@<TRIPOS>SET
LONE_PAIRS      STATIC     ATOMS    <user>   **** ""
3 26 27 28
DONOR_HYDROGENS      STATIC     ATOMS    <user>   **** ""
1 13
ATOM$BLUE        STATIC     ATOMS    COLORGROUP SYSTEM
3 26 27 28
ATOM$RED        STATIC     ATOMS    COLORGROUP SYSTEM
1 13
