AV-unprocessed.smi:1916|AV-procd|sdf|7765|dock9
  -GOLD-   22720 9513D 1   1.00000     0.00000
 Structure written by MMmdl.
 45 47  0  0  0  0  0  0  0  0  1 V2000
  152.4818  140.2021  155.3984 O   0  0  0  0  0  0  0  0  0  0  0  0
  151.3586  139.7478  155.6193 C   0  0  0  0  0  0  0  0  0  0  0  0
  150.4785  140.3281  156.4504 N   0  0  0  0  0  0  0  0  0  0  0  0
  150.6941  141.5770  157.1777 C   0  0  0  0  0  0  0  0  0  0  0  0
  151.9887  141.5571  158.0156 C   0  0  0  0  0  0  0  0  0  0  0  0
  152.1152  142.7281  158.9756 C   0  0  0  0  0  0  0  0  0  0  0  0
  152.3880  142.5145  160.3441 C   0  0  0  0  0  0  0  0  0  0  0  0
  152.4550  143.6329  161.1971 C   0  0  0  0  0  0  0  0  0  0  0  0
  152.2531  144.9150  160.6513 C   0  0  0  0  0  0  0  0  0  0  0  0
  151.9945  145.0224  159.2702 C   0  0  0  0  0  0  0  0  0  0  0  0
  151.9283  143.9568  158.4433 N   0  0  0  0  0  0  0  0  0  0  0  0
  150.8923  138.4635  154.9155 C   0  0  1  0  0  0  0  0  0  0  0  0
  150.4254  137.4104  155.9356 C   0  0  0  0  0  0  0  0  0  0  0  0
  148.9139  137.4025  155.7812 C   0  0  0  0  0  0  0  0  0  0  0  0
  148.1735  136.8048  156.5611 O   0  0  0  0  0  0  0  0  0  0  0  0
  148.5275  138.1466  154.7359 N   0  0  0  0  0  0  0  0  0  0  0  0
  147.1301  138.4657  154.4045 C   0  0  0  0  0  0  0  0  0  0  0  0
  146.2384  137.2512  154.0502 C   0  0  0  0  0  0  0  0  0  0  0  0
  145.4990  137.6372  152.7668 C   0  0  0  0  0  0  0  0  0  0  0  0
  146.4367  138.6126  152.0619 C   0  0  0  0  0  0  0  0  0  0  0  0
  147.0568  139.4235  153.1990 C   0  0  0  0  0  0  0  0  0  0  0  0
  149.6670  138.6927  154.0076 C   0  0  0  0  0  0  0  0  0  0  0  0
  149.5807  139.8823  156.5716 H   0  0  0  0  0  0  0  0  0  0  0  0
  150.7512  142.3828  156.4459 H   0  0  0  0  0  0  0  0  0  0  0  0
  149.8365  141.8062  157.8126 H   0  0  0  0  0  0  0  0  0  0  0  0
  152.0462  140.6248  158.5790 H   0  0  0  0  0  0  0  0  0  0  0  0
  152.8527  141.5585  157.3499 H   0  0  0  0  0  0  0  0  0  0  0  0
  152.5263  141.5174  160.7356 H   0  0  0  0  0  0  0  0  0  0  0  0
  152.6522  143.5090  162.2516 H   0  0  0  0  0  0  0  0  0  0  0  0
  152.2943  145.7950  161.2759 H   0  0  0  0  0  0  0  0  0  0  0  0
  151.8355  145.9899  158.8175 H   0  0  0  0  0  0  0  0  0  0  0  0
  151.7175  138.0682  154.3202 H   0  0  0  0  0  0  0  0  0  0  0  0
  150.8199  136.4236  155.6912 H   0  0  0  0  0  0  0  0  0  0  0  0
  150.7057  137.6412  156.9644 H   0  0  0  0  0  0  0  0  0  0  0  0
  146.6786  138.9669  155.2629 H   0  0  0  0  0  0  0  0  0  0  0  0
  146.8103  136.3453  153.8600 H   0  0  0  0  0  0  0  0  0  0  0  0
  145.5416  137.0146  154.8550 H   0  0  0  0  0  0  0  0  0  0  0  0
  145.2507  136.7733  152.1496 H   0  0  0  0  0  0  0  0  0  0  0  0
  144.5668  138.1447  153.0186 H   0  0  0  0  0  0  0  0  0  0  0  0
  147.2168  138.0592  151.5375 H   0  0  0  0  0  0  0  0  0  0  0  0
  145.9222  139.2381  151.3321 H   0  0  0  0  0  0  0  0  0  0  0  0
  146.4038  140.2623  153.4439 H   0  0  0  0  0  0  0  0  0  0  0  0
  148.0238  139.8427  152.9167 H   0  0  0  0  0  0  0  0  0  0  0  0
  149.5101  139.7446  153.7625 H   0  0  0  0  0  0  0  0  0  0  0  0
  149.7923  138.1486  153.0707 H   0  0  0  0  0  0  0  0  0  0  0  0
  1  2  2  0  0  0  0
  2  3  1  0  0  0  0
  2 12  1  0  0  0  0
  3  4  1  0  0  0  0
  3 23  1  0  0  0  0
  4  5  1  0  0  0  0
  4 24  1  0  0  0  0
  4 25  1  0  0  0  0
  5  6  1  0  0  0  0
  5 26  1  0  0  0  0
  5 27  1  0  0  0  0
  6 11  1  0  0  0  0
  6  7  2  0  0  0  0
  7  8  1  0  0  0  0
  7 28  1  0  0  0  0
  8  9  2  0  0  0  0
  8 29  1  0  0  0  0
  9 10  1  0  0  0  0
  9 30  1  0  0  0  0
 10 11  2  0  0  0  0
 10 31  1  0  0  0  0
 12 22  1  0  0  0  0
 12 13  1  0  0  0  0
 12 32  1  0  0  0  0
 13 14  1  0  0  0  0
 13 33  1  0  0  0  0
 13 34  1  0  0  0  0
 14 15  2  0  0  0  0
 14 16  1  0  0  0  0
 16 17  1  0  0  0  0
 16 22  1  0  0  0  0
 17 21  1  0  0  0  0
 17 18  1  0  0  0  0
 17 35  1  0  0  0  0
 18 19  1  0  0  0  0
 18 36  1  0  0  0  0
 18 37  1  0  0  0  0
 19 20  1  0  0  0  0
 19 38  1  0  0  0  0
 19 39  1  0  0  0  0
 20 21  1  0  0  0  0
 20 40  1  0  0  0  0
 20 41  1  0  0  0  0
 21 42  1  0  0  0  0
 21 43  1  0  0  0  0
 22 44  1  0  0  0  0
 22 45  1  0  0  0  0
M  END
> <s_m_source_file>
AV-unprocessed.smi

> <i_m_source_file_index>
1916

> <i_lp_mmshare_version>
43012

> <i_f3d_flags>
0

> <s_epik_input>
W0NIMl0xW0NIMl1bQ0gyXVtDSDJdW0NIXTFOKFtDSDJdMilDKD1PKVtDSDJdW0NASF0yQyg9TylbTkhdW0NIMl1bQ0gyXWMzW2NIXVtjSF1bY0hdW2NIXW4z

> <s_epik_cmdline>
J2VwaWtfcHl0aG9uJywgJy1waCcsICc3LjAnLCAnLXRuJywgJzgnLCAnLW1hJywgJzIwMCcsICctbWV0YWxfYmluZGluZycsICctaW1hZScsICc8aW5maWxlLm1hZT4nLCAnLW9tYWUnLCAnPG91dGZpbGUubWFlPic=

> <r_epik_Ionization_Penalty>
0.0252359

> <r_epik_Ionization_Penalty_Charging>
0

> <r_epik_Ionization_Penalty_Neutral>
0.0252359

> <r_epik_State_Penalty>
0.020532

> <r_epik_Charging_Adjusted_Penalty>
0.020532

> <i_epik_Tot_Q>
0

> <i_epik_Tot_abs_Q>
0

> <r_epik_Metal_State_Penalty>
0.0196901

> <b_epik_Metal_Only>
0

> <s_lp_Force_Field>
OPLS_2005

> <r_lp_Energy>
33.9945

> <b_lp_Chiralities_Consistent>
1

> <s_lp_Variant>
AV-unprocessed.smi:1916-2

> <Gold.Version>
5.8.1

> <Gold.Id.Protein>
6NUR|6NUR_protein|mol2

> <Gold.PLP.Fitness>
44.1227

> <Gold.PLP.PLP>
-41.0605

> <Gold.PLP.part.hbond>
-2.0000

> <Gold.PLP.part.metal>
0.0000

> <Gold.PLP.part.buried>
-3.7534

> <Gold.PLP.part.nonpolar>
-36.2051

> <Gold.PLP.part.repulsive>
0.1338

> <Gold.PLP.ligand.clash>
0.0000

> <Gold.PLP.ligand.torsion>
0.1600

> <Gold.PLP.Chemscore.Hbond>
1.1092

> <Gold.PLP.Chemscore.CHOScore>
0.0000

> <Gold.PLP.Chemscore.Metal>
0.0000

> <Gold.Chemscore.Hbonds>
donor molecule, donor type, donor heavy atom, donor atom, acceptor molecule, acceptor atom, score
      P1  H  7989  7998       L1     1  0.11
      P1  H  7997  8009       L1     1  1.00

> <Gold.PLP.Chemscore.Internal.Correction>
0.0545

> <Gold.Rescore>
     Score         DG    S(hbond)    S(metal)    S(lipo)     H(rot)  DE(clash)    DE(int)     intcor
     16.71     -18.34       0.99        0.00     116.82       1.61       0.36       1.26       ----

> <Gold.Chemscore.Fitness>
16.7129

> <Gold.Chemscore.DG>
-18.3383

> <Gold.Chemscore.ZeroCoef>
-5.4800

> <Gold.Chemscore.Hbond>
0.9924

> <Gold.Chemscore.Metal>
0.0000

> <Gold.Chemscore.Lipo>
116.8211

> <Gold.Chemscore.Internal_Hbond>
0.0000

> <Gold.Chemscore.DEClash>
0.3633

> <Gold.Chemscore.DEInternal>
1.2622

> <Gold.Chemscore.Rot>
1.6110

> <Gold.Chemscore.Internal.Correction>
   9.000000E+99

> <Gold.Chemscore.Hbonds>
donor molecule, donor type, donor heavy atom, donor atom, acceptor molecule, acceptor atom, score
      P1  H  7997  8009       L1     1  0.95

> <Gold.Chemscore.Hbond.Weighted>
-3.3146

> <Gold.Chemscore.Metal.Weighted>
-0.0000

> <Gold.Chemscore.Lipo.Weighted>
-13.6681

> <Gold.Chemscore.Internal_Hbond.Weighted>
0.0000

> <Gold.Chemscore.DEClash.Weighted>
0.3633

> <Gold.Chemscore.DEInternal.Weighted>
1.2622

> <Gold.Chemscore.Rot.Weighted>
4.1243

> <Gold.Chemscore.Internal.Correction.Weighted>
   9.000000E+99

> <Gold.Protein.RotatedTorsions>
[ 6907 6896 6895 6894 ] final  172.54 input  -60.11 | X-H torsion
[ 7974 7965 7964 7962 ] final  126.71 input  175.53 | X-H torsion
[ 8008 7997 7996 7995 ] final -149.93 input   59.86 | X-H torsion
[ 10167 10162 10161 10158 ] final  -52.94 input  -65.29 | X-H torsion
[ 10718 10713 10712 10709 ] final  167.38 input   66.30 | X-H torsion
[ 10763 10752 10751 10750 ] final -178.06 input  -60.55 | X-H torsion
[ 11005 11000 10999 10996 ] final  -34.02 input  -57.11 | X-H torsion

> <Gold.Protein.ActiveResidues>
 VAL166  LYS551  ARG553  GLY616  TRP617  ASP618  TYR619  PRO620  LYS621  CYS622 
 ASP623  PHE694  ASN695  SER759  ASP760  ASP761  ALA762  ILE779  LEU786  VAL792 
 PHE793  MET794  SER795  GLU796  ALA797  LYS798  CYS799  TRP800  GLU811  SER814 

> <Gold.Protein.RotatedAtoms>
  151.7827  133.3351  159.3475 H   0  0  0  0  0  0  0  0  0  0  0  0  # atno 6907 bound_to 6896
  150.7420  134.5916  159.5999 H   0  0  0  0  0  0  0  0  0  0  0  0  # atno 6908 bound_to 6896
  152.3265  134.7316  160.0352 H   0  0  0  0  0  0  0  0  0  0  0  0  # atno 6909 bound_to 6896
  145.0586  139.3823  143.5017 H   0  0  0  0  0  0  0  0  0  0  0  0  # atno 7974 bound_to 7965
  155.6155  140.0676  157.2694 H   0  0  0  0  0  0  0  0  0  0  0  0  # atno 8008 bound_to 7997
  154.4242  140.1794  156.1365 H   0  0  0  0  0  0  0  0  0  0  0  0  # atno 8009 bound_to 7997
  156.0051  140.3332  155.6888 H   0  0  0  0  0  0  0  0  0  0  0  0  # atno 8010 bound_to 7997
  140.6511  143.2567  151.4720 H   0  0  0  0  0  0  0  0  0  0  0  0  # atno 10167 bound_to 10162
  157.0523  131.0317  151.2676 H   0  0  0  0  0  0  0  0  0  0  0  0  # atno 10718 bound_to 10713
  154.5524  135.2814  155.0996 H   0  0  0  0  0  0  0  0  0  0  0  0  # atno 10763 bound_to 10752
  154.2437  135.6352  153.5219 H   0  0  0  0  0  0  0  0  0  0  0  0  # atno 10764 bound_to 10752
  153.0006  135.5566  154.6094 H   0  0  0  0  0  0  0  0  0  0  0  0  # atno 10765 bound_to 10752
  140.9682  133.7125  156.1480 H   0  0  0  0  0  0  0  0  0  0  0  0  # atno 11005 bound_to 11000
  146.3523  140.0273  142.8653 LP  0  0  0  0  0  0  0  0  0  0  0  0  # atno 17320 bound_to 7965
  145.1437  140.9585  143.4473 LP  0  0  0  0  0  0  0  0  0  0  0  0  # atno 17321 bound_to 7965
  139.5726  144.1892  152.1858 LP  0  0  0  0  0  0  0  0  0  0  0  0  # atno 17342 bound_to 10162
  140.1193  144.5387  150.6873 LP  0  0  0  0  0  0  0  0  0  0  0  0  # atno 17343 bound_to 10162
  157.5020  130.7886  149.7615 LP  0  0  0  0  0  0  0  0  0  0  0  0  # atno 17370 bound_to 10713
  156.0004  130.3884  150.2630 LP  0  0  0  0  0  0  0  0  0  0  0  0  # atno 17371 bound_to 10713
  140.7368  134.4194  157.5559 LP  0  0  0  0  0  0  0  0  0  0  0  0  # atno 17394 bound_to 11000
  139.8902  134.8810  156.2380 LP  0  0  0  0  0  0  0  0  0  0  0  0  # atno 17395 bound_to 11000

$$$$
