AV-unprocessed.smi:828|AV-procd|sdf|3860|dock2
  -GOLD-   22720 1313D 1   1.00000     0.00000
 Structure written by MMmdl.
 35 36  0  0  0  0  0  0  0  0  2 V2000
  152.4466  137.6243  158.5783 C   0  0  0  0  0  0  0  0  0  0  0  0
  151.9088  137.1288  157.2797 C   0  0  0  0  0  0  0  0  0  0  0  0
  152.5898  137.2248  156.1312 N   0  0  0  0  0  0  0  0  0  0  0  0
  151.8851  136.7007  155.0562 N   0  0  0  0  0  0  0  0  0  0  0  0
  150.6890  136.2241  155.4280 C   0  0  0  0  0  0  0  0  0  0  0  0
  149.7592  135.6380  154.5292 N   0  0  0  0  0  0  0  0  0  0  0  0
  149.0757  134.4888  154.6698 C   0  0  0  0  0  0  0  0  0  0  0  0
  149.1232  133.7443  155.6495 O   0  0  0  0  0  0  0  0  0  0  0  0
  148.3185  134.2389  153.5921 N   0  0  0  0  0  0  0  0  0  0  0  0
  147.4563  133.0727  153.4271 C   0  0  0  0  0  0  0  0  0  0  0  0
  147.0813  132.8254  151.9438 C   0  0  2  0  0  0  0  0  0  0  0  0
  146.0724  133.8479  151.3938 C   0  0  0  0  0  0  0  0  0  0  0  0
  145.3180  133.0809  150.3168 C   0  0  0  0  0  0  0  0  0  0  0  0
  145.2419  131.6773  150.9078 C   0  0  0  0  0  0  0  0  0  0  0  0
  146.5199  131.4787  151.6250 N   0  3  2  0  0  0  0  0  0  0  0  0
  146.4357  130.4807  152.7167 C   0  0  0  0  0  0  0  0  0  0  0  0
  150.3230  136.3799  157.1376 S   0  0  0  0  0  0  0  0  0  0  0  0
  153.5268  137.4818  158.6217 H   0  0  0  0  0  0  0  0  0  0  0  0
  151.9913  137.0825  159.4074 H   0  0  0  0  0  0  0  0  0  0  0  0
  152.2274  138.6861  158.6907 H   0  0  0  0  0  0  0  0  0  0  0  0
  149.6042  136.1512  153.6740 H   0  0  0  0  0  0  0  0  0  0  0  0
  148.3364  134.9041  152.8326 H   0  0  0  0  0  0  0  0  0  0  0  0
  147.9590  132.2040  153.8546 H   0  0  0  0  0  0  0  0  0  0  0  0
  146.5602  133.2454  154.0233 H   0  0  0  0  0  0  0  0  0  0  0  0
  147.9886  132.8970  151.3426 H   0  0  0  0  0  0  0  0  0  0  0  0
  145.3743  134.1499  152.1757 H   0  0  0  0  0  0  0  0  0  0  0  0
  146.5524  134.7489  151.0106 H   0  0  0  0  0  0  0  0  0  0  0  0
  144.3366  133.5041  150.1007 H   0  0  0  0  0  0  0  0  0  0  0  0
  145.8955  133.0690  149.3913 H   0  0  0  0  0  0  0  0  0  0  0  0
  144.4112  131.6280  151.6139 H   0  0  0  0  0  0  0  0  0  0  0  0
  145.0837  130.9104  150.1490 H   0  0  0  0  0  0  0  0  0  0  0  0
  145.7750  130.8149  153.5172 H   0  0  0  0  0  0  0  0  0  0  0  0
  147.4206  130.2724  153.1350 H   0  0  0  0  0  0  0  0  0  0  0  0
  146.0421  129.5399  152.3311 H   0  0  0  0  0  0  0  0  0  0  0  0
  147.1559  131.0892  150.9434 H   0  0  0  0  0  0  0  0  0  0  0  0
  1  2  1  0  0  0  0
  1 18  1  0  0  0  0
  1 19  1  0  0  0  0
  1 20  1  0  0  0  0
  2 17  1  0  0  0  0
  2  3  2  0  0  0  0
  3  4  1  0  0  0  0
  4  5  2  0  0  0  0
  5  6  1  0  0  0  0
  5 17  1  0  0  0  0
  6  7  1  0  0  0  0
  6 21  1  0  0  0  0
  7  8  2  0  0  0  0
  7  9  1  0  0  0  0
  9 10  1  0  0  0  0
  9 22  1  0  0  0  0
 10 11  1  0  0  0  0
 10 23  1  0  0  0  0
 10 24  1  0  0  0  0
 11 15  1  0  0  0  0
 11 12  1  0  0  0  0
 11 25  1  0  0  0  0
 12 13  1  0  0  0  0
 12 26  1  0  0  0  0
 12 27  1  0  0  0  0
 13 14  1  0  0  0  0
 13 28  1  0  0  0  0
 13 29  1  0  0  0  0
 14 15  1  0  0  0  0
 14 30  1  0  0  0  0
 14 31  1  0  0  0  0
 15 16  1  0  0  0  0
 15 35  1  0  0  0  0
 16 32  1  0  0  0  0
 16 33  1  0  0  0  0
 16 34  1  0  0  0  0
M  CHG  1  15   1
M  END
> <s_m_source_file>
AV-unprocessed.smi

> <i_m_source_file_index>
828

> <i_lp_mmshare_version>
43012

> <i_f3d_flags>
0

> <s_epik_input>
W0NIM11jMW5uYyhzMSlbTkhdQyg9TylbTkhdW0NIMl1bQ0BASF0yW0NIMl1bQ0gyXVtDSDJdTjJbQ0gzXQ==

> <s_epik_cmdline>
J2VwaWtfcHl0aG9uJywgJy1waCcsICc3LjAnLCAnLXRuJywgJzgnLCAnLW1hJywgJzIwMCcsICctbWV0YWxfYmluZGluZycsICctaW1hZScsICc8aW5maWxlLm1hZT4nLCAnLW9tYWUnLCAnPG91dGZpbGUubWFlPic=

> <r_lp_tautomer_probability>
1

> <r_epik_Ionization_Penalty>
0.00466477

> <r_epik_Ionization_Penalty_Charging>
0.00372199

> <r_epik_Ionization_Penalty_Neutral>
0.000942783

> <r_epik_State_Penalty>
-0

> <r_epik_Charging_Adjusted_Penalty>
0.00372199

> <i_epik_Tot_Q>
1

> <i_epik_Tot_abs_Q>
1

> <r_epik_Metal_State_Penalty>
0.28212

> <b_epik_Metal_Only>
0

> <s_lp_Force_Field>
OPLS_2005

> <r_lp_Energy>
27.2564

> <b_lp_Chiralities_Consistent>
1

> <s_lp_Variant>
AV-unprocessed.smi:828-3

> <Gold.Version>
5.8.1

> <Gold.Id.Protein>
6NUR|6NUR_protein|mol2

> <Gold.PLP.Fitness>
36.1613

> <Gold.PLP.PLP>
-25.4308

> <Gold.PLP.part.hbond>
-5.0000

> <Gold.PLP.part.metal>
0.0000

> <Gold.PLP.part.buried>
-4.3850

> <Gold.PLP.part.nonpolar>
-16.3196

> <Gold.PLP.part.repulsive>
0.1650

> <Gold.PLP.ligand.clash>
0.0000

> <Gold.PLP.ligand.torsion>
0.6364

> <Gold.PLP.Chemscore.Hbond>
4.0000

> <Gold.PLP.Chemscore.CHOScore>
0.0000

> <Gold.PLP.Chemscore.Metal>
0.0000

> <Gold.Chemscore.Hbonds>
donor molecule, donor type, donor heavy atom, donor atom, acceptor molecule, acceptor atom, score
      L1  H     6    21       P1  7948  1.00
      L1  H     9    22       P1  7948  1.00
      L1  H    15    35       P1 10747  1.00
      P1  H 10752 10764       L1     4  1.00

> <Gold.PLP.Chemscore.Internal.Correction>
0.0032

> <Gold.Rescore>
     Score         DG    S(hbond)    S(metal)    S(lipo)     H(rot)  DE(clash)    DE(int)     intcor
     18.32     -19.10       3.30        0.00      51.15       1.33       0.00       0.78       ----

> <Gold.Chemscore.Fitness>
18.3188

> <Gold.Chemscore.DG>
-19.0991

> <Gold.Chemscore.ZeroCoef>
-5.4800

> <Gold.Chemscore.Hbond>
3.3049

> <Gold.Chemscore.Metal>
0.0000

> <Gold.Chemscore.Lipo>
51.1461

> <Gold.Chemscore.Internal_Hbond>
0.0000

> <Gold.Chemscore.DEClash>
0.0000

> <Gold.Chemscore.DEInternal>
0.7802

> <Gold.Chemscore.Rot>
1.3294

> <Gold.Chemscore.Internal.Correction>
   9.000000E+99

> <Gold.Chemscore.Hbonds>
donor molecule, donor type, donor heavy atom, donor atom, acceptor molecule, acceptor atom, score
      L1  H     6    21       P1  7948  0.42
      L1  H     9    22       P1  7948  0.65
      L1  H    15    35       P1 10747  0.93
      P1  H 10752 10764       L1     4  0.23

> <Gold.Chemscore.Hbond.Weighted>
-11.0383

> <Gold.Chemscore.Metal.Weighted>
-0.0000

> <Gold.Chemscore.Lipo.Weighted>
-5.9841

> <Gold.Chemscore.Internal_Hbond.Weighted>
0.0000

> <Gold.Chemscore.DEClash.Weighted>
0.0000

> <Gold.Chemscore.DEInternal.Weighted>
0.7802

> <Gold.Chemscore.Rot.Weighted>
3.4033

> <Gold.Chemscore.Internal.Correction.Weighted>
   9.000000E+99

> <Gold.Protein.RotatedTorsions>
[ 6907 6896 6895 6894 ] final  -11.94 input  -60.11 | X-H torsion
[ 7974 7965 7964 7962 ] final -127.47 input  175.53 | X-H torsion
[ 8008 7997 7996 7995 ] final  -87.20 input   59.86 | X-H torsion
[ 10167 10162 10161 10158 ] final   55.06 input  -65.29 | X-H torsion
[ 10718 10713 10712 10709 ] final -170.05 input   66.30 | X-H torsion
[ 10763 10752 10751 10750 ] final  -63.54 input  -60.55 | X-H torsion
[ 11005 11000 10999 10996 ] final   92.01 input  -57.11 | X-H torsion

> <Gold.Protein.ActiveResidues>
 VAL166  LYS551  ARG553  GLY616  TRP617  ASP618  TYR619  PRO620  LYS621  CYS622 
 ASP623  PHE694  ASN695  SER759  ASP760  ASP761  ALA762  ILE779  LEU786  VAL792 
 PHE793  MET794  SER795  GLU796  ALA797  LYS798  CYS799  TRP800  GLU811  SER814 

> <Gold.Protein.RotatedAtoms>
  151.3783  135.0935  159.9487 H   0  0  0  0  0  0  0  0  0  0  0  0  # atno 6907 bound_to 6896
  152.5116  133.9097  159.7492 H   0  0  0  0  0  0  0  0  0  0  0  0  # atno 6908 bound_to 6896
  150.9525  133.6478  159.2798 H   0  0  0  0  0  0  0  0  0  0  0  0  # atno 6909 bound_to 6896
  144.9767  140.7600  143.4637 H   0  0  0  0  0  0  0  0  0  0  0  0  # atno 7974 bound_to 7965
  154.6606  140.0569  157.0057 H   0  0  0  0  0  0  0  0  0  0  0  0  # atno 8008 bound_to 7997
  155.1235  140.3249  155.4473 H   0  0  0  0  0  0  0  0  0  0  0  0  # atno 8009 bound_to 7997
  156.2616  140.1993  156.6356 H   0  0  0  0  0  0  0  0  0  0  0  0  # atno 8010 bound_to 7997
  140.2235  144.3763  150.6441 H   0  0  0  0  0  0  0  0  0  0  0  0  # atno 10167 bound_to 10162
  156.7204  130.9268  151.3097 H   0  0  0  0  0  0  0  0  0  0  0  0  # atno 10718 bound_to 10713
  154.3166  135.6205  153.5489 H   0  0  0  0  0  0  0  0  0  0  0  0  # atno 10763 bound_to 10752
  152.9824  135.5714  154.5117 H   0  0  0  0  0  0  0  0  0  0  0  0  # atno 10764 bound_to 10752
  154.4777  135.2862  155.1571 H   0  0  0  0  0  0  0  0  0  0  0  0  # atno 10765 bound_to 10752
  139.8830  134.8708  156.3511 H   0  0  0  0  0  0  0  0  0  0  0  0  # atno 11005 bound_to 11000
  145.2479  139.2044  143.4958 LP  0  0  0  0  0  0  0  0  0  0  0  0  # atno 17320 bound_to 7965
  146.3397  140.2387  142.8595 LP  0  0  0  0  0  0  0  0  0  0  0  0  # atno 17321 bound_to 7965
  140.6238  143.2179  151.6639 LP  0  0  0  0  0  0  0  0  0  0  0  0  # atno 17342 bound_to 10162
  139.5135  144.3439  152.0715 LP  0  0  0  0  0  0  0  0  0  0  0  0  # atno 17343 bound_to 10162
  157.6900  130.9224  150.0488 LP  0  0  0  0  0  0  0  0  0  0  0  0  # atno 17370 bound_to 10713
  156.1598  130.3643  149.9316 LP  0  0  0  0  0  0  0  0  0  0  0  0  # atno 17371 bound_to 10713
  140.9593  133.7399  156.0379 LP  0  0  0  0  0  0  0  0  0  0  0  0  # atno 17394 bound_to 11000
  140.8009  134.3510  157.5439 LP  0  0  0  0  0  0  0  0  0  0  0  0  # atno 17395 bound_to 11000

$$$$
