AV-unprocessed.smi:236|AV-procd|sdf|1816|dock3
  -GOLD-   2262020403D 1   1.00000     0.00000
 Structure written by MMmdl.
 58 62  0  0  0  0  0  0  0  0  1 V2000
  145.5041  133.0687  162.2092 C   0  0  0  0  0  0  0  0  0  0  0  0
  145.7774  134.5140  162.6502 C   0  0  1  0  0  0  0  0  0  0  0  0
  147.0242  134.6065  163.3343 O   0  0  0  0  0  0  0  0  0  0  0  0
  147.6340  135.8680  163.0758 C   0  0  0  0  0  0  0  0  0  0  0  0
  146.6091  136.6674  162.2760 C   0  0  0  0  0  0  0  0  0  0  0  0
  145.8375  135.5795  161.5392 C   0  0  2  0  0  0  0  0  0  0  0  0
  144.5385  136.0591  161.2473 O   0  0  0  0  0  0  0  0  0  0  0  0
  146.5255  135.0965  160.2322 C   0  0  0  0  0  0  0  0  0  0  0  0
  147.5121  136.0266  159.7057 N   0  0  0  0  0  0  0  0  0  0  0  0
  148.7623  136.2837  160.2215 C   0  0  0  0  0  0  0  0  0  0  0  0
  149.4608  137.1728  159.5698 N   0  0  0  0  0  0  0  0  0  0  0  0
  148.6398  137.5424  158.5102 C   0  0  0  0  0  0  0  0  0  0  0  0
  148.7683  138.4581  157.4267 C   0  0  0  0  0  0  0  0  0  0  0  0
  149.8799  139.2121  157.2263 N   0  0  0  0  0  0  0  0  0  0  0  0
  150.7612  138.8511  156.1182 C   0  0  0  0  0  0  0  0  0  0  0  0
  151.7974  139.9607  155.8827 C   0  0  0  0  0  0  0  0  0  0  0  0
  152.5008  140.2143  157.0939 O   0  0  0  0  0  0  0  0  0  0  0  0
  151.6400  140.6816  158.1299 C   0  0  2  0  0  0  0  0  0  0  0  0
  152.4999  141.0149  159.3554 C   0  0  0  0  0  0  0  0  0  0  0  0
  153.0522  142.3107  159.1917 O   0  0  0  0  0  0  0  0  0  0  0  0
  152.4903  143.2615  160.0790 C   0  0  0  0  0  0  0  0  0  0  0  0
  152.1232  144.5061  159.2992 C   0  0  0  0  0  0  0  0  0  0  0  0
  151.2870  144.4053  158.0438 C   0  0  0  0  0  0  0  0  0  0  0  0
  152.7440  144.7809  157.9485 C   0  0  0  0  0  0  0  0  0  0  0  0
  150.6043  139.5828  158.4386 C   0  0  0  0  0  0  0  0  0  0  0  0
  147.7140  138.5645  156.5734 N   0  0  0  0  0  0  0  0  0  0  0  0
  146.6175  137.8229  156.7551 C   0  0  0  0  0  0  0  0  0  0  0  0
  146.3638  136.9302  157.7131 N   0  0  0  0  0  0  0  0  0  0  0  0
  147.4104  136.8270  158.5811 C   0  0  0  0  0  0  0  0  0  0  0  0
  144.5683  132.9989  161.6542 H   0  0  0  0  0  0  0  0  0  0  0  0
  145.4250  132.4114  163.0753 H   0  0  0  0  0  0  0  0  0  0  0  0
  146.3035  132.6801  161.5782 H   0  0  0  0  0  0  0  0  0  0  0  0
  145.0137  134.8049  163.3742 H   0  0  0  0  0  0  0  0  0  0  0  0
  147.9172  136.3697  164.0013 H   0  0  0  0  0  0  0  0  0  0  0  0
  148.5384  135.7051  162.4887 H   0  0  0  0  0  0  0  0  0  0  0  0
  145.9509  137.1892  162.9730 H   0  0  0  0  0  0  0  0  0  0  0  0
  147.0589  137.4242  161.6350 H   0  0  0  0  0  0  0  0  0  0  0  0
  143.9545  135.3198  161.1736 H   0  0  0  0  0  0  0  0  0  0  0  0
  147.0189  134.1373  160.3936 H   0  0  0  0  0  0  0  0  0  0  0  0
  145.7823  134.9261  159.4523 H   0  0  0  0  0  0  0  0  0  0  0  0
  149.1374  135.7969  161.1101 H   0  0  0  0  0  0  0  0  0  0  0  0
  151.2690  137.9129  156.3466 H   0  0  0  0  0  0  0  0  0  0  0  0
  150.1791  138.6957  155.2089 H   0  0  0  0  0  0  0  0  0  0  0  0
  152.5082  139.6541  155.1153 H   0  0  0  0  0  0  0  0  0  0  0  0
  151.3184  140.8743  155.5272 H   0  0  0  0  0  0  0  0  0  0  0  0
  151.1236  141.5861  157.8024 H   0  0  0  0  0  0  0  0  0  0  0  0
  151.8825  141.0006  160.2553 H   0  0  0  0  0  0  0  0  0  0  0  0
  153.2869  140.2701  159.4849 H   0  0  0  0  0  0  0  0  0  0  0  0
  151.6031  142.8523  160.5650 H   0  0  0  0  0  0  0  0  0  0  0  0
  153.2069  143.5306  160.8563 H   0  0  0  0  0  0  0  0  0  0  0  0
  151.9366  145.3767  159.9253 H   0  0  0  0  0  0  0  0  0  0  0  0
  151.0027  143.4128  157.6998 H   0  0  0  0  0  0  0  0  0  0  0  0
  150.5525  145.1883  157.8659 H   0  0  0  0  0  0  0  0  0  0  0  0
  152.9831  145.8147  157.7074 H   0  0  0  0  0  0  0  0  0  0  0  0
  153.4297  144.0380  157.5455 H   0  0  0  0  0  0  0  0  0  0  0  0
  149.9263  139.9348  159.2148 H   0  0  0  0  0  0  0  0  0  0  0  0
  151.1035  138.6968  158.8338 H   0  0  0  0  0  0  0  0  0  0  0  0
  145.8307  137.9671  156.0294 H   0  0  0  0  0  0  0  0  0  0  0  0
  1  2  1  0  0  0  0
  1 30  1  0  0  0  0
  1 31  1  0  0  0  0
  1 32  1  0  0  0  0
  2  6  1  0  0  0  0
  2  3  1  0  0  0  0
  2 33  1  0  0  0  0
  3  4  1  0  0  0  0
  4  5  1  0  0  0  0
  4 34  1  0  0  0  0
  4 35  1  0  0  0  0
  5  6  1  0  0  0  0
  5 36  1  0  0  0  0
  5 37  1  0  0  0  0
  6  7  1  0  0  0  0
  6  8  1  0  0  0  0
  7 38  1  0  0  0  0
  8  9  1  0  0  0  0
  8 39  1  0  0  0  0
  8 40  1  0  0  0  0
  9 29  1  0  0  0  0
  9 10  1  0  0  0  0
 10 11  2  0  0  0  0
 10 41  1  0  0  0  0
 11 12  1  0  0  0  0
 12 29  2  0  0  0  0
 12 13  1  0  0  0  0
 13 14  1  0  0  0  0
 13 26  2  0  0  0  0
 14 25  1  0  0  0  0
 14 15  1  0  0  0  0
 15 16  1  0  0  0  0
 15 42  1  0  0  0  0
 15 43  1  0  0  0  0
 16 17  1  0  0  0  0
 16 44  1  0  0  0  0
 16 45  1  0  0  0  0
 17 18  1  0  0  0  0
 18 19  1  0  0  0  0
 18 25  1  0  0  0  0
 18 46  1  0  0  0  0
 19 20  1  0  0  0  0
 19 47  1  0  0  0  0
 19 48  1  0  0  0  0
 20 21  1  0  0  0  0
 21 22  1  0  0  0  0
 21 49  1  0  0  0  0
 21 50  1  0  0  0  0
 22 24  1  0  0  0  0
 22 23  1  0  0  0  0
 22 51  1  0  0  0  0
 23 24  1  0  0  0  0
 23 52  1  0  0  0  0
 23 53  1  0  0  0  0
 24 54  1  0  0  0  0
 24 55  1  0  0  0  0
 25 56  1  0  0  0  0
 25 57  1  0  0  0  0
 26 27  1  0  0  0  0
 27 28  2  0  0  0  0
 27 58  1  0  0  0  0
 28 29  1  0  0  0  0
M  END
> <s_m_source_file>
AV-unprocessed.smi

> <i_m_source_file_index>
236

> <i_lp_mmshare_version>
43012

> <i_f3d_flags>
0

> <s_epik_input>
W0NIMl0xW0NIMl1PW0NAQEhdKFtDSDNdKVtDQEBdMShbT0hdKVtDSDJdbihbY0hdbjIpYyhjMjMpbltjSF1uYzNONFtDSDJdW0NIMl1PW0NASF0oW0NIMl00KVtDSDJdT1tDSDJdW0NIXTVbQ0gyXVtDSDJdNQ==

> <s_epik_cmdline>
J2VwaWtfcHl0aG9uJywgJy1waCcsICc3LjAnLCAnLXRuJywgJzgnLCAnLW1hJywgJzIwMCcsICctbWV0YWxfYmluZGluZycsICctaW1hZScsICc8aW5maWxlLm1hZT4nLCAnLW9tYWUnLCAnPG91dGZpbGUubWFlPic=

> <r_lp_tautomer_probability>
1

> <r_epik_Ionization_Penalty>
7.21838e-05

> <r_epik_Ionization_Penalty_Charging>
0

> <r_epik_Ionization_Penalty_Neutral>
7.21838e-05

> <r_epik_State_Penalty>
-0

> <r_epik_Charging_Adjusted_Penalty>
0

> <i_epik_Tot_Q>
0

> <i_epik_Tot_abs_Q>
0

> <r_epik_Metal_State_Penalty>
-0

> <b_epik_Metal_Only>
0

> <s_lp_Force_Field>
OPLS_2005

> <r_lp_Energy>
48.2383

> <b_lp_Chiralities_Consistent>
1

> <s_lp_Variant>
AV-unprocessed.smi:236-8

> <Gold.Version>
5.8.1

> <Gold.Id.Protein>
6NUR|6NUR_protein|mol2

> <Gold.PLP.Fitness>
49.0769

> <Gold.PLP.PLP>
-50.7082

> <Gold.PLP.part.hbond>
-2.5787

> <Gold.PLP.part.metal>
0.0000

> <Gold.PLP.part.buried>
-6.9573

> <Gold.PLP.part.nonpolar>
-40.8251

> <Gold.PLP.part.repulsive>
0.0115

> <Gold.PLP.ligand.clash>
0.0000

> <Gold.PLP.ligand.torsion>
2.8072

> <Gold.PLP.Chemscore.Hbond>
1.0000

> <Gold.PLP.Chemscore.CHOScore>
0.0000

> <Gold.PLP.Chemscore.Metal>
0.0000

> <Gold.Chemscore.Hbonds>
donor molecule, donor type, donor heavy atom, donor atom, acceptor molecule, acceptor atom, score
      P1  H  7997  8009       L1    17  0.99

> <Gold.PLP.Chemscore.Internal.Correction>
0.9831

> <Gold.Rescore>
     Score         DG    S(hbond)    S(metal)    S(lipo)     H(rot)  DE(clash)    DE(int)     intcor
     10.53     -15.70       0.87        0.00     125.25       2.87       0.21       4.96       ----

> <Gold.Chemscore.Fitness>
10.5334

> <Gold.Chemscore.DG>
-15.7048

> <Gold.Chemscore.ZeroCoef>
-5.4800

> <Gold.Chemscore.Hbond>
0.8700

> <Gold.Chemscore.Metal>
0.0000

> <Gold.Chemscore.Lipo>
125.2543

> <Gold.Chemscore.Internal_Hbond>
0.0000

> <Gold.Chemscore.DEClash>
0.2067

> <Gold.Chemscore.DEInternal>
4.9647

> <Gold.Chemscore.Rot>
2.8655

> <Gold.Chemscore.Internal.Correction>
   9.000000E+99

> <Gold.Chemscore.Hbonds>
donor molecule, donor type, donor heavy atom, donor atom, acceptor molecule, acceptor atom, score
      P1  H  7997  8009       L1    17  0.61

> <Gold.Chemscore.Hbond.Weighted>
-2.9058

> <Gold.Chemscore.Metal.Weighted>
-0.0000

> <Gold.Chemscore.Lipo.Weighted>
-14.6547

> <Gold.Chemscore.Internal_Hbond.Weighted>
0.0000

> <Gold.Chemscore.DEClash.Weighted>
0.2067

> <Gold.Chemscore.DEInternal.Weighted>
4.9647

> <Gold.Chemscore.Rot.Weighted>
7.3358

> <Gold.Chemscore.Internal.Correction.Weighted>
   9.000000E+99

> <Gold.Protein.RotatedTorsions>
[ 6907 6896 6895 6894 ] final -148.32 input  -60.11 | X-H torsion
[ 7974 7965 7964 7962 ] final -148.17 input  175.53 | X-H torsion
[ 8008 7997 7996 7995 ] final  174.21 input   59.86 | X-H torsion
[ 10167 10162 10161 10158 ] final  -64.58 input  -65.29 | X-H torsion
[ 10718 10713 10712 10709 ] final  146.47 input   66.30 | X-H torsion
[ 10763 10752 10751 10750 ] final   83.47 input  -60.55 | X-H torsion
[ 11005 11000 10999 10996 ] final -115.56 input  -57.11 | X-H torsion

> <Gold.Protein.ActiveResidues>
 VAL166  LYS551  ARG553  GLY616  TRP617  ASP618  TYR619  PRO620  LYS621  CYS622 
 ASP623  PHE694  ASN695  SER759  ASP760  ASP761  ALA762  ILE779  LEU786  VAL792 
 PHE793  MET794  SER795  GLU796  ALA797  LYS798  CYS799  TRP800  GLU811  SER814 

> <Gold.Protein.RotatedAtoms>
  151.1681  133.4802  159.2593 H   0  0  0  0  0  0  0  0  0  0  0  0  # atno 6907 bound_to 6896
  151.1384  135.0167  159.8624 H   0  0  0  0  0  0  0  0  0  0  0  0  # atno 6908 bound_to 6896
  152.5462  134.1577  159.8598 H   0  0  0  0  0  0  0  0  0  0  0  0  # atno 6909 bound_to 6896
  144.8046  140.5231  143.5684 H   0  0  0  0  0  0  0  0  0  0  0  0  # atno 7974 bound_to 7965
  156.0997  140.1440  156.9484 H   0  0  0  0  0  0  0  0  0  0  0  0  # atno 8008 bound_to 7997
  154.4694  140.0915  156.7151 H   0  0  0  0  0  0  0  0  0  0  0  0  # atno 8009 bound_to 7997
  155.4781  140.3444  155.4338 H   0  0  0  0  0  0  0  0  0  0  0  0  # atno 8010 bound_to 7997
  140.5791  143.2325  151.6381 H   0  0  0  0  0  0  0  0  0  0  0  0  # atno 10167 bound_to 10162
  157.3328  131.0923  151.1148 H   0  0  0  0  0  0  0  0  0  0  0  0  # atno 10718 bound_to 10713
  153.1294  135.4690  154.9324 H   0  0  0  0  0  0  0  0  0  0  0  0  # atno 10763 bound_to 10752
  154.7650  135.3142  154.8307 H   0  0  0  0  0  0  0  0  0  0  0  0  # atno 10764 bound_to 10752
  153.8853  135.6890  153.4818 H   0  0  0  0  0  0  0  0  0  0  0  0  # atno 10765 bound_to 10752
  141.0479  133.9733  157.2885 H   0  0  0  0  0  0  0  0  0  0  0  0  # atno 11005 bound_to 11000
  145.5469  139.1476  143.3415 LP  0  0  0  0  0  0  0  0  0  0  0  0  # atno 17320 bound_to 7965
  146.2335  140.5608  142.8965 LP  0  0  0  0  0  0  0  0  0  0  0  0  # atno 17321 bound_to 7965
  139.5159  144.3363  152.0781 LP  0  0  0  0  0  0  0  0  0  0  0  0  # atno 17342 bound_to 10162
  140.2511  144.4168  150.6222 LP  0  0  0  0  0  0  0  0  0  0  0  0  # atno 17343 bound_to 10162
  157.2390  130.6560  149.5881 LP  0  0  0  0  0  0  0  0  0  0  0  0  # atno 17370 bound_to 10713
  155.9698  130.4574  150.5962 LP  0  0  0  0  0  0  0  0  0  0  0  0  # atno 17371 bound_to 10713
  139.9327  135.0199  156.8453 LP  0  0  0  0  0  0  0  0  0  0  0  0  # atno 17394 bound_to 11000
  140.6111  134.0082  155.7577 LP  0  0  0  0  0  0  0  0  0  0  0  0  # atno 17395 bound_to 11000

$$$$
