#       Name:                AV-unprocessed.smi:1544
#       Creating user name   scv26
#       Creation time:       Fri Mar 27 06:38:24 2020


#       File generated by GOLD software.
#

@<TRIPOS>MOLECULE
AV-unprocessed.smi:1544
    48    49     1
SMALL
NO_CHARGES


@<TRIPOS>ATOM
      1 ****        -0.0944   1.5693   0.1187 O.2            1 S1                 0.0000
      2 ****        -0.4706   0.3977   0.1559 C.2            1 S1                 0.0000
      3 ****         0.3383  -0.6749   0.1991 N.am           1 S1                 0.0000
      4 ****         1.7585  -0.7045   0.1672 C.ar           1 S1                 0.0000
      5 ****         2.5589   0.3103  -0.4090 C.ar           1 S1                 0.0000
      6 ****         3.9588   0.1613  -0.3974 C.ar           1 S1                 0.0000
      7 ****         4.5165  -0.9957   0.1812 C.ar           1 S1                 0.0000
      8 ****         5.8893  -1.1295   0.1928 O.3            1 S1                 0.0000
      9 ****         6.4554  -2.2891   0.7972 C.3            1 S1                 0.0000
     10 ****         7.9833  -2.2131   0.6973 C.3            1 S1                 0.0000
     11 ****         8.5163  -3.2941   1.2655 F              1 S1                 0.0000
     12 ****         8.3600  -2.1716  -0.5806 F              1 S1                 0.0000
     13 ****         8.4336  -1.1309   1.3317 F              1 S1                 0.0000
     14 ****         3.7555  -1.9796   0.7212 N.ar           1 S1                 0.0000
     15 ****         2.4138  -1.8317   0.7044 C.ar           1 S1                 0.0000
     16 ****        -1.7611   0.0348   0.1803 N.am           1 S1                 0.0000
     17 ****        -2.8952   0.9544   0.1711 C.3            1 S1                 0.0000
     18 ****        -4.1362   0.2498   0.7489 C.3            1 S1                 0.0000
     19 ****        -5.3710   1.1678   0.7241 C.3            1 S1                 0.0000
     20 ****        -5.6544   1.7283  -0.6826 C.3            1 S1                 0.0000
     21 ****        -6.1159   0.6961  -1.5315 O.3            1 S1                 0.0000
     22 ****        -4.4046   2.3922  -1.2910 C.3            1 S1                 0.0000
     23 ****        -3.1767   1.4656  -1.2566 C.3            1 S1                 0.0000
     24 ****        -0.1124  -1.5694   0.3261 H              1 S1                 0.0000
     25 ****         2.1298   1.1869  -0.8694 H              1 S1                 0.0000
     26 ****         4.5940   0.9212  -0.8281 H              1 S1                 0.0000
     27 ****         6.1594  -2.3509   1.8459 H              1 S1                 0.0000
     28 ****         6.0993  -3.1904   0.2954 H              1 S1                 0.0000
     29 ****         1.8453  -2.6400   1.1411 H              1 S1                 0.0000
     30 ****        -1.9775  -0.9506   0.2147 H              1 S1                 0.0000
     31 ****        -2.6602   1.8069   0.8116 H              1 S1                 0.0000
     32 ****        -4.3461  -0.6566   0.1791 H              1 S1                 0.0000
     33 ****        -3.9412  -0.0700   1.7733 H              1 S1                 0.0000
     34 ****        -6.2434   0.6327   1.1014 H              1 S1                 0.0000
     35 ****        -5.2056   1.9993   1.4103 H              1 S1                 0.0000
     36 ****        -6.4545   2.4663  -0.6169 H              1 S1                 0.0000
     37 ****        -6.3158   1.0694  -2.3763 H              1 S1                 0.0000
     38 ****        -4.6043   2.7121  -2.3143 H              1 S1                 0.0000
     39 ****        -4.1762   3.2991  -0.7298 H              1 S1                 0.0000
     40 ****        -2.3096   2.0020  -1.6438 H              1 S1                 0.0000
     41 ****        -3.3381   0.6203  -1.9268 H              1 S1                 0.0000
     42 ****         0.8829   1.7808   0.1192 LP             1 S1                 0.0000
     43 ****        -0.7662   2.3094   0.0880 LP             1 S1                 0.0000
     44 ****         6.2590  -0.3353   0.6749 LP             1 S1                 0.0000
     45 ****         6.1952  -1.1138  -0.7591 LP             1 S1                 0.0000
     46 ****         4.1771  -2.7934   1.1213 LP             1 S1                 0.0000
     47 ****        -6.9388   0.2820  -1.1425 LP             1 S1                 0.0000
     48 ****        -5.4065  -0.0018  -1.6305 LP             1 S1                 0.0000
@<TRIPOS>BOND
    1    1    2 2     
    2    2    3 am    
    3    2   16 am    
    4    3    4 1     
    5    3   24 1     
    6    4   15 ar    
    7    4    5 ar    
    8    5    6 ar    
    9    5   25 1     
   10    6    7 ar    
   11    6   26 1     
   12    7    8 1     
   13    7   14 ar    
   14    8    9 1     
   15    9   10 1     
   16    9   27 1     
   17    9   28 1     
   18   10   11 1     
   19   10   12 1     
   20   10   13 1     
   21   14   15 ar    
   22   15   29 1     
   23   16   17 1     
   24   16   30 1     
   25   17   23 1     
   26   17   18 1     
   27   17   31 1     
   28   18   19 1     
   29   18   32 1     
   30   18   33 1     
   31   19   20 1     
   32   19   34 1     
   33   19   35 1     
   34   20   21 1     
   35   20   22 1     
   36   20   36 1     
   37   21   37 1     
   38   22   23 1     
   39   22   38 1     
   40   22   39 1     
   41   23   40 1     
   42   23   41 1     
   43    1   42 1     
   44    1   43 1     
   45    8   44 1     
   46    8   45 1     
   47   14   46 1     
   48   21   47 1     
   49   21   48 1     
@<TRIPOS>SUBSTRUCTURE
      1 S1             1
@<TRIPOS>SET
LONE_PAIRS      STATIC     ATOMS    <user>   **** ""
7 42 43 44 45 46 47 48
DONOR_HYDROGENS      STATIC     ATOMS    <user>   **** ""
3 24 30 37
ATOM$BLUE        STATIC     ATOMS    COLORGROUP SYSTEM
7 42 43 44 45 46 47 48
ATOM$RED        STATIC     ATOMS    COLORGROUP SYSTEM
3 24 30 37
