#       Name:                AV-unprocessed.smi:1114
#       Creating user name   scv26
#       Creation time:       Fri Mar 27 03:34:45 2020


#       File generated by GOLD software.
#

@<TRIPOS>MOLECULE
AV-unprocessed.smi:1114
    58    60     1
SMALL
NO_CHARGES


@<TRIPOS>ATOM
      1 ****        -5.7242  -5.1969  -2.2049 C.3            1 S1                 0.0000
      2 ****        -5.6299  -4.9576  -0.6963 C.2            1 S1                 0.0000
      3 ****        -5.7460  -5.9287   0.0514 O.2            1 S1                 0.0000
      4 ****        -5.4193  -3.7007  -0.2368 N.am           1 S1                 0.0000
      5 ****        -5.2300  -3.3972   1.1863 C.3            1 S1                 0.0000
      6 ****        -3.7556  -3.0212   1.4205 C.3            1 S1                 0.0000
      7 ****        -3.3199  -1.8512   0.5118 C.3            1 S1                 0.0000
      8 ****        -1.8776  -1.6566   0.6239 N.am           1 S1                 0.0000
      9 ****        -1.2307  -0.5039   0.4000 C.2            1 S1                 0.0000
     10 ****        -1.7985   0.5390   0.0775 O.2            1 S1                 0.0000
     11 ****         0.0928  -0.6527   0.5833 N.am           1 S1                 0.0000
     12 ****         1.1386   0.3002   0.4361 C.ar           1 S1                 0.0000
     13 ****         2.4275  -0.0775   0.8595 C.ar           1 S1                 0.0000
     14 ****         3.4943   0.8301   0.7229 C.ar           1 S1                 0.0000
     15 ****         3.2477   2.1044   0.1611 C.ar           1 S1                 0.0000
     16 ****         4.3012   3.0339   0.0170 N.3            1 S1                 0.0000
     17 ****         5.0681   3.3102   1.2338 C.3            1 S1                 0.0000
     18 ****         6.4106   3.9845   0.9040 C.3            1 S1                 0.0000
     19 ****         6.2023   5.2384   0.0420 C.3            1 S1                 0.0000
     20 ****         5.4014   4.8810  -1.2183 C.3            1 S1                 0.0000
     21 ****         4.0759   4.1907  -0.8543 C.3            1 S1                 0.0000
     22 ****         2.0100   2.4642  -0.2581 N.ar           1 S1                 0.0000
     23 ****         0.9890   1.5910  -0.1259 C.ar           1 S1                 0.0000
     24 ****        -3.7218  -2.0980  -0.9611 C.3            1 S1                 0.0000
     25 ****        -5.1985  -2.5157  -1.0747 C.3            1 S1                 0.0000
     26 ****        -4.8131  -4.8696  -2.7066 H              1 S1                 0.0000
     27 ****        -6.5752  -4.6629  -2.6283 H              1 S1                 0.0000
     28 ****        -5.8579  -6.2580  -2.4180 H              1 S1                 0.0000
     29 ****        -5.8794  -2.5679   1.4701 H              1 S1                 0.0000
     30 ****        -5.5091  -4.2275   1.8364 H              1 S1                 0.0000
     31 ****        -3.6008  -2.7595   2.4679 H              1 S1                 0.0000
     32 ****        -3.1317  -3.8948   1.2246 H              1 S1                 0.0000
     33 ****        -3.8322  -0.9531   0.8629 H              1 S1                 0.0000
     34 ****        -1.3315  -2.4636   0.8883 H              1 S1                 0.0000
     35 ****         0.3910  -1.5681   0.8867 H              1 S1                 0.0000
     36 ****         2.6025  -1.0555   1.2839 H              1 S1                 0.0000
     37 ****         4.4852   0.5350   1.0342 H              1 S1                 0.0000
     38 ****         4.4751   3.9620   1.8764 H              1 S1                 0.0000
     39 ****         5.2616   2.4039   1.8057 H              1 S1                 0.0000
     40 ****         6.9324   4.2457   1.8247 H              1 S1                 0.0000
     41 ****         7.0514   3.2788   0.3738 H              1 S1                 0.0000
     42 ****         5.6677   5.9964   0.6159 H              1 S1                 0.0000
     43 ****         7.1640   5.6725  -0.2325 H              1 S1                 0.0000
     44 ****         5.2053   5.7784  -1.8054 H              1 S1                 0.0000
     45 ****         5.9944   4.2198  -1.8517 H              1 S1                 0.0000
     46 ****         3.5749   3.8802  -1.7720 H              1 S1                 0.0000
     47 ****         3.4151   4.8958  -0.3480 H              1 S1                 0.0000
     48 ****         0.0459   1.9566  -0.4977 H              1 S1                 0.0000
     49 ****        -3.5442  -1.2014  -1.5561 H              1 S1                 0.0000
     50 ****        -3.0955  -2.8818  -1.3903 H              1 S1                 0.0000
     51 ****        -5.4637  -2.6642  -2.1205 H              1 S1                 0.0000
     52 ****        -5.8407  -1.7053  -0.7261 H              1 S1                 0.0000
     53 ****        -5.8970  -6.8398  -0.3321 LP             1 S1                 0.0000
     54 ****        -5.6893  -5.8064   1.0423 LP             1 S1                 0.0000
     55 ****        -2.7926   0.5545  -0.0298 LP             1 S1                 0.0000
     56 ****        -1.2658   1.3710  -0.0773 LP             1 S1                 0.0000
     57 ****         4.9296   2.4995  -0.5484 LP             1 S1                 0.0000
     58 ****         1.8549   3.3663  -0.6607 LP             1 S1                 0.0000
@<TRIPOS>BOND
    1    1    2 1     
    2    1   26 1     
    3    1   27 1     
    4    1   28 1     
    5    2    3 2     
    6    2    4 am    
    7    4   25 1     
    8    4    5 1     
    9    5    6 1     
   10    5   29 1     
   11    5   30 1     
   12    6    7 1     
   13    6   31 1     
   14    6   32 1     
   15    7    8 1     
   16    7   24 1     
   17    7   33 1     
   18    8    9 am    
   19    8   34 1     
   20    9   10 2     
   21    9   11 am    
   22   11   12 1     
   23   11   35 1     
   24   12   23 ar    
   25   12   13 ar    
   26   13   14 ar    
   27   13   36 1     
   28   14   15 ar    
   29   14   37 1     
   30   15   16 1     
   31   15   22 ar    
   32   16   21 1     
   33   16   17 1     
   34   17   18 1     
   35   17   38 1     
   36   17   39 1     
   37   18   19 1     
   38   18   40 1     
   39   18   41 1     
   40   19   20 1     
   41   19   42 1     
   42   19   43 1     
   43   20   21 1     
   44   20   44 1     
   45   20   45 1     
   46   21   46 1     
   47   21   47 1     
   48   22   23 ar    
   49   23   48 1     
   50   24   25 1     
   51   24   49 1     
   52   24   50 1     
   53   25   51 1     
   54   25   52 1     
   55    3   53 1     
   56    3   54 1     
   57   10   55 1     
   58   10   56 1     
   59   16   57 1     
   60   22   58 1     
@<TRIPOS>SUBSTRUCTURE
      1 S1             1
@<TRIPOS>SET
LONE_PAIRS      STATIC     ATOMS    <user>   **** ""
6 53 54 55 56 57 58
DONOR_HYDROGENS      STATIC     ATOMS    <user>   **** ""
2 34 35
ATOM$BLUE        STATIC     ATOMS    COLORGROUP SYSTEM
6 53 54 55 56 57 58
ATOM$RED        STATIC     ATOMS    COLORGROUP SYSTEM
2 34 35
