#       Name:                AV-unprocessed.smi:281
#       Creating user name   scv26
#       Creation time:       Thu Mar 26 21:40:21 2020


#       File generated by GOLD software.
#

@<TRIPOS>MOLECULE
AV-unprocessed.smi:281
    67    71     1
SMALL
NO_CHARGES


@<TRIPOS>ATOM
      1 ****        -3.8066  -1.5321   2.7716 C.3            1 S1                 0.0000
      2 ****        -3.1531  -0.6416   1.7100 C.3            1 S1                 0.0000
      3 ****        -1.6364  -0.5039   1.9279 C.3            1 S1                 0.0000
      4 ****        -1.0772   0.4390   0.9667 N.3            1 S1                 0.0000
      5 ****         0.2736   0.4027   0.8401 C.ar           1 S1                 0.0000
      6 ****         1.0147   1.5017   1.1456 N.ar           1 S1                 0.0000
      7 ****         2.3456   1.4721   1.0335 C.ar           1 S1                 0.0000
      8 ****         3.1271   0.4661   0.6375 N.ar           1 S1                 0.0000
      9 ****         2.3906  -0.6356   0.3162 C.ar           1 S1                 0.0000
     10 ****         0.9736  -0.7530   0.3910 C.ar           1 S1                 0.0000
     11 ****         0.5834  -2.0221  -0.0200 N.2            1 S1                 0.0000
     12 ****         1.7047  -2.6231  -0.3091 C.2            1 S1                 0.0000
     13 ****         2.8393  -1.8592  -0.1508 N.pl3          1 S1                 0.0000
     14 ****         4.2110  -2.2717  -0.4088 C.3            1 S1                 0.0000
     15 ****         4.7020  -2.0207  -1.8595 C.3            1 S1                 0.0000
     16 ****         6.0294  -2.5011  -1.9469 O.3            1 S1                 0.0000
     17 ****         3.8463  -2.6839  -2.9381 C.3            1 S1                 0.0000
     18 ****         2.9296  -1.5674  -3.4532 C.3            1 S1                 0.0000
     19 ****         3.3279  -0.3802  -2.7786 O.3            1 S1                 0.0000
     20 ****         4.6502  -0.5532  -2.2952 C.3            1 S1                 0.0000
     21 ****        -1.7311   1.7439   1.0055 C.3            1 S1                 0.0000
     22 ****        -3.2633   1.5942   0.8268 C.3            1 S1                 0.0000
     23 ****        -3.6593   1.2171  -0.5980 C.3            1 S1                 0.0000
     24 ****        -3.7088   2.5637  -1.3097 C.3            1 S1                 0.0000
     25 ****        -4.1245   3.4990  -0.3226 O.3            1 S1                 0.0000
     26 ****        -4.0491   2.9134   0.9750 C.3            1 S1                 0.0000
     27 ****        -3.5196   3.9270   1.9995 C.3            1 S1                 0.0000
     28 ****        -3.7651   0.6469   1.7746 O.3            1 S1                 0.0000
     29 ****        -3.3831  -2.5366   2.7557 H              1 S1                 0.0000
     30 ****        -4.8792  -1.6211   2.5981 H              1 S1                 0.0000
     31 ****        -3.6635  -1.1236   3.7724 H              1 S1                 0.0000
     32 ****        -3.3401  -1.0873   0.7323 H              1 S1                 0.0000
     33 ****        -1.4333  -0.1391   2.9358 H              1 S1                 0.0000
     34 ****        -1.1671  -1.4836   1.8477 H              1 S1                 0.0000
     35 ****         2.8573   2.3853   1.2990 H              1 S1                 0.0000
     36 ****         1.7332  -3.6453  -0.6572 H              1 S1                 0.0000
     37 ****         4.8591  -1.7540   0.2997 H              1 S1                 0.0000
     38 ****         4.2904  -3.3330  -0.1692 H              1 S1                 0.0000
     39 ****         6.5656  -2.0109  -1.3426 H              1 S1                 0.0000
     40 ****         4.4669  -3.0337  -3.7650 H              1 S1                 0.0000
     41 ****         3.2935  -3.5483  -2.5702 H              1 S1                 0.0000
     42 ****         3.0452  -1.4372  -4.5298 H              1 S1                 0.0000
     43 ****         1.8787  -1.7737  -3.2480 H              1 S1                 0.0000
     44 ****         4.8919   0.1458  -1.4949 H              1 S1                 0.0000
     45 ****         5.3400  -0.3656  -3.1203 H              1 S1                 0.0000
     46 ****        -1.5058   2.2000   1.9702 H              1 S1                 0.0000
     47 ****        -1.3208   2.3987   0.2357 H              1 S1                 0.0000
     48 ****        -2.9789   0.5125  -1.0772 H              1 S1                 0.0000
     49 ****        -4.6554   0.7719  -0.6007 H              1 S1                 0.0000
     50 ****        -2.7177   2.8468  -1.6655 H              1 S1                 0.0000
     51 ****        -4.3854   2.5584  -2.1644 H              1 S1                 0.0000
     52 ****        -5.0768   2.6635   1.2446 H              1 S1                 0.0000
     53 ****        -3.4410   3.4788   2.9903 H              1 S1                 0.0000
     54 ****        -4.1903   4.7830   2.0755 H              1 S1                 0.0000
     55 ****        -2.5374   4.3076   1.7187 H              1 S1                 0.0000
     56 ****        -1.3282   0.1018   0.0593 LP             1 S1                 0.0000
     57 ****         0.5605   2.3369   1.4559 LP             1 S1                 0.0000
     58 ****         4.1245   0.5138   0.5832 LP             1 S1                 0.0000
     59 ****        -0.3444  -2.3902  -0.0803 LP             1 S1                 0.0000
     60 ****         6.3721  -2.3782  -2.8783 LP             1 S1                 0.0000
     61 ****         6.0533  -3.4719  -1.7083 LP             1 S1                 0.0000
     62 ****         2.7097  -0.2051  -2.0123 LP             1 S1                 0.0000
     63 ****         3.2999   0.3926  -3.4127 LP             1 S1                 0.0000
     64 ****        -5.0680   3.7750  -0.5059 LP             1 S1                 0.0000
     65 ****        -3.5296   4.3021  -0.3575 LP             1 S1                 0.0000
     66 ****        -3.6180   1.0163   2.6922 LP             1 S1                 0.0000
     67 ****        -4.7457   0.5347   1.6138 LP             1 S1                 0.0000
@<TRIPOS>BOND
    1    1    2 1     
    2    1   29 1     
    3    1   30 1     
    4    1   31 1     
    5    2   28 1     
    6    2    3 1     
    7    2   32 1     
    8    3    4 1     
    9    3   33 1     
   10    3   34 1     
   11    4    5 1     
   12    4   21 1     
   13    5   10 ar    
   14    5    6 ar    
   15    6    7 ar    
   16    7    8 ar    
   17    7   35 1     
   18    8    9 ar    
   19    9   13 1     
   20    9   10 ar    
   21   10   11 1     
   22   11   12 2     
   23   12   13 1     
   24   12   36 1     
   25   13   14 1     
   26   14   15 1     
   27   14   37 1     
   28   14   38 1     
   29   15   20 1     
   30   15   16 1     
   31   15   17 1     
   32   16   39 1     
   33   17   18 1     
   34   17   40 1     
   35   17   41 1     
   36   18   19 1     
   37   18   42 1     
   38   18   43 1     
   39   19   20 1     
   40   20   44 1     
   41   20   45 1     
   42   21   22 1     
   43   21   46 1     
   44   21   47 1     
   45   22   26 1     
   46   22   23 1     
   47   22   28 1     
   48   23   24 1     
   49   23   48 1     
   50   23   49 1     
   51   24   25 1     
   52   24   50 1     
   53   24   51 1     
   54   25   26 1     
   55   26   27 1     
   56   26   52 1     
   57   27   53 1     
   58   27   54 1     
   59   27   55 1     
   60    4   56 1     
   61    6   57 1     
   62    8   58 1     
   63   11   59 1     
   64   16   60 1     
   65   16   61 1     
   66   19   62 1     
   67   19   63 1     
   68   25   64 1     
   69   25   65 1     
   70   28   66 1     
   71   28   67 1     
@<TRIPOS>SUBSTRUCTURE
      1 S1             1
@<TRIPOS>SET
LONE_PAIRS      STATIC     ATOMS    <user>   **** ""
12 56 57 58 59 60 61 62 63 64 65 66 67
DONOR_HYDROGENS      STATIC     ATOMS    <user>   **** ""
1 39
ATOM$BLUE        STATIC     ATOMS    COLORGROUP SYSTEM
12 56 57 58 59 60 61 62 63 64 65 66 67
ATOM$RED        STATIC     ATOMS    COLORGROUP SYSTEM
1 39
