AV-unprocessed.smi:1641|AV-procd|sdf|6557|dock10
  -GOLD-   22720 7243D 1   1.00000     0.00000
 Structure written by MMmdl.
 41 42  0  0  0  0  0  0  0  0  1 V2000
  146.8600  129.7031  153.4966 C   0  0  0  0  0  0  0  0  0  0  0  0
  147.6929  130.8862  153.8541 C   0  0  0  0  0  0  0  0  0  0  0  0
  148.5471  130.8847  154.8846 N   0  0  0  0  0  0  0  0  0  0  0  0
  149.2090  132.0969  155.0207 N   0  0  0  0  0  0  0  0  0  0  0  0
  148.8329  132.9797  154.0852 C   0  0  0  0  0  0  0  0  0  0  0  0
  149.3504  134.2985  153.9906 N   0  0  0  0  0  0  0  0  0  0  0  0
  150.1702  134.9340  154.8459 C   0  0  0  0  0  0  0  0  0  0  0  0
  150.6474  134.4429  155.8690 O   0  0  0  0  0  0  0  0  0  0  0  0
  150.4092  136.1912  154.4445 N   0  0  0  0  0  0  0  0  0  0  0  0
  151.2093  137.1720  155.1724 C   0  0  0  0  0  0  0  0  0  0  0  0
  151.5572  138.3847  154.2871 C   0  0  0  0  0  0  0  0  0  0  0  0
  150.8494  139.6236  154.6100 N   0  0  0  0  0  0  0  0  0  0  0  0
  149.3977  139.4847  154.5187 C   0  0  0  0  0  0  0  0  0  0  0  0
  148.6578  140.7940  154.8572 C   0  0  2  0  0  0  0  0  0  0  0  0
  148.7686  141.8581  153.7511 C   0  0  0  0  0  0  0  0  0  0  0  0
  149.0944  141.2945  156.1223 O   0  0  0  0  0  0  0  0  0  0  0  0
  150.5064  141.4402  156.2644 C   0  0  1  0  0  0  0  0  0  0  0  0
  150.7967  141.9078  157.6944 C   0  0  0  0  0  0  0  0  0  0  0  0
  151.1948  140.1015  155.9415 C   0  0  0  0  0  0  0  0  0  0  0  0
  147.6225  132.3972  152.9556 S   0  0  0  0  0  0  0  0  0  0  0  0
  147.3675  128.7804  153.7793 H   0  0  0  0  0  0  0  0  0  0  0  0
  146.6757  129.6834  152.4224 H   0  0  0  0  0  0  0  0  0  0  0  0
  145.9030  129.7514  154.0162 H   0  0  0  0  0  0  0  0  0  0  0  0
  149.0502  134.8244  153.1833 H   0  0  0  0  0  0  0  0  0  0  0  0
  149.9790  136.5058  153.5873 H   0  0  0  0  0  0  0  0  0  0  0  0
  150.7246  137.4764  156.1007 H   0  0  0  0  0  0  0  0  0  0  0  0
  152.1337  136.6783  155.4726 H   0  0  0  0  0  0  0  0  0  0  0  0
  152.6332  138.5600  154.3261 H   0  0  0  0  0  0  0  0  0  0  0  0
  151.3397  138.1107  153.2537 H   0  0  0  0  0  0  0  0  0  0  0  0
  149.1024  139.1597  153.5222 H   0  0  0  0  0  0  0  0  0  0  0  0
  149.0658  138.7042  155.2049 H   0  0  0  0  0  0  0  0  0  0  0  0
  147.5987  140.5605  154.9689 H   0  0  0  0  0  0  0  0  0  0  0  0
  148.3210  141.4997  152.8237 H   0  0  0  0  0  0  0  0  0  0  0  0
  149.8044  142.1159  153.5305 H   0  0  0  0  0  0  0  0  0  0  0  0
  148.2487  142.7727  154.0365 H   0  0  0  0  0  0  0  0  0  0  0  0
  150.8608  142.2072  155.5751 H   0  0  0  0  0  0  0  0  0  0  0  0
  151.8659  142.0549  157.8497 H   0  0  0  0  0  0  0  0  0  0  0  0
  150.4486  141.1787  158.4266 H   0  0  0  0  0  0  0  0  0  0  0  0
  150.2979  142.8544  157.9030 H   0  0  0  0  0  0  0  0  0  0  0  0
  150.9142  139.3546  156.6861 H   0  0  0  0  0  0  0  0  0  0  0  0
  152.2755  140.2280  156.0190 H   0  0  0  0  0  0  0  0  0  0  0  0
  1  2  1  0  0  0  0
  1 21  1  0  0  0  0
  1 22  1  0  0  0  0
  1 23  1  0  0  0  0
  2 20  1  0  0  0  0
  2  3  2  0  0  0  0
  3  4  1  0  0  0  0
  4  5  2  0  0  0  0
  5  6  1  0  0  0  0
  5 20  1  0  0  0  0
  6  7  1  0  0  0  0
  6 24  1  0  0  0  0
  7  8  2  0  0  0  0
  7  9  1  0  0  0  0
  9 10  1  0  0  0  0
  9 25  1  0  0  0  0
 10 11  1  0  0  0  0
 10 26  1  0  0  0  0
 10 27  1  0  0  0  0
 11 12  1  0  0  0  0
 11 28  1  0  0  0  0
 11 29  1  0  0  0  0
 12 19  1  0  0  0  0
 12 13  1  0  0  0  0
 13 14  1  0  0  0  0
 13 30  1  0  0  0  0
 13 31  1  0  0  0  0
 14 15  1  0  0  0  0
 14 16  1  0  0  0  0
 14 32  1  0  0  0  0
 15 33  1  0  0  0  0
 15 34  1  0  0  0  0
 15 35  1  0  0  0  0
 16 17  1  0  0  0  0
 17 18  1  0  0  0  0
 17 19  1  0  0  0  0
 17 36  1  0  0  0  0
 18 37  1  0  0  0  0
 18 38  1  0  0  0  0
 18 39  1  0  0  0  0
 19 40  1  0  0  0  0
 19 41  1  0  0  0  0
M  END
> <s_m_source_file>
AV-unprocessed.smi

> <i_m_source_file_index>
1641

> <i_lp_mmshare_version>
43012

> <i_f3d_flags>
0

> <s_epik_input>
W0NIM11jMW5uYyhzMSlbTkhdQyg9TylbTkhdW0NIMl1bQ0gyXU4yW0NIMl1bQ0BASF0oW0NIM10pT1tDQEBIXShbQ0gzXSlbQ0gyXTI=

> <s_epik_cmdline>
J2VwaWtfcHl0aG9uJywgJy1waCcsICc3LjAnLCAnLXRuJywgJzgnLCAnLW1hJywgJzIwMCcsICctbWV0YWxfYmluZGluZycsICctaW1hZScsICc8aW5maWxlLm1hZT4nLCAnLW9tYWUnLCAnPG91dGZpbGUubWFlPic=

> <r_lp_tautomer_probability>
1

> <r_epik_Ionization_Penalty>
0.221104

> <r_epik_Ionization_Penalty_Charging>
0

> <r_epik_Ionization_Penalty_Neutral>
0.221104

> <r_epik_State_Penalty>
0.209349

> <r_epik_Charging_Adjusted_Penalty>
0.209349

> <i_epik_Tot_Q>
0

> <i_epik_Tot_abs_Q>
0

> <r_epik_Metal_State_Penalty>
0.560954

> <b_epik_Metal_Only>
0

> <s_lp_Force_Field>
OPLS_2005

> <r_lp_Energy>
24.8312

> <b_lp_Chiralities_Consistent>
1

> <s_lp_Variant>
AV-unprocessed.smi:1641-2

> <Gold.Version>
5.8.1

> <Gold.Id.Protein>
6NUR|6NUR_protein|mol2

> <Gold.PLP.Fitness>
39.8733

> <Gold.PLP.PLP>
-31.8835

> <Gold.PLP.part.hbond>
-4.0000

> <Gold.PLP.part.metal>
0.0000

> <Gold.PLP.part.buried>
-2.6075

> <Gold.PLP.part.nonpolar>
-26.3356

> <Gold.PLP.part.repulsive>
0.3271

> <Gold.PLP.ligand.clash>
0.0000

> <Gold.PLP.ligand.torsion>
0.4326

> <Gold.PLP.Chemscore.Hbond>
2.9500

> <Gold.PLP.Chemscore.CHOScore>
0.0000

> <Gold.PLP.Chemscore.Metal>
0.0000

> <Gold.Chemscore.Hbonds>
donor molecule, donor type, donor heavy atom, donor atom, acceptor molecule, acceptor atom, score
      L1  H     6    24       P1  7948  0.75
      L1  H     9    25       P1  7948  0.85
      P1  H  7989  7998       L1    12  1.00

> <Gold.PLP.Chemscore.Internal.Correction>
0.0049

> <Gold.Rescore>
     Score         DG    S(hbond)    S(metal)    S(lipo)     H(rot)  DE(clash)    DE(int)     intcor
     10.27     -11.96       1.19        0.00      56.40       1.60       0.02       1.66       ----

> <Gold.Chemscore.Fitness>
10.2747

> <Gold.Chemscore.DG>
-11.9592

> <Gold.Chemscore.ZeroCoef>
-5.4800

> <Gold.Chemscore.Hbond>
1.1887

> <Gold.Chemscore.Metal>
0.0000

> <Gold.Chemscore.Lipo>
56.3984

> <Gold.Chemscore.Internal_Hbond>
0.0000

> <Gold.Chemscore.DEClash>
0.0217

> <Gold.Chemscore.DEInternal>
1.6628

> <Gold.Chemscore.Rot>
1.5975

> <Gold.Chemscore.Internal.Correction>
   9.000000E+99

> <Gold.Chemscore.Hbonds>
donor molecule, donor type, donor heavy atom, donor atom, acceptor molecule, acceptor atom, score
      L1  H     6    24       P1  7948  0.09
      L1  H     9    25       P1  7948  0.14
      P1  H  7989  7998       L1    12  0.17

> <Gold.Chemscore.Hbond.Weighted>
-3.9702

> <Gold.Chemscore.Metal.Weighted>
-0.0000

> <Gold.Chemscore.Lipo.Weighted>
-6.5986

> <Gold.Chemscore.Internal_Hbond.Weighted>
0.0000

> <Gold.Chemscore.DEClash.Weighted>
0.0217

> <Gold.Chemscore.DEInternal.Weighted>
1.6628

> <Gold.Chemscore.Rot.Weighted>
4.0896

> <Gold.Chemscore.Internal.Correction.Weighted>
   9.000000E+99

> <Gold.Protein.RotatedTorsions>
[ 6907 6896 6895 6894 ] final  -40.57 input  -60.11 | X-H torsion
[ 7974 7965 7964 7962 ] final   97.08 input  175.53 | X-H torsion
[ 8008 7997 7996 7995 ] final   56.79 input   59.86 | X-H torsion
[ 10167 10162 10161 10158 ] final -149.76 input  -65.29 | X-H torsion
[ 10718 10713 10712 10709 ] final  124.20 input   66.30 | X-H torsion
[ 10763 10752 10751 10750 ] final  -52.63 input  -60.55 | X-H torsion
[ 11005 11000 10999 10996 ] final -140.47 input  -57.11 | X-H torsion

> <Gold.Protein.ActiveResidues>
 VAL166  LYS551  ARG553  GLY616  TRP617  ASP618  TYR619  PRO620  LYS621  CYS622 
 ASP623  PHE694  ASN695  SER759  ASP760  ASP761  ALA762  ILE779  LEU786  VAL792 
 PHE793  MET794  SER795  GLU796  ALA797  LYS798  CYS799  TRP800  GLU811  SER814 

> <Gold.Protein.RotatedAtoms>
  150.9769  134.9132  159.7821 H   0  0  0  0  0  0  0  0  0  0  0  0  # atno 6907 bound_to 6896
  152.5209  134.3463  159.9245 H   0  0  0  0  0  0  0  0  0  0  0  0  # atno 6908 bound_to 6896
  151.3471  133.3899  159.2711 H   0  0  0  0  0  0  0  0  0  0  0  0  # atno 6909 bound_to 6896
  145.4303  139.2311  143.3148 H   0  0  0  0  0  0  0  0  0  0  0  0  # atno 7974 bound_to 7965
  155.5232  140.3480  155.4411 H   0  0  0  0  0  0  0  0  0  0  0  0  # atno 8008 bound_to 7997
  156.0770  140.1377  156.9786 H   0  0  0  0  0  0  0  0  0  0  0  0  # atno 8009 bound_to 7997
  154.4559  140.0954  156.6730 H   0  0  0  0  0  0  0  0  0  0  0  0  # atno 8010 bound_to 7997
  139.7414  143.8657  152.2563 H   0  0  0  0  0  0  0  0  0  0  0  0  # atno 10167 bound_to 10162
  157.5604  131.1090  150.8548 H   0  0  0  0  0  0  0  0  0  0  0  0  # atno 10718 bound_to 10713
  154.1459  135.6498  153.4952 H   0  0  0  0  0  0  0  0  0  0  0  0  # atno 10763 bound_to 10752
  153.0152  135.5326  154.6858 H   0  0  0  0  0  0  0  0  0  0  0  0  # atno 10764 bound_to 10752
  154.6132  135.2956  155.0380 H   0  0  0  0  0  0  0  0  0  0  0  0  # atno 10765 bound_to 10752
  140.8420  134.2391  157.4805 H   0  0  0  0  0  0  0  0  0  0  0  0  # atno 11005 bound_to 11000
  146.2610  140.5039  142.8853 LP  0  0  0  0  0  0  0  0  0  0  0  0  # atno 17320 bound_to 7965
  144.8187  140.6513  143.6367 LP  0  0  0  0  0  0  0  0  0  0  0  0  # atno 17321 bound_to 7965
  139.8608  144.7118  150.9101 LP  0  0  0  0  0  0  0  0  0  0  0  0  # atno 17342 bound_to 10162
  140.7786  143.3819  151.1462 LP  0  0  0  0  0  0  0  0  0  0  0  0  # atno 17343 bound_to 10162
  156.9048  130.5259  149.5282 LP  0  0  0  0  0  0  0  0  0  0  0  0  # atno 17370 bound_to 10713
  156.0657  130.5701  150.9284 LP  0  0  0  0  0  0  0  0  0  0  0  0  # atno 17371 bound_to 10713
  139.8703  134.9640  156.4480 LP  0  0  0  0  0  0  0  0  0  0  0  0  # atno 17394 bound_to 11000
  140.8885  133.7865  155.9545 LP  0  0  0  0  0  0  0  0  0  0  0  0  # atno 17395 bound_to 11000

$$$$
