#       Name:                AV-unprocessed.smi:47
#       Creating user name   scv26
#       Creation time:       Thu Mar 26 16:30:53 2020


#       File generated by GOLD software.
#

@<TRIPOS>MOLECULE
AV-unprocessed.smi:47
    36    38     1
SMALL
NO_CHARGES


@<TRIPOS>ATOM
      1 ****        -4.4947  -0.9477   1.7035 O.3            1 S1                 0.0000
      2 ****        -3.4098  -0.4947   0.9220 C.3            1 S1                 0.0000
      3 ****        -3.8554   0.3918  -0.2334 C.3            1 S1                 0.0000
      4 ****        -2.7381   0.3611  -1.1660 N.3            1 S1                 0.0000
      5 ****        -2.1032  -0.9583  -1.0607 C.3            1 S1                 0.0000
      6 ****        -0.6080  -0.8769  -1.0108 C.2            1 S1                 0.0000
      7 ****         0.1437  -1.8251  -1.5609 N.2            1 S1                 0.0000
      8 ****         1.3881  -1.4067  -1.2513 N.pl3          1 S1                 0.0000
      9 ****         1.3347  -0.2750  -0.5373 C.2            1 S1                 0.0000
     10 ****         2.5020   0.4452  -0.0239 C.ar           1 S1                 0.0000
     11 ****         3.8077  -0.0456  -0.2574 C.ar           1 S1                 0.0000
     12 ****         4.9301   0.6445   0.2407 C.ar           1 S1                 0.0000
     13 ****         4.7591   1.8321   0.9764 C.ar           1 S1                 0.0000
     14 ****         3.4642   2.3299   1.2126 C.ar           1 S1                 0.0000
     15 ****         2.3413   1.6405   0.7152 C.ar           1 S1                 0.0000
     16 ****         0.0718   0.1072  -0.3480 N.2            1 S1                 0.0000
     17 ****        -2.6829  -1.6259   0.2011 C.3            1 S1                 0.0000
     18 ****        -2.7085   0.0503   1.5560 H              1 S1                 0.0000
     19 ****        -2.3828  -1.5592  -1.9273 H              1 S1                 0.0000
     20 ****         2.2185  -1.9104  -1.5275 H              1 S1                 0.0000
     21 ****        -4.9112  -0.1984   2.1015 H              1 S1                 0.0000
     22 ****        -4.7410  -0.0326  -0.7088 H              1 S1                 0.0000
     23 ****        -4.0972   1.4071   0.0816 H              1 S1                 0.0000
     24 ****        -3.0900   0.5018  -2.1074 H              1 S1                 0.0000
     25 ****         3.9624  -0.9555  -0.8185 H              1 S1                 0.0000
     26 ****         5.9234   0.2614   0.0586 H              1 S1                 0.0000
     27 ****         5.6198   2.3607   1.3587 H              1 S1                 0.0000
     28 ****         3.3308   3.2413   1.7767 H              1 S1                 0.0000
     29 ****         1.3564   2.0398   0.9086 H              1 S1                 0.0000
     30 ****        -1.9324  -2.1100   0.8278 H              1 S1                 0.0000
     31 ****        -3.3980  -2.3925  -0.1016 H              1 S1                 0.0000
     32 ****        -4.1625  -1.5666   2.4153 LP             1 S1                 0.0000
     33 ****        -5.1509  -1.4294   1.1226 LP             1 S1                 0.0000
     34 ****        -2.0751   1.0798  -0.9567 LP             1 S1                 0.0000
     35 ****        -0.1395  -2.6371  -2.0713 LP             1 S1                 0.0000
     36 ****        -0.2833   0.9007   0.1462 LP             1 S1                 0.0000
@<TRIPOS>BOND
    1    1    2 1     
    2    1   21 1     
    3    2   18 1     
    4    2   17 1     
    5    2    3 1     
    6    3    4 1     
    7    3   22 1     
    8    3   23 1     
    9    4    5 1     
   10    4   24 1     
   11    5   19 1     
   12    5    6 1     
   13    5   17 1     
   14    6   16 1     
   15    6    7 2     
   16    7    8 1     
   17    8   20 1     
   18    8    9 1     
   19    9   10 1     
   20    9   16 2     
   21   10   15 ar    
   22   10   11 ar    
   23   11   12 ar    
   24   11   25 1     
   25   12   13 ar    
   26   12   26 1     
   27   13   14 ar    
   28   13   27 1     
   29   14   15 ar    
   30   14   28 1     
   31   15   29 1     
   32   17   30 1     
   33   17   31 1     
   34    1   32 1     
   35    1   33 1     
   36    4   34 1     
   37    7   35 1     
   38   16   36 1     
@<TRIPOS>SUBSTRUCTURE
      1 S1             1
@<TRIPOS>SET
LONE_PAIRS      STATIC     ATOMS    <user>   **** ""
5 32 33 34 35 36
DONOR_HYDROGENS      STATIC     ATOMS    <user>   **** ""
3 21 24 20
ATOM$BLUE        STATIC     ATOMS    COLORGROUP SYSTEM
5 32 33 34 35 36
ATOM$RED        STATIC     ATOMS    COLORGROUP SYSTEM
3 21 24 20
