AV-unprocessed.smi:1179|AV-procd|sdf|4958|dock4
  -GOLD-   22720 3553D 1   1.00000     0.00000
 Structure written by MMmdl.
 47 48  0  0  0  0  0  0  0  0  2 V2000
  152.2240  144.9769  158.8068 C   0  0  0  0  0  0  0  0  0  0  0  0
  152.4156  143.5157  159.0877 C   0  0  0  0  0  0  0  0  0  0  0  0
  153.3935  142.8989  159.9169 C   0  0  0  0  0  0  0  0  0  0  0  0
  153.1231  141.5629  159.8224 C   0  0  0  0  0  0  0  0  0  0  0  0
  153.7985  140.3961  160.4647 C   0  0  0  0  0  0  0  0  0  0  0  0
  152.0380  141.4323  158.9736 N   0  0  0  0  0  0  0  0  0  0  0  0
  151.3479  140.2255  158.5442 C   0  0  0  0  0  0  0  0  0  0  0  0
  152.1791  139.4438  157.5256 C   0  0  0  0  0  0  0  0  0  0  0  0
  153.3560  139.1750  157.7655 O   0  0  0  0  0  0  0  0  0  0  0  0
  151.5559  139.0827  156.3930 N   0  0  0  0  0  0  0  0  0  0  0  0
  152.1654  138.3213  155.3103 C   0  0  0  0  0  0  0  0  0  0  0  0
  151.1788  138.1153  154.1445 C   0  0  0  0  0  0  0  0  0  0  0  0
  150.1097  137.1392  154.4722 N   0  3  2  0  0  0  0  0  0  0  0  0
  148.9598  137.7792  155.1623 C   0  0  0  0  0  0  0  0  0  0  0  0
  147.8086  136.7809  155.3704 C   0  0  0  0  0  0  0  0  0  0  0  0
  148.2774  135.5432  156.1533 C   0  0  1  0  0  0  0  0  0  0  0  0
  147.1440  134.5246  156.3396 C   0  0  0  0  0  0  0  0  0  0  0  0
  149.4890  134.9227  155.4381 C   0  0  0  0  0  0  0  0  0  0  0  0
  150.6066  135.9584  155.2281 C   0  0  0  0  0  0  0  0  0  0  0  0
  151.6054  142.6325  158.5277 N   0  0  0  0  0  0  0  0  0  0  0  0
  153.0204  145.5716  159.2545 H   0  0  0  0  0  0  0  0  0  0  0  0
  151.2764  145.3331  159.2111 H   0  0  0  0  0  0  0  0  0  0  0  0
  152.2260  145.1757  157.7347 H   0  0  0  0  0  0  0  0  0  0  0  0
  154.1765  143.3675  160.4945 H   0  0  0  0  0  0  0  0  0  0  0  0
  154.6176  140.7250  161.1044 H   0  0  0  0  0  0  0  0  0  0  0  0
  154.2103  139.7227  159.7132 H   0  0  0  0  0  0  0  0  0  0  0  0
  153.0987  139.8317  161.0808 H   0  0  0  0  0  0  0  0  0  0  0  0
  151.1383  139.5965  159.4111 H   0  0  0  0  0  0  0  0  0  0  0  0
  150.3846  140.4998  158.1126 H   0  0  0  0  0  0  0  0  0  0  0  0
  150.5865  139.3455  156.2829 H   0  0  0  0  0  0  0  0  0  0  0  0
  153.0414  138.8695  154.9628 H   0  0  0  0  0  0  0  0  0  0  0  0
  152.5292  137.3718  155.7037 H   0  0  0  0  0  0  0  0  0  0  0  0
  150.7277  139.0600  153.8368 H   0  0  0  0  0  0  0  0  0  0  0  0
  151.7469  137.7539  153.2860 H   0  0  0  0  0  0  0  0  0  0  0  0
  149.2883  138.1821  156.1220 H   0  0  0  0  0  0  0  0  0  0  0  0
  148.5967  138.6214  154.5721 H   0  0  0  0  0  0  0  0  0  0  0  0
  146.9910  137.2709  155.9005 H   0  0  0  0  0  0  0  0  0  0  0  0
  147.4099  136.4776  154.4012 H   0  0  0  0  0  0  0  0  0  0  0  0
  148.5967  135.8686  157.1447 H   0  0  0  0  0  0  0  0  0  0  0  0
  146.7806  134.1536  155.3807 H   0  0  0  0  0  0  0  0  0  0  0  0
  146.2988  134.9692  156.8659 H   0  0  0  0  0  0  0  0  0  0  0  0
  147.4801  133.6668  156.9226 H   0  0  0  0  0  0  0  0  0  0  0  0
  149.8736  134.0822  156.0169 H   0  0  0  0  0  0  0  0  0  0  0  0
  149.1826  134.5176  154.4725 H   0  0  0  0  0  0  0  0  0  0  0  0
  151.4290  135.4827  154.6953 H   0  0  0  0  0  0  0  0  0  0  0  0
  151.0026  136.2819  156.1920 H   0  0  0  0  0  0  0  0  0  0  0  0
  149.7535  136.7978  153.5909 H   0  0  0  0  0  0  0  0  0  0  0  0
  1  2  1  0  0  0  0
  1 21  1  0  0  0  0
  1 22  1  0  0  0  0
  1 23  1  0  0  0  0
  2 20  2  0  0  0  0
  2  3  1  0  0  0  0
  3  4  2  0  0  0  0
  3 24  1  0  0  0  0
  4  5  1  0  0  0  0
  4  6  1  0  0  0  0
  5 25  1  0  0  0  0
  5 26  1  0  0  0  0
  5 27  1  0  0  0  0
  6  7  1  0  0  0  0
  6 20  1  0  0  0  0
  7  8  1  0  0  0  0
  7 28  1  0  0  0  0
  7 29  1  0  0  0  0
  8  9  2  0  0  0  0
  8 10  1  0  0  0  0
 10 11  1  0  0  0  0
 10 30  1  0  0  0  0
 11 12  1  0  0  0  0
 11 31  1  0  0  0  0
 11 32  1  0  0  0  0
 12 13  1  0  0  0  0
 12 33  1  0  0  0  0
 12 34  1  0  0  0  0
 13 19  1  0  0  0  0
 13 14  1  0  0  0  0
 13 47  1  0  0  0  0
 14 15  1  0  0  0  0
 14 35  1  0  0  0  0
 14 36  1  0  0  0  0
 15 16  1  0  0  0  0
 15 37  1  0  0  0  0
 15 38  1  0  0  0  0
 16 17  1  0  0  0  0
 16 18  1  0  0  0  0
 16 39  1  0  0  0  0
 17 40  1  0  0  0  0
 17 41  1  0  0  0  0
 17 42  1  0  0  0  0
 18 19  1  0  0  0  0
 18 43  1  0  0  0  0
 18 44  1  0  0  0  0
 19 45  1  0  0  0  0
 19 46  1  0  0  0  0
M  CHG  1  13   1
M  END
> <s_m_source_file>
AV-unprocessed.smi

> <i_m_source_file_index>
1179

> <i_lp_mmshare_version>
43012

> <i_f3d_flags>
0

> <s_epik_input>
W0NIM11jMVtjSF1jKFtDSDNdKW4objEpW0NIMl1DKD1PKVtOSF1bQ0gyXVtDSDJdTjJbQ0gyXVtDSDJdW0NIXShbQ0gzXSlbQ0gyXVtDSDJdMg==

> <s_epik_cmdline>
J2VwaWtfcHl0aG9uJywgJy1waCcsICc3LjAnLCAnLXRuJywgJzgnLCAnLW1hJywgJzIwMCcsICctbWV0YWxfYmluZGluZycsICctaW1hZScsICc8aW5maWxlLm1hZT4nLCAnLW9tYWUnLCAnPG91dGZpbGUubWFlPic=

> <r_lp_tautomer_probability>
1

> <r_epik_Ionization_Penalty>
0.00206343

> <r_epik_Ionization_Penalty_Charging>
0.00187095

> <r_epik_Ionization_Penalty_Neutral>
0.000192474

> <r_epik_State_Penalty>
-0

> <r_epik_Charging_Adjusted_Penalty>
0.00187095

> <i_epik_Tot_Q>
1

> <i_epik_Tot_abs_Q>
1

> <r_epik_Metal_State_Penalty>
-0

> <b_epik_Metal_Only>
0

> <s_lp_Force_Field>
OPLS_2005

> <r_lp_Energy>
13.8345

> <b_lp_Chiralities_Consistent>
1

> <s_lp_Variant>
AV-unprocessed.smi:1179-1

> <Gold.Version>
5.8.1

> <Gold.Id.Protein>
6NUR|6NUR_protein|mol2

> <Gold.PLP.Fitness>
45.6629

> <Gold.PLP.PLP>
-37.6764

> <Gold.PLP.part.hbond>
-2.1418

> <Gold.PLP.part.metal>
0.0000

> <Gold.PLP.part.buried>
-5.9922

> <Gold.PLP.part.nonpolar>
-30.2353

> <Gold.PLP.part.repulsive>
0.1725

> <Gold.PLP.ligand.clash>
0.0000

> <Gold.PLP.ligand.torsion>
0.5213

> <Gold.PLP.Chemscore.Hbond>
3.0000

> <Gold.PLP.Chemscore.CHOScore>
0.0000

> <Gold.PLP.Chemscore.Metal>
0.0000

> <Gold.Chemscore.Hbonds>
donor molecule, donor type, donor heavy atom, donor atom, acceptor molecule, acceptor atom, score
      L1  H    13    47       P1  7948  2.00
      P1  H  7997  8008       L1     9  1.00

> <Gold.PLP.Chemscore.Internal.Correction>
0.0290

> <Gold.Rescore>
     Score         DG    S(hbond)    S(metal)    S(lipo)     H(rot)  DE(clash)    DE(int)     intcor
     17.73     -18.32       1.92        0.00      91.24       1.67       0.00       0.59       ----

> <Gold.Chemscore.Fitness>
17.7284

> <Gold.Chemscore.DG>
-18.3176

> <Gold.Chemscore.ZeroCoef>
-5.4800

> <Gold.Chemscore.Hbond>
1.9242

> <Gold.Chemscore.Metal>
0.0000

> <Gold.Chemscore.Lipo>
91.2366

> <Gold.Chemscore.Internal_Hbond>
0.0000

> <Gold.Chemscore.DEClash>
0.0000

> <Gold.Chemscore.DEInternal>
0.5892

> <Gold.Chemscore.Rot>
1.6657

> <Gold.Chemscore.Internal.Correction>
   9.000000E+99

> <Gold.Chemscore.Hbonds>
donor molecule, donor type, donor heavy atom, donor atom, acceptor molecule, acceptor atom, score
      L1  H    13    47       P1  7948  0.55
      P1  H  7997  8008       L1     9  0.99

> <Gold.Chemscore.Hbond.Weighted>
-6.4270

> <Gold.Chemscore.Metal.Weighted>
-0.0000

> <Gold.Chemscore.Lipo.Weighted>
-10.6747

> <Gold.Chemscore.Internal_Hbond.Weighted>
0.0000

> <Gold.Chemscore.DEClash.Weighted>
0.0000

> <Gold.Chemscore.DEInternal.Weighted>
0.5892

> <Gold.Chemscore.Rot.Weighted>
4.2641

> <Gold.Chemscore.Internal.Correction.Weighted>
   9.000000E+99

> <Gold.Protein.RotatedTorsions>
[ 6907 6896 6895 6894 ] final  163.22 input  -60.11 | X-H torsion
[ 7974 7965 7964 7962 ] final  -49.85 input  175.53 | X-H torsion
[ 8008 7997 7996 7995 ] final  -91.86 input   59.86 | X-H torsion
[ 10167 10162 10161 10158 ] final  -59.53 input  -65.29 | X-H torsion
[ 10718 10713 10712 10709 ] final -141.05 input   66.30 | X-H torsion
[ 10763 10752 10751 10750 ] final  129.21 input  -60.55 | X-H torsion
[ 11005 11000 10999 10996 ] final  -90.07 input  -57.11 | X-H torsion

> <Gold.Protein.ActiveResidues>
 VAL166  LYS551  ARG553  GLY616  TRP617  ASP618  TYR619  PRO620  LYS621  CYS622 
 ASP623  PHE694  ASN695  SER759  ASP760  ASP761  ALA762  ILE779  LEU786  VAL792 
 PHE793  MET794  SER795  GLU796  ALA797  LYS798  CYS799  TRP800  GLU811  SER814 

> <Gold.Protein.RotatedAtoms>
  151.9285  133.3604  159.3921 H   0  0  0  0  0  0  0  0  0  0  0  0  # atno 6907 bound_to 6896
  150.7022  134.4562  159.5368 H   0  0  0  0  0  0  0  0  0  0  0  0  # atno 6908 bound_to 6896
  152.2198  134.8423  160.0538 H   0  0  0  0  0  0  0  0  0  0  0  0  # atno 6909 bound_to 6896
  145.9362  140.7704  142.9575 H   0  0  0  0  0  0  0  0  0  0  0  0  # atno 7974 bound_to 7965
  154.7160  140.0515  157.0595 H   0  0  0  0  0  0  0  0  0  0  0  0  # atno 8008 bound_to 7997
  155.0491  140.3177  155.4679 H   0  0  0  0  0  0  0  0  0  0  0  0  # atno 8009 bound_to 7997
  156.2803  140.2119  156.5617 H   0  0  0  0  0  0  0  0  0  0  0  0  # atno 8010 bound_to 7997
  140.6129  143.2393  151.5667 H   0  0  0  0  0  0  0  0  0  0  0  0  # atno 10167 bound_to 10162
  156.3295  130.7578  151.1693 H   0  0  0  0  0  0  0  0  0  0  0  0  # atno 10718 bound_to 10713
  153.7381  135.3228  155.3299 H   0  0  0  0  0  0  0  0  0  0  0  0  # atno 10763 bound_to 10752
  154.8304  135.4538  154.1054 H   0  0  0  0  0  0  0  0  0  0  0  0  # atno 10764 bound_to 10752
  153.2221  135.6949  153.8070 H   0  0  0  0  0  0  0  0  0  0  0  0  # atno 10765 bound_to 10752
  141.1573  133.7669  156.9685 H   0  0  0  0  0  0  0  0  0  0  0  0  # atno 11005 bound_to 11000
  144.6772  140.2206  143.7367 LP  0  0  0  0  0  0  0  0  0  0  0  0  # atno 17320 bound_to 7965
  145.8361  139.2108  143.1855 LP  0  0  0  0  0  0  0  0  0  0  0  0  # atno 17321 bound_to 7965
  139.5375  144.2739  152.1283 LP  0  0  0  0  0  0  0  0  0  0  0  0  # atno 17342 bound_to 10162
  140.1942  144.4722  150.6463 LP  0  0  0  0  0  0  0  0  0  0  0  0  # atno 17343 bound_to 10162
  157.7427  131.0485  150.5000 LP  0  0  0  0  0  0  0  0  0  0  0  0  # atno 17370 bound_to 10713
  156.5164  130.4151  149.6274 LP  0  0  0  0  0  0  0  0  0  0  0  0  # atno 17371 bound_to 10713
  140.1145  134.9456  157.2114 LP  0  0  0  0  0  0  0  0  0  0  0  0  # atno 17394 bound_to 11000
  140.3151  134.2980  155.7258 LP  0  0  0  0  0  0  0  0  0  0  0  0  # atno 17395 bound_to 11000

$$$$
