AV-unprocessed.smi:2006|AV-procd|sdf|8132|dock6
  -GOLD-   2272010363D 1   1.00000     0.00000
 Structure written by MMmdl.
 32 33  0  0  0  0  0  0  0  0  1 V2000
  152.8374  142.2481  161.8028 C   0  0  0  0  0  0  0  0  0  0  0  0
  152.9168  142.7129  160.3449 C   0  0  1  0  0  0  0  0  0  0  0  0
  152.1160  141.7952  159.4010 C   0  0  0  0  0  0  0  0  0  0  0  0
  152.1434  142.3248  158.0434 N   0  0  0  0  0  0  0  0  0  0  0  0
  151.5312  141.4823  157.1050 C   0  0  0  0  0  0  0  0  0  0  0  0
  150.2123  141.7645  156.6919 C   0  0  0  0  0  0  0  0  0  0  0  0
  149.6038  140.9188  155.7448 C   0  0  0  0  0  0  0  0  0  0  0  0
  150.3337  139.8220  155.2429 C   0  0  0  0  0  0  0  0  0  0  0  0
  149.7246  138.8831  154.2213 C   0  0  0  0  0  0  0  0  0  0  0  0
  150.6076  137.7863  153.8773 N   0  0  0  0  0  0  0  0  0  0  0  0
  151.6456  139.6214  155.7200 C   0  0  0  0  0  0  0  0  0  0  0  0
  152.2358  140.4276  156.6281 N   0  0  0  0  0  0  0  0  0  0  0  0
  151.6807  143.7049  157.9737 C   0  0  0  0  0  0  0  0  0  0  0  0
  152.4855  144.5783  158.9506 C   0  0  0  0  0  0  0  0  0  0  0  0
  152.3904  144.0361  160.2650 O   0  0  0  0  0  0  0  0  0  0  0  0
  153.2427  141.2422  161.9159 H   0  0  0  0  0  0  0  0  0  0  0  0
  151.8064  142.2354  162.1574 H   0  0  0  0  0  0  0  0  0  0  0  0
  153.4063  142.9114  162.4547 H   0  0  0  0  0  0  0  0  0  0  0  0
  153.9652  142.7275  160.0415 H   0  0  0  0  0  0  0  0  0  0  0  0
  152.5364  140.7887  159.4098 H   0  0  0  0  0  0  0  0  0  0  0  0
  151.0837  141.7170  159.7453 H   0  0  0  0  0  0  0  0  0  0  0  0
  149.6761  142.6132  157.0908 H   0  0  0  0  0  0  0  0  0  0  0  0
  148.5952  141.1107  155.4094 H   0  0  0  0  0  0  0  0  0  0  0  0
  148.7853  138.4780  154.5989 H   0  0  0  0  0  0  0  0  0  0  0  0
  149.4883  139.4452  153.3174 H   0  0  0  0  0  0  0  0  0  0  0  0
  150.0815  137.0733  153.3922 H   0  0  0  0  0  0  0  0  0  0  0  0
  151.3046  138.1110  153.2222 H   0  0  0  0  0  0  0  0  0  0  0  0
  152.2404  138.7932  155.3636 H   0  0  0  0  0  0  0  0  0  0  0  0
  151.7907  144.0813  156.9559 H   0  0  0  0  0  0  0  0  0  0  0  0
  150.6198  143.7525  158.2239 H   0  0  0  0  0  0  0  0  0  0  0  0
  153.5314  144.6414  158.6462 H   0  0  0  0  0  0  0  0  0  0  0  0
  152.0938  145.5956  158.9565 H   0  0  0  0  0  0  0  0  0  0  0  0
  1  2  1  0  0  0  0
  1 16  1  0  0  0  0
  1 17  1  0  0  0  0
  1 18  1  0  0  0  0
  2 15  1  0  0  0  0
  2  3  1  0  0  0  0
  2 19  1  0  0  0  0
  3  4  1  0  0  0  0
  3 20  1  0  0  0  0
  3 21  1  0  0  0  0
  4  5  1  0  0  0  0
  4 13  1  0  0  0  0
  5 12  1  0  0  0  0
  5  6  2  0  0  0  0
  6  7  1  0  0  0  0
  6 22  1  0  0  0  0
  7  8  2  0  0  0  0
  7 23  1  0  0  0  0
  8  9  1  0  0  0  0
  8 11  1  0  0  0  0
  9 10  1  0  0  0  0
  9 24  1  0  0  0  0
  9 25  1  0  0  0  0
 10 26  1  0  0  0  0
 10 27  1  0  0  0  0
 11 12  2  0  0  0  0
 11 28  1  0  0  0  0
 13 14  1  0  0  0  0
 13 29  1  0  0  0  0
 13 30  1  0  0  0  0
 14 15  1  0  0  0  0
 14 31  1  0  0  0  0
 14 32  1  0  0  0  0
M  END
> <s_m_source_file>
AV-unprocessed.smi

> <i_m_source_file_index>
2006

> <i_lp_mmshare_version>
43012

> <i_f3d_flags>
0

> <s_epik_input>
W0NIM11bQ0BASF0xW0NIMl1OKFtDSDJdW0NIMl1PMSljMltjSF1bY0hdYyhbY0hdbjIpW0NIMl1bTkgyXQ==

> <s_epik_cmdline>
J2VwaWtfcHl0aG9uJywgJy1waCcsICc3LjAnLCAnLXRuJywgJzgnLCAnLW1hJywgJzIwMCcsICctbWV0YWxfYmluZGluZycsICctaW1hZScsICc8aW5maWxlLm1hZT4nLCAnLW9tYWUnLCAnPG91dGZpbGUubWFlPic=

> <r_lp_tautomer_probability>
1

> <r_epik_Ionization_Penalty>
1.39389

> <r_epik_Ionization_Penalty_Charging>
0

> <r_epik_Ionization_Penalty_Neutral>
1.39389

> <r_epik_State_Penalty>
1.46818

> <r_epik_Charging_Adjusted_Penalty>
1.46818

> <i_epik_Tot_Q>
0

> <i_epik_Tot_abs_Q>
0

> <r_epik_Metal_State_Penalty>
1.46201

> <b_epik_Metal_Only>
0

> <s_lp_Force_Field>
OPLS_2005

> <r_lp_Energy>
16.9225

> <b_lp_Chiralities_Consistent>
1

> <s_lp_Variant>
AV-unprocessed.smi:2006-4

> <Gold.Version>
5.8.1

> <Gold.Id.Protein>
6NUR|6NUR_protein|mol2

> <Gold.PLP.Fitness>
37.4241

> <Gold.PLP.PLP>
-33.6796

> <Gold.PLP.part.hbond>
-2.9972

> <Gold.PLP.part.metal>
0.0000

> <Gold.PLP.part.buried>
-1.5632

> <Gold.PLP.part.nonpolar>
-29.2789

> <Gold.PLP.part.repulsive>
0.0596

> <Gold.PLP.ligand.clash>
0.0000

> <Gold.PLP.ligand.torsion>
0.6697

> <Gold.PLP.Chemscore.Hbond>
1.6613

> <Gold.PLP.Chemscore.CHOScore>
0.0000

> <Gold.PLP.Chemscore.Metal>
0.0000

> <Gold.Chemscore.Hbonds>
donor molecule, donor type, donor heavy atom, donor atom, acceptor molecule, acceptor atom, score
      L1  H    10    26       P1  7948  0.89
      P1  H  7997  8008       L1    12  0.75

> <Gold.PLP.Chemscore.Internal.Correction>
0.1002

> <Gold.Rescore>
     Score         DG    S(hbond)    S(metal)    S(lipo)     H(rot)  DE(clash)    DE(int)     intcor
     15.72     -17.40       1.41        0.00      89.55       1.28       0.94       0.75       ----

> <Gold.Chemscore.Fitness>
15.7197

> <Gold.Chemscore.DG>
-17.4043

> <Gold.Chemscore.ZeroCoef>
-5.4800

> <Gold.Chemscore.Hbond>
1.4115

> <Gold.Chemscore.Metal>
0.0000

> <Gold.Chemscore.Lipo>
89.5464

> <Gold.Chemscore.Internal_Hbond>
0.0000

> <Gold.Chemscore.DEClash>
0.9387

> <Gold.Chemscore.DEInternal>
0.7459

> <Gold.Chemscore.Rot>
1.2762

> <Gold.Chemscore.Internal.Correction>
   9.000000E+99

> <Gold.Chemscore.Hbonds>
donor molecule, donor type, donor heavy atom, donor atom, acceptor molecule, acceptor atom, score
      L1  H    10    26       P1  7948  0.16
      P1  H  7997  8008       L1    12  0.42

> <Gold.Chemscore.Hbond.Weighted>
-4.7144

> <Gold.Chemscore.Metal.Weighted>
-0.0000

> <Gold.Chemscore.Lipo.Weighted>
-10.4769

> <Gold.Chemscore.Internal_Hbond.Weighted>
0.0000

> <Gold.Chemscore.DEClash.Weighted>
0.9387

> <Gold.Chemscore.DEInternal.Weighted>
0.7459

> <Gold.Chemscore.Rot.Weighted>
3.2671

> <Gold.Chemscore.Internal.Correction.Weighted>
   9.000000E+99

> <Gold.Protein.RotatedTorsions>
[ 6907 6896 6895 6894 ] final -178.31 input  -60.11 | X-H torsion
[ 7974 7965 7964 7962 ] final   70.68 input  175.53 | X-H torsion
[ 8008 7997 7996 7995 ] final  -48.99 input   59.86 | X-H torsion
[ 10167 10162 10161 10158 ] final   60.31 input  -65.29 | X-H torsion
[ 10718 10713 10712 10709 ] final   20.03 input   66.30 | X-H torsion
[ 10763 10752 10751 10750 ] final   15.00 input  -60.55 | X-H torsion
[ 11005 11000 10999 10996 ] final   21.74 input  -57.11 | X-H torsion

> <Gold.Protein.ActiveResidues>
 VAL166  LYS551  ARG553  GLY616  TRP617  ASP618  TYR619  PRO620  LYS621  CYS622 
 ASP623  PHE694  ASN695  SER759  ASP760  ASP761  ALA762  ILE779  LEU786  VAL792 
 PHE793  MET794  SER795  GLU796  ALA797  LYS798  CYS799  TRP800  GLU811  SER814 

> <Gold.Protein.RotatedAtoms>
  151.6351  133.3329  159.3117 H   0  0  0  0  0  0  0  0  0  0  0  0  # atno 6907 bound_to 6896
  150.8036  134.7151  159.6635 H   0  0  0  0  0  0  0  0  0  0  0  0  # atno 6908 bound_to 6896
  152.4131  134.6095  160.0073 H   0  0  0  0  0  0  0  0  0  0  0  0  # atno 6909 bound_to 6896
  145.7752  139.2862  143.1298 H   0  0  0  0  0  0  0  0  0  0  0  0  # atno 7974 bound_to 7965
  154.4037  140.1308  156.4430 H   0  0  0  0  0  0  0  0  0  0  0  0  # atno 8008 bound_to 7997
  155.7441  140.3489  155.5098 H   0  0  0  0  0  0  0  0  0  0  0  0  # atno 8009 bound_to 7997
  155.9012  140.1019  157.1339 H   0  0  0  0  0  0  0  0  0  0  0  0  # atno 8010 bound_to 7997
  140.1669  144.4315  150.6680 H   0  0  0  0  0  0  0  0  0  0  0  0  # atno 10167 bound_to 10162
  157.1187  130.6540  149.5918 H   0  0  0  0  0  0  0  0  0  0  0  0  # atno 10718 bound_to 10713
  153.1567  135.6788  153.8802 H   0  0  0  0  0  0  0  0  0  0  0  0  # atno 10763 bound_to 10752
  153.8211  135.3130  155.3411 H   0  0  0  0  0  0  0  0  0  0  0  0  # atno 10764 bound_to 10752
  154.7903  135.4839  154.0125 H   0  0  0  0  0  0  0  0  0  0  0  0  # atno 10765 bound_to 10752
  140.3882  134.1847  155.7663 H   0  0  0  0  0  0  0  0  0  0  0  0  # atno 11005 bound_to 11000
  146.0130  140.8418  142.9961 LP  0  0  0  0  0  0  0  0  0  0  0  0  # atno 17320 bound_to 7965
  144.6805  140.2517  143.7331 LP  0  0  0  0  0  0  0  0  0  0  0  0  # atno 17321 bound_to 7965
  140.6607  143.2251  151.5863 LP  0  0  0  0  0  0  0  0  0  0  0  0  # atno 17342 bound_to 10162
  139.5355  144.2793  152.1242 LP  0  0  0  0  0  0  0  0  0  0  0  0  # atno 17343 bound_to 10162
  155.9833  130.4852  150.6927 LP  0  0  0  0  0  0  0  0  0  0  0  0  # atno 17370 bound_to 10713
  157.4495  131.0871  151.0860 LP  0  0  0  0  0  0  0  0  0  0  0  0  # atno 17371 bound_to 10713
  141.1900  133.8227  157.0936 LP  0  0  0  0  0  0  0  0  0  0  0  0  # atno 17394 bound_to 11000
  140.0426  134.9846  157.0990 LP  0  0  0  0  0  0  0  0  0  0  0  0  # atno 17395 bound_to 11000

$$$$
