AV-unprocessed.smi:2523|AV-procd|sdf|9920|dock6
  -GOLD-   2272013553D 1   1.00000     0.00000
 Structure written by MMmdl.
 34 36  0  0  0  0  0  0  0  0  1 V2000
  145.3870  142.6108  158.1978 C   0  0  0  0  0  0  0  0  0  0  0  0
  146.3118  142.1882  157.1486 N   0  0  0  0  0  0  0  0  0  0  0  0
  145.7063  141.8649  155.9286 N   0  0  0  0  0  0  0  0  0  0  0  0
  146.4077  141.4726  154.9116 C   0  0  0  0  0  0  0  0  0  0  0  0
  147.8555  141.3734  155.0679 C   0  0  0  0  0  0  0  0  0  0  0  0
  148.9364  140.9916  154.2266 C   0  0  0  0  0  0  0  0  0  0  0  0
  150.1084  141.0670  154.8542 N   0  0  0  0  0  0  0  0  0  0  0  0
  149.8274  141.4979  156.1111 N   0  0  0  0  0  0  0  0  0  0  0  0
  150.9100  141.6785  157.0661 C   0  0  0  0  0  0  0  0  0  0  0  0
  150.8268  143.0260  157.8122 C   0  0  2  0  0  0  0  0  0  0  0  0
  151.2774  144.0771  156.9791 O   0  0  0  0  0  0  0  0  0  0  0  0
  151.5898  142.9788  159.1263 C   0  0  0  0  0  0  0  0  0  0  0  0
  151.4784  144.0405  160.0495 C   0  0  0  0  0  0  0  0  0  0  0  0
  152.1813  143.9964  161.2692 C   0  0  0  0  0  0  0  0  0  0  0  0
  152.9967  142.8898  161.5740 C   0  0  0  0  0  0  0  0  0  0  0  0
  153.1097  141.8259  160.6581 C   0  0  0  0  0  0  0  0  0  0  0  0
  154.1060  140.4677  161.0313 Cl  0  0  0  0  0  0  0  0  0  0  0  0
  152.4084  141.8706  159.4372 C   0  0  0  0  0  0  0  0  0  0  0  0
  148.4647  141.6828  156.2391 C   0  0  0  0  0  0  0  0  0  0  0  0
  147.6549  142.1308  157.3979 C   0  0  0  0  0  0  0  0  0  0  0  0
  148.1675  142.4196  158.4791 O   0  0  0  0  0  0  0  0  0  0  0  0
  145.6266  143.6192  158.5378 H   0  0  0  0  0  0  0  0  0  0  0  0
  145.4458  141.9381  159.0546 H   0  0  0  0  0  0  0  0  0  0  0  0
  144.3518  142.6166  157.8527 H   0  0  0  0  0  0  0  0  0  0  0  0
  145.9345  141.2214  153.9625 H   0  0  0  0  0  0  0  0  0  0  0  0
  148.9112  140.6648  153.1976 H   0  0  0  0  0  0  0  0  0  0  0  0
  150.8724  140.8570  157.7832 H   0  0  0  0  0  0  0  0  0  0  0  0
  151.8629  141.5781  156.5478 H   0  0  0  0  0  0  0  0  0  0  0  0
  149.7787  143.2342  158.0313 H   0  0  0  0  0  0  0  0  0  0  0  0
  150.5268  144.5738  156.6917 H   0  0  0  0  0  0  0  0  0  0  0  0
  150.8535  144.8931  159.8266 H   0  0  0  0  0  0  0  0  0  0  0  0
  152.0944  144.8116  161.9721 H   0  0  0  0  0  0  0  0  0  0  0  0
  153.5336  142.8576  162.5107 H   0  0  0  0  0  0  0  0  0  0  0  0
  152.4969  141.0510  158.7388 H   0  0  0  0  0  0  0  0  0  0  0  0
  1  2  1  0  0  0  0
  1 22  1  0  0  0  0
  1 23  1  0  0  0  0
  1 24  1  0  0  0  0
  2 20  1  0  0  0  0
  2  3  1  0  0  0  0
  3  4  2  0  0  0  0
  4  5  1  0  0  0  0
  4 25  1  0  0  0  0
  5 19  2  0  0  0  0
  5  6  1  0  0  0  0
  6  7  2  0  0  0  0
  6 26  1  0  0  0  0
  7  8  1  0  0  0  0
  8  9  1  0  0  0  0
  8 19  1  0  0  0  0
  9 10  1  0  0  0  0
  9 27  1  0  0  0  0
  9 28  1  0  0  0  0
 10 11  1  0  0  0  0
 10 12  1  0  0  0  0
 10 29  1  0  0  0  0
 11 30  1  0  0  0  0
 12 18  1  0  0  0  0
 12 13  2  0  0  0  0
 13 14  1  0  0  0  0
 13 31  1  0  0  0  0
 14 15  2  0  0  0  0
 14 32  1  0  0  0  0
 15 16  1  0  0  0  0
 15 33  1  0  0  0  0
 16 17  1  0  0  0  0
 16 18  2  0  0  0  0
 18 34  1  0  0  0  0
 19 20  1  0  0  0  0
 20 21  2  0  0  0  0
M  END
> <s_m_source_file>
AV-unprocessed.smi

> <i_m_source_file_index>
2523

> <i_lp_mmshare_version>
43012

> <i_f3d_flags>
0

> <s_epik_input>
W2NIXTFubihbQ0gzXSljKD1PKWMoYzEyKW4obltjSF0yKVtDSDJdW0NASF0oW09IXSljM1tjSF1bY0hdW2NIXWMoQ2wpW2NIXTM=

> <s_epik_cmdline>
J2VwaWtfcHl0aG9uJywgJy1waCcsICc3LjAnLCAnLXRuJywgJzgnLCAnLW1hJywgJzIwMCcsICctbWV0YWxfYmluZGluZycsICctaW1hZScsICc8aW5maWxlLm1hZT4nLCAnLW9tYWUnLCAnPG91dGZpbGUubWFlPic=

> <r_lp_tautomer_probability>
1

> <r_epik_Ionization_Penalty>
8.52698e-06

> <r_epik_Ionization_Penalty_Charging>
1.65421e-10

> <r_epik_Ionization_Penalty_Neutral>
8.52681e-06

> <r_epik_State_Penalty>
-0

> <r_epik_Charging_Adjusted_Penalty>
1.65421e-10

> <i_epik_Tot_Q>
0

> <i_epik_Tot_abs_Q>
0

> <r_epik_Metal_State_Penalty>
-0

> <b_epik_Metal_Only>
0

> <s_lp_Force_Field>
OPLS_2005

> <r_lp_Energy>
27.0285

> <b_lp_Chiralities_Consistent>
1

> <s_lp_Variant>
AV-unprocessed.smi:2523-1

> <Gold.Version>
5.8.1

> <Gold.Id.Protein>
6NUR|6NUR_protein|mol2

> <Gold.PLP.Fitness>
50.4515

> <Gold.PLP.PLP>
-42.2322

> <Gold.PLP.part.hbond>
-2.0000

> <Gold.PLP.part.metal>
0.0000

> <Gold.PLP.part.buried>
-5.1667

> <Gold.PLP.part.nonpolar>
-35.5902

> <Gold.PLP.part.repulsive>
0.3464

> <Gold.PLP.ligand.clash>
0.0000

> <Gold.PLP.ligand.torsion>
0.4233

> <Gold.PLP.Chemscore.Hbond>
1.6560

> <Gold.PLP.Chemscore.CHOScore>
1.3584

> <Gold.PLP.Chemscore.Metal>
0.0000

> <Gold.Chemscore.Hbonds>
donor molecule, donor type, donor heavy atom, donor atom, acceptor molecule, acceptor atom, score
      L1  H    11    30       P1  8028  1.00
      P1  H  7989  7998       L1     7  0.63
      L1  C     4    25       P1 10175  0.36
      L1  C     6    26       P1  7957  1.00

> <Gold.PLP.Chemscore.Internal.Correction>
0.0226

> <Gold.Rescore>
     Score         DG    S(hbond)    S(metal)    S(lipo)     H(rot)  DE(clash)    DE(int)     intcor
     17.16     -19.22       1.63        0.00     113.00       1.93       0.13       1.93       ----

> <Gold.Chemscore.Fitness>
17.1578

> <Gold.Chemscore.DG>
-19.2218

> <Gold.Chemscore.ZeroCoef>
-5.4800

> <Gold.Chemscore.Hbond>
1.6324

> <Gold.Chemscore.Metal>
0.0000

> <Gold.Chemscore.Lipo>
113.0017

> <Gold.Chemscore.Internal_Hbond>
0.0000

> <Gold.Chemscore.DEClash>
0.1338

> <Gold.Chemscore.DEInternal>
1.9301

> <Gold.Chemscore.Rot>
1.9265

> <Gold.Chemscore.Internal.Correction>
   9.000000E+99

> <Gold.Chemscore.Hbonds>
donor molecule, donor type, donor heavy atom, donor atom, acceptor molecule, acceptor atom, score
      L1  H    11    30       P1  8028  0.91
      P1  H  7989  7998       L1     7  0.41

> <Gold.Chemscore.Hbond.Weighted>
-5.4523

> <Gold.Chemscore.Metal.Weighted>
-0.0000

> <Gold.Chemscore.Lipo.Weighted>
-13.2212

> <Gold.Chemscore.Internal_Hbond.Weighted>
0.0000

> <Gold.Chemscore.DEClash.Weighted>
0.1338

> <Gold.Chemscore.DEInternal.Weighted>
1.9301

> <Gold.Chemscore.Rot.Weighted>
4.9317

> <Gold.Chemscore.Internal.Correction.Weighted>
   9.000000E+99

> <Gold.Protein.RotatedTorsions>
[ 6907 6896 6895 6894 ] final  128.16 input  -60.11 | X-H torsion
[ 7974 7965 7964 7962 ] final -163.83 input  175.53 | X-H torsion
[ 8008 7997 7996 7995 ] final  -92.73 input   59.86 | X-H torsion
[ 10167 10162 10161 10158 ] final  -22.24 input  -65.29 | X-H torsion
[ 10718 10713 10712 10709 ] final   43.14 input   66.30 | X-H torsion
[ 10763 10752 10751 10750 ] final  114.99 input  -60.55 | X-H torsion
[ 11005 11000 10999 10996 ] final  -27.02 input  -57.11 | X-H torsion

> <Gold.Protein.ActiveResidues>
 VAL166  LYS551  ARG553  GLY616  TRP617  ASP618  TYR619  PRO620  LYS621  CYS622 
 ASP623  PHE694  ASN695  SER759  ASP760  ASP761  ALA762  ILE779  LEU786  VAL792 
 PHE793  MET794  SER795  GLU796  ALA797  LYS798  CYS799  TRP800  GLU811  SER814 

> <Gold.Protein.RotatedAtoms>
  152.3746  133.6464  159.6113 H   0  0  0  0  0  0  0  0  0  0  0  0  # atno 6907 bound_to 6896
  150.7694  133.9215  159.3408 H   0  0  0  0  0  0  0  0  0  0  0  0  # atno 6908 bound_to 6896
  151.7031  135.0927  160.0306 H   0  0  0  0  0  0  0  0  0  0  0  0  # atno 6909 bound_to 6896
  144.7314  140.3050  143.6198 H   0  0  0  0  0  0  0  0  0  0  0  0  # atno 7974 bound_to 7965
  154.7268  140.0506  157.0690 H   0  0  0  0  0  0  0  0  0  0  0  0  # atno 8008 bound_to 7997
  155.0354  140.3162  155.4724 H   0  0  0  0  0  0  0  0  0  0  0  0  # atno 8009 bound_to 7997
  156.2831  140.2142  156.5477 H   0  0  0  0  0  0  0  0  0  0  0  0  # atno 8010 bound_to 7997
  140.7285  143.4553  151.0458 H   0  0  0  0  0  0  0  0  0  0  0  0  # atno 10167 bound_to 10162
  157.4127  130.7923  149.7444 H   0  0  0  0  0  0  0  0  0  0  0  0  # atno 10718 bound_to 10713
  153.5155  135.3609  155.2607 H   0  0  0  0  0  0  0  0  0  0  0  0  # atno 10763 bound_to 10752
  154.8739  135.4033  154.3320 H   0  0  0  0  0  0  0  0  0  0  0  0  # atno 10764 bound_to 10752
  153.3981  135.7074  153.6513 H   0  0  0  0  0  0  0  0  0  0  0  0  # atno 10765 bound_to 10752
  140.9082  133.7479  156.0634 H   0  0  0  0  0  0  0  0  0  0  0  0  # atno 11005 bound_to 11000
  145.7722  139.1861  143.2205 LP  0  0  0  0  0  0  0  0  0  0  0  0  # atno 17320 bound_to 7965
  146.0901  140.7665  142.9599 LP  0  0  0  0  0  0  0  0  0  0  0  0  # atno 17321 bound_to 7965
  139.8233  143.7791  152.3177 LP  0  0  0  0  0  0  0  0  0  0  0  0  # atno 17342 bound_to 10162
  139.7881  144.7420  150.9994 LP  0  0  0  0  0  0  0  0  0  0  0  0  # atno 17343 bound_to 10162
  155.9855  130.3982  150.3256 LP  0  0  0  0  0  0  0  0  0  0  0  0  # atno 17370 bound_to 10713
  157.1396  131.0293  151.2933 LP  0  0  0  0  0  0  0  0  0  0  0  0  # atno 17371 bound_to 10713
  140.8144  134.3361  157.5401 LP  0  0  0  0  0  0  0  0  0  0  0  0  # atno 17394 bound_to 11000
  139.8753  134.9273  156.3422 LP  0  0  0  0  0  0  0  0  0  0  0  0  # atno 17395 bound_to 11000

$$$$
