#       Name:                AV-unprocessed.smi:1669
#       Creating user name   scv26
#       Creation time:       Fri Mar 27 07:42:09 2020


#       File generated by GOLD software.
#

@<TRIPOS>MOLECULE
AV-unprocessed.smi:1669
    53    55     1
SMALL
NO_CHARGES


@<TRIPOS>ATOM
      1 ****         0.2353   3.2877  -0.6829 C.3            1 S1                 0.0000
      2 ****        -0.3047   2.3483   0.3286 N.4            1 S1                 1.0000
      3 ****        -1.7869   2.4351   0.4009 C.3            1 S1                 0.0000
      4 ****        -2.3619   1.7241   1.6148 C.ar           1 S1                 0.0000
      5 ****        -2.9976   0.4716   1.4713 C.ar           1 S1                 0.0000
      6 ****        -3.5196  -0.1905   2.5993 C.ar           1 S1                 0.0000
      7 ****        -3.4127   0.3987   3.8739 C.ar           1 S1                 0.0000
      8 ****        -2.7838   1.6503   4.0203 C.ar           1 S1                 0.0000
      9 ****        -2.2596   2.3123   2.8930 C.ar           1 S1                 0.0000
     10 ****         0.1895   0.9536   0.1569 C.3            1 S1                 0.0000
     11 ****         1.7090   0.7873   0.3856 C.3            1 S1                 0.0000
     12 ****         2.0443   1.2541   1.6769 O.3            1 S1                 0.0000
     13 ****         2.1883  -0.6777   0.2992 C.3            1 S1                 0.0000
     14 ****         1.8224  -1.3451  -0.9615 N.pl3          1 S1                 0.0000
     15 ****         2.4448  -1.3234  -2.1760 C.2            1 S1                 0.0000
     16 ****         3.6932  -0.5861  -2.5327 C.3            1 S1                 0.0000
     17 ****         4.8539  -1.2572  -2.0961 O.3            1 S1                 0.0000
     18 ****         1.7235  -2.1191  -3.0145 N.pl3          1 S1                 1.0000
     19 ****         0.6321  -2.6586  -2.3331 C.ar           1 S1                 0.0000
     20 ****        -0.3743  -3.5178  -2.7633 C.ar           1 S1                 0.0000
     21 ****        -1.3472  -3.8813  -1.8094 C.ar           1 S1                 0.0000
     22 ****        -1.2955  -3.3956  -0.4870 C.ar           1 S1                 0.0000
     23 ****        -0.2691  -2.5267  -0.0619 C.ar           1 S1                 0.0000
     24 ****         0.6896  -2.1695  -1.0114 C.ar           1 S1                 0.0000
     25 ****        -0.0367   2.9744  -1.6917 H              1 S1                 0.0000
     26 ****         1.3205   3.3604  -0.6258 H              1 S1                 0.0000
     27 ****        -0.1550   4.2935  -0.5240 H              1 S1                 0.0000
     28 ****        -2.0921   3.4811   0.4571 H              1 S1                 0.0000
     29 ****        -2.2261   2.0334  -0.5138 H              1 S1                 0.0000
     30 ****        -3.0813   0.0113   0.4974 H              1 S1                 0.0000
     31 ****        -4.0027  -1.1501   2.4874 H              1 S1                 0.0000
     32 ****        -3.8140  -0.1086   4.7391 H              1 S1                 0.0000
     33 ****        -2.7033   2.1022   4.9981 H              1 S1                 0.0000
     34 ****        -1.7765   3.2712   3.0135 H              1 S1                 0.0000
     35 ****        -0.3164   0.2942   0.8603 H              1 S1                 0.0000
     36 ****        -0.0877   0.6107  -0.8407 H              1 S1                 0.0000
     37 ****         2.2677   1.3709  -0.3448 H              1 S1                 0.0000
     38 ****         1.9487   2.1939   1.7002 H              1 S1                 0.0000
     39 ****         3.2751  -0.7183   0.3833 H              1 S1                 0.0000
     40 ****         1.8056  -1.2642   1.1347 H              1 S1                 0.0000
     41 ****         3.7432  -0.4578  -3.6142 H              1 S1                 0.0000
     42 ****         3.6685   0.4106  -2.0926 H              1 S1                 0.0000
     43 ****         5.6109  -0.7552  -2.3578 H              1 S1                 0.0000
     44 ****        -0.4143  -3.8942  -3.7752 H              1 S1                 0.0000
     45 ****        -2.1479  -4.5475  -2.0973 H              1 S1                 0.0000
     46 ****        -2.0576  -3.6982   0.2171 H              1 S1                 0.0000
     47 ****        -0.2440  -2.1656   0.9553 H              1 S1                 0.0000
     48 ****         0.0335   2.6648   1.2263 H              1 S1                 0.0000
     49 ****         1.9690  -2.2875  -3.9818 H              1 S1                 0.0000
     50 ****         2.9907   1.0084   1.8865 LP             1 S1                 0.0000
     51 ****         1.4347   0.8386   2.3520 LP             1 S1                 0.0000
     52 ****         4.8931  -2.1662  -2.5110 LP             1 S1                 0.0000
     53 ****         4.8368  -1.3458  -1.1002 LP             1 S1                 0.0000
@<TRIPOS>BOND
    1    1    2 1     
    2    1   25 1     
    3    1   26 1     
    4    1   27 1     
    5    2    3 1     
    6    2   10 1     
    7    2   48 1     
    8    3    4 1     
    9    3   28 1     
   10    3   29 1     
   11    4    9 ar    
   12    4    5 ar    
   13    5    6 ar    
   14    5   30 1     
   15    6    7 ar    
   16    6   31 1     
   17    7    8 ar    
   18    7   32 1     
   19    8    9 ar    
   20    8   33 1     
   21    9   34 1     
   22   10   11 1     
   23   10   35 1     
   24   10   36 1     
   25   11   12 1     
   26   11   13 1     
   27   11   37 1     
   28   12   38 1     
   29   13   14 1     
   30   13   39 1     
   31   13   40 1     
   32   14   24 1     
   33   14   15 1     
   34   15   16 1     
   35   15   18 2     
   36   16   17 1     
   37   16   41 1     
   38   16   42 1     
   39   17   43 1     
   40   18   19 1     
   41   18   49 1     
   42   19   24 ar    
   43   19   20 ar    
   44   20   21 ar    
   45   20   44 1     
   46   21   22 ar    
   47   21   45 1     
   48   22   23 ar    
   49   22   46 1     
   50   23   24 ar    
   51   23   47 1     
   52   12   50 1     
   53   12   51 1     
   54   17   52 1     
   55   17   53 1     
@<TRIPOS>SUBSTRUCTURE
      1 S1             1
@<TRIPOS>SET
LONE_PAIRS      STATIC     ATOMS    <user>   **** ""
4 50 51 52 53
DONOR_HYDROGENS      STATIC     ATOMS    <user>   **** ""
4 48 38 43 49
ATOM$BLUE        STATIC     ATOMS    COLORGROUP SYSTEM
4 50 51 52 53
ATOM$RED        STATIC     ATOMS    COLORGROUP SYSTEM
4 48 38 43 49
