AV-unprocessed.smi:1709|AV-procd|sdf|6892|dock3
  -GOLD-   22720 8 93D 1   1.00000     0.00000
 Structure written by MMmdl.
 43 45  0  0  0  0  0  0  0  0  2 V2000
  149.8801  138.0336  154.4098 C   0  0  0  0  0  0  0  0  0  0  0  0
  149.0355  139.2871  154.2457 C   0  0  0  0  0  0  0  0  0  0  0  0
  149.5640  140.5310  154.6514 C   0  0  0  0  0  0  0  0  0  0  0  0
  148.7848  141.6902  154.4988 C   0  0  0  0  0  0  0  0  0  0  0  0
  147.5023  141.5557  153.9417 C   0  0  0  0  0  0  0  0  0  0  0  0
  146.9899  140.3709  153.5509 N   0  0  0  0  0  0  0  0  0  0  0  0
  147.7258  139.2386  153.6968 C   0  0  0  0  0  0  0  0  0  0  0  0
  147.2662  137.9492  153.2868 N   0  0  0  0  0  0  0  0  0  0  0  0
  146.1076  137.3022  153.5315 C   0  0  0  0  0  0  0  0  0  0  0  0
  145.2199  137.8147  154.2111 O   0  0  0  0  0  0  0  0  0  0  0  0
  145.9899  136.0797  152.9884 N   0  0  0  0  0  0  0  0  0  0  0  0
  144.8609  135.1772  153.1846 C   0  0  1  0  0  0  0  0  0  0  0  0
  143.5650  135.6912  152.5715 C   0  0  0  0  0  0  0  0  0  0  0  0
  142.7100  134.4248  152.4649 C   0  0  0  0  0  0  0  0  0  0  0  0
  143.6483  133.2813  152.3487 N   0  3  1  0  0  0  0  0  0  0  0  0
  143.4282  132.4396  151.1421 C   0  0  0  0  0  0  0  0  0  0  0  0
  144.6410  131.5369  150.8727 C   0  0  0  0  0  0  0  0  0  0  0  0
  145.9095  132.3643  150.5924 C   0  0  0  0  0  0  0  0  0  0  0  0
  145.8379  133.7783  151.2003 C   0  0  0  0  0  0  0  0  0  0  0  0
  145.0361  133.7957  152.5263 C   0  0  1  0  0  0  0  0  0  0  0  0
  150.8519  138.2639  154.8477 H   0  0  0  0  0  0  0  0  0  0  0  0
  150.0524  137.5588  153.4435 H   0  0  0  0  0  0  0  0  0  0  0  0
  149.3794  137.3191  155.0639 H   0  0  0  0  0  0  0  0  0  0  0  0
  150.5557  140.5998  155.0740 H   0  0  0  0  0  0  0  0  0  0  0  0
  149.1608  142.6570  154.7995 H   0  0  0  0  0  0  0  0  0  0  0  0
  146.8706  142.4208  153.8044 H   0  0  0  0  0  0  0  0  0  0  0  0
  147.8762  137.4826  152.6314 H   0  0  0  0  0  0  0  0  0  0  0  0
  146.7639  135.7347  152.4379 H   0  0  0  0  0  0  0  0  0  0  0  0
  144.6903  135.0400  154.2547 H   0  0  0  0  0  0  0  0  0  0  0  0
  143.0915  136.4708  153.1694 H   0  0  0  0  0  0  0  0  0  0  0  0
  143.7508  136.0968  151.5756 H   0  0  0  0  0  0  0  0  0  0  0  0
  142.1303  134.2880  153.3783 H   0  0  0  0  0  0  0  0  0  0  0  0
  142.0018  134.4869  151.6375 H   0  0  0  0  0  0  0  0  0  0  0  0
  142.5284  131.8411  151.2872 H   0  0  0  0  0  0  0  0  0  0  0  0
  143.2507  133.0706  150.2693 H   0  0  0  0  0  0  0  0  0  0  0  0
  144.8063  130.8987  151.7418 H   0  0  0  0  0  0  0  0  0  0  0  0
  144.4418  130.8661  150.0362 H   0  0  0  0  0  0  0  0  0  0  0  0
  146.7751  131.8310  150.9872 H   0  0  0  0  0  0  0  0  0  0  0  0
  146.0715  132.4495  149.5173 H   0  0  0  0  0  0  0  0  0  0  0  0
  146.8517  134.1519  151.3458 H   0  0  0  0  0  0  0  0  0  0  0  0
  145.3670  134.4551  150.4860 H   0  0  0  0  0  0  0  0  0  0  0  0
  145.5511  133.1375  153.2276 H   0  0  0  0  0  0  0  0  0  0  0  0
  143.4728  132.6900  153.1485 H   0  0  0  0  0  0  0  0  0  0  0  0
  1  2  1  0  0  0  0
  1 21  1  0  0  0  0
  1 22  1  0  0  0  0
  1 23  1  0  0  0  0
  2  7  1  0  0  0  0
  2  3  2  0  0  0  0
  3  4  1  0  0  0  0
  3 24  1  0  0  0  0
  4  5  2  0  0  0  0
  4 25  1  0  0  0  0
  5  6  1  0  0  0  0
  5 26  1  0  0  0  0
  6  7  2  0  0  0  0
  7  8  1  0  0  0  0
  8  9  1  0  0  0  0
  8 27  1  0  0  0  0
  9 10  2  0  0  0  0
  9 11  1  0  0  0  0
 11 12  1  0  0  0  0
 11 28  1  0  0  0  0
 12 20  1  0  0  0  0
 12 13  1  0  0  0  0
 12 29  1  0  0  0  0
 13 14  1  0  0  0  0
 13 30  1  0  0  0  0
 13 31  1  0  0  0  0
 14 15  1  0  0  0  0
 14 32  1  0  0  0  0
 14 33  1  0  0  0  0
 15 20  1  0  0  0  0
 15 16  1  0  0  0  0
 15 43  1  0  0  0  0
 16 17  1  0  0  0  0
 16 34  1  0  0  0  0
 16 35  1  0  0  0  0
 17 18  1  0  0  0  0
 17 36  1  0  0  0  0
 17 37  1  0  0  0  0
 18 19  1  0  0  0  0
 18 38  1  0  0  0  0
 18 39  1  0  0  0  0
 19 20  1  0  0  0  0
 19 40  1  0  0  0  0
 19 41  1  0  0  0  0
 20 42  1  0  0  0  0
M  CHG  1  15   1
M  END
> <s_m_source_file>
AV-unprocessed.smi

> <i_m_source_file_index>
1709

> <i_lp_mmshare_version>
43012

> <i_f3d_flags>
0

> <s_epik_input>
W0NIM11jMVtjSF1bY0hdW2NIXW5jMVtOSF1DKD1PKVtOSF1bQ0BIXShbQ0gyXVtDSDJdMilbQ0BASF0oTjIzKVtDSDJdW0NIMl1bQ0gyXVtDSDJdMw==

> <s_epik_cmdline>
J2VwaWtfcHl0aG9uJywgJy1waCcsICc3LjAnLCAnLXRuJywgJzgnLCAnLW1hJywgJzIwMCcsICctbWV0YWxfYmluZGluZycsICctaW1hZScsICc8aW5maWxlLm1hZT4nLCAnLW9tYWUnLCAnPG91dGZpbGUubWFlPic=

> <r_epik_Ionization_Penalty>
0.00101524

> <r_epik_Ionization_Penalty_Charging>
0.000974069

> <r_epik_Ionization_Penalty_Neutral>
4.11757e-05

> <r_epik_State_Penalty>
0.000633842

> <r_epik_Charging_Adjusted_Penalty>
0.00160791

> <i_epik_Tot_Q>
1

> <i_epik_Tot_abs_Q>
1

> <r_epik_Metal_State_Penalty>
-0

> <b_epik_Metal_Only>
0

> <s_lp_Force_Field>
OPLS_2005

> <r_lp_Energy>
45.0812

> <b_lp_Chiralities_Consistent>
1

> <s_lp_Variant>
AV-unprocessed.smi:1709-2

> <Gold.Version>
5.8.1

> <Gold.Id.Protein>
6NUR|6NUR_protein|mol2

> <Gold.PLP.Fitness>
42.1631

> <Gold.PLP.PLP>
-33.3327

> <Gold.PLP.part.hbond>
-2.5190

> <Gold.PLP.part.metal>
0.0000

> <Gold.PLP.part.buried>
-2.7193

> <Gold.PLP.part.nonpolar>
-28.8285

> <Gold.PLP.part.repulsive>
0.3102

> <Gold.PLP.ligand.clash>
0.0000

> <Gold.PLP.ligand.torsion>
0.4603

> <Gold.PLP.Chemscore.Hbond>
3.2493

> <Gold.PLP.Chemscore.CHOScore>
0.0000

> <Gold.PLP.Chemscore.Metal>
0.0000

> <Gold.Chemscore.Hbonds>
donor molecule, donor type, donor heavy atom, donor atom, acceptor molecule, acceptor atom, score
      L1  H     8    27       P1  7948  1.00
      L1  H    11    28       P1  7948  0.28
      L1  H    15    43       P1 10957  2.00

> <Gold.PLP.Chemscore.Internal.Correction>
0.0032

> <Gold.Rescore>
     Score         DG    S(hbond)    S(metal)    S(lipo)     H(rot)  DE(clash)    DE(int)     intcor
     18.00     -18.44       1.77        0.00      82.15       1.00       0.02       0.42       ----

> <Gold.Chemscore.Fitness>
17.9959

> <Gold.Chemscore.DG>
-18.4421

> <Gold.Chemscore.ZeroCoef>
-5.4800

> <Gold.Chemscore.Hbond>
1.7695

> <Gold.Chemscore.Metal>
0.0000

> <Gold.Chemscore.Lipo>
82.1536

> <Gold.Chemscore.Internal_Hbond>
0.0000

> <Gold.Chemscore.DEClash>
0.0230

> <Gold.Chemscore.DEInternal>
0.4232

> <Gold.Chemscore.Rot>
1.0000

> <Gold.Chemscore.Internal.Correction>
   9.000000E+99

> <Gold.Chemscore.Hbonds>
donor molecule, donor type, donor heavy atom, donor atom, acceptor molecule, acceptor atom, score
      L1  H     8    27       P1  7948  1.00
      L1  H    11    28       P1  7948  0.28
      L1  H    15    43       P1 10957  0.28

> <Gold.Chemscore.Hbond.Weighted>
-5.9101

> <Gold.Chemscore.Metal.Weighted>
-0.0000

> <Gold.Chemscore.Lipo.Weighted>
-9.6120

> <Gold.Chemscore.Internal_Hbond.Weighted>
0.0000

> <Gold.Chemscore.DEClash.Weighted>
0.0230

> <Gold.Chemscore.DEInternal.Weighted>
0.4232

> <Gold.Chemscore.Rot.Weighted>
2.5600

> <Gold.Chemscore.Internal.Correction.Weighted>
   9.000000E+99

> <Gold.Protein.RotatedTorsions>
[ 6907 6896 6895 6894 ] final -170.47 input  -60.11 | X-H torsion
[ 7974 7965 7964 7962 ] final -100.70 input  175.53 | X-H torsion
[ 8008 7997 7996 7995 ] final -127.06 input   59.86 | X-H torsion
[ 10167 10162 10161 10158 ] final  124.84 input  -65.29 | X-H torsion
[ 10718 10713 10712 10709 ] final   70.41 input   66.30 | X-H torsion
[ 10763 10752 10751 10750 ] final -123.90 input  -60.55 | X-H torsion
[ 11005 11000 10999 10996 ] final  -73.01 input  -57.11 | X-H torsion

> <Gold.Protein.ActiveResidues>
 VAL166  LYS551  ARG553  GLY616  TRP617  ASP618  TYR619  PRO620  LYS621  CYS622 
 ASP623  PHE694  ASN695  SER759  ASP760  ASP761  ALA762  ILE779  LEU786  VAL792 
 PHE793  MET794  SER795  GLU796  ALA797  LYS798  CYS799  TRP800  GLU811  SER814 

> <Gold.Protein.RotatedAtoms>
  151.5082  133.3490  159.2880 H   0  0  0  0  0  0  0  0  0  0  0  0  # atno 6907 bound_to 6896
  150.8729  134.8109  159.7179 H   0  0  0  0  0  0  0  0  0  0  0  0  # atno 6908 bound_to 6896
  152.4711  134.4968  159.9764 H   0  0  0  0  0  0  0  0  0  0  0  0  # atno 6909 bound_to 6896
  145.2911  140.9353  143.2877 H   0  0  0  0  0  0  0  0  0  0  0  0  # atno 7974 bound_to 7965
  155.2399  140.0428  157.2973 H   0  0  0  0  0  0  0  0  0  0  0  0  # atno 8008 bound_to 7997
  154.5835  140.2407  155.7990 H   0  0  0  0  0  0  0  0  0  0  0  0  # atno 8009 bound_to 7997
  156.2209  140.2970  155.9960 H   0  0  0  0  0  0  0  0  0  0  0  0  # atno 8010 bound_to 7997
  139.5719  144.6943  151.3756 H   0  0  0  0  0  0  0  0  0  0  0  0  # atno 10167 bound_to 10162
  157.6398  130.9476  150.0647 H   0  0  0  0  0  0  0  0  0  0  0  0  # atno 10718 bound_to 10713
  154.8715  135.4082  154.3019 H   0  0  0  0  0  0  0  0  0  0  0  0  # atno 10763 bound_to 10752
  153.3877  135.7014  153.6523 H   0  0  0  0  0  0  0  0  0  0  0  0  # atno 10764 bound_to 10752
  153.5319  135.3666  155.2651 H   0  0  0  0  0  0  0  0  0  0  0  0  # atno 10765 bound_to 10752
  141.1617  133.6864  156.7146 H   0  0  0  0  0  0  0  0  0  0  0  0  # atno 11005 bound_to 11000
  144.9172  139.4456  143.6559 LP  0  0  0  0  0  0  0  0  0  0  0  0  # atno 17320 bound_to 7965
  146.3184  139.8012  142.8965 LP  0  0  0  0  0  0  0  0  0  0  0  0  # atno 17321 bound_to 7965
  140.7003  143.7648  150.7392 LP  0  0  0  0  0  0  0  0  0  0  0  0  # atno 17342 bound_to 10162
  140.1156  143.4659  152.2344 LP  0  0  0  0  0  0  0  0  0  0  0  0  # atno 17343 bound_to 10162
  156.1669  130.3645  149.9220 LP  0  0  0  0  0  0  0  0  0  0  0  0  # atno 17370 bound_to 10713
  156.7205  130.9005  151.3617 LP  0  0  0  0  0  0  0  0  0  0  0  0  # atno 17371 bound_to 10713
  140.2862  134.8277  157.3976 LP  0  0  0  0  0  0  0  0  0  0  0  0  # atno 17394 bound_to 11000
  140.1388  134.4998  155.8047 LP  0  0  0  0  0  0  0  0  0  0  0  0  # atno 17395 bound_to 11000

$$$$
