AV-unprocessed.smi:1209|AV-procd|sdf|5069|dock10
  -GOLD-   22720 4113D 1   1.00000     0.00000
 Structure written by MMmdl.
 48 50  0  0  0  0  0  0  0  0  1 V2000
  146.2958  134.3561  162.6954 C   0  0  0  0  0  0  0  0  0  0  0  0
  147.0332  135.0977  161.6339 C   0  0  0  0  0  0  0  0  0  0  0  0
  147.8720  136.1750  161.6625 C   0  0  0  0  0  0  0  0  0  0  0  0
  148.2218  136.3654  160.2968 C   0  0  0  0  0  0  0  0  0  0  0  0
  149.1276  137.4097  159.6986 C   0  0  0  0  0  0  0  0  0  0  0  0
  150.3689  136.8612  159.1486 N   0  0  0  0  0  0  0  0  0  0  0  0
  150.1416  136.2733  157.8280 C   0  0  0  0  0  0  0  0  0  0  0  0
  151.4096  137.8930  159.1113 C   0  0  0  0  0  0  0  0  0  0  0  0
  152.8274  137.4055  158.7468 C   0  0  2  0  0  0  0  0  0  0  0  0
  153.3130  136.6052  159.8075 O   0  0  0  0  0  0  0  0  0  0  0  0
  153.7888  138.5889  158.5250 C   0  0  0  0  0  0  0  0  0  0  0  0
  153.7696  139.5377  159.6248 N   0  0  0  0  0  0  0  0  0  0  0  0
  154.1761  139.3195  160.8902 C   0  0  0  0  0  0  0  0  0  0  0  0
  154.0718  140.3317  161.7465 N   0  0  0  0  0  0  0  0  0  0  0  0
  153.5352  141.3231  160.9429 C   0  0  0  0  0  0  0  0  0  0  0  0
  153.1783  142.6557  161.2448 C   0  0  0  0  0  0  0  0  0  0  0  0
  152.6347  143.5029  160.2526 C   0  0  0  0  0  0  0  0  0  0  0  0
  152.2634  144.9285  160.6209 C   0  0  0  0  0  0  0  0  0  0  0  0
  152.4413  143.0195  158.9336 C   0  0  0  0  0  0  0  0  0  0  0  0
  151.8572  143.9102  157.8517 C   0  0  0  0  0  0  0  0  0  0  0  0
  152.7945  141.6917  158.6146 C   0  0  0  0  0  0  0  0  0  0  0  0
  153.3342  140.8585  159.6102 C   0  0  0  0  0  0  0  0  0  0  0  0
  147.6367  135.4749  159.5125 N   0  0  0  0  0  0  0  0  0  0  0  0
  146.8754  134.6603  160.3580 O   0  0  0  0  0  0  0  0  0  0  0  0
  146.7547  134.5160  163.6712 H   0  0  0  0  0  0  0  0  0  0  0  0
  146.2966  133.2847  162.4942 H   0  0  0  0  0  0  0  0  0  0  0  0
  145.2597  134.6904  162.7498 H   0  0  0  0  0  0  0  0  0  0  0  0
  148.1900  136.7405  162.5258 H   0  0  0  0  0  0  0  0  0  0  0  0
  148.6012  137.9738  158.9267 H   0  0  0  0  0  0  0  0  0  0  0  0
  149.3682  138.1314  160.4801 H   0  0  0  0  0  0  0  0  0  0  0  0
  151.0378  135.7882  157.4452 H   0  0  0  0  0  0  0  0  0  0  0  0
  149.8299  137.0309  157.1079 H   0  0  0  0  0  0  0  0  0  0  0  0
  149.3678  135.5063  157.8648 H   0  0  0  0  0  0  0  0  0  0  0  0
  151.1074  138.6727  158.4101 H   0  0  0  0  0  0  0  0  0  0  0  0
  151.4699  138.3835  160.0842 H   0  0  0  0  0  0  0  0  0  0  0  0
  152.8140  136.8039  157.8391 H   0  0  0  0  0  0  0  0  0  0  0  0
  153.6632  135.8061  159.4440 H   0  0  0  0  0  0  0  0  0  0  0  0
  154.8106  138.2251  158.4084 H   0  0  0  0  0  0  0  0  0  0  0  0
  153.5417  139.1175  157.6032 H   0  0  0  0  0  0  0  0  0  0  0  0
  154.5701  138.3625  161.2003 H   0  0  0  0  0  0  0  0  0  0  0  0
  153.3248  143.0232  162.2499 H   0  0  0  0  0  0  0  0  0  0  0  0
  152.8234  145.6385  160.0119 H   0  0  0  0  0  0  0  0  0  0  0  0
  152.4833  145.1396  161.6676 H   0  0  0  0  0  0  0  0  0  0  0  0
  151.1984  145.0990  160.4620 H   0  0  0  0  0  0  0  0  0  0  0  0
  151.7566  143.3746  156.9073 H   0  0  0  0  0  0  0  0  0  0  0  0
  152.4996  144.7741  157.6798 H   0  0  0  0  0  0  0  0  0  0  0  0
  150.8679  144.2652  158.1407 H   0  0  0  0  0  0  0  0  0  0  0  0
  152.6505  141.3101  157.6144 H   0  0  0  0  0  0  0  0  0  0  0  0
  1  2  1  0  0  0  0
  1 25  1  0  0  0  0
  1 26  1  0  0  0  0
  1 27  1  0  0  0  0
  2 24  1  0  0  0  0
  2  3  2  0  0  0  0
  3  4  1  0  0  0  0
  3 28  1  0  0  0  0
  4  5  1  0  0  0  0
  4 23  2  0  0  0  0
  5  6  1  0  0  0  0
  5 29  1  0  0  0  0
  5 30  1  0  0  0  0
  6  7  1  0  0  0  0
  6  8  1  0  0  0  0
  7 31  1  0  0  0  0
  7 32  1  0  0  0  0
  7 33  1  0  0  0  0
  8  9  1  0  0  0  0
  8 34  1  0  0  0  0
  8 35  1  0  0  0  0
  9 10  1  0  0  0  0
  9 11  1  0  0  0  0
  9 36  1  0  0  0  0
 10 37  1  0  0  0  0
 11 12  1  0  0  0  0
 11 38  1  0  0  0  0
 11 39  1  0  0  0  0
 12 22  1  0  0  0  0
 12 13  1  0  0  0  0
 13 14  2  0  0  0  0
 13 40  1  0  0  0  0
 14 15  1  0  0  0  0
 15 22  2  0  0  0  0
 15 16  1  0  0  0  0
 16 17  2  0  0  0  0
 16 41  1  0  0  0  0
 17 18  1  0  0  0  0
 17 19  1  0  0  0  0
 18 42  1  0  0  0  0
 18 43  1  0  0  0  0
 18 44  1  0  0  0  0
 19 20  1  0  0  0  0
 19 21  2  0  0  0  0
 20 45  1  0  0  0  0
 20 46  1  0  0  0  0
 20 47  1  0  0  0  0
 21 22  1  0  0  0  0
 21 48  1  0  0  0  0
 23 24  1  0  0  0  0
M  END
> <s_m_source_file>
AV-unprocessed.smi

> <i_m_source_file_index>
1209

> <i_lp_mmshare_version>
43012

> <i_f3d_flags>
0

> <s_epik_input>
W0NIM11jMVtjSF1jKG5vMSlbQ0gyXU4oW0NIM10pW0NIMl1bQ0BIXShbT0hdKVtDSDJdbihbY0hdbjIpYyhjMjMpW2NIXWMoW0NIM10pYyhbY0hdMylbQ0gzXQ==

> <s_epik_cmdline>
J2VwaWtfcHl0aG9uJywgJy1waCcsICc3LjAnLCAnLXRuJywgJzgnLCAnLW1hJywgJzIwMCcsICctbWV0YWxfYmluZGluZycsICctaW1hZScsICc8aW5maWxlLm1hZT4nLCAnLW9tYWUnLCAnPG91dGZpbGUubWFlPic=

> <r_epik_Ionization_Penalty>
0.103258

> <r_epik_Ionization_Penalty_Charging>
0

> <r_epik_Ionization_Penalty_Neutral>
0.103258

> <r_epik_State_Penalty>
0.0919675

> <r_epik_Charging_Adjusted_Penalty>
0.0919675

> <i_epik_Tot_Q>
0

> <i_epik_Tot_abs_Q>
0

> <r_epik_Metal_State_Penalty>
0.0812522

> <b_epik_Metal_Only>
0

> <s_lp_Force_Field>
OPLS_2005

> <r_lp_Energy>
18.8485

> <b_lp_Chiralities_Consistent>
1

> <s_lp_Variant>
AV-unprocessed.smi:1209-1

> <Gold.Version>
5.8.1

> <Gold.Id.Protein>
6NUR|6NUR_protein|mol2

> <Gold.PLP.Fitness>
47.9336

> <Gold.PLP.PLP>
-45.5600

> <Gold.PLP.part.hbond>
-2.0000

> <Gold.PLP.part.metal>
0.0000

> <Gold.PLP.part.buried>
-4.4306

> <Gold.PLP.part.nonpolar>
-39.6080

> <Gold.PLP.part.repulsive>
0.0000

> <Gold.PLP.ligand.clash>
0.0000

> <Gold.PLP.ligand.torsion>
0.4092

> <Gold.PLP.Chemscore.Hbond>
1.0000

> <Gold.PLP.Chemscore.CHOScore>
0.0000

> <Gold.PLP.Chemscore.Metal>
0.0000

> <Gold.Chemscore.Hbonds>
donor molecule, donor type, donor heavy atom, donor atom, acceptor molecule, acceptor atom, score
      P1  H  6896  6908       L1     6  0.55

> <Gold.PLP.Chemscore.Internal.Correction>
0.1921

> <Gold.Rescore>
     Score         DG    S(hbond)    S(metal)    S(lipo)     H(rot)  DE(clash)    DE(int)     intcor
     13.82     -15.55       0.00        0.00     139.57       2.45       0.48       1.25       ----

> <Gold.Chemscore.Fitness>
13.8229

> <Gold.Chemscore.DG>
-15.5479

> <Gold.Chemscore.ZeroCoef>
-5.4800

> <Gold.Chemscore.Hbond>
0.0001

> <Gold.Chemscore.Metal>
0.0000

> <Gold.Chemscore.Lipo>
139.5714

> <Gold.Chemscore.Internal_Hbond>
0.0000

> <Gold.Chemscore.DEClash>
0.4782

> <Gold.Chemscore.DEInternal>
1.2468

> <Gold.Chemscore.Rot>
2.4462

> <Gold.Chemscore.Internal.Correction>
   9.000000E+99

> <Gold.Chemscore.Hbonds>
donor molecule, donor type, donor heavy atom, donor atom, acceptor molecule, acceptor atom, score
      P1  H  6896  6908       L1     6  0.03

> <Gold.Chemscore.Hbond.Weighted>
-0.0003

> <Gold.Chemscore.Metal.Weighted>
-0.0000

> <Gold.Chemscore.Lipo.Weighted>
-16.3299

> <Gold.Chemscore.Internal_Hbond.Weighted>
0.0000

> <Gold.Chemscore.DEClash.Weighted>
0.4782

> <Gold.Chemscore.DEInternal.Weighted>
1.2468

> <Gold.Chemscore.Rot.Weighted>
6.2623

> <Gold.Chemscore.Internal.Correction.Weighted>
   9.000000E+99

> <Gold.Protein.RotatedTorsions>
[ 6907 6896 6895 6894 ] final -142.93 input  -60.11 | X-H torsion
[ 7974 7965 7964 7962 ] final   56.01 input  175.53 | X-H torsion
[ 8008 7997 7996 7995 ] final -110.94 input   59.86 | X-H torsion
[ 10167 10162 10161 10158 ] final   38.67 input  -65.29 | X-H torsion
[ 10718 10713 10712 10709 ] final   77.40 input   66.30 | X-H torsion
[ 10763 10752 10751 10750 ] final   25.85 input  -60.55 | X-H torsion
[ 11005 11000 10999 10996 ] final   95.85 input  -57.11 | X-H torsion

> <Gold.Protein.ActiveResidues>
 VAL166  LYS551  ARG553  GLY616  TRP617  ASP618  TYR619  PRO620  LYS621  CYS622 
 ASP623  PHE694  ASN695  SER759  ASP760  ASP761  ALA762  ILE779  LEU786  VAL792 
 PHE793  MET794  SER795  GLU796  ALA797  LYS798  CYS799  TRP800  GLU811  SER814 

> <Gold.Protein.RotatedAtoms>
  151.0936  133.5297  159.2613 H   0  0  0  0  0  0  0  0  0  0  0  0  # atno 6907 bound_to 6896
  151.2154  135.0497  159.8938 H   0  0  0  0  0  0  0  0  0  0  0  0  # atno 6908 bound_to 6896
  152.5436  134.0746  159.8262 H   0  0  0  0  0  0  0  0  0  0  0  0  # atno 6909 bound_to 6896
  145.9443  139.3916  143.0344 H   0  0  0  0  0  0  0  0  0  0  0  0  # atno 7974 bound_to 7965
  154.9822  140.0396  157.2283 H   0  0  0  0  0  0  0  0  0  0  0  0  # atno 8008 bound_to 7997
  154.7703  140.2800  155.6120 H   0  0  0  0  0  0  0  0  0  0  0  0  # atno 8009 bound_to 7997
  156.2920  140.2611  156.2504 H   0  0  0  0  0  0  0  0  0  0  0  0  # atno 8010 bound_to 7997
  140.3914  144.1848  150.6131 H   0  0  0  0  0  0  0  0  0  0  0  0  # atno 10167 bound_to 10162
  157.6709  130.9820  150.1635 H   0  0  0  0  0  0  0  0  0  0  0  0  # atno 10718 bound_to 10713
  153.0663  135.6574  154.0347 H   0  0  0  0  0  0  0  0  0  0  0  0  # atno 10763 bound_to 10752
  154.0003  135.2937  155.3405 H   0  0  0  0  0  0  0  0  0  0  0  0  # atno 10764 bound_to 10752
  154.7022  135.5240  153.8612 H   0  0  0  0  0  0  0  0  0  0  0  0  # atno 10765 bound_to 10752
  139.8786  134.8920  156.4072 H   0  0  0  0  0  0  0  0  0  0  0  0  # atno 11005 bound_to 11000
  145.8258  140.9656  143.0875 LP  0  0  0  0  0  0  0  0  0  0  0  0  # atno 17320 bound_to 7965
  144.6784  140.0099  143.7484 LP  0  0  0  0  0  0  0  0  0  0  0  0  # atno 17321 bound_to 7965
  140.4836  143.2371  151.8920 LP  0  0  0  0  0  0  0  0  0  0  0  0  # atno 17342 bound_to 10162
  139.4789  144.5243  151.8758 LP  0  0  0  0  0  0  0  0  0  0  0  0  # atno 17343 bound_to 10162
  156.2406  130.3690  149.8341 LP  0  0  0  0  0  0  0  0  0  0  0  0  # atno 17370 bound_to 10713
  156.6142  130.8599  151.3461 LP  0  0  0  0  0  0  0  0  0  0  0  0  # atno 17371 bound_to 10713
  140.9226  133.7635  155.9925 LP  0  0  0  0  0  0  0  0  0  0  0  0  # atno 17394 bound_to 11000
  140.8423  134.3052  157.5309 LP  0  0  0  0  0  0  0  0  0  0  0  0  # atno 17395 bound_to 11000

$$$$
