AV-unprocessed.smi:1512|AV-procd|sdf|6103|dock1
  -GOLD-   22720 6233D 1   1.00000     0.00000
 Structure written by MMmdl.
 44 46  0  0  0  0  0  0  0  0  3 V2000
  153.7844  141.9540  161.9190 C   0  0  0  0  0  0  0  0  0  0  0  0
  153.2545  142.1941  160.4950 C   0  0  1  0  0  0  0  0  0  0  0  0
  153.1181  140.9194  159.7990 N   0  0  0  0  0  0  0  0  0  0  0  0
  153.9815  139.8911  159.8487 C   0  0  0  0  0  0  0  0  0  0  0  0
  154.9978  139.9058  160.5418 O   0  0  0  0  0  0  0  0  0  0  0  0
  153.6817  138.6532  158.9853 C   0  0  0  0  0  0  0  0  0  0  0  0
  152.2731  138.5201  158.5670 N   0  0  0  0  0  0  0  0  0  0  0  0
  151.4097  137.8600  159.4614 C   0  0  0  0  0  0  0  0  0  0  0  0
  150.1133  137.6655  159.1820 C   0  0  0  0  0  0  0  0  0  0  0  0
  149.6074  138.1477  157.9202 C   0  0  0  0  0  0  0  0  0  0  0  0
  150.4191  138.7795  157.0409 C   0  0  0  0  0  0  0  0  0  0  0  0
  149.8505  139.2205  155.7876 N   0  3  0  0  0  0  0  0  0  0  0  0
  150.6028  139.4766  154.8525 O   0  0  0  0  0  0  0  0  0  0  0  0
  148.6296  139.3080  155.6967 O   0  5  0  0  0  0  0  0  0  0  0  0
  151.8455  139.0016  157.3581 C   0  0  0  0  0  0  0  0  0  0  0  0
  152.6184  139.5811  156.5933 O   0  0  0  0  0  0  0  0  0  0  0  0
  151.8885  142.9195  160.5005 C   0  0  1  0  0  0  0  0  0  0  0  0
  151.9341  144.3882  160.9777 C   0  0  0  0  0  0  0  0  0  0  0  0
  151.1636  145.1352  159.8728 C   0  0  1  0  0  0  0  0  0  0  0  0
  152.0455  145.2188  158.6134 C   0  0  0  0  0  0  0  0  0  0  0  0
  152.0244  143.7712  158.0900 C   0  0  0  0  0  0  0  0  0  0  0  0
  151.1590  143.0411  159.1379 C   0  0  2  0  0  0  0  0  0  0  0  0
  150.1167  144.1083  159.4564 C   0  0  0  0  0  0  0  0  0  0  0  0
  153.9111  142.8928  162.4582 H   0  0  0  0  0  0  0  0  0  0  0  0
  154.7550  141.4571  161.9013 H   0  0  0  0  0  0  0  0  0  0  0  0
  153.1027  141.3287  162.4964 H   0  0  0  0  0  0  0  0  0  0  0  0
  153.9799  142.8125  159.9646 H   0  0  0  0  0  0  0  0  0  0  0  0
  152.3077  140.8199  159.2054 H   0  0  0  0  0  0  0  0  0  0  0  0
  154.3271  138.6916  158.1065 H   0  0  0  0  0  0  0  0  0  0  0  0
  154.0085  137.7658  159.5299 H   0  0  0  0  0  0  0  0  0  0  0  0
  151.8689  137.5201  160.3786 H   0  0  0  0  0  0  0  0  0  0  0  0
  149.4664  137.1543  159.8796 H   0  0  0  0  0  0  0  0  0  0  0  0
  148.5670  137.9818  157.6807 H   0  0  0  0  0  0  0  0  0  0  0  0
  151.2249  142.3674  161.1694 H   0  0  0  0  0  0  0  0  0  0  0  0
  151.4354  144.4913  161.9422 H   0  0  0  0  0  0  0  0  0  0  0  0
  152.9494  144.7706  161.0890 H   0  0  0  0  0  0  0  0  0  0  0  0
  150.7658  146.0990  160.1919 H   0  0  0  0  0  0  0  0  0  0  0  0
  151.6125  145.8981  157.8780 H   0  0  0  0  0  0  0  0  0  0  0  0
  153.0547  145.5665  158.8371 H   0  0  0  0  0  0  0  0  0  0  0  0
  151.5470  143.7319  157.1101 H   0  0  0  0  0  0  0  0  0  0  0  0
  153.0216  143.3468  157.9792 H   0  0  0  0  0  0  0  0  0  0  0  0
  150.7425  142.0993  158.7784 H   0  0  0  0  0  0  0  0  0  0  0  0
  149.4388  143.8278  160.2646 H   0  0  0  0  0  0  0  0  0  0  0  0
  149.5301  144.4158  158.5887 H   0  0  0  0  0  0  0  0  0  0  0  0
  1  2  1  0  0  0  0
  1 24  1  0  0  0  0
  1 25  1  0  0  0  0
  1 26  1  0  0  0  0
  2  3  1  0  0  0  0
  2 17  1  0  0  0  0
  2 27  1  0  0  0  0
  3  4  1  0  0  0  0
  3 28  1  0  0  0  0
  4  5  2  0  0  0  0
  4  6  1  0  0  0  0
  6  7  1  0  0  0  0
  6 29  1  0  0  0  0
  6 30  1  0  0  0  0
  7 15  1  0  0  0  0
  7  8  1  0  0  0  0
  8  9  2  0  0  0  0
  8 31  1  0  0  0  0
  9 10  1  0  0  0  0
  9 32  1  0  0  0  0
 10 11  2  0  0  0  0
 10 33  1  0  0  0  0
 11 12  1  0  0  0  0
 11 15  1  0  0  0  0
 12 13  2  0  0  0  0
 12 14  1  0  0  0  0
 15 16  2  0  0  0  0
 17 22  1  0  0  0  0
 17 18  1  0  0  0  0
 17 34  1  0  0  0  0
 18 19  1  0  0  0  0
 18 35  1  0  0  0  0
 18 36  1  0  0  0  0
 19 23  1  0  0  0  0
 19 20  1  0  0  0  0
 19 37  1  0  0  0  0
 20 21  1  0  0  0  0
 20 38  1  0  0  0  0
 20 39  1  0  0  0  0
 21 22  1  0  0  0  0
 21 40  1  0  0  0  0
 21 41  1  0  0  0  0
 22 23  1  0  0  0  0
 22 42  1  0  0  0  0
 23 43  1  0  0  0  0
 23 44  1  0  0  0  0
M  CHG  1  12   1
M  CHG  1  14  -1
M  END
> <s_m_source_file>
AV-unprocessed.smi

> <i_m_source_file_index>
1512

> <i_lp_mmshare_version>
43012

> <i_f3d_flags>
0

> <s_epik_input>
W0NIMl0xW0NIMl1bQ0BIXShbQ0gyXTIpW0NAQEhdKFtDSDJdW0NAQEhdMTIpW0NASF0oW0NIM10pW05IXUMoPU8pW0NIMl1uM1tjSF1bY0hdW2NIXWMoW04rXSg9TylbTy1dKWMzPU8=

> <s_epik_cmdline>
J2VwaWtfcHl0aG9uJywgJy1waCcsICc3LjAnLCAnLXRuJywgJzgnLCAnLW1hJywgJzIwMCcsICctbWV0YWxfYmluZGluZycsICctaW1hZScsICc8aW5maWxlLm1hZT4nLCAnLW9tYWUnLCAnPG91dGZpbGUubWFlPic=

> <r_lp_tautomer_probability>
1

> <r_epik_Ionization_Penalty>
2.17697e-08

> <r_epik_Ionization_Penalty_Charging>
1.42735e-10

> <r_epik_Ionization_Penalty_Neutral>
2.16269e-08

> <r_epik_State_Penalty>
-0

> <r_epik_Charging_Adjusted_Penalty>
1.42735e-10

> <i_epik_Tot_Q>
0

> <i_epik_Tot_abs_Q>
2

> <r_epik_Metal_State_Penalty>
-0

> <b_epik_Metal_Only>
0

> <s_lp_Force_Field>
OPLS_2005

> <r_lp_Energy>
64.3313

> <b_lp_Chiralities_Consistent>
1

> <s_lp_Variant>
AV-unprocessed.smi:1512-4

> <Gold.Version>
5.8.1

> <Gold.Id.Protein>
6NUR|6NUR_protein|mol2

> <Gold.PLP.Fitness>
48.6226

> <Gold.PLP.PLP>
-44.7853

> <Gold.PLP.part.hbond>
-2.0000

> <Gold.PLP.part.metal>
0.0000

> <Gold.PLP.part.buried>
-7.3533

> <Gold.PLP.part.nonpolar>
-35.9641

> <Gold.PLP.part.repulsive>
0.2299

> <Gold.PLP.ligand.clash>
0.0000

> <Gold.PLP.ligand.torsion>
1.1112

> <Gold.PLP.Chemscore.Hbond>
2.0000

> <Gold.PLP.Chemscore.CHOScore>
0.0000

> <Gold.PLP.Chemscore.Metal>
0.0000

> <Gold.Chemscore.Hbonds>
donor molecule, donor type, donor heavy atom, donor atom, acceptor molecule, acceptor atom, score
      P1  H  7989  7998       L1    13  0.59
      P1  H  7997  8008       L1    16  1.00

> <Gold.PLP.Chemscore.Internal.Correction>
0.0598

> <Gold.Rescore>
     Score         DG    S(hbond)    S(metal)    S(lipo)     H(rot)  DE(clash)    DE(int)     intcor
     17.49     -21.95       1.99        0.00     122.12       1.75       0.32       4.15       ----

> <Gold.Chemscore.Fitness>
17.4938

> <Gold.Chemscore.DG>
-21.9545

> <Gold.Chemscore.ZeroCoef>
-5.4800

> <Gold.Chemscore.Hbond>
1.9941

> <Gold.Chemscore.Metal>
0.0000

> <Gold.Chemscore.Lipo>
122.1151

> <Gold.Chemscore.Internal_Hbond>
0.0000

> <Gold.Chemscore.DEClash>
0.3151

> <Gold.Chemscore.DEInternal>
4.1456

> <Gold.Chemscore.Rot>
1.7474

> <Gold.Chemscore.Internal.Correction>
   9.000000E+99

> <Gold.Chemscore.Hbonds>
donor molecule, donor type, donor heavy atom, donor atom, acceptor molecule, acceptor atom, score
      P1  H  7989  7998       L1    13  0.58
      P1  H  7997  8008       L1    16  0.96

> <Gold.Chemscore.Hbond.Weighted>
-6.6603

> <Gold.Chemscore.Metal.Weighted>
-0.0000

> <Gold.Chemscore.Lipo.Weighted>
-14.2875

> <Gold.Chemscore.Internal_Hbond.Weighted>
0.0000

> <Gold.Chemscore.DEClash.Weighted>
0.3151

> <Gold.Chemscore.DEInternal.Weighted>
4.1456

> <Gold.Chemscore.Rot.Weighted>
4.4733

> <Gold.Chemscore.Internal.Correction.Weighted>
   9.000000E+99

> <Gold.Protein.RotatedTorsions>
[ 6907 6896 6895 6894 ] final  101.46 input  -60.11 | X-H torsion
[ 7974 7965 7964 7962 ] final  -49.12 input  175.53 | X-H torsion
[ 8008 7997 7996 7995 ] final  -31.32 input   59.86 | X-H torsion
[ 10167 10162 10161 10158 ] final  -25.69 input  -65.29 | X-H torsion
[ 10718 10713 10712 10709 ] final   66.20 input   66.30 | X-H torsion
[ 10763 10752 10751 10750 ] final  -22.95 input  -60.55 | X-H torsion
[ 11005 11000 10999 10996 ] final  -20.14 input  -57.11 | X-H torsion

> <Gold.Protein.ActiveResidues>
 VAL166  LYS551  ARG553  GLY616  TRP617  ASP618  TYR619  PRO620  LYS621  CYS622 
 ASP623  PHE694  ASN695  SER759  ASP760  ASP761  ALA762  ILE779  LEU786  VAL792 
 PHE793  MET794  SER795  GLU796  ALA797  LYS798  CYS799  TRP800  GLU811  SER814 

> <Gold.Protein.RotatedAtoms>
  152.5349  134.0123  159.7943 H   0  0  0  0  0  0  0  0  0  0  0  0  # atno 6907 bound_to 6896
  151.0323  133.5771  159.2666 H   0  0  0  0  0  0  0  0  0  0  0  0  # atno 6908 bound_to 6896
  151.2771  135.0710  159.9209 H   0  0  0  0  0  0  0  0  0  0  0  0  # atno 6909 bound_to 6896
  145.9439  140.7636  142.9538 H   0  0  0  0  0  0  0  0  0  0  0  0  # atno 7974 bound_to 7965
  154.4218  140.1767  156.1548 H   0  0  0  0  0  0  0  0  0  0  0  0  # atno 8008 bound_to 7997
  155.9886  140.3371  155.6707 H   0  0  0  0  0  0  0  0  0  0  0  0  # atno 8009 bound_to 7997
  155.6403  140.0679  157.2611 H   0  0  0  0  0  0  0  0  0  0  0  0  # atno 8010 bound_to 7997
  140.7285  143.4243  151.0901 H   0  0  0  0  0  0  0  0  0  0  0  0  # atno 10167 bound_to 10162
  157.6154  130.9255  150.0077 H   0  0  0  0  0  0  0  0  0  0  0  0  # atno 10718 bound_to 10713
  153.6601  135.6977  153.5180 H   0  0  0  0  0  0  0  0  0  0  0  0  # atno 10763 bound_to 10752
  153.2638  135.4236  155.0920 H   0  0  0  0  0  0  0  0  0  0  0  0  # atno 10764 bound_to 10752
  154.8454  135.3561  154.6146 H   0  0  0  0  0  0  0  0  0  0  0  0  # atno 10765 bound_to 10752
  140.8436  133.7908  155.9887 H   0  0  0  0  0  0  0  0  0  0  0  0  # atno 11005 bound_to 11000
  144.6784  140.2325  143.7353 LP  0  0  0  0  0  0  0  0  0  0  0  0  # atno 17320 bound_to 7965
  145.8263  139.2066  143.1909 LP  0  0  0  0  0  0  0  0  0  0  0  0  # atno 17321 bound_to 7965
  139.7893  143.8242  152.3149 LP  0  0  0  0  0  0  0  0  0  0  0  0  # atno 17342 bound_to 10162
  139.8220  144.7291  150.9560 LP  0  0  0  0  0  0  0  0  0  0  0  0  # atno 17343 bound_to 10162
  156.1274  130.3644  149.9788 LP  0  0  0  0  0  0  0  0  0  0  0  0  # atno 17370 bound_to 10713
  156.7856  130.9237  151.3646 LP  0  0  0  0  0  0  0  0  0  0  0  0  # atno 17371 bound_to 10713
  140.8868  134.2544  157.5115 LP  0  0  0  0  0  0  0  0  0  0  0  0  # atno 17394 bound_to 11000
  139.8703  134.9642  156.4487 LP  0  0  0  0  0  0  0  0  0  0  0  0  # atno 17395 bound_to 11000

$$$$
