AV-unprocessed.smi:1666|AV-procd|sdf|6672|dock10
  -GOLD-   22720 7383D 1   1.00000     0.00000
 Structure written by MMmdl.
 40 41  0  0  0  0  0  0  0  0  2 V2000
  150.8882  145.2473  158.6976 C   0  0  0  0  0  0  0  0  0  0  0  0
  151.6759  144.0419  159.1849 C   0  0  0  0  0  0  0  0  0  0  0  0
  152.2881  144.0853  160.4555 C   0  0  0  0  0  0  0  0  0  0  0  0
  153.0154  142.9700  160.9049 C   0  0  0  0  0  0  0  0  0  0  0  0
  153.1008  141.8511  160.0590 C   0  0  0  0  0  0  0  0  0  0  0  0
  152.5189  141.8007  158.8435 N   0  0  0  0  0  0  0  0  0  0  0  0
  151.8122  142.8687  158.3952 C   0  0  0  0  0  0  0  0  0  0  0  0
  151.1723  142.8859  157.1238 N   0  0  0  0  0  0  0  0  0  0  0  0
  150.9129  141.8517  156.3044 C   0  0  0  0  0  0  0  0  0  0  0  0
  151.1901  140.6730  156.5295 O   0  0  0  0  0  0  0  0  0  0  0  0
  150.3041  142.2612  155.1821 N   0  0  0  0  0  0  0  0  0  0  0  0
  149.8922  141.3826  154.0939 C   0  0  0  0  0  0  0  0  0  0  0  0
  148.8349  142.0546  153.1969 C   0  0  0  0  0  0  0  0  0  0  0  0
  147.7153  142.6347  153.9789 N   0  3  0  0  0  0  0  0  0  0  0  0
  146.6753  143.2384  153.1116 C   0  0  0  0  0  0  0  0  0  0  0  0
  145.5594  143.8666  153.9634 C   0  0  0  0  0  0  0  0  0  0  0  0
  145.0023  142.8795  154.8219 O   0  0  0  0  0  0  0  0  0  0  0  0
  145.9684  142.3527  155.7226 C   0  0  0  0  0  0  0  0  0  0  0  0
  147.1001  141.6759  154.9306 C   0  0  0  0  0  0  0  0  0  0  0  0
  150.9087  146.0567  159.4280 H   0  0  0  0  0  0  0  0  0  0  0  0
  149.8458  144.9779  158.5255 H   0  0  0  0  0  0  0  0  0  0  0  0
  151.3073  145.6272  157.7654 H   0  0  0  0  0  0  0  0  0  0  0  0
  152.2030  144.9618  161.0810 H   0  0  0  0  0  0  0  0  0  0  0  0
  153.4951  142.9721  161.8724 H   0  0  0  0  0  0  0  0  0  0  0  0
  153.6502  140.9732  160.3650 H   0  0  0  0  0  0  0  0  0  0  0  0
  150.8796  143.7964  156.8021 H   0  0  0  0  0  0  0  0  0  0  0  0
  150.1109  143.2465  155.0749 H   0  0  0  0  0  0  0  0  0  0  0  0
  150.7727  141.0862  153.5232 H   0  0  0  0  0  0  0  0  0  0  0  0
  149.4838  140.4706  154.5301 H   0  0  0  0  0  0  0  0  0  0  0  0
  149.3270  142.8490  152.6334 H   0  0  0  0  0  0  0  0  0  0  0  0
  148.4394  141.3548  152.4590 H   0  0  0  0  0  0  0  0  0  0  0  0
  147.1215  144.0019  152.4731 H   0  0  0  0  0  0  0  0  0  0  0  0
  146.2581  142.4737  152.4544 H   0  0  0  0  0  0  0  0  0  0  0  0
  145.9406  144.7040  154.5503 H   0  0  0  0  0  0  0  0  0  0  0  0
  144.7721  144.2605  153.3205 H   0  0  0  0  0  0  0  0  0  0  0  0
  146.3598  143.1464  156.3612 H   0  0  0  0  0  0  0  0  0  0  0  0
  145.4823  141.6284  156.3766 H   0  0  0  0  0  0  0  0  0  0  0  0
  146.7067  140.8177  154.3832 H   0  0  0  0  0  0  0  0  0  0  0  0
  147.8462  141.2943  155.6267 H   0  0  0  0  0  0  0  0  0  0  0  0
  148.1033  143.3903  154.5256 H   0  0  0  0  0  0  0  0  0  0  0  0
  1  2  1  0  0  0  0
  1 20  1  0  0  0  0
  1 21  1  0  0  0  0
  1 22  1  0  0  0  0
  2  7  1  0  0  0  0
  2  3  2  0  0  0  0
  3  4  1  0  0  0  0
  3 23  1  0  0  0  0
  4  5  2  0  0  0  0
  4 24  1  0  0  0  0
  5  6  1  0  0  0  0
  5 25  1  0  0  0  0
  6  7  2  0  0  0  0
  7  8  1  0  0  0  0
  8  9  1  0  0  0  0
  8 26  1  0  0  0  0
  9 10  2  0  0  0  0
  9 11  1  0  0  0  0
 11 12  1  0  0  0  0
 11 27  1  0  0  0  0
 12 13  1  0  0  0  0
 12 28  1  0  0  0  0
 12 29  1  0  0  0  0
 13 14  1  0  0  0  0
 13 30  1  0  0  0  0
 13 31  1  0  0  0  0
 14 19  1  0  0  0  0
 14 15  1  0  0  0  0
 14 40  1  0  0  0  0
 15 16  1  0  0  0  0
 15 32  1  0  0  0  0
 15 33  1  0  0  0  0
 16 17  1  0  0  0  0
 16 34  1  0  0  0  0
 16 35  1  0  0  0  0
 17 18  1  0  0  0  0
 18 19  1  0  0  0  0
 18 36  1  0  0  0  0
 18 37  1  0  0  0  0
 19 38  1  0  0  0  0
 19 39  1  0  0  0  0
M  CHG  1  14   1
M  END
> <s_m_source_file>
AV-unprocessed.smi

> <i_m_source_file_index>
1666

> <i_lp_mmshare_version>
43012

> <i_f3d_flags>
0

> <s_epik_input>
W0NIM11jMVtjSF1bY0hdW2NIXW5jMVtOSF1DKD1PKVtOSF1bQ0gyXVtDSDJdTjJbQ0gyXVtDSDJdT1tDSDJdW0NIMl0y

> <s_epik_cmdline>
J2VwaWtfcHl0aG9uJywgJy1waCcsICc3LjAnLCAnLXRuJywgJzgnLCAnLW1hJywgJzIwMCcsICctbWV0YWxfYmluZGluZycsICctaW1hZScsICc8aW5maWxlLm1hZT4nLCAnLW9tYWUnLCAnPG91dGZpbGUubWFlPic=

> <r_epik_Ionization_Penalty>
0.602573

> <r_epik_Ionization_Penalty_Charging>
0.602531

> <r_epik_Ionization_Penalty_Neutral>
4.20806e-05

> <r_epik_State_Penalty>
0.617039

> <r_epik_Charging_Adjusted_Penalty>
1.21957

> <i_epik_Tot_Q>
1

> <i_epik_Tot_abs_Q>
1

> <r_epik_Metal_State_Penalty>
0.617042

> <b_epik_Metal_Only>
0

> <s_lp_Force_Field>
OPLS_2005

> <r_lp_Energy>
16.3818

> <b_lp_Chiralities_Consistent>
1

> <s_lp_Variant>
AV-unprocessed.smi:1666-2

> <Gold.Version>
5.8.1

> <Gold.Id.Protein>
6NUR|6NUR_protein|mol2

> <Gold.PLP.Fitness>
49.2518

> <Gold.PLP.PLP>
-40.1447

> <Gold.PLP.part.hbond>
-2.4164

> <Gold.PLP.part.metal>
0.0000

> <Gold.PLP.part.buried>
-7.0601

> <Gold.PLP.part.nonpolar>
-29.4611

> <Gold.PLP.part.repulsive>
0.4269

> <Gold.PLP.ligand.clash>
0.0000

> <Gold.PLP.ligand.torsion>
0.2218

> <Gold.PLP.Chemscore.Hbond>
3.1791

> <Gold.PLP.Chemscore.CHOScore>
0.0000

> <Gold.PLP.Chemscore.Metal>
0.0000

> <Gold.Chemscore.Hbonds>
donor molecule, donor type, donor heavy atom, donor atom, acceptor molecule, acceptor atom, score
      L1  H    11    27       P1  8028  0.90
      L1  H    14    40       P1  8028  2.00

> <Gold.PLP.Chemscore.Internal.Correction>
0.0132

> <Gold.Rescore>
     Score         DG    S(hbond)    S(metal)    S(lipo)     H(rot)  DE(clash)    DE(int)     intcor
     17.14     -18.83       1.97        0.00      91.44       1.54       0.18       1.52       ----

> <Gold.Chemscore.Fitness>
17.1365

> <Gold.Chemscore.DG>
-18.8291

> <Gold.Chemscore.ZeroCoef>
-5.4800

> <Gold.Chemscore.Hbond>
1.9724

> <Gold.Chemscore.Metal>
0.0000

> <Gold.Chemscore.Lipo>
91.4429

> <Gold.Chemscore.Internal_Hbond>
0.0000

> <Gold.Chemscore.DEClash>
0.1752

> <Gold.Chemscore.DEInternal>
1.5173

> <Gold.Chemscore.Rot>
1.5381

> <Gold.Chemscore.Internal.Correction>
   9.000000E+99

> <Gold.Chemscore.Hbonds>
donor molecule, donor type, donor heavy atom, donor atom, acceptor molecule, acceptor atom, score
      L1  H     8    26       P1  8028  0.03
      L1  H    11    27       P1  8028  0.85
      L1  H    14    40       P1  8028  0.91

> <Gold.Chemscore.Hbond.Weighted>
-6.5877

> <Gold.Chemscore.Metal.Weighted>
-0.0000

> <Gold.Chemscore.Lipo.Weighted>
-10.6988

> <Gold.Chemscore.Internal_Hbond.Weighted>
0.0000

> <Gold.Chemscore.DEClash.Weighted>
0.1752

> <Gold.Chemscore.DEInternal.Weighted>
1.5173

> <Gold.Chemscore.Rot.Weighted>
3.9375

> <Gold.Chemscore.Internal.Correction.Weighted>
   9.000000E+99

> <Gold.Protein.RotatedTorsions>
[ 6907 6896 6895 6894 ] final -166.19 input  -60.11 | X-H torsion
[ 7974 7965 7964 7962 ] final   50.29 input  175.53 | X-H torsion
[ 8008 7997 7996 7995 ] final  115.07 input   59.86 | X-H torsion
[ 10167 10162 10161 10158 ] final -135.15 input  -65.29 | X-H torsion
[ 10718 10713 10712 10709 ] final   30.70 input   66.30 | X-H torsion
[ 10763 10752 10751 10750 ] final   91.58 input  -60.55 | X-H torsion
[ 11005 11000 10999 10996 ] final   65.13 input  -57.11 | X-H torsion

> <Gold.Protein.ActiveResidues>
 VAL166  LYS551  ARG553  GLY616  TRP617  ASP618  TYR619  PRO620  LYS621  CYS622 
 ASP623  PHE694  ASN695  SER759  ASP760  ASP761  ALA762  ILE779  LEU786  VAL792 
 PHE793  MET794  SER795  GLU796  ALA797  LYS798  CYS799  TRP800  GLU811  SER814 

> <Gold.Protein.RotatedAtoms>
  151.4396  133.3647  159.2779 H   0  0  0  0  0  0  0  0  0  0  0  0  # atno 6907 bound_to 6896
  150.9167  134.8586  159.7472 H   0  0  0  0  0  0  0  0  0  0  0  0  # atno 6908 bound_to 6896
  152.4960  134.4331  159.9570 H   0  0  0  0  0  0  0  0  0  0  0  0  # atno 6909 bound_to 6896
  146.0026  139.4455  143.0006 H   0  0  0  0  0  0  0  0  0  0  0  0  # atno 7974 bound_to 7965
  156.2359  140.2946  156.0312 H   0  0  0  0  0  0  0  0  0  0  0  0  # atno 8008 bound_to 7997
  155.2092  140.0412  157.2948 H   0  0  0  0  0  0  0  0  0  0  0  0  # atno 8009 bound_to 7997
  154.6078  140.2444  155.7715 H   0  0  0  0  0  0  0  0  0  0  0  0  # atno 8010 bound_to 7997
  139.8808  143.6841  152.2627 H   0  0  0  0  0  0  0  0  0  0  0  0  # atno 10167 bound_to 10162
  157.2630  130.7170  149.6464 H   0  0  0  0  0  0  0  0  0  0  0  0  # atno 10718 bound_to 10713
  153.2098  135.4392  155.0366 H   0  0  0  0  0  0  0  0  0  0  0  0  # atno 10763 bound_to 10752
  154.8194  135.3330  154.7086 H   0  0  0  0  0  0  0  0  0  0  0  0  # atno 10764 bound_to 10752
  153.7524  135.6997  153.4998 H   0  0  0  0  0  0  0  0  0  0  0  0  # atno 10765 bound_to 10752
  139.9914  134.6585  156.0084 H   0  0  0  0  0  0  0  0  0  0  0  0  # atno 11005 bound_to 11000
  145.7465  140.9989  143.1273 LP  0  0  0  0  0  0  0  0  0  0  0  0  # atno 17320 bound_to 7965
  144.6924  139.9162  143.7466 LP  0  0  0  0  0  0  0  0  0  0  0  0  # atno 17321 bound_to 7965
  139.7197  144.7605  151.0975 LP  0  0  0  0  0  0  0  0  0  0  0  0  # atno 17342 bound_to 10162
  140.7745  143.5223  150.9522 LP  0  0  0  0  0  0  0  0  0  0  0  0  # atno 17343 bound_to 10162
  155.9664  130.4391  150.5246 LP  0  0  0  0  0  0  0  0  0  0  0  0  # atno 17370 bound_to 10713
  157.3155  131.0672  151.1970 LP  0  0  0  0  0  0  0  0  0  0  0  0  # atno 17371 bound_to 10713
  141.1569  133.6542  156.4191 LP  0  0  0  0  0  0  0  0  0  0  0  0  # atno 17394 bound_to 11000
  140.4901  134.6584  157.5207 LP  0  0  0  0  0  0  0  0  0  0  0  0  # atno 17395 bound_to 11000

$$$$
