#       Name:                AV-unprocessed.smi:39
#       Creating user name   scv26
#       Creation time:       Thu Mar 26 16:20:26 2020


#       File generated by GOLD software.
#

@<TRIPOS>MOLECULE
AV-unprocessed.smi:39
    42    43     1
SMALL
NO_CHARGES


@<TRIPOS>ATOM
      1 ****        -3.2906   1.5694  -0.4152 C.3            1 S1                 0.0000
      2 ****        -2.7094   0.1738  -0.2710 C.2            1 S1                 0.0000
      3 ****        -1.3937  -0.0799  -0.4456 C.2            1 S1                 0.0000
      4 ****        -0.8654  -1.3523  -0.3085 N.am           1 S1                 0.0000
      5 ****         0.6141  -1.6134  -0.4996 C.3            1 S1                 0.0000
      6 ****         1.3429  -1.6445   0.8572 C.3            1 S1                 0.0000
      7 ****         1.9768  -0.2654   0.9522 C.3            1 S1                 0.0000
      8 ****         1.0492   0.6767   1.5905 N.2            1 S1                 0.0000
      9 ****         1.5507   1.5714   2.2831 N.1            1 S1                 1.0000
     10 ****         2.0404   2.4525   2.8112 N.1            1 S1                -1.0000
     11 ****         2.2455   0.0049  -0.5394 C.3            1 S1                 0.0000
     12 ****         2.5783   1.4303  -1.0284 C.3            1 S1                 0.0000
     13 ****         1.5492   2.3656  -0.7814 O.3            1 S1                 0.0000
     14 ****         1.1724  -0.5826  -1.2631 O.3            1 S1                 0.0000
     15 ****        -1.7199  -2.4308   0.0397 C.2            1 S1                 0.0000
     16 ****        -1.2169  -3.5464   0.1786 O.2            1 S1                 0.0000
     17 ****        -3.0505  -2.1864   0.2096 N.pl3          1 S1                -1.0000
     18 ****        -3.5968  -0.9443   0.0702 C.2            1 S1                 0.0000
     19 ****        -4.8008  -0.7388   0.2217 O.2            1 S1                 0.0000
     20 ****         0.6816  -2.5502  -1.0550 H              1 S1                 0.0000
     21 ****         2.9150  -0.3250   1.5083 H              1 S1                 0.0000
     22 ****         3.1136  -0.6039  -0.8001 H              1 S1                 0.0000
     23 ****        -2.5123   2.3017  -0.6318 H              1 S1                 0.0000
     24 ****        -3.7909   1.8717   0.5054 H              1 S1                 0.0000
     25 ****        -4.0168   1.5965  -1.2280 H              1 S1                 0.0000
     26 ****        -0.7410   0.7439  -0.6909 H              1 S1                 0.0000
     27 ****         0.6754  -1.8919   1.6839 H              1 S1                 0.0000
     28 ****         2.1178  -2.4103   0.8061 H              1 S1                 0.0000
     29 ****         3.4835   1.7850  -0.5354 H              1 S1                 0.0000
     30 ****         2.7845   1.4171  -2.0987 H              1 S1                 0.0000
     31 ****         1.8152   3.2044  -1.1255 H              1 S1                 0.0000
     32 ****         0.0593   0.5992   1.4713 LP             1 S1                 0.0000
     33 ****         2.4707   3.2268   3.2753 LP             1 S1                 0.0000
     34 ****         1.3909   2.4402   0.2032 LP             1 S1                 0.0000
     35 ****         0.7079   2.0679  -1.2326 LP             1 S1                 0.0000
     36 ****         0.4759   0.1103  -1.4502 LP             1 S1                 0.0000
     37 ****         1.5143  -0.9532  -2.1267 LP             1 S1                 0.0000
     38 ****        -0.2337  -3.6715   0.0463 LP             1 S1                 0.0000
     39 ****        -1.7918  -4.3270   0.4237 LP             1 S1                 0.0000
     40 ****        -3.6513  -2.9499   0.4464 LP             1 S1                 0.0000
     41 ****        -5.1681   0.1849   0.1122 LP             1 S1                 0.0000
     42 ****        -5.4118  -1.4955   0.4542 LP             1 S1                 0.0000
@<TRIPOS>BOND
    1    1    2 1     
    2    1   23 1     
    3    1   24 1     
    4    1   25 1     
    5    2   18 1     
    6    2    3 2     
    7    3    4 1     
    8    3   26 1     
    9    4    5 1     
   10    4   15 am    
   11    5   20 1     
   12    5   14 1     
   13    5    6 1     
   14    6    7 1     
   15    6   27 1     
   16    6   28 1     
   17    7   21 1     
   18    7    8 1     
   19    7   11 1     
   20    8    9 2     
   21    9   10 2     
   22   11   22 1     
   23   11   12 1     
   24   11   14 1     
   25   12   13 1     
   26   12   29 1     
   27   12   30 1     
   28   13   31 1     
   29   15   16 2     
   30   15   17 1     
   31   17   18 1     
   32   18   19 2     
   33    8   32 1     
   34   10   33 1     
   35   13   34 1     
   36   13   35 1     
   37   14   36 1     
   38   14   37 1     
   39   16   38 1     
   40   16   39 1     
   41   17   40 1     
   42   19   41 1     
   43   19   42 1     
@<TRIPOS>SUBSTRUCTURE
      1 S1             1
@<TRIPOS>SET
LONE_PAIRS      STATIC     ATOMS    <user>   **** ""
11 32 33 34 35 36 37 38 39 40 41 42
DONOR_HYDROGENS      STATIC     ATOMS    <user>   **** ""
1 31
ATOM$BLUE        STATIC     ATOMS    COLORGROUP SYSTEM
11 32 33 34 35 36 37 38 39 40 41 42
ATOM$RED        STATIC     ATOMS    COLORGROUP SYSTEM
1 31
