AV-unprocessed.smi:2237|AV-procd|sdf|9051|dock6
  -GOLD-   2272012253D 1   1.00000     0.00000
 Structure written by MMmdl.
 54 56  0  0  0  0  0  0  0  0  2 V2000
  153.5971  142.4866  160.9563 C   0  0  0  0  0  0  0  0  0  0  0  0
  152.7963  142.7049  159.6897 C   0  0  0  0  0  0  0  0  0  0  0  0
  152.6055  143.9990  159.1665 C   0  0  0  0  0  0  0  0  0  0  0  0
  151.8539  144.1318  157.9853 C   0  0  0  0  0  0  0  0  0  0  0  0
  151.3292  142.9738  157.3798 C   0  0  0  0  0  0  0  0  0  0  0  0
  151.5675  141.7118  157.9694 C   0  0  0  0  0  0  0  0  0  0  0  0
  151.0001  140.6089  157.2782 N   0  0  0  0  0  0  0  0  0  0  0  0
  151.0610  139.3046  157.5992 C   0  0  0  0  0  0  0  0  0  0  0  0
  151.6134  138.8397  158.5969 O   0  0  0  0  0  0  0  0  0  0  0  0
  150.4297  138.5526  156.6858 N   0  0  0  0  0  0  0  0  0  0  0  0
  150.3129  137.0980  156.7261 C   0  0  0  0  0  0  0  0  0  0  0  0
  150.8549  136.4956  155.4274 C   0  0  0  0  0  0  0  0  0  0  0  0
  150.6301  134.9746  155.3813 C   0  0  0  0  0  0  0  0  0  0  0  0
  149.2016  134.6323  155.4828 N   0  0  0  0  0  0  0  0  0  0  0  0
  148.9678  133.1757  155.3485 C   0  0  2  0  0  0  0  0  0  0  0  0
  149.4843  132.5740  154.0156 C   0  0  0  0  0  0  0  0  0  0  0  0
  148.6685  133.0691  152.8077 C   0  0  0  0  0  0  0  0  0  0  0  0
  147.2296  132.7439  152.9651 N   0  3  2  0  0  0  0  0  0  0  0  0
  146.4317  133.1356  151.7836 C   0  0  0  0  0  0  0  0  0  0  0  0
  146.6673  133.2781  154.2297 C   0  0  0  0  0  0  0  0  0  0  0  0
  147.4706  132.7845  155.4466 C   0  0  0  0  0  0  0  0  0  0  0  0
  148.7069  135.1390  156.7744 C   0  0  0  0  0  0  0  0  0  0  0  0
  148.8497  136.6671  156.8811 C   0  0  0  0  0  0  0  0  0  0  0  0
  152.2932  141.5942  159.1092 N   0  0  0  0  0  0  0  0  0  0  0  0
  153.8226  143.4325  161.4497 H   0  0  0  0  0  0  0  0  0  0  0  0
  154.5390  141.9884  160.7254 H   0  0  0  0  0  0  0  0  0  0  0  0
  153.0410  141.8628  161.6567 H   0  0  0  0  0  0  0  0  0  0  0  0
  153.0224  144.8679  159.6541 H   0  0  0  0  0  0  0  0  0  0  0  0
  151.6830  145.1049  157.5494 H   0  0  0  0  0  0  0  0  0  0  0  0
  150.7508  143.0587  156.4713 H   0  0  0  0  0  0  0  0  0  0  0  0
  150.4959  140.8397  156.4351 H   0  0  0  0  0  0  0  0  0  0  0  0
  150.0029  139.0203  155.8996 H   0  0  0  0  0  0  0  0  0  0  0  0
  150.8964  136.7064  157.5617 H   0  0  0  0  0  0  0  0  0  0  0  0
  150.3685  136.9573  154.5667 H   0  0  0  0  0  0  0  0  0  0  0  0
  151.9197  136.7121  155.3334 H   0  0  0  0  0  0  0  0  0  0  0  0
  151.0479  134.6402  154.4353 H   0  0  0  0  0  0  0  0  0  0  0  0
  151.1923  134.4815  156.1761 H   0  0  0  0  0  0  0  0  0  0  0  0
  149.5031  132.6884  156.1651 H   0  0  0  0  0  0  0  0  0  0  0  0
  150.5494  132.7308  153.8575 H   0  0  0  0  0  0  0  0  0  0  0  0
  149.3866  131.4887  154.0687 H   0  0  0  0  0  0  0  0  0  0  0  0
  148.7922  134.1464  152.6852 H   0  0  0  0  0  0  0  0  0  0  0  0
  149.0468  132.6022  151.8977 H   0  0  0  0  0  0  0  0  0  0  0  0
  146.4537  134.2163  151.6373 H   0  0  0  0  0  0  0  0  0  0  0  0
  145.3923  132.8270  151.9005 H   0  0  0  0  0  0  0  0  0  0  0  0
  146.8202  132.6602  150.8822 H   0  0  0  0  0  0  0  0  0  0  0  0
  146.6595  134.3689  154.1987 H   0  0  0  0  0  0  0  0  0  0  0  0
  145.6293  132.9574  154.3261 H   0  0  0  0  0  0  0  0  0  0  0  0
  147.4016  131.6963  155.4807 H   0  0  0  0  0  0  0  0  0  0  0  0
  147.0000  133.1057  156.3730 H   0  0  0  0  0  0  0  0  0  0  0  0
  147.6498  134.9255  156.9056 H   0  0  0  0  0  0  0  0  0  0  0  0
  149.2350  134.6509  157.5951 H   0  0  0  0  0  0  0  0  0  0  0  0
  148.4599  137.0042  157.8422 H   0  0  0  0  0  0  0  0  0  0  0  0
  148.2348  137.1422  156.1151 H   0  0  0  0  0  0  0  0  0  0  0  0
  147.1700  131.7376  153.0301 H   0  0  0  0  0  0  0  0  0  0  0  0
  1  2  1  0  0  0  0
  1 25  1  0  0  0  0
  1 26  1  0  0  0  0
  1 27  1  0  0  0  0
  2 24  1  0  0  0  0
  2  3  2  0  0  0  0
  3  4  1  0  0  0  0
  3 28  1  0  0  0  0
  4  5  2  0  0  0  0
  4 29  1  0  0  0  0
  5  6  1  0  0  0  0
  5 30  1  0  0  0  0
  6  7  1  0  0  0  0
  6 24  2  0  0  0  0
  7  8  1  0  0  0  0
  7 31  1  0  0  0  0
  8  9  2  0  0  0  0
  8 10  1  0  0  0  0
 10 11  1  0  0  0  0
 10 32  1  0  0  0  0
 11 23  1  0  0  0  0
 11 12  1  0  0  0  0
 11 33  1  0  0  0  0
 12 13  1  0  0  0  0
 12 34  1  0  0  0  0
 12 35  1  0  0  0  0
 13 14  1  0  0  0  0
 13 36  1  0  0  0  0
 13 37  1  0  0  0  0
 14 15  1  0  0  0  0
 14 22  1  0  0  0  0
 15 21  1  0  0  0  0
 15 16  1  0  0  0  0
 15 38  1  0  0  0  0
 16 17  1  0  0  0  0
 16 39  1  0  0  0  0
 16 40  1  0  0  0  0
 17 18  1  0  0  0  0
 17 41  1  0  0  0  0
 17 42  1  0  0  0  0
 18 19  1  0  0  0  0
 18 20  1  0  0  0  0
 18 54  1  0  0  0  0
 19 43  1  0  0  0  0
 19 44  1  0  0  0  0
 19 45  1  0  0  0  0
 20 21  1  0  0  0  0
 20 46  1  0  0  0  0
 20 47  1  0  0  0  0
 21 48  1  0  0  0  0
 21 49  1  0  0  0  0
 22 23  1  0  0  0  0
 22 50  1  0  0  0  0
 22 51  1  0  0  0  0
 23 52  1  0  0  0  0
 23 53  1  0  0  0  0
M  CHG  1  18   1
M  END
> <s_m_source_file>
AV-unprocessed.smi

> <i_m_source_file_index>
2237

> <i_lp_mmshare_version>
43012

> <i_f3d_flags>
0

> <s_epik_input>
W0NIM11jMVtjSF1bY0hdW2NIXWMobjEpW05IXUMoPU8pW05IXVtDSF0yW0NIMl1bQ0gyXU4oW0NIMl1bQ0gyXTIpW0NIXTNbQ0gyXVtDSDJdTihbQ0gzXSlbQ0gyXVtDSDJdMw==

> <s_epik_cmdline>
J2VwaWtfcHl0aG9uJywgJy1waCcsICc3LjAnLCAnLXRuJywgJzgnLCAnLW1hJywgJzIwMCcsICctbWV0YWxfYmluZGluZycsICctaW1hZScsICc8aW5maWxlLm1hZT4nLCAnLW9tYWUnLCAnPG91dGZpbGUubWFlPic=

> <r_epik_Ionization_Penalty>
1.00983

> <r_epik_Ionization_Penalty_Charging>
0.000974969

> <r_epik_Ionization_Penalty_Neutral>
1.00886

> <r_epik_State_Penalty>
1.10286

> <r_epik_Charging_Adjusted_Penalty>
1.10383

> <i_epik_Tot_Q>
1

> <i_epik_Tot_abs_Q>
1

> <r_epik_Metal_State_Penalty>
1.10284

> <b_epik_Metal_Only>
0

> <s_lp_Force_Field>
OPLS_2005

> <r_lp_Energy>
36.6088

> <b_lp_Chiralities_Consistent>
1

> <s_lp_Variant>
AV-unprocessed.smi:2237-6

> <Gold.Version>
5.8.1

> <Gold.Id.Protein>
6NUR|6NUR_protein|mol2

> <Gold.PLP.Fitness>
38.0668

> <Gold.PLP.PLP>
-38.1053

> <Gold.PLP.part.hbond>
0.0000

> <Gold.PLP.part.metal>
0.0000

> <Gold.PLP.part.buried>
-6.4500

> <Gold.PLP.part.nonpolar>
-32.2316

> <Gold.PLP.part.repulsive>
0.1101

> <Gold.PLP.ligand.clash>
0.0000

> <Gold.PLP.ligand.torsion>
0.0202

> <Gold.PLP.Chemscore.Hbond>
0.0000

> <Gold.PLP.Chemscore.CHOScore>
0.0000

> <Gold.PLP.Chemscore.Metal>
0.0000

> <Gold.PLP.Chemscore.Internal.Correction>
0.0018

> <Gold.Rescore>
     Score         DG    S(hbond)    S(metal)    S(lipo)     H(rot)  DE(clash)    DE(int)     intcor
     13.68     -15.03       0.00        0.00     108.24       1.22       0.05       1.29       ----

> <Gold.Chemscore.Fitness>
13.6805

> <Gold.Chemscore.DG>
-15.0259

> <Gold.Chemscore.ZeroCoef>
-5.4800

> <Gold.Chemscore.Hbond>
0.0000

> <Gold.Chemscore.Metal>
0.0000

> <Gold.Chemscore.Lipo>
108.2360

> <Gold.Chemscore.Internal_Hbond>
0.0000

> <Gold.Chemscore.DEClash>
0.0519

> <Gold.Chemscore.DEInternal>
1.2935

> <Gold.Chemscore.Rot>
1.2179

> <Gold.Chemscore.Internal.Correction>
   9.000000E+99

> <Gold.Chemscore.Hbond.Weighted>
-0.0000

> <Gold.Chemscore.Metal.Weighted>
-0.0000

> <Gold.Chemscore.Lipo.Weighted>
-12.6636

> <Gold.Chemscore.Internal_Hbond.Weighted>
0.0000

> <Gold.Chemscore.DEClash.Weighted>
0.0519

> <Gold.Chemscore.DEInternal.Weighted>
1.2935

> <Gold.Chemscore.Rot.Weighted>
3.1177

> <Gold.Chemscore.Internal.Correction.Weighted>
   9.000000E+99

> <Gold.Protein.RotatedTorsions>
[ 6907 6896 6895 6894 ] final -135.78 input  -60.11 | X-H torsion
[ 7974 7965 7964 7962 ] final   33.27 input  175.53 | X-H torsion
[ 8008 7997 7996 7995 ] final  106.76 input   59.86 | X-H torsion
[ 10167 10162 10161 10158 ] final  105.71 input  -65.29 | X-H torsion
[ 10718 10713 10712 10709 ] final  171.65 input   66.30 | X-H torsion
[ 10763 10752 10751 10750 ] final  125.12 input  -60.55 | X-H torsion
[ 11005 11000 10999 10996 ] final  -39.77 input  -57.11 | X-H torsion

> <Gold.Protein.ActiveResidues>
 VAL166  LYS551  ARG553  GLY616  TRP617  ASP618  TYR619  PRO620  LYS621  CYS622 
 ASP623  PHE694  ASN695  SER759  ASP760  ASP761  ALA762  ILE779  LEU786  VAL792 
 PHE793  MET794  SER795  GLU796  ALA797  LYS798  CYS799  TRP800  GLU811  SER814 

> <Gold.Protein.RotatedAtoms>
  151.0020  133.6047  159.2693 H   0  0  0  0  0  0  0  0  0  0  0  0  # atno 6907 bound_to 6896
  151.3230  135.0822  159.9322 H   0  0  0  0  0  0  0  0  0  0  0  0  # atno 6908 bound_to 6896
  152.5276  133.9663  159.7795 H   0  0  0  0  0  0  0  0  0  0  0  0  # atno 6909 bound_to 6896
  146.1432  139.6419  142.9149 H   0  0  0  0  0  0  0  0  0  0  0  0  # atno 7974 bound_to 7965
  156.1769  140.3107  155.9076 H   0  0  0  0  0  0  0  0  0  0  0  0  # atno 8008 bound_to 7997
  155.3467  140.0469  157.3062 H   0  0  0  0  0  0  0  0  0  0  0  0  # atno 8009 bound_to 7997
  154.5300  140.2227  155.8831 H   0  0  0  0  0  0  0  0  0  0  0  0  # atno 8010 bound_to 7997
  139.7070  144.7084  151.1090 H   0  0  0  0  0  0  0  0  0  0  0  0  # atno 10167 bound_to 10162
  156.9904  131.0146  151.2858 H   0  0  0  0  0  0  0  0  0  0  0  0  # atno 10718 bound_to 10713
  153.6722  135.3328  155.3156 H   0  0  0  0  0  0  0  0  0  0  0  0  # atno 10763 bound_to 10752
  154.8488  135.4389  154.1693 H   0  0  0  0  0  0  0  0  0  0  0  0  # atno 10764 bound_to 10752
  153.2687  135.6998  153.7579 H   0  0  0  0  0  0  0  0  0  0  0  0  # atno 10765 bound_to 10752
  141.0126  133.6900  156.2232 H   0  0  0  0  0  0  0  0  0  0  0  0  # atno 11005 bound_to 11000
  145.4999  141.0437  143.2546 LP  0  0  0  0  0  0  0  0  0  0  0  0  # atno 17320 bound_to 7965
  144.7816  139.6514  143.7152 LP  0  0  0  0  0  0  0  0  0  0  0  0  # atno 17321 bound_to 7965
  140.7724  143.5345  150.9384 LP  0  0  0  0  0  0  0  0  0  0  0  0  # atno 17342 bound_to 10162
  139.9029  143.6814  152.3128 LP  0  0  0  0  0  0  0  0  0  0  0  0  # atno 17343 bound_to 10162
  157.5462  130.8152  149.8089 LP  0  0  0  0  0  0  0  0  0  0  0  0  # atno 17370 bound_to 10713
  156.0209  130.3796  150.1965 LP  0  0  0  0  0  0  0  0  0  0  0  0  # atno 17371 bound_to 10713
  140.6708  134.4870  157.5587 LP  0  0  0  0  0  0  0  0  0  0  0  0  # atno 17394 bound_to 11000
  139.9099  134.8368  156.1568 LP  0  0  0  0  0  0  0  0  0  0  0  0  # atno 17395 bound_to 11000

$$$$
