AV-unprocessed.smi:206|AV-procd|sdf|1601|dock1
  -GOLD-   2262019513D 1   1.00000     0.00000
 Structure written by MMmdl.
 47 50  0  0  0  0  0  0  0  0  1 V2000
  155.8712  139.9919  163.6148 O   0  0  0  0  0  0  0  0  0  0  0  0
  155.1856  139.9052  162.5973 C   0  0  0  0  0  0  0  0  0  0  0  0
  154.5041  141.0984  161.9531 C   0  0  0  0  0  0  0  0  0  0  0  0
  153.8745  140.4788  160.7934 N   0  0  0  0  0  0  0  0  0  0  0  0
  153.0620  141.1548  159.9404 C   0  0  0  0  0  0  0  0  0  0  0  0
  153.1254  142.5122  159.9363 N   0  0  0  0  0  0  0  0  0  0  0  0
  152.3491  143.2268  159.1176 C   0  0  0  0  0  0  0  0  0  0  0  0
  151.4502  142.7938  158.2333 N   0  0  0  0  0  0  0  0  0  0  0  0
  151.3779  141.4322  158.2268 C   0  0  0  0  0  0  0  0  0  0  0  0
  152.1427  140.5424  159.0367 C   0  0  0  0  0  0  0  0  0  0  0  0
  151.7985  139.2296  158.7334 N   0  0  0  0  0  0  0  0  0  0  0  0
  150.8914  139.3370  157.8024 C   0  0  0  0  0  0  0  0  0  0  0  0
  150.5638  140.6263  157.4481 N   0  0  0  0  0  0  0  0  0  0  0  0
  149.6231  141.0381  156.4435 C   0  0  0  0  0  0  0  0  0  0  0  0
  148.3247  140.2674  156.1807 C   0  0  0  0  0  0  0  0  0  0  0  0
  148.4677  140.5252  154.6630 C   0  0  0  0  0  0  0  0  0  0  0  0
  148.2648  139.2925  153.7682 C   0  0  0  0  0  0  0  0  0  0  0  0
  149.3371  138.3805  153.8926 O   0  0  0  0  0  0  0  0  0  0  0  0
  147.6225  141.6690  154.0591 C   0  0  0  0  0  0  0  0  0  0  0  0
  147.1192  142.5634  155.0309 O   0  0  0  0  0  0  0  0  0  0  0  0
  149.9481  140.8564  154.9603 C   0  0  0  0  0  0  0  0  0  0  0  0
  154.1113  139.0432  160.7299 C   0  0  0  0  0  0  0  0  0  0  0  0
  154.9339  138.7907  161.9015 N   0  0  0  0  0  0  0  0  0  0  0  0
  155.4217  137.4457  162.1980 C   0  0  0  0  0  0  0  0  0  0  0  0
  154.8096  136.8713  163.4881 C   0  0  0  0  0  0  0  0  0  0  0  0
  155.2696  135.6347  163.6728 F   0  0  0  0  0  0  0  0  0  0  0  0
  155.1405  137.6075  164.5486 F   0  0  0  0  0  0  0  0  0  0  0  0
  153.4813  136.8194  163.3879 F   0  0  0  0  0  0  0  0  0  0  0  0
  153.7685  141.5342  162.6303 H   0  0  0  0  0  0  0  0  0  0  0  0
  155.2332  141.8541  161.6586 H   0  0  0  0  0  0  0  0  0  0  0  0
  152.4630  144.2991  159.1821 H   0  0  0  0  0  0  0  0  0  0  0  0
  150.4389  138.4682  157.3479 H   0  0  0  0  0  0  0  0  0  0  0  0
  149.3882  142.0823  156.6531 H   0  0  0  0  0  0  0  0  0  0  0  0
  148.3916  139.2089  156.4333 H   0  0  0  0  0  0  0  0  0  0  0  0
  147.4407  140.7158  156.6353 H   0  0  0  0  0  0  0  0  0  0  0  0
  147.3335  138.7788  154.0090 H   0  0  0  0  0  0  0  0  0  0  0  0
  148.1942  139.5800  152.7186 H   0  0  0  0  0  0  0  0  0  0  0  0
  149.2101  137.6798  153.2711 H   0  0  0  0  0  0  0  0  0  0  0  0
  148.2121  142.2500  153.3492 H   0  0  0  0  0  0  0  0  0  0  0  0
  146.7685  141.2763  153.5067 H   0  0  0  0  0  0  0  0  0  0  0  0
  147.7140  143.2943  155.1035 H   0  0  0  0  0  0  0  0  0  0  0  0
  150.3248  141.7562  154.4727 H   0  0  0  0  0  0  0  0  0  0  0  0
  150.6184  140.0131  154.7856 H   0  0  0  0  0  0  0  0  0  0  0  0
  153.1771  138.4833  160.7906 H   0  0  0  0  0  0  0  0  0  0  0  0
  154.6446  138.7709  159.8181 H   0  0  0  0  0  0  0  0  0  0  0  0
  155.1867  136.7908  161.3579 H   0  0  0  0  0  0  0  0  0  0  0  0
  156.5100  137.4614  162.2757 H   0  0  0  0  0  0  0  0  0  0  0  0
  1  2  2  0  0  0  0
  2 23  1  0  0  0  0
  2  3  1  0  0  0  0
  3  4  1  0  0  0  0
  3 29  1  0  0  0  0
  3 30  1  0  0  0  0
  4  5  1  0  0  0  0
  4 22  1  0  0  0  0
  5 10  1  0  0  0  0
  5  6  2  0  0  0  0
  6  7  1  0  0  0  0
  7  8  2  0  0  0  0
  7 31  1  0  0  0  0
  8  9  1  0  0  0  0
  9 13  1  0  0  0  0
  9 10  2  0  0  0  0
 10 11  1  0  0  0  0
 11 12  2  0  0  0  0
 12 13  1  0  0  0  0
 12 32  1  0  0  0  0
 13 14  1  0  0  0  0
 14 21  1  0  0  0  0
 14 15  1  0  0  0  0
 14 33  1  0  0  0  0
 15 16  1  0  0  0  0
 15 34  1  0  0  0  0
 15 35  1  0  0  0  0
 16 17  1  0  0  0  0
 16 19  1  0  0  0  0
 16 21  1  0  0  0  0
 17 18  1  0  0  0  0
 17 36  1  0  0  0  0
 17 37  1  0  0  0  0
 18 38  1  0  0  0  0
 19 20  1  0  0  0  0
 19 39  1  0  0  0  0
 19 40  1  0  0  0  0
 20 41  1  0  0  0  0
 21 42  1  0  0  0  0
 21 43  1  0  0  0  0
 22 23  1  0  0  0  0
 22 44  1  0  0  0  0
 22 45  1  0  0  0  0
 23 24  1  0  0  0  0
 24 25  1  0  0  0  0
 24 46  1  0  0  0  0
 24 47  1  0  0  0  0
 25 26  1  0  0  0  0
 25 27  1  0  0  0  0
 25 28  1  0  0  0  0
M  END
> <s_m_source_file>
AV-unprocessed.smi

> <i_m_source_file_index>
206

> <i_lp_mmshare_version>
43012

> <i_f3d_flags>
0

> <s_epik_input>
RkMoRikoRilbQ0gyXU4xW0NIMl1OKFtDSDJdQzE9TyljKG5bY0hdbjIpYyhjMjMpbltjSF1uM1tDSF0oW0NIMl00KVtDSDJdQzQoW0NIMl1bT0hdKVtDSDJdW09IXQ==

> <s_epik_cmdline>
J2VwaWtfcHl0aG9uJywgJy1waCcsICc3LjAnLCAnLXRuJywgJzgnLCAnLW1hJywgJzIwMCcsICctbWV0YWxfYmluZGluZycsICctaW1hZScsICc8aW5maWxlLm1hZT4nLCAnLW9tYWUnLCAnPG91dGZpbGUubWFlPic=

> <r_lp_tautomer_probability>
1

> <r_epik_Ionization_Penalty>
0.000251167

> <r_epik_Ionization_Penalty_Charging>
0

> <r_epik_Ionization_Penalty_Neutral>
0.000251167

> <r_epik_State_Penalty>
-0

> <r_epik_Charging_Adjusted_Penalty>
0

> <i_epik_Tot_Q>
0

> <i_epik_Tot_abs_Q>
0

> <r_epik_Metal_State_Penalty>
-0

> <b_epik_Metal_Only>
0

> <s_epik_Chemistry_Notes>
This compound contains an acetal/aminal-like group ( X-CH(R)-Y where X, Y are N, S, or O) that may be acid/base labile, releasing an aldehyde.

> <s_lp_Force_Field>
OPLS_2005

> <r_lp_Energy>
40.1188

> <b_lp_Chiralities_Consistent>
1

> <s_lp_Variant>
AV-unprocessed.smi:206-1

> <Gold.Version>
5.8.1

> <Gold.Id.Protein>
6NUR|6NUR_protein|mol2

> <Gold.PLP.Fitness>
51.7018

> <Gold.PLP.PLP>
-48.5403

> <Gold.PLP.part.hbond>
-2.1831

> <Gold.PLP.part.metal>
0.0000

> <Gold.PLP.part.buried>
-3.9219

> <Gold.PLP.part.nonpolar>
-42.1746

> <Gold.PLP.part.repulsive>
0.0509

> <Gold.PLP.ligand.clash>
0.0000

> <Gold.PLP.ligand.torsion>
1.6669

> <Gold.PLP.Chemscore.Hbond>
2.0000

> <Gold.PLP.Chemscore.CHOScore>
0.0000

> <Gold.PLP.Chemscore.Metal>
0.0000

> <Gold.Chemscore.Hbonds>
donor molecule, donor type, donor heavy atom, donor atom, acceptor molecule, acceptor atom, score
      L1  H    18    38       P1  7948  1.00
      L1  H    20    41       P1  8028  1.00

> <Gold.PLP.Chemscore.Internal.Correction>
0.4953

> <Gold.Rescore>
     Score         DG    S(hbond)    S(metal)    S(lipo)     H(rot)  DE(clash)    DE(int)     intcor
      4.59      -9.43       1.87        0.00      63.44       3.79       0.24       4.60       ----

> <Gold.Chemscore.Fitness>
4.5879

> <Gold.Chemscore.DG>
-9.4276

> <Gold.Chemscore.ZeroCoef>
-5.4800

> <Gold.Chemscore.Hbond>
1.8670

> <Gold.Chemscore.Metal>
0.0000

> <Gold.Chemscore.Lipo>
63.4399

> <Gold.Chemscore.Internal_Hbond>
0.0000

> <Gold.Chemscore.DEClash>
0.2387

> <Gold.Chemscore.DEInternal>
4.6009

> <Gold.Chemscore.Rot>
3.7932

> <Gold.Chemscore.Internal.Correction>
   9.000000E+99

> <Gold.Chemscore.Hbonds>
donor molecule, donor type, donor heavy atom, donor atom, acceptor molecule, acceptor atom, score
      L1  H    18    38       P1  7948  0.95
      L1  H    20    41       P1  8028  0.45

> <Gold.Chemscore.Hbond.Weighted>
-6.2358

> <Gold.Chemscore.Metal.Weighted>
-0.0000

> <Gold.Chemscore.Lipo.Weighted>
-7.4225

> <Gold.Chemscore.Internal_Hbond.Weighted>
0.0000

> <Gold.Chemscore.DEClash.Weighted>
0.2387

> <Gold.Chemscore.DEInternal.Weighted>
4.6009

> <Gold.Chemscore.Rot.Weighted>
9.7107

> <Gold.Chemscore.Internal.Correction.Weighted>
   9.000000E+99

> <Gold.Protein.RotatedTorsions>
[ 6907 6896 6895 6894 ] final   59.04 input  -60.11 | X-H torsion
[ 7974 7965 7964 7962 ] final   75.77 input  175.53 | X-H torsion
[ 8008 7997 7996 7995 ] final   94.55 input   59.86 | X-H torsion
[ 10167 10162 10161 10158 ] final -119.23 input  -65.29 | X-H torsion
[ 10718 10713 10712 10709 ] final -136.64 input   66.30 | X-H torsion
[ 10763 10752 10751 10750 ] final  -18.02 input  -60.55 | X-H torsion
[ 11005 11000 10999 10996 ] final   43.73 input  -57.11 | X-H torsion

> <Gold.Protein.ActiveResidues>
 VAL166  LYS551  ARG553  GLY616  TRP617  ASP618  TYR619  PRO620  LYS621  CYS622 
 ASP623  PHE694  ASN695  SER759  ASP760  ASP761  ALA762  ILE779  LEU786  VAL792 
 PHE793  MET794  SER795  GLU796  ALA797  LYS798  CYS799  TRP800  GLU811  SER814 

> <Gold.Protein.RotatedAtoms>
  152.3879  134.6488  160.0118 H   0  0  0  0  0  0  0  0  0  0  0  0  # atno 6907 bound_to 6896
  151.6731  133.3308  159.3209 H   0  0  0  0  0  0  0  0  0  0  0  0  # atno 6908 bound_to 6896
  150.7801  134.6782  159.6474 H   0  0  0  0  0  0  0  0  0  0  0  0  # atno 6909 bound_to 6896
  145.7113  139.2616  143.1649 H   0  0  0  0  0  0  0  0  0  0  0  0  # atno 7974 bound_to 7965
  156.0591  140.3298  155.7441 H   0  0  0  0  0  0  0  0  0  0  0  0  # atno 8008 bound_to 7997
  155.5482  140.0608  157.2873 H   0  0  0  0  0  0  0  0  0  0  0  0  # atno 8009 bound_to 7997
  154.4472  140.1899  156.0648 H   0  0  0  0  0  0  0  0  0  0  0  0  # atno 8010 bound_to 7997
  140.0489  143.5080  152.2092 H   0  0  0  0  0  0  0  0  0  0  0  0  # atno 10167 bound_to 10162
  156.2792  130.7311  151.1303 H   0  0  0  0  0  0  0  0  0  0  0  0  # atno 10718 bound_to 10713
  153.5829  135.7004  153.5456 H   0  0  0  0  0  0  0  0  0  0  0  0  # atno 10763 bound_to 10752
  153.3245  135.4064  155.1444 H   0  0  0  0  0  0  0  0  0  0  0  0  # atno 10764 bound_to 10752
  154.8614  135.3704  154.5357 H   0  0  0  0  0  0  0  0  0  0  0  0  # atno 10765 bound_to 10752
  140.1617  134.4333  155.8313 H   0  0  0  0  0  0  0  0  0  0  0  0  # atno 11005 bound_to 11000
  146.0710  140.7869  142.9688 LP  0  0  0  0  0  0  0  0  0  0  0  0  # atno 17320 bound_to 7965
  144.6941  140.3341  143.7211 LP  0  0  0  0  0  0  0  0  0  0  0  0  # atno 17321 bound_to 7965
  139.5966  144.7569  151.3272 LP  0  0  0  0  0  0  0  0  0  0  0  0  # atno 17342 bound_to 10162
  140.7226  143.7094  150.7782 LP  0  0  0  0  0  0  0  0  0  0  0  0  # atno 17343 bound_to 10162
  157.7309  131.0612  150.5704 LP  0  0  0  0  0  0  0  0  0  0  0  0  # atno 17370 bound_to 10713
  156.5808  130.4304  149.5978 LP  0  0  0  0  0  0  0  0  0  0  0  0  # atno 17371 bound_to 10713
  141.2210  133.6916  156.7606 LP  0  0  0  0  0  0  0  0  0  0  0  0  # atno 17394 bound_to 11000
  140.2482  134.8561  157.3641 LP  0  0  0  0  0  0  0  0  0  0  0  0  # atno 17395 bound_to 11000

$$$$
