#       Name:                AV-unprocessed.smi:1240
#       Creating user name   scv26
#       Creation time:       Fri Mar 27 04:28:08 2020


#       File generated by GOLD software.
#

@<TRIPOS>MOLECULE
AV-unprocessed.smi:1240
    55    57     1
SMALL
NO_CHARGES


@<TRIPOS>ATOM
      1 ****        -1.4438   0.6221   1.7023 O.2            1 S1                 0.0000
      2 ****        -1.7133   1.1592   0.6284 C.2            1 S1                 0.0000
      3 ****        -1.6181   0.5311  -0.5528 N.am           1 S1                 0.0000
      4 ****        -1.1785  -0.8485  -0.7379 C.3            1 S1                 0.0000
      5 ****         0.3602  -1.0765  -0.5436 C.3            1 S1                 0.0000
      6 ****         1.1429  -0.3500  -1.6995 C.3            1 S1                 0.0000
      7 ****         2.6620  -0.4289  -1.6938 C.3            1 S1                 0.0000
      8 ****         3.0538   0.6348  -2.7084 C.3            1 S1                 0.0000
      9 ****         2.1164   1.6802  -2.5067 O.3            1 S1                 0.0000
     10 ****         0.9864   1.1783  -1.7998 C.3            1 S1                 0.0000
     11 ****         0.7498  -2.5145  -0.4462 N.3            1 S1                 0.0000
     12 ****        -0.2883  -3.4276   0.0487 C.3            1 S1                 0.0000
     13 ****         0.1808  -4.8932   0.0909 C.3            1 S1                 0.0000
     14 ****         1.3429  -5.0058   0.9009 O.3            1 S1                 0.0000
     15 ****         2.4003  -4.1774   0.4381 C.3            1 S1                 0.0000
     16 ****         1.9283  -2.7142   0.4098 C.3            1 S1                 0.0000
     17 ****        -2.1131   2.4329   0.4683 N.am           1 S1                 0.0000
     18 ****        -2.3085   3.4399   1.4530 C.ar           1 S1                 0.0000
     19 ****        -2.3705   4.7785   1.0131 C.ar           1 S1                 0.0000
     20 ****        -2.5751   5.7982   1.9640 C.ar           1 S1                 0.0000
     21 ****        -2.7251   5.5618   3.2839 N.ar           1 S1                 0.0000
     22 ****        -2.6783   4.2795   3.7023 C.ar           1 S1                 0.0000
     23 ****        -2.4776   3.1862   2.8359 C.ar           1 S1                 0.0000
     24 ****        -1.8555   1.0471  -1.3874 H              1 S1                 0.0000
     25 ****        -1.7729  -1.4193  -0.0251 H              1 S1                 0.0000
     26 ****        -1.4869  -1.1811  -1.7295 H              1 S1                 0.0000
     27 ****         0.6262  -0.5982   0.3999 H              1 S1                 0.0000
     28 ****         0.8069  -0.7789  -2.6454 H              1 S1                 0.0000
     29 ****         3.0583  -0.1511  -0.7163 H              1 S1                 0.0000
     30 ****         3.0454  -1.4111  -1.9715 H              1 S1                 0.0000
     31 ****         4.0790   0.9828  -2.5808 H              1 S1                 0.0000
     32 ****         2.9454   0.2531  -3.7243 H              1 S1                 0.0000
     33 ****         0.0744   1.4713  -2.3197 H              1 S1                 0.0000
     34 ****         0.9801   1.6345  -0.8091 H              1 S1                 0.0000
     35 ****        -0.6127  -3.1215   1.0447 H              1 S1                 0.0000
     36 ****        -1.1610  -3.3984  -0.6032 H              1 S1                 0.0000
     37 ****        -0.6019  -5.5302   0.5026 H              1 S1                 0.0000
     38 ****         0.3939  -5.2582  -0.9151 H              1 S1                 0.0000
     39 ****         3.2544  -4.2866   1.1065 H              1 S1                 0.0000
     40 ****         2.7243  -4.4997  -0.5528 H              1 S1                 0.0000
     41 ****         2.7695  -2.1065   0.1010 H              1 S1                 0.0000
     42 ****         1.6952  -2.3990   1.4281 H              1 S1                 0.0000
     43 ****        -2.2367   2.7380  -0.4859 H              1 S1                 0.0000
     44 ****        -2.2587   5.0258  -0.0326 H              1 S1                 0.0000
     45 ****        -2.6203   6.8320   1.6548 H              1 S1                 0.0000
     46 ****        -2.8101   4.1180   4.7619 H              1 S1                 0.0000
     47 ****        -2.4694   2.1894   3.2478 H              1 S1                 0.0000
     48 ****        -1.1363  -0.3292   1.7223 LP             1 S1                 0.0000
     49 ****        -1.5323   1.1370   2.5550 LP             1 S1                 0.0000
     50 ****         1.8224   2.0392  -3.3925 LP             1 S1                 0.0000
     51 ****         2.5432   2.4121  -1.9755 LP             1 S1                 0.0000
     52 ****         0.9358  -2.7443  -1.4015 LP             1 S1                 0.0000
     53 ****         1.6511  -5.9570   0.8919 LP             1 S1                 0.0000
     54 ****         1.1107  -4.7395   1.8364 LP             1 S1                 0.0000
     55 ****        -2.8662   6.3116   3.9304 LP             1 S1                 0.0000
@<TRIPOS>BOND
    1    1    2 2     
    2    2    3 am    
    3    2   17 am    
    4    3    4 1     
    5    3   24 1     
    6    4    5 1     
    7    4   25 1     
    8    4   26 1     
    9    5    6 1     
   10    5   11 1     
   11    5   27 1     
   12    6   10 1     
   13    6    7 1     
   14    6   28 1     
   15    7    8 1     
   16    7   29 1     
   17    7   30 1     
   18    8    9 1     
   19    8   31 1     
   20    8   32 1     
   21    9   10 1     
   22   10   33 1     
   23   10   34 1     
   24   11   16 1     
   25   11   12 1     
   26   12   13 1     
   27   12   35 1     
   28   12   36 1     
   29   13   14 1     
   30   13   37 1     
   31   13   38 1     
   32   14   15 1     
   33   15   16 1     
   34   15   39 1     
   35   15   40 1     
   36   16   41 1     
   37   16   42 1     
   38   17   18 1     
   39   17   43 1     
   40   18   23 ar    
   41   18   19 ar    
   42   19   20 ar    
   43   19   44 1     
   44   20   21 ar    
   45   20   45 1     
   46   21   22 ar    
   47   22   23 ar    
   48   22   46 1     
   49   23   47 1     
   50    1   48 1     
   51    1   49 1     
   52    9   50 1     
   53    9   51 1     
   54   11   52 1     
   55   14   53 1     
   56   14   54 1     
   57   21   55 1     
@<TRIPOS>SUBSTRUCTURE
      1 S1             1
@<TRIPOS>SET
LONE_PAIRS      STATIC     ATOMS    <user>   **** ""
8 48 49 50 51 52 53 54 55
DONOR_HYDROGENS      STATIC     ATOMS    <user>   **** ""
2 24 43
ATOM$BLUE        STATIC     ATOMS    COLORGROUP SYSTEM
8 48 49 50 51 52 53 54 55
ATOM$RED        STATIC     ATOMS    COLORGROUP SYSTEM
2 24 43
