#       Name:                AV-unprocessed.smi:3259
#       Creating user name   scv26
#       Creation time:       Fri Mar 27 18:37:36 2020


#       File generated by GOLD software.
#

@<TRIPOS>MOLECULE
AV-unprocessed.smi:3259
    44    45     1
SMALL
NO_CHARGES


@<TRIPOS>ATOM
      1 ****        -3.2460  -2.7787  -1.0555 C.3            1 S1                 0.0000
      2 ****        -2.6173  -2.2525   0.1060 O.3            1 S1                 0.0000
      3 ****        -2.2966  -0.8607   0.0783 C.3            1 S1                 0.0000
      4 ****        -3.5868  -0.0261   0.0647 C.3            1 S1                 0.0000
      5 ****        -1.2139  -0.5310  -0.9660 C.3            1 S1                 0.0000
      6 ****        -0.5768   0.3538   0.1032 C.3            1 S1                 0.0000
      7 ****         0.8808   0.3258   0.0602 N.am           1 S1                 0.0000
      8 ****         1.6768   1.0714   0.8412 C.2            1 S1                 0.0000
      9 ****         1.2513   1.8572   1.6873 O.2            1 S1                 0.0000
     10 ****         3.1836   0.8984   0.6448 C.3            1 S1                 0.0000
     11 ****         3.6389   1.5685  -0.5604 N.pl3          1 S1                 0.0000
     12 ****         3.7110   1.0688  -1.8444 C.2            1 S1                 0.0000
     13 ****         4.1909   2.0669  -2.6433 C.2            1 S1                 0.0000
     14 ****         4.3875   3.1532  -1.7456 C.2            1 S1                 0.0000
     15 ****         4.0572   2.8519  -0.5001 N.2            1 S1                 0.0000
     16 ****        -1.2175  -0.5687   1.1718 C.3            1 S1                 0.0000
     17 ****        -1.6987   0.1252   2.4501 C.3            1 S1                 0.0000
     18 ****        -0.3804  -1.7765   1.6393 C.3            1 S1                 0.0000
     19 ****        -3.3497  -3.8579  -0.9451 H              1 S1                 0.0000
     20 ****        -2.6601  -2.5949  -1.9562 H              1 S1                 0.0000
     21 ****        -4.2467  -2.3715  -1.1973 H              1 S1                 0.0000
     22 ****        -3.3836   1.0381   0.1822 H              1 S1                 0.0000
     23 ****        -4.2579  -0.3216   0.8715 H              1 S1                 0.0000
     24 ****        -4.1300  -0.1314  -0.8739 H              1 S1                 0.0000
     25 ****        -0.6007  -1.3886  -1.2495 H              1 S1                 0.0000
     26 ****        -1.5734   0.0090  -1.8424 H              1 S1                 0.0000
     27 ****        -0.9989   1.3614   0.0984 H              1 S1                 0.0000
     28 ****         1.3106  -0.2967  -0.6084 H              1 S1                 0.0000
     29 ****         3.7227   1.2967   1.5058 H              1 S1                 0.0000
     30 ****         3.4303  -0.1620   0.5753 H              1 S1                 0.0000
     31 ****         3.4158   0.0570  -2.0797 H              1 S1                 0.0000
     32 ****         4.3738   2.0274  -3.7068 H              1 S1                 0.0000
     33 ****         4.7578   4.1446  -1.9608 H              1 S1                 0.0000
     34 ****        -0.8660   0.3715   3.1097 H              1 S1                 0.0000
     35 ****        -2.3874  -0.5070   3.0113 H              1 S1                 0.0000
     36 ****        -2.2149   1.0613   2.2388 H              1 S1                 0.0000
     37 ****         0.4671  -1.4669   2.2516 H              1 S1                 0.0000
     38 ****         0.0221  -2.3503   0.8045 H              1 S1                 0.0000
     39 ****        -0.9762  -2.4645   2.2402 H              1 S1                 0.0000
     40 ****        -1.7662  -2.7583   0.2470 LP             1 S1                 0.0000
     41 ****        -3.2299  -2.4084   0.8808 LP             1 S1                 0.0000
     42 ****         0.2659   1.9643   1.8195 LP             1 S1                 0.0000
     43 ****         1.8910   2.3886   2.2426 LP             1 S1                 0.0000
     44 ****         4.1063   3.4421   0.3056 LP             1 S1                 0.0000
@<TRIPOS>BOND
    1    1    2 1     
    2    1   19 1     
    3    1   20 1     
    4    1   21 1     
    5    2    3 1     
    6    3   16 1     
    7    3    4 1     
    8    3    5 1     
    9    4   22 1     
   10    4   23 1     
   11    4   24 1     
   12    5    6 1     
   13    5   25 1     
   14    5   26 1     
   15    6    7 1     
   16    6   16 1     
   17    6   27 1     
   18    7    8 am    
   19    7   28 1     
   20    8    9 2     
   21    8   10 1     
   22   10   11 1     
   23   10   29 1     
   24   10   30 1     
   25   11   15 1     
   26   11   12 1     
   27   12   13 2     
   28   12   31 1     
   29   13   14 1     
   30   13   32 1     
   31   14   15 2     
   32   14   33 1     
   33   16   17 1     
   34   16   18 1     
   35   17   34 1     
   36   17   35 1     
   37   17   36 1     
   38   18   37 1     
   39   18   38 1     
   40   18   39 1     
   41    2   40 1     
   42    2   41 1     
   43    9   42 1     
   44    9   43 1     
   45   15   44 1     
@<TRIPOS>SUBSTRUCTURE
      1 S1             1
@<TRIPOS>SET
LONE_PAIRS      STATIC     ATOMS    <user>   **** ""
5 40 41 42 43 44
DONOR_HYDROGENS      STATIC     ATOMS    <user>   **** ""
1 28
ATOM$BLUE        STATIC     ATOMS    COLORGROUP SYSTEM
5 40 41 42 43 44
ATOM$RED        STATIC     ATOMS    COLORGROUP SYSTEM
1 28
