AV-unprocessed.smi:1901|AV-procd|sdf|7716|dock5
  -GOLD-   22720 9453D 1   1.00000     0.00000
 Structure written by MMmdl.
 28 29  0  0  0  0  0  0  0  0  1 V2000
  145.2480  128.8342  151.6144 O   0  0  0  0  0  0  0  0  0  0  0  0
  146.3138  129.3706  151.3097 C   0  0  0  0  0  0  0  0  0  0  0  0
  147.5034  128.7608  151.4130 N   0  0  0  0  0  0  0  0  0  0  0  0
  147.7051  127.3977  151.8923 C   0  0  0  0  0  0  0  0  0  0  0  0
  148.3013  126.4840  150.8047 C   0  0  2  0  0  0  0  0  0  0  0  0
  148.2702  125.0037  151.1307 C   0  0  0  0  0  0  0  0  0  0  0  0
  149.3135  124.4516  150.1654 C   0  0  0  0  0  0  0  0  0  0  0  0
  150.2887  125.4799  150.0219 O   0  0  0  0  0  0  0  0  0  0  0  0
  149.7943  126.7034  150.5602 C   0  0  0  0  0  0  0  0  0  0  0  0
  146.4475  130.6222  150.8374 N   0  0  0  0  0  0  0  0  0  0  0  0
  145.4287  131.5772  150.5816 C   0  0  0  0  0  0  0  0  0  0  0  0
  144.1616  131.2678  150.2823 N   0  0  0  0  0  0  0  0  0  0  0  0
  143.3776  132.4061  150.0782 C   0  0  0  0  0  0  0  0  0  0  0  0
  144.0688  133.5824  150.2285 C   0  0  0  0  0  0  0  0  0  0  0  0
  145.7415  133.3058  150.6355 S   0  0  0  0  0  0  0  0  0  0  0  0
  148.3289  129.2747  151.1418 H   0  0  0  0  0  0  0  0  0  0  0  0
  148.3489  127.4052  152.7734 H   0  0  0  0  0  0  0  0  0  0  0  0
  146.7403  127.0101  152.2210 H   0  0  0  0  0  0  0  0  0  0  0  0
  147.7740  126.6431  149.8622 H   0  0  0  0  0  0  0  0  0  0  0  0
  148.5854  124.8322  152.1611 H   0  0  0  0  0  0  0  0  0  0  0  0
  147.2868  124.5530  150.9933 H   0  0  0  0  0  0  0  0  0  0  0  0
  149.7612  123.5230  150.5200 H   0  0  0  0  0  0  0  0  0  0  0  0
  148.8642  124.2608  149.1899 H   0  0  0  0  0  0  0  0  0  0  0  0
  149.9856  127.5392  149.8868 H   0  0  0  0  0  0  0  0  0  0  0  0
  150.3170  126.8993  151.4974 H   0  0  0  0  0  0  0  0  0  0  0  0
  147.3874  130.9257  150.6292 H   0  0  0  0  0  0  0  0  0  0  0  0
  142.3334  132.2873  149.8286 H   0  0  0  0  0  0  0  0  0  0  0  0
  143.6964  134.5906  150.1244 H   0  0  0  0  0  0  0  0  0  0  0  0
  1  2  2  0  0  0  0
  2  3  1  0  0  0  0
  2 10  1  0  0  0  0
  3  4  1  0  0  0  0
  3 16  1  0  0  0  0
  4  5  1  0  0  0  0
  4 17  1  0  0  0  0
  4 18  1  0  0  0  0
  5  9  1  0  0  0  0
  5  6  1  0  0  0  0
  5 19  1  0  0  0  0
  6  7  1  0  0  0  0
  6 20  1  0  0  0  0
  6 21  1  0  0  0  0
  7  8  1  0  0  0  0
  7 22  1  0  0  0  0
  7 23  1  0  0  0  0
  8  9  1  0  0  0  0
  9 24  1  0  0  0  0
  9 25  1  0  0  0  0
 10 11  1  0  0  0  0
 10 26  1  0  0  0  0
 11 15  1  0  0  0  0
 11 12  2  0  0  0  0
 12 13  1  0  0  0  0
 13 14  2  0  0  0  0
 13 27  1  0  0  0  0
 14 15  1  0  0  0  0
 14 28  1  0  0  0  0
M  END
> <s_m_source_file>
AV-unprocessed.smi

> <i_m_source_file_index>
1901

> <i_lp_mmshare_version>
43012

> <i_f3d_flags>
0

> <s_epik_input>
czFbY0hdW2NIXW5jMVtOSF1DKD1PKVtOSF1bQ0gyXVtDQEBIXTJbQ0gyXVtDSDJdT1tDSDJdMg==

> <s_epik_cmdline>
J2VwaWtfcHl0aG9uJywgJy1waCcsICc3LjAnLCAnLXRuJywgJzgnLCAnLW1hJywgJzIwMCcsICctbWV0YWxfYmluZGluZycsICctaW1hZScsICc8aW5maWxlLm1hZT4nLCAnLW9tYWUnLCAnPG91dGZpbGUubWFlPic=

> <r_lp_tautomer_probability>
0.999

> <r_epik_Ionization_Penalty>
0.000365592

> <r_epik_Ionization_Penalty_Charging>
0

> <r_epik_Ionization_Penalty_Neutral>
0.000365592

> <r_epik_State_Penalty>
0.000177984

> <r_epik_Charging_Adjusted_Penalty>
0.000177984

> <i_epik_Tot_Q>
0

> <i_epik_Tot_abs_Q>
0

> <r_epik_Metal_State_Penalty>
0.00682492

> <b_epik_Metal_Only>
0

> <s_lp_Force_Field>
OPLS_2005

> <r_lp_Energy>
16.9403

> <b_lp_Chiralities_Consistent>
1

> <s_lp_Variant>
AV-unprocessed.smi:1901-1

> <Gold.Version>
5.8.1

> <Gold.Id.Protein>
6NUR|6NUR_protein|mol2

> <Gold.PLP.Fitness>
39.4754

> <Gold.PLP.PLP>
-28.4178

> <Gold.PLP.part.hbond>
-3.0000

> <Gold.PLP.part.metal>
0.0000

> <Gold.PLP.part.buried>
-0.8877

> <Gold.PLP.part.nonpolar>
-25.5920

> <Gold.PLP.part.repulsive>
0.6402

> <Gold.PLP.ligand.clash>
0.0000

> <Gold.PLP.ligand.torsion>
0.2552

> <Gold.PLP.Chemscore.Hbond>
1.9553

> <Gold.PLP.Chemscore.CHOScore>
1.8986

> <Gold.PLP.Chemscore.Metal>
0.0000

> <Gold.Chemscore.Hbonds>
donor molecule, donor type, donor heavy atom, donor atom, acceptor molecule, acceptor atom, score
      L1  H     3    16       P1 10747  0.79
      L1  H    10    26       P1 10747  1.00
      P1  H 10785 10796       L1    12  0.32
      L1  C    13    27       P1 10186  0.74
      L1  C    13    27       P1 10952  1.00
      L1  C    14    28       P1 10186  0.26

> <Gold.PLP.Chemscore.Internal.Correction>
0.0062

> <Gold.Rescore>
     Score         DG    S(hbond)    S(metal)    S(lipo)     H(rot)  DE(clash)    DE(int)     intcor
     11.05     -13.73       1.27        0.00      62.95       1.32       1.23       1.45       ----

> <Gold.Chemscore.Fitness>
11.0480

> <Gold.Chemscore.DG>
-13.7292

> <Gold.Chemscore.ZeroCoef>
-5.4800

> <Gold.Chemscore.Hbond>
1.2736

> <Gold.Chemscore.Metal>
0.0000

> <Gold.Chemscore.Lipo>
62.9496

> <Gold.Chemscore.Internal_Hbond>
0.0000

> <Gold.Chemscore.DEClash>
1.2270

> <Gold.Chemscore.DEInternal>
1.4542

> <Gold.Chemscore.Rot>
1.3163

> <Gold.Chemscore.Internal.Correction>
   9.000000E+99

> <Gold.Chemscore.Hbonds>
donor molecule, donor type, donor heavy atom, donor atom, acceptor molecule, acceptor atom, score
      L1  H     3    16       P1 10747  0.13
      L1  H    10    26       P1 10747  0.99
      P1  H 10785 10796       L1    12  0.04

> <Gold.Chemscore.Hbond.Weighted>
-4.2540

> <Gold.Chemscore.Metal.Weighted>
-0.0000

> <Gold.Chemscore.Lipo.Weighted>
-7.3651

> <Gold.Chemscore.Internal_Hbond.Weighted>
0.0000

> <Gold.Chemscore.DEClash.Weighted>
1.2270

> <Gold.Chemscore.DEInternal.Weighted>
1.4542

> <Gold.Chemscore.Rot.Weighted>
3.3698

> <Gold.Chemscore.Internal.Correction.Weighted>
   9.000000E+99

> <Gold.Protein.RotatedTorsions>
[ 6907 6896 6895 6894 ] final  -31.92 input  -60.11 | X-H torsion
[ 7974 7965 7964 7962 ] final   19.01 input  175.53 | X-H torsion
[ 8008 7997 7996 7995 ] final   96.96 input   59.86 | X-H torsion
[ 10167 10162 10161 10158 ] final  105.91 input  -65.29 | X-H torsion
[ 10718 10713 10712 10709 ] final   42.94 input   66.30 | X-H torsion
[ 10763 10752 10751 10750 ] final  149.82 input  -60.55 | X-H torsion
[ 11005 11000 10999 10996 ] final -100.90 input  -57.11 | X-H torsion

> <Gold.Protein.ActiveResidues>
 VAL166  LYS551  ARG553  GLY616  TRP617  ASP618  TYR619  PRO620  LYS621  CYS622 
 ASP623  PHE694  ASN695  SER759  ASP760  ASP761  ALA762  ILE779  LEU786  VAL792 
 PHE793  MET794  SER795  GLU796  ALA797  LYS798  CYS799  TRP800  GLU811  SER814 

> <Gold.Protein.RotatedAtoms>
  151.0856  134.9885  159.8377 H   0  0  0  0  0  0  0  0  0  0  0  0  # atno 6907 bound_to 6896
  152.5424  134.2128  159.8767 H   0  0  0  0  0  0  0  0  0  0  0  0  # atno 6908 bound_to 6896
  151.2161  133.4485  159.2633 H   0  0  0  0  0  0  0  0  0  0  0  0  # atno 6909 bound_to 6896
  146.2164  139.8374  142.8648 H   0  0  0  0  0  0  0  0  0  0  0  0  # atno 7974 bound_to 7965
  156.0852  140.3265  155.7744 H   0  0  0  0  0  0  0  0  0  0  0  0  # atno 8008 bound_to 7997
  155.5088  140.0575  157.2944 H   0  0  0  0  0  0  0  0  0  0  0  0  # atno 8009 bound_to 7997
  154.4605  140.1964  156.0275 H   0  0  0  0  0  0  0  0  0  0  0  0  # atno 8010 bound_to 7997
  139.7053  144.7087  151.1116 H   0  0  0  0  0  0  0  0  0  0  0  0  # atno 10167 bound_to 10162
  157.4104  130.7911  149.7426 H   0  0  0  0  0  0  0  0  0  0  0  0  # atno 10718 bound_to 10713
  154.0774  135.2862  155.3297 H   0  0  0  0  0  0  0  0  0  0  0  0  # atno 10763 bound_to 10752
  154.6706  135.5301  153.8137 H   0  0  0  0  0  0  0  0  0  0  0  0  # atno 10764 bound_to 10752
  153.0462  135.6556  154.0952 H   0  0  0  0  0  0  0  0  0  0  0  0  # atno 10765 bound_to 10752
  141.1252  133.8435  157.1162 H   0  0  0  0  0  0  0  0  0  0  0  0  # atno 11005 bound_to 11000
  145.2934  141.0174  143.3650 LP  0  0  0  0  0  0  0  0  0  0  0  0  # atno 17320 bound_to 7965
  144.9060  139.4589  143.6610 LP  0  0  0  0  0  0  0  0  0  0  0  0  # atno 17321 bound_to 7965
  140.7720  143.5367  150.9360 LP  0  0  0  0  0  0  0  0  0  0  0  0  # atno 17342 bound_to 10162
  139.9050  143.6790  152.3125 LP  0  0  0  0  0  0  0  0  0  0  0  0  # atno 17343 bound_to 10162
  155.9849  130.3987  150.3288 LP  0  0  0  0  0  0  0  0  0  0  0  0  # atno 17370 bound_to 10713
  157.1426  131.0300  151.2921 LP  0  0  0  0  0  0  0  0  0  0  0  0  # atno 17371 bound_to 10713
  140.0245  134.9930  157.0658 LP  0  0  0  0  0  0  0  0  0  0  0  0  # atno 17394 bound_to 11000
  140.4386  134.1705  155.7172 LP  0  0  0  0  0  0  0  0  0  0  0  0  # atno 17395 bound_to 11000

$$$$
