AV-unprocessed.smi:2142|AV-procd|sdf|8720|dock2
  -GOLD-   2272011483D 1   1.00000     0.00000
 Structure written by MMmdl.
 40 41  0  0  0  0  0  0  0  0  1 V2000
  152.5538  144.7402  158.5034 C   0  0  0  0  0  0  0  0  0  0  0  0
  151.7349  144.0775  157.5561 O   0  0  0  0  0  0  0  0  0  0  0  0
  151.5471  142.7068  157.8664 C   0  0  0  0  0  0  0  0  0  0  0  0
  150.3423  142.1741  157.0852 C   0  0  0  0  0  0  0  0  0  0  0  0
  150.8127  141.4683  155.9406 O   0  0  0  0  0  0  0  0  0  0  0  0
  150.3898  140.1693  155.7478 C   0  0  0  0  0  0  0  0  0  0  0  0
  149.9565  139.4293  156.8659 C   0  0  0  0  0  0  0  0  0  0  0  0
  149.5296  138.1005  156.6800 C   0  0  0  0  0  0  0  0  0  0  0  0
  149.5560  137.5509  155.3765 C   0  0  0  0  0  0  0  0  0  0  0  0
  149.1329  136.2336  155.0556 N   0  0  0  0  0  0  0  0  0  0  0  0
  149.1709  135.1245  155.8232 C   0  0  0  0  0  0  0  0  0  0  0  0
  149.6238  135.0906  156.9674 O   0  0  0  0  0  0  0  0  0  0  0  0
  148.6457  133.8883  155.1809 C   0  0  0  0  0  0  0  0  0  0  0  0
  147.8870  133.9743  154.1329 N   0  0  0  0  0  0  0  0  0  0  0  0
  147.3889  132.8611  153.4889 N   0  0  0  0  0  0  0  0  0  0  0  0
  146.7872  133.1581  152.1890 C   0  0  0  0  0  0  0  0  0  0  0  0
  147.4136  131.6035  154.0005 C   0  0  0  0  0  0  0  0  0  0  0  0
  146.9882  130.6098  153.4120 O   0  0  0  0  0  0  0  0  0  0  0  0
  147.9850  131.4530  155.4135 C   0  0  0  0  0  0  0  0  0  0  0  0
  149.0343  132.5337  155.7387 C   0  0  0  0  0  0  0  0  0  0  0  0
  149.9904  138.3804  154.3222 C   0  0  0  0  0  0  0  0  0  0  0  0
  150.4036  139.6534  154.4938 N   0  0  0  0  0  0  0  0  0  0  0  0
  152.6713  145.7858  158.2187 H   0  0  0  0  0  0  0  0  0  0  0  0
  153.5466  144.2906  158.5507 H   0  0  0  0  0  0  0  0  0  0  0  0
  152.1078  144.7104  159.4984 H   0  0  0  0  0  0  0  0  0  0  0  0
  152.4403  142.1496  157.5797 H   0  0  0  0  0  0  0  0  0  0  0  0
  151.4008  142.5637  158.9382 H   0  0  0  0  0  0  0  0  0  0  0  0
  149.7313  141.5340  157.7240 H   0  0  0  0  0  0  0  0  0  0  0  0
  149.7257  143.0153  156.7644 H   0  0  0  0  0  0  0  0  0  0  0  0
  149.9480  139.8742  157.8500 H   0  0  0  0  0  0  0  0  0  0  0  0
  149.1804  137.5389  157.5324 H   0  0  0  0  0  0  0  0  0  0  0  0
  148.8182  136.0983  154.1054 H   0  0  0  0  0  0  0  0  0  0  0  0
  146.3715  132.2850  151.6844 H   0  0  0  0  0  0  0  0  0  0  0  0
  147.5320  133.5957  151.5233 H   0  0  0  0  0  0  0  0  0  0  0  0
  145.9783  133.8802  152.3071 H   0  0  0  0  0  0  0  0  0  0  0  0
  147.1516  131.5295  156.1127 H   0  0  0  0  0  0  0  0  0  0  0  0
  148.4126  130.4581  155.5425 H   0  0  0  0  0  0  0  0  0  0  0  0
  150.0052  132.2442  155.3350 H   0  0  0  0  0  0  0  0  0  0  0  0
  149.1535  132.5813  156.8219 H   0  0  0  0  0  0  0  0  0  0  0  0
  150.0142  138.0100  153.3077 H   0  0  0  0  0  0  0  0  0  0  0  0
  1  2  1  0  0  0  0
  1 23  1  0  0  0  0
  1 24  1  0  0  0  0
  1 25  1  0  0  0  0
  2  3  1  0  0  0  0
  3  4  1  0  0  0  0
  3 26  1  0  0  0  0
  3 27  1  0  0  0  0
  4  5  1  0  0  0  0
  4 28  1  0  0  0  0
  4 29  1  0  0  0  0
  5  6  1  0  0  0  0
  6 22  1  0  0  0  0
  6  7  2  0  0  0  0
  7  8  1  0  0  0  0
  7 30  1  0  0  0  0
  8  9  2  0  0  0  0
  8 31  1  0  0  0  0
  9 10  1  0  0  0  0
  9 21  1  0  0  0  0
 10 11  1  0  0  0  0
 10 32  1  0  0  0  0
 11 12  2  0  0  0  0
 11 13  1  0  0  0  0
 13 20  1  0  0  0  0
 13 14  2  0  0  0  0
 14 15  1  0  0  0  0
 15 16  1  0  0  0  0
 15 17  1  0  0  0  0
 16 33  1  0  0  0  0
 16 34  1  0  0  0  0
 16 35  1  0  0  0  0
 17 18  2  0  0  0  0
 17 19  1  0  0  0  0
 19 20  1  0  0  0  0
 19 36  1  0  0  0  0
 19 37  1  0  0  0  0
 20 38  1  0  0  0  0
 20 39  1  0  0  0  0
 21 22  2  0  0  0  0
 21 40  1  0  0  0  0
M  END
> <s_m_source_file>
AV-unprocessed.smi

> <i_m_source_file_index>
2142

> <i_lp_mmshare_version>
43012

> <i_f3d_flags>
0

> <s_epik_input>
W0NIM11PW0NIMl1bQ0gyXU9jMVtjSF1bY0hdYyhbY0hdbjEpW05IXUMoPU8pQzI9Tk4oW0NIM10pQyg9TylbQ0gyXVtDSDJdMg==

> <s_epik_cmdline>
J2VwaWtfcHl0aG9uJywgJy1waCcsICc3LjAnLCAnLXRuJywgJzgnLCAnLW1hJywgJzIwMCcsICctbWV0YWxfYmluZGluZycsICctaW1hZScsICc8aW5maWxlLm1hZT4nLCAnLW9tYWUnLCAnPG91dGZpbGUubWFlPic=

> <r_lp_tautomer_probability>
1

> <r_epik_Ionization_Penalty>
2.74522e-05

> <r_epik_Ionization_Penalty_Charging>
0

> <r_epik_Ionization_Penalty_Neutral>
2.74522e-05

> <r_epik_State_Penalty>
-0

> <r_epik_Charging_Adjusted_Penalty>
0

> <i_epik_Tot_Q>
0

> <i_epik_Tot_abs_Q>
0

> <r_epik_Metal_State_Penalty>
0.0227286

> <b_epik_Metal_Only>
0

> <s_epik_Chemistry_Notes>
This compound has an imine and may undergo hydrolysis.

> <s_lp_Force_Field>
OPLS_2005

> <r_lp_Energy>
20.7246

> <b_lp_Chiralities_Consistent>
1

> <s_lp_Variant>
AV-unprocessed.smi:2142-1

> <Gold.Version>
5.8.1

> <Gold.Id.Protein>
6NUR|6NUR_protein|mol2

> <Gold.PLP.Fitness>
43.6655

> <Gold.PLP.PLP>
-34.7867

> <Gold.PLP.part.hbond>
-2.2051

> <Gold.PLP.part.metal>
0.0000

> <Gold.PLP.part.buried>
-6.5272

> <Gold.PLP.part.nonpolar>
-28.3723

> <Gold.PLP.part.repulsive>
3.5190

> <Gold.PLP.ligand.clash>
0.0000

> <Gold.PLP.ligand.torsion>
1.3825

> <Gold.PLP.Chemscore.Hbond>
2.0000

> <Gold.PLP.Chemscore.CHOScore>
1.8589

> <Gold.PLP.Chemscore.Metal>
0.0000

> <Gold.Chemscore.Hbonds>
donor molecule, donor type, donor heavy atom, donor atom, acceptor molecule, acceptor atom, score
      L1  H    10    32       P1  7948  0.49
      P1  H  7989  7998       L1    22  1.00
      L1  C    21    40       P1  7948  1.00

> <Gold.PLP.Chemscore.Internal.Correction>
0.0670

> <Gold.Rescore>
     Score         DG    S(hbond)    S(metal)    S(lipo)     H(rot)  DE(clash)    DE(int)     intcor
     11.49     -14.70       1.80        0.00      65.53       1.74       0.37       2.84       ----

> <Gold.Chemscore.Fitness>
11.4948

> <Gold.Chemscore.DG>
-14.7016

> <Gold.Chemscore.ZeroCoef>
-5.4800

> <Gold.Chemscore.Hbond>
1.8002

> <Gold.Chemscore.Metal>
0.0000

> <Gold.Chemscore.Lipo>
65.5291

> <Gold.Chemscore.Internal_Hbond>
0.0000

> <Gold.Chemscore.DEClash>
0.3668

> <Gold.Chemscore.DEInternal>
2.8400

> <Gold.Chemscore.Rot>
1.7414

> <Gold.Chemscore.Internal.Correction>
   9.000000E+99

> <Gold.Chemscore.Hbonds>
donor molecule, donor type, donor heavy atom, donor atom, acceptor molecule, acceptor atom, score
      L1  H    10    32       P1  7948  0.47
      P1  H  7989  7998       L1    22  0.43

> <Gold.Chemscore.Hbond.Weighted>
-6.0127

> <Gold.Chemscore.Metal.Weighted>
-0.0000

> <Gold.Chemscore.Lipo.Weighted>
-7.6669

> <Gold.Chemscore.Internal_Hbond.Weighted>
0.0000

> <Gold.Chemscore.DEClash.Weighted>
0.3668

> <Gold.Chemscore.DEInternal.Weighted>
2.8400

> <Gold.Chemscore.Rot.Weighted>
4.4580

> <Gold.Chemscore.Internal.Correction.Weighted>
   9.000000E+99

> <Gold.Protein.RotatedTorsions>
[ 6907 6896 6895 6894 ] final -115.16 input  -60.11 | X-H torsion
[ 7974 7965 7964 7962 ] final   28.12 input  175.53 | X-H torsion
[ 8008 7997 7996 7995 ] final  169.16 input   59.86 | X-H torsion
[ 10167 10162 10161 10158 ] final  -60.41 input  -65.29 | X-H torsion
[ 10718 10713 10712 10709 ] final -147.33 input   66.30 | X-H torsion
[ 10763 10752 10751 10750 ] final -139.90 input  -60.55 | X-H torsion
[ 11005 11000 10999 10996 ] final   62.07 input  -57.11 | X-H torsion

> <Gold.Protein.ActiveResidues>
 VAL166  LYS551  ARG553  GLY616  TRP617  ASP618  TYR619  PRO620  LYS621  CYS622 
 ASP623  PHE694  ASN695  SER759  ASP760  ASP761  ALA762  ILE779  LEU786  VAL792 
 PHE793  MET794  SER795  GLU796  ALA797  LYS798  CYS799  TRP800  GLU811  SER814 

> <Gold.Protein.RotatedAtoms>
  150.7957  133.8697  159.3255 H   0  0  0  0  0  0  0  0  0  0  0  0  # atno 6907 bound_to 6896
  151.6523  135.0998  160.0172 H   0  0  0  0  0  0  0  0  0  0  0  0  # atno 6908 bound_to 6896
  152.4038  133.6819  159.6374 H   0  0  0  0  0  0  0  0  0  0  0  0  # atno 6909 bound_to 6896
  146.1747  139.7099  142.8943 H   0  0  0  0  0  0  0  0  0  0  0  0  # atno 7974 bound_to 7965
  156.1482  140.1571  156.8812 H   0  0  0  0  0  0  0  0  0  0  0  0  # atno 8008 bound_to 7997
  154.5047  140.0816  156.7908 H   0  0  0  0  0  0  0  0  0  0  0  0  # atno 8009 bound_to 7997
  155.3947  140.3411  155.4255 H   0  0  0  0  0  0  0  0  0  0  0  0  # atno 8010 bound_to 7997
  140.6073  143.2377  151.5791 H   0  0  0  0  0  0  0  0  0  0  0  0  # atno 10167 bound_to 10162
  156.4061  130.7958  151.2172 H   0  0  0  0  0  0  0  0  0  0  0  0  # atno 10718 bound_to 10713
  154.8595  135.3569  154.5621 H   0  0  0  0  0  0  0  0  0  0  0  0  # atno 10763 bound_to 10752
  153.6236  135.7005  153.5306 H   0  0  0  0  0  0  0  0  0  0  0  0  # atno 10764 bound_to 10752
  153.3108  135.4179  155.1294 H   0  0  0  0  0  0  0  0  0  0  0  0  # atno 10765 bound_to 10752
  140.0117  134.6286  155.9770 H   0  0  0  0  0  0  0  0  0  0  0  0  # atno 11005 bound_to 11000
  145.4245  141.0409  143.2945 LP  0  0  0  0  0  0  0  0  0  0  0  0  # atno 17320 bound_to 7965
  144.8217  139.5780  143.6984 LP  0  0  0  0  0  0  0  0  0  0  0  0  # atno 17321 bound_to 7965
  139.5334  144.2849  152.1199 LP  0  0  0  0  0  0  0  0  0  0  0  0  # atno 17342 bound_to 10162
  140.2041  144.4628  150.6417 LP  0  0  0  0  0  0  0  0  0  0  0  0  # atno 17343 bound_to 10162
  157.7505  131.0272  150.3994 LP  0  0  0  0  0  0  0  0  0  0  0  0  # atno 17370 bound_to 10713
  156.4283  130.3967  149.6777 LP  0  0  0  0  0  0  0  0  0  0  0  0  # atno 17371 bound_to 10713
  141.1715  133.6537  156.4671 LP  0  0  0  0  0  0  0  0  0  0  0  0  # atno 17394 bound_to 11000
  140.4542  134.6900  157.5054 LP  0  0  0  0  0  0  0  0  0  0  0  0  # atno 17395 bound_to 11000

$$$$
