AV-unprocessed.smi:2375|AV-procd|sdf|9443|dock3
  -GOLD-   2272013 73D 1   1.00000     0.00000
 Structure written by MMmdl.
 37 38  0  0  0  0  0  0  0  0  1 V2000
  144.7147  144.8772  153.3088 C   0  0  0  0  0  0  0  0  0  0  0  0
  145.2950  143.6396  153.9038 C   0  0  0  0  0  0  0  0  0  0  0  0
  145.1242  143.1605  155.1788 C   0  0  0  0  0  0  0  0  0  0  0  0
  145.7915  141.9587  155.4240 N   0  0  0  0  0  0  0  0  0  0  0  0
  146.4607  141.5181  154.3548 C   0  0  0  0  0  0  0  0  0  0  0  0
  147.2292  140.2312  154.3239 C   0  0  1  0  0  0  0  0  0  0  0  0
  146.7955  139.3234  153.1648 C   0  0  0  0  0  0  0  0  0  0  0  0
  148.7586  140.4379  154.3869 C   0  0  0  0  0  0  0  0  0  0  0  0
  149.1378  141.5238  155.2853 N   0  0  0  0  0  0  0  0  0  0  0  0
  150.3621  141.7122  155.8037 C   0  0  0  0  0  0  0  0  0  0  0  0
  151.3379  141.0264  155.5049 O   0  0  0  0  0  0  0  0  0  0  0  0
  150.4439  142.7218  156.6887 N   0  0  0  0  0  0  0  0  0  0  0  0
  151.6268  143.1769  157.4224 C   0  0  0  0  0  0  0  0  0  0  0  0
  152.0242  142.1883  158.5451 C   0  0  0  0  0  0  0  0  0  0  0  0
  152.3270  143.0835  159.7166 C   0  0  0  0  0  0  0  0  0  0  0  0
  152.0020  144.3534  159.4830 C   0  0  0  0  0  0  0  0  0  0  0  0
  151.4185  144.5503  158.1115 C   0  0  0  0  0  0  0  0  0  0  0  0
  146.3231  142.5895  152.9651 S   0  0  0  0  0  0  0  0  0  0  0  0
  144.1947  145.4688  154.0626 H   0  0  0  0  0  0  0  0  0  0  0  0
  144.0000  144.6280  152.5243 H   0  0  0  0  0  0  0  0  0  0  0  0
  145.4951  145.4999  152.8716 H   0  0  0  0  0  0  0  0  0  0  0  0
  144.5402  143.6043  155.9714 H   0  0  0  0  0  0  0  0  0  0  0  0
  146.9562  139.7006  155.2370 H   0  0  0  0  0  0  0  0  0  0  0  0
  145.7261  139.1154  153.2088 H   0  0  0  0  0  0  0  0  0  0  0  0
  147.3201  138.3683  153.1985 H   0  0  0  0  0  0  0  0  0  0  0  0
  147.0068  139.7849  152.1998 H   0  0  0  0  0  0  0  0  0  0  0  0
  149.2624  139.5122  154.6698 H   0  0  0  0  0  0  0  0  0  0  0  0
  149.1311  140.6996  153.3961 H   0  0  0  0  0  0  0  0  0  0  0  0
  148.3996  142.1456  155.5814 H   0  0  0  0  0  0  0  0  0  0  0  0
  149.6061  143.2685  156.8260 H   0  0  0  0  0  0  0  0  0  0  0  0
  152.4741  143.2528  156.7382 H   0  0  0  0  0  0  0  0  0  0  0  0
  151.2117  141.5116  158.8135 H   0  0  0  0  0  0  0  0  0  0  0  0
  152.8958  141.5927  158.2715 H   0  0  0  0  0  0  0  0  0  0  0  0
  152.7398  142.7054  160.6402 H   0  0  0  0  0  0  0  0  0  0  0  0
  152.1084  145.1663  160.1864 H   0  0  0  0  0  0  0  0  0  0  0  0
  151.9256  145.3548  157.5783 H   0  0  0  0  0  0  0  0  0  0  0  0
  150.3640  144.8091  158.2120 H   0  0  0  0  0  0  0  0  0  0  0  0
  1  2  1  0  0  0  0
  1 19  1  0  0  0  0
  1 20  1  0  0  0  0
  1 21  1  0  0  0  0
  2 18  1  0  0  0  0
  2  3  2  0  0  0  0
  3  4  1  0  0  0  0
  3 22  1  0  0  0  0
  4  5  2  0  0  0  0
  5  6  1  0  0  0  0
  5 18  1  0  0  0  0
  6  7  1  0  0  0  0
  6  8  1  0  0  0  0
  6 23  1  0  0  0  0
  7 24  1  0  0  0  0
  7 25  1  0  0  0  0
  7 26  1  0  0  0  0
  8  9  1  0  0  0  0
  8 27  1  0  0  0  0
  8 28  1  0  0  0  0
  9 10  1  0  0  0  0
  9 29  1  0  0  0  0
 10 11  2  0  0  0  0
 10 12  1  0  0  0  0
 12 13  1  0  0  0  0
 12 30  1  0  0  0  0
 13 17  1  0  0  0  0
 13 14  1  0  0  0  0
 13 31  1  0  0  0  0
 14 15  1  0  0  0  0
 14 32  1  0  0  0  0
 14 33  1  0  0  0  0
 15 16  2  0  0  0  0
 15 34  1  0  0  0  0
 16 17  1  0  0  0  0
 16 35  1  0  0  0  0
 17 36  1  0  0  0  0
 17 37  1  0  0  0  0
M  END
> <s_m_source_file>
AV-unprocessed.smi

> <i_m_source_file_index>
2375

> <i_lp_mmshare_version>
43012

> <i_f3d_flags>
0

> <s_epik_input>
W0NIM11jMVtjSF1uYyhzMSlbQ0BIXShbQ0gzXSlbQ0gyXVtOSF1DKD1PKVtOSF1bQ0hdMltDSDJdW0NIXT1bQ0hdW0NIMl0y

> <s_epik_cmdline>
J2VwaWtfcHl0aG9uJywgJy1waCcsICc3LjAnLCAnLXRuJywgJzgnLCAnLW1hJywgJzIwMCcsICctbWV0YWxfYmluZGluZycsICctaW1hZScsICc8aW5maWxlLm1hZT4nLCAnLW9tYWUnLCAnPG91dGZpbGUubWFlPic=

> <r_epik_Ionization_Penalty>
0.000644205

> <r_epik_Ionization_Penalty_Charging>
0

> <r_epik_Ionization_Penalty_Neutral>
0.000644205

> <r_epik_State_Penalty>
0.000370883

> <r_epik_Charging_Adjusted_Penalty>
0.000370883

> <i_epik_Tot_Q>
0

> <i_epik_Tot_abs_Q>
0

> <r_epik_Metal_State_Penalty>
-0

> <b_epik_Metal_Only>
0

> <s_lp_Force_Field>
OPLS_2005

> <r_lp_Energy>
15.8173

> <b_lp_Chiralities_Consistent>
1

> <s_lp_Variant>
AV-unprocessed.smi:2375-2

> <Gold.Version>
5.8.1

> <Gold.Id.Protein>
6NUR|6NUR_protein|mol2

> <Gold.PLP.Fitness>
42.0873

> <Gold.PLP.PLP>
-39.5381

> <Gold.PLP.part.hbond>
-2.4149

> <Gold.PLP.part.metal>
0.0000

> <Gold.PLP.part.buried>
-6.8948

> <Gold.PLP.part.nonpolar>
-30.1610

> <Gold.PLP.part.repulsive>
0.3883

> <Gold.PLP.ligand.clash>
0.0000

> <Gold.PLP.ligand.torsion>
0.6557

> <Gold.PLP.Chemscore.Hbond>
1.2423

> <Gold.PLP.Chemscore.CHOScore>
0.0000

> <Gold.PLP.Chemscore.Metal>
0.0000

> <Gold.Chemscore.Hbonds>
donor molecule, donor type, donor heavy atom, donor atom, acceptor molecule, acceptor atom, score
      L1  H    12    30       P1  8028  0.56
      P1  H  7989  7998       L1    11  0.61

> <Gold.PLP.Chemscore.Internal.Correction>
0.1337

> <Gold.Rescore>
     Score         DG    S(hbond)    S(metal)    S(lipo)     H(rot)  DE(clash)    DE(int)     intcor
     15.87     -18.90       1.14        0.00     115.16       1.50       2.48       0.56       ----

> <Gold.Chemscore.Fitness>
15.8659

> <Gold.Chemscore.DG>
-18.9016

> <Gold.Chemscore.ZeroCoef>
-5.4800

> <Gold.Chemscore.Hbond>
1.1351

> <Gold.Chemscore.Metal>
0.0000

> <Gold.Chemscore.Lipo>
115.1568

> <Gold.Chemscore.Internal_Hbond>
0.0000

> <Gold.Chemscore.DEClash>
2.4756

> <Gold.Chemscore.DEInternal>
0.5602

> <Gold.Chemscore.Rot>
1.5012

> <Gold.Chemscore.Internal.Correction>
   9.000000E+99

> <Gold.Chemscore.Hbonds>
donor molecule, donor type, donor heavy atom, donor atom, acceptor molecule, acceptor atom, score
      L1  H    12    30       P1  8028  0.54
      P1  H  7989  7998       L1    11  0.48

> <Gold.Chemscore.Hbond.Weighted>
-3.7912

> <Gold.Chemscore.Metal.Weighted>
-0.0000

> <Gold.Chemscore.Lipo.Weighted>
-13.4733

> <Gold.Chemscore.Internal_Hbond.Weighted>
0.0000

> <Gold.Chemscore.DEClash.Weighted>
2.4756

> <Gold.Chemscore.DEInternal.Weighted>
0.5602

> <Gold.Chemscore.Rot.Weighted>
3.8429

> <Gold.Chemscore.Internal.Correction.Weighted>
   9.000000E+99

> <Gold.Protein.RotatedTorsions>
[ 6907 6896 6895 6894 ] final    3.68 input  -60.11 | X-H torsion
[ 7974 7965 7964 7962 ] final   29.43 input  175.53 | X-H torsion
[ 8008 7997 7996 7995 ] final  -27.74 input   59.86 | X-H torsion
[ 10167 10162 10161 10158 ] final   97.38 input  -65.29 | X-H torsion
[ 10718 10713 10712 10709 ] final  -43.37 input   66.30 | X-H torsion
[ 10763 10752 10751 10750 ] final -114.58 input  -60.55 | X-H torsion
[ 11005 11000 10999 10996 ] final   25.90 input  -57.11 | X-H torsion

> <Gold.Protein.ActiveResidues>
 VAL166  LYS551  ARG553  GLY616  TRP617  ASP618  TYR619  PRO620  LYS621  CYS622 
 ASP623  PHE694  ASN695  SER759  ASP760  ASP761  ALA762  ILE779  LEU786  VAL792 
 PHE793  MET794  SER795  GLU796  ALA797  LYS798  CYS799  TRP800  GLU811  SER814 

> <Gold.Protein.RotatedAtoms>
  151.6291  135.1025  160.0117 H   0  0  0  0  0  0  0  0  0  0  0  0  # atno 6907 bound_to 6896
  152.4116  133.6968  159.6411 H   0  0  0  0  0  0  0  0  0  0  0  0  # atno 6908 bound_to 6896
  150.8006  133.8531  159.3251 H   0  0  0  0  0  0  0  0  0  0  0  0  # atno 6909 bound_to 6896
  146.1671  139.6922  142.8993 H   0  0  0  0  0  0  0  0  0  0  0  0  # atno 7974 bound_to 7965
  154.4364  140.1864  156.0979 H   0  0  0  0  0  0  0  0  0  0  0  0  # atno 8008 bound_to 7997
  156.0315  140.3330  155.7119 H   0  0  0  0  0  0  0  0  0  0  0  0  # atno 8009 bound_to 7997
  155.5832  140.0623  157.2768 H   0  0  0  0  0  0  0  0  0  0  0  0  # atno 8010 bound_to 7997
  139.7806  144.6889  151.0028 H   0  0  0  0  0  0  0  0  0  0  0  0  # atno 10167 bound_to 10162
  156.2497  130.4187  149.8663 H   0  0  0  0  0  0  0  0  0  0  0  0  # atno 10718 bound_to 10713
  154.8446  135.4413  154.1528 H   0  0  0  0  0  0  0  0  0  0  0  0  # atno 10763 bound_to 10752
  153.2684  135.6943  153.7512 H   0  0  0  0  0  0  0  0  0  0  0  0  # atno 10764 bound_to 10752
  153.6762  135.3410  155.3141 H   0  0  0  0  0  0  0  0  0  0  0  0  # atno 10765 bound_to 10752
  140.3429  134.2314  155.7688 H   0  0  0  0  0  0  0  0  0  0  0  0  # atno 11005 bound_to 11000
  145.4437  141.0424  143.2843 LP  0  0  0  0  0  0  0  0  0  0  0  0  # atno 17320 bound_to 7965
  144.8109  139.5964  143.7030 LP  0  0  0  0  0  0  0  0  0  0  0  0  # atno 17321 bound_to 7965
  140.7818  143.4487  151.0444 LP  0  0  0  0  0  0  0  0  0  0  0  0  # atno 17342 bound_to 10162
  139.8168  143.7875  152.3175 LP  0  0  0  0  0  0  0  0  0  0  0  0  # atno 17343 bound_to 10162
  156.6216  130.8629  151.3476 LP  0  0  0  0  0  0  0  0  0  0  0  0  # atno 17370 bound_to 10713
  157.7209  130.9558  150.1437 LP  0  0  0  0  0  0  0  0  0  0  0  0  # atno 17371 bound_to 10713
  141.2034  133.7914  157.0343 LP  0  0  0  0  0  0  0  0  0  0  0  0  # atno 17394 bound_to 11000
  140.0766  134.9672  157.1556 LP  0  0  0  0  0  0  0  0  0  0  0  0  # atno 17395 bound_to 11000

$$$$
