#       Name:                AV-unprocessed.smi:709
#       Creating user name   scv26
#       Creation time:       Fri Mar 27 00:44:44 2020


#       File generated by GOLD software.
#

@<TRIPOS>MOLECULE
AV-unprocessed.smi:709
    54    56     1
SMALL
NO_CHARGES


@<TRIPOS>ATOM
      1 ****        -5.8482   1.4220  -1.0154 C.3            1 S1                 0.0000
      2 ****        -4.3241   1.4246  -0.8825 C.3            1 S1                 0.0000
      3 ****        -3.8133   0.2155  -1.4183 O.3            1 S1                 0.0000
      4 ****        -2.4154   0.0719  -1.2206 C.3            1 S1                 0.0000
      5 ****        -1.8077  -1.0141  -2.1104 C.3            1 S1                 0.0000
      6 ****        -0.9231  -1.3936  -0.9182 C.3            1 S1                 0.0000
      7 ****         0.3383  -0.6501  -0.9420 N.am           1 S1                 0.0000
      8 ****         1.4296  -0.9752  -0.2362 C.2            1 S1                 0.0000
      9 ****         1.4831  -1.9529   0.5094 O.2            1 S1                 0.0000
     10 ****         2.4269  -0.1016  -0.4661 N.am           1 S1                 0.0000
     11 ****         3.7115  -0.0466   0.1022 C.2            1 S1                 0.0000
     12 ****         4.0801  -0.6924   1.2373 C.2            1 S1                 0.0000
     13 ****         5.4200  -0.5693   1.7590 C.2            1 S1                 0.0000
     14 ****         6.2916   0.2067   1.1000 C.2            1 S1                 0.0000
     15 ****         5.9290   0.8921  -0.0719 N.am           1 S1                 0.0000
     16 ****         6.9523   1.7175  -0.7188 C.3            1 S1                 0.0000
     17 ****         4.6759   0.8136  -0.6109 C.2            1 S1                 0.0000
     18 ****         4.3828   1.4326  -1.6370 O.2            1 S1                 0.0000
     19 ****        -1.9999  -0.7721   0.0145 C.3            1 S1                 0.0000
     20 ****        -3.0357  -1.7508   0.5753 C.3            1 S1                 0.0000
     21 ****        -3.7400  -1.0507   1.7369 C.3            1 S1                 0.0000
     22 ****        -2.7314  -0.0322   2.2717 C.3            1 S1                 0.0000
     23 ****        -1.5652  -0.0192   1.2759 C.3            1 S1                 0.0000
     24 ****        -6.2756   2.3418  -0.6159 H              1 S1                 0.0000
     25 ****        -6.2855   0.5853  -0.4701 H              1 S1                 0.0000
     26 ****        -6.1505   1.3379  -2.0595 H              1 S1                 0.0000
     27 ****        -3.9026   2.2751  -1.4199 H              1 S1                 0.0000
     28 ****        -4.0444   1.5301   0.1653 H              1 S1                 0.0000
     29 ****        -1.8615   1.0090  -1.3163 H              1 S1                 0.0000
     30 ****        -2.5194  -1.7982  -2.3745 H              1 S1                 0.0000
     31 ****        -1.2785  -0.6431  -2.9889 H              1 S1                 0.0000
     32 ****        -0.8040  -2.4727  -0.8064 H              1 S1                 0.0000
     33 ****         0.3773   0.1658  -1.5352 H              1 S1                 0.0000
     34 ****         2.2489   0.6067  -1.1634 H              1 S1                 0.0000
     35 ****         3.3885  -1.3013   1.7966 H              1 S1                 0.0000
     36 ****         5.7127  -1.0904   2.6586 H              1 S1                 0.0000
     37 ****         7.3114   0.3501   1.4263 H              1 S1                 0.0000
     38 ****         6.6382   2.7618  -0.7491 H              1 S1                 0.0000
     39 ****         7.1235   1.3838  -1.7432 H              1 S1                 0.0000
     40 ****         7.9119   1.6813  -0.2022 H              1 S1                 0.0000
     41 ****        -3.7505  -2.0903  -0.1750 H              1 S1                 0.0000
     42 ****        -2.5333  -2.6432   0.9510 H              1 S1                 0.0000
     43 ****        -4.6293  -0.5348   1.3739 H              1 S1                 0.0000
     44 ****        -4.0628  -1.7558   2.5033 H              1 S1                 0.0000
     45 ****        -3.1903   0.9535   2.3535 H              1 S1                 0.0000
     46 ****        -2.3813  -0.3094   3.2665 H              1 S1                 0.0000
     47 ****        -0.7113  -0.5180   1.7353 H              1 S1                 0.0000
     48 ****        -1.2489   1.0010   1.0568 H              1 S1                 0.0000
     49 ****        -4.0003   0.1974  -2.4005 LP             1 S1                 0.0000
     50 ****        -4.2787  -0.5513  -0.9763 LP             1 S1                 0.0000
     51 ****         0.6865  -2.5490   0.6103 LP             1 S1                 0.0000
     52 ****         2.3232  -2.1513   1.0143 LP             1 S1                 0.0000
     53 ****         3.4605   1.3623  -2.0171 LP             1 S1                 0.0000
     54 ****         5.0675   2.0046  -2.0887 LP             1 S1                 0.0000
@<TRIPOS>BOND
    1    1    2 1     
    2    1   24 1     
    3    1   25 1     
    4    1   26 1     
    5    2    3 1     
    6    2   27 1     
    7    2   28 1     
    8    3    4 1     
    9    4   19 1     
   10    4    5 1     
   11    4   29 1     
   12    5    6 1     
   13    5   30 1     
   14    5   31 1     
   15    6    7 1     
   16    6   19 1     
   17    6   32 1     
   18    7    8 am    
   19    7   33 1     
   20    8    9 2     
   21    8   10 am    
   22   10   11 1     
   23   10   34 1     
   24   11   17 1     
   25   11   12 2     
   26   12   13 1     
   27   12   35 1     
   28   13   14 2     
   29   13   36 1     
   30   14   15 1     
   31   14   37 1     
   32   15   16 1     
   33   15   17 am    
   34   16   38 1     
   35   16   39 1     
   36   16   40 1     
   37   17   18 2     
   38   19   23 1     
   39   19   20 1     
   40   20   21 1     
   41   20   41 1     
   42   20   42 1     
   43   21   22 1     
   44   21   43 1     
   45   21   44 1     
   46   22   23 1     
   47   22   45 1     
   48   22   46 1     
   49   23   47 1     
   50   23   48 1     
   51    3   49 1     
   52    3   50 1     
   53    9   51 1     
   54    9   52 1     
   55   18   53 1     
   56   18   54 1     
@<TRIPOS>SUBSTRUCTURE
      1 S1             1
@<TRIPOS>SET
LONE_PAIRS      STATIC     ATOMS    <user>   **** ""
6 49 50 51 52 53 54
DONOR_HYDROGENS      STATIC     ATOMS    <user>   **** ""
2 33 34
ATOM$BLUE        STATIC     ATOMS    COLORGROUP SYSTEM
6 49 50 51 52 53 54
ATOM$RED        STATIC     ATOMS    COLORGROUP SYSTEM
2 33 34
