#       Name:                AV-unprocessed.smi:2096
#       Creating user name   scv26
#       Creation time:       Fri Mar 27 11:28:58 2020


#       File generated by GOLD software.
#

@<TRIPOS>MOLECULE
AV-unprocessed.smi:2096
    41    42     1
SMALL
NO_CHARGES


@<TRIPOS>ATOM
      1 ****        -2.5681   3.8785  -1.7905 C.3            1 S1                 0.0000
      2 ****        -2.5047   3.3029  -0.4633 N.am           1 S1                 0.0000
      3 ****        -2.9159   4.0782   0.6483 C.2            1 S1                 0.0000
      4 ****        -3.3357   5.2304   0.5373 O.2            1 S1                 0.0000
      5 ****        -2.8018   3.3971   1.9326 C.2            1 S1                 0.0000
      6 ****        -2.3401   2.1297   2.0086 C.2            1 S1                 0.0000
      7 ****        -1.9480   1.3937   0.9054 N.am           1 S1                 0.0000
      8 ****        -1.4469   0.0249   1.0827 C.3            1 S1                 0.0000
      9 ****         0.0855  -0.0520   1.0983 C.2            1 S1                 0.0000
     10 ****         0.7591   0.8998   1.4957 O.2            1 S1                 0.0000
     11 ****         0.6231  -1.2067   0.6817 N.am           1 S1                 0.0000
     12 ****         2.0530  -1.4750   0.6242 C.3            1 S1                 0.0000
     13 ****         2.3160  -2.8272  -0.0270 C.3            1 S1                 0.0000
     14 ****         3.7586  -3.2466  -0.3458 C.3            1 S1                 0.0000
     15 ****         3.2297  -3.9514  -1.5979 C.3            1 S1                 0.0000
     16 ****         2.0092  -3.0307  -1.5190 C.3            1 S1                 0.0000
     17 ****        -2.0226   1.9786  -0.3768 C.2            1 S1                 0.0000
     18 ****        -1.6764   1.3473  -1.3788 O.2            1 S1                 0.0000
     19 ****        -2.9386   4.9026  -1.7635 H              1 S1                 0.0000
     20 ****        -3.2432   3.2558  -2.3804 H              1 S1                 0.0000
     21 ****        -1.5554   3.8638  -2.1976 H              1 S1                 0.0000
     22 ****        -3.0904   3.9150   2.8354 H              1 S1                 0.0000
     23 ****        -2.2711   1.6710   2.9843 H              1 S1                 0.0000
     24 ****        -1.8171  -0.3874   2.0222 H              1 S1                 0.0000
     25 ****        -1.8444  -0.6245   0.3001 H              1 S1                 0.0000
     26 ****         0.0034  -1.9422   0.3746 H              1 S1                 0.0000
     27 ****         2.5493  -0.6802   0.0648 H              1 S1                 0.0000
     28 ****         2.4618  -1.4542   1.6353 H              1 S1                 0.0000
     29 ****         1.8406  -3.6298   0.5413 H              1 S1                 0.0000
     30 ****         4.4046  -2.3992  -0.5820 H              1 S1                 0.0000
     31 ****         4.2153  -3.9065   0.3925 H              1 S1                 0.0000
     32 ****         3.8434  -3.8221  -2.4898 H              1 S1                 0.0000
     33 ****         2.9825  -4.9994  -1.4218 H              1 S1                 0.0000
     34 ****         1.0556  -3.5169  -1.7265 H              1 S1                 0.0000
     35 ****         2.1314  -2.1185  -2.1056 H              1 S1                 0.0000
     36 ****        -3.3970   5.6554  -0.3658 LP             1 S1                 0.0000
     37 ****        -3.6154   5.7412   1.3503 LP             1 S1                 0.0000
     38 ****         0.3078   1.7340   1.8127 LP             1 S1                 0.0000
     39 ****         1.7571   0.8383   1.5013 LP             1 S1                 0.0000
     40 ****        -1.7336   1.7725  -2.2821 LP             1 S1                 0.0000
     41 ****        -1.3388   0.4105  -1.2876 LP             1 S1                 0.0000
@<TRIPOS>BOND
    1    1    2 1     
    2    1   19 1     
    3    1   20 1     
    4    1   21 1     
    5    2   17 am    
    6    2    3 am    
    7    3    4 2     
    8    3    5 1     
    9    5    6 2     
   10    5   22 1     
   11    6    7 1     
   12    6   23 1     
   13    7    8 1     
   14    7   17 am    
   15    8    9 1     
   16    8   24 1     
   17    8   25 1     
   18    9   10 2     
   19    9   11 am    
   20   11   12 1     
   21   11   26 1     
   22   12   13 1     
   23   12   27 1     
   24   12   28 1     
   25   13   16 1     
   26   13   14 1     
   27   13   29 1     
   28   14   15 1     
   29   14   30 1     
   30   14   31 1     
   31   15   16 1     
   32   15   32 1     
   33   15   33 1     
   34   16   34 1     
   35   16   35 1     
   36   17   18 2     
   37    4   36 1     
   38    4   37 1     
   39   10   38 1     
   40   10   39 1     
   41   18   40 1     
   42   18   41 1     
@<TRIPOS>SUBSTRUCTURE
      1 S1             1
@<TRIPOS>SET
LONE_PAIRS      STATIC     ATOMS    <user>   **** ""
6 36 37 38 39 40 41
DONOR_HYDROGENS      STATIC     ATOMS    <user>   **** ""
1 26
ATOM$BLUE        STATIC     ATOMS    COLORGROUP SYSTEM
6 36 37 38 39 40 41
ATOM$RED        STATIC     ATOMS    COLORGROUP SYSTEM
1 26
