#       Name:                AV-unprocessed.smi:1293
#       Creating user name   scv26
#       Creation time:       Fri Mar 27 04:55:54 2020


#       File generated by GOLD software.
#

@<TRIPOS>MOLECULE
AV-unprocessed.smi:1293
    45    46     1
SMALL
NO_CHARGES


@<TRIPOS>ATOM
      1 ****        -3.9534  -2.1859  -1.6056 C.3            1 S1                 0.0000
      2 ****        -2.5459  -2.2448  -1.4571 O.3            1 S1                 0.0000
      3 ****        -2.0662  -3.5741  -1.3363 C.3            1 S1                 0.0000
      4 ****        -0.5389  -3.5538  -1.1620 C.3            1 S1                 0.0000
      5 ****        -0.1436  -2.9565   0.1220 N.am           1 S1                 0.0000
      6 ****         0.1796  -1.5852   0.1159 C.2            1 S1                 0.0000
      7 ****         0.5520  -0.9226   1.2332 C.2            1 S1                 0.0000
      8 ****         0.8723   0.4417   1.3062 N.am           1 S1                 0.0000
      9 ****         0.9766   1.3556   0.3201 C.2            1 S1                 0.0000
     10 ****         0.8249   1.1258  -0.8797 O.2            1 S1                 0.0000
     11 ****         1.3204   2.7831   0.7800 C.3            1 S1                 0.0000
     12 ****         0.2622   3.8012   0.3134 C.3            1 S1                 0.0000
     13 ****         0.8360   4.4370  -0.9517 C.3            1 S1                 0.0000
     14 ****         2.3340   4.5164  -0.6714 C.3            1 S1                 0.0000
     15 ****         2.6565   3.2811   0.1799 C.3            1 S1                 0.0000
     16 ****         0.6035  -1.6897   2.4594 C.2            1 S1                 0.0000
     17 ****         0.2878  -2.9990   2.4783 C.2            1 S1                 0.0000
     18 ****        -0.1194  -3.7073   1.2629 C.2            1 S1                 0.0000
     19 ****        -0.4218  -4.9009   1.2720 O.2            1 S1                 0.0000
     20 ****        -4.2686  -1.1463  -1.6965 H              1 S1                 0.0000
     21 ****        -4.4592  -2.6168  -0.7404 H              1 S1                 0.0000
     22 ****        -4.2779  -2.7158  -2.5019 H              1 S1                 0.0000
     23 ****        -2.5434  -4.0789  -0.4947 H              1 S1                 0.0000
     24 ****        -2.3217  -4.1348  -2.2365 H              1 S1                 0.0000
     25 ****        -0.1494  -4.5704  -1.2382 H              1 S1                 0.0000
     26 ****        -0.0807  -3.0174  -1.9944 H              1 S1                 0.0000
     27 ****         0.0819  -1.1326  -0.8577 H              1 S1                 0.0000
     28 ****         1.0501   0.7816   2.2401 H              1 S1                 0.0000
     29 ****         1.3754   2.8013   1.8701 H              1 S1                 0.0000
     30 ****        -0.7195   3.3590   0.1360 H              1 S1                 0.0000
     31 ****         0.1328   4.5661   1.0801 H              1 S1                 0.0000
     32 ****         0.6528   3.7893  -1.8101 H              1 S1                 0.0000
     33 ****         0.3968   5.4109  -1.1690 H              1 S1                 0.0000
     34 ****         2.9269   4.5608  -1.5853 H              1 S1                 0.0000
     35 ****         2.5471   5.4189  -0.0971 H              1 S1                 0.0000
     36 ****         3.3710   3.5320   0.9647 H              1 S1                 0.0000
     37 ****         3.1334   2.5202  -0.4407 H              1 S1                 0.0000
     38 ****         0.8991  -1.2078   3.3801 H              1 S1                 0.0000
     39 ****         0.3358  -3.5416   3.4110 H              1 S1                 0.0000
     40 ****        -2.2887  -1.7355  -0.6358 LP             1 S1                 0.0000
     41 ****        -2.1212  -1.8224  -2.2579 LP             1 S1                 0.0000
     42 ****         0.6060   0.1999  -1.1877 LP             1 S1                 0.0000
     43 ****         0.9206   1.8650  -1.5464 LP             1 S1                 0.0000
     44 ****        -0.6973  -5.3534   0.4239 LP             1 S1                 0.0000
     45 ****        -0.3919  -5.4178   2.1276 LP             1 S1                 0.0000
@<TRIPOS>BOND
    1    1    2 1     
    2    1   20 1     
    3    1   21 1     
    4    1   22 1     
    5    2    3 1     
    6    3    4 1     
    7    3   23 1     
    8    3   24 1     
    9    4    5 1     
   10    4   25 1     
   11    4   26 1     
   12    5   18 am    
   13    5    6 1     
   14    6    7 2     
   15    6   27 1     
   16    7    8 1     
   17    7   16 1     
   18    8    9 am    
   19    8   28 1     
   20    9   10 2     
   21    9   11 1     
   22   11   15 1     
   23   11   12 1     
   24   11   29 1     
   25   12   13 1     
   26   12   30 1     
   27   12   31 1     
   28   13   14 1     
   29   13   32 1     
   30   13   33 1     
   31   14   15 1     
   32   14   34 1     
   33   14   35 1     
   34   15   36 1     
   35   15   37 1     
   36   16   17 2     
   37   16   38 1     
   38   17   18 1     
   39   17   39 1     
   40   18   19 2     
   41    2   40 1     
   42    2   41 1     
   43   10   42 1     
   44   10   43 1     
   45   19   44 1     
   46   19   45 1     
@<TRIPOS>SUBSTRUCTURE
      1 S1             1
@<TRIPOS>SET
LONE_PAIRS      STATIC     ATOMS    <user>   **** ""
6 40 41 42 43 44 45
DONOR_HYDROGENS      STATIC     ATOMS    <user>   **** ""
1 28
ATOM$BLUE        STATIC     ATOMS    COLORGROUP SYSTEM
6 40 41 42 43 44 45
ATOM$RED        STATIC     ATOMS    COLORGROUP SYSTEM
1 28
