#       Name:                AV-unprocessed.smi:853
#       Creating user name   scv26
#       Creation time:       Fri Mar 27 01:42:34 2020


#       File generated by GOLD software.
#

@<TRIPOS>MOLECULE
AV-unprocessed.smi:853
    55    57     1
SMALL
NO_CHARGES


@<TRIPOS>ATOM
      1 ****        -5.9911  -4.7163  -0.1383 C.3            1 S1                 0.0000
      2 ****        -5.6604  -4.0565  -1.4789 C.2            1 S1                 0.0000
      3 ****        -5.7703  -4.7359  -2.4999 O.2            1 S1                 0.0000
      4 ****        -5.2591  -2.7626  -1.5000 N.am           1 S1                 0.0000
      5 ****        -5.0390  -1.9215  -0.3167 C.3            1 S1                 0.0000
      6 ****        -3.5293  -1.6666  -0.1601 C.3            1 S1                 0.0000
      7 ****        -2.9314  -1.0366  -1.4398 C.3            1 S1                 0.0000
      8 ****        -1.4756  -0.9702  -1.3544 N.am           1 S1                 0.0000
      9 ****        -0.7845  -0.0389  -0.6819 C.2            1 S1                 0.0000
     10 ****        -1.3144   0.8730  -0.0477 O.2            1 S1                 0.0000
     11 ****         0.5395  -0.2496  -0.7794 N.am           1 S1                 0.0000
     12 ****         1.5983   0.5019  -0.2017 C.ar           1 S1                 0.0000
     13 ****         1.4821   1.8545   0.2058 C.ar           1 S1                 0.0000
     14 ****         2.6001   2.5121   0.7584 C.ar           1 S1                 0.0000
     15 ****         3.8246   1.8159   0.8867 C.ar           1 S1                 0.0000
     16 ****         4.9890   2.3750   1.4323 N.3            1 S1                 0.0000
     17 ****         5.4276   3.6301   0.8430 C.3            1 S1                 0.0000
     18 ****         6.3994   4.2436   1.8549 C.3            1 S1                 0.0000
     19 ****         6.0699   3.5590   3.1866 C.3            1 S1                 0.0000
     20 ****         4.9176   2.6045   2.8649 C.3            1 S1                 0.0000
     21 ****         3.8946   0.5307   0.4766 N.pl3          1 S1                 1.0000
     22 ****         2.8483  -0.1354  -0.0578 C.ar           1 S1                 0.0000
     23 ****        -3.3410  -1.8303  -2.6985 C.3            1 S1                 0.0000
     24 ****        -4.8599  -2.0753  -2.7340 C.3            1 S1                 0.0000
     25 ****        -5.1260  -4.6992   0.5252 H              1 S1                 0.0000
     26 ****        -6.2789  -5.7581  -0.2832 H              1 S1                 0.0000
     27 ****        -6.8234  -4.2073   0.3484 H              1 S1                 0.0000
     28 ****        -5.5631  -0.9740  -0.4499 H              1 S1                 0.0000
     29 ****        -5.4391  -2.3457   0.6029 H              1 S1                 0.0000
     30 ****        -3.3528  -1.0179   0.6984 H              1 S1                 0.0000
     31 ****        -3.0275  -2.6106   0.0582 H              1 S1                 0.0000
     32 ****        -3.3276  -0.0243  -1.5439 H              1 S1                 0.0000
     33 ****        -0.9600  -1.6859  -1.8453 H              1 S1                 0.0000
     34 ****         0.8191  -1.0848  -1.2729 H              1 S1                 0.0000
     35 ****         0.5621   2.4073   0.0972 H              1 S1                 0.0000
     36 ****         2.5080   3.5391   1.0797 H              1 S1                 0.0000
     37 ****         5.9099   3.4607  -0.1203 H              1 S1                 0.0000
     38 ****         4.5861   4.3041   0.6814 H              1 S1                 0.0000
     39 ****         7.4306   4.0293   1.5717 H              1 S1                 0.0000
     40 ****         6.2891   5.3271   1.9086 H              1 S1                 0.0000
     41 ****         6.9373   3.0002   3.5404 H              1 S1                 0.0000
     42 ****         5.7953   4.2724   3.9642 H              1 S1                 0.0000
     43 ****         3.9630   3.0628   3.1282 H              1 S1                 0.0000
     44 ****         5.0061   1.6687   3.4177 H              1 S1                 0.0000
     45 ****         3.0424  -1.1588  -0.3455 H              1 S1                 0.0000
     46 ****        -3.0293  -1.2967  -3.5970 H              1 S1                 0.0000
     47 ****        -2.8250  -2.7918  -2.7155 H              1 S1                 0.0000
     48 ****        -5.1239  -2.6329  -3.6336 H              1 S1                 0.0000
     49 ****        -5.3915  -1.1254  -2.8073 H              1 S1                 0.0000
     50 ****         4.7832   0.0388   0.5745 H              1 S1                 0.0000
     51 ****        -6.0679  -5.6885  -2.4370 LP             1 S1                 0.0000
     52 ****        -5.5619  -4.3351  -3.3921 LP             1 S1                 0.0000
     53 ****        -2.3112   0.9464  -0.0159 LP             1 S1                 0.0000
     54 ****        -0.7482   1.5405   0.4357 LP             1 S1                 0.0000
     55 ****         5.6528   1.6603   1.2119 LP             1 S1                 0.0000
@<TRIPOS>BOND
    1    1    2 1     
    2    1   25 1     
    3    1   26 1     
    4    1   27 1     
    5    2    3 2     
    6    2    4 am    
    7    4   24 1     
    8    4    5 1     
    9    5    6 1     
   10    5   28 1     
   11    5   29 1     
   12    6    7 1     
   13    6   30 1     
   14    6   31 1     
   15    7    8 1     
   16    7   23 1     
   17    7   32 1     
   18    8    9 am    
   19    8   33 1     
   20    9   10 2     
   21    9   11 am    
   22   11   12 1     
   23   11   34 1     
   24   12   22 ar    
   25   12   13 ar    
   26   13   14 ar    
   27   13   35 1     
   28   14   15 ar    
   29   14   36 1     
   30   15   16 1     
   31   15   21 ar    
   32   16   20 1     
   33   16   17 1     
   34   17   18 1     
   35   17   37 1     
   36   17   38 1     
   37   18   19 1     
   38   18   39 1     
   39   18   40 1     
   40   19   20 1     
   41   19   41 1     
   42   19   42 1     
   43   20   43 1     
   44   20   44 1     
   45   21   22 ar    
   46   21   50 1     
   47   22   45 1     
   48   23   24 1     
   49   23   46 1     
   50   23   47 1     
   51   24   48 1     
   52   24   49 1     
   53    3   51 1     
   54    3   52 1     
   55   10   53 1     
   56   10   54 1     
   57   16   55 1     
@<TRIPOS>SUBSTRUCTURE
      1 S1             1
@<TRIPOS>SET
LONE_PAIRS      STATIC     ATOMS    <user>   **** ""
5 51 52 53 54 55
DONOR_HYDROGENS      STATIC     ATOMS    <user>   **** ""
3 33 34 50
ATOM$BLUE        STATIC     ATOMS    COLORGROUP SYSTEM
5 51 52 53 54 55
ATOM$RED        STATIC     ATOMS    COLORGROUP SYSTEM
3 33 34 50
