AV-unprocessed.smi:1622|AV-procd|sdf|6500|dock7
  -GOLD-   22720 7163D 1   1.00000     0.00000
 Structure written by MMmdl.
 40 41  0  0  0  0  0  0  0  0  3 V2000
  150.3328  132.9303  155.1211 C   0  0  0  0  0  0  0  0  0  0  0  0
  149.6078  133.3696  153.8393 C   0  0  0  0  0  0  0  0  0  0  0  0
  148.2273  134.0426  154.0719 C   0  0  1  0  0  0  0  0  0  0  0  0
  148.3357  135.3342  154.9199 C   0  0  0  0  0  0  0  0  0  0  0  0
  148.5695  135.0413  156.3288 N   0  0  0  0  0  0  0  0  0  0  0  0
  148.7180  135.9544  157.2970 C   0  0  0  0  0  0  0  0  0  0  0  0
  148.6487  137.1551  157.0249 O   0  0  0  0  0  0  0  0  0  0  0  0
  148.9398  135.4178  158.5177 N   0  5  0  0  0  0  0  0  0  0  0  0
  148.1970  135.8062  159.5674 C   0  0  0  0  0  0  0  0  0  0  0  0
  148.3446  137.0055  160.1482 N   0  0  0  0  0  0  0  0  0  0  0  0
  147.4757  137.2058  161.2111 N   0  0  0  0  0  0  0  0  0  0  0  0
  146.6763  136.1556  161.4124 C   0  0  0  0  0  0  0  0  0  0  0  0
  145.6512  136.1203  162.4934 C   0  0  0  0  0  0  0  0  0  0  0  0
  146.9285  134.8226  160.2981 S   0  0  0  0  0  0  0  0  0  0  0  0
  147.5104  134.2935  152.7862 N   0  3  0  0  0  0  0  0  0  0  0  0
  147.3729  133.1185  151.8963 C   0  0  0  0  0  0  0  0  0  0  0  0
  146.2045  133.4185  150.9511 C   0  0  0  0  0  0  0  0  0  0  0  0
  145.4728  134.6140  151.5655 C   0  0  0  0  0  0  0  0  0  0  0  0
  146.1446  134.8438  152.9190 C   0  0  0  0  0  0  0  0  0  0  0  0
  151.3058  132.5008  154.8823 H   0  0  0  0  0  0  0  0  0  0  0  0
  149.7673  132.1708  155.6610 H   0  0  0  0  0  0  0  0  0  0  0  0
  150.5009  133.7696  155.7957 H   0  0  0  0  0  0  0  0  0  0  0  0
  150.2604  134.0332  153.2724 H   0  0  0  0  0  0  0  0  0  0  0  0
  149.4865  132.4980  153.1957 H   0  0  0  0  0  0  0  0  0  0  0  0
  147.6210  133.3349  154.6399 H   0  0  0  0  0  0  0  0  0  0  0  0
  149.1322  135.9712  154.5317 H   0  0  0  0  0  0  0  0  0  0  0  0
  147.4150  135.9150  154.8655 H   0  0  0  0  0  0  0  0  0  0  0  0
  148.6295  134.0695  156.5953 H   0  0  0  0  0  0  0  0  0  0  0  0
  144.8854  136.8732  162.3066 H   0  0  0  0  0  0  0  0  0  0  0  0
  146.1166  136.3226  163.4582 H   0  0  0  0  0  0  0  0  0  0  0  0
  145.1758  135.1403  162.5341 H   0  0  0  0  0  0  0  0  0  0  0  0
  148.2939  132.9189  151.3476 H   0  0  0  0  0  0  0  0  0  0  0  0
  147.1373  132.2349  152.4918 H   0  0  0  0  0  0  0  0  0  0  0  0
  146.5663  133.6708  149.9536 H   0  0  0  0  0  0  0  0  0  0  0  0
  145.5499  132.5518  150.8523 H   0  0  0  0  0  0  0  0  0  0  0  0
  145.6067  135.4910  150.9309 H   0  0  0  0  0  0  0  0  0  0  0  0
  144.4008  134.4406  151.6662 H   0  0  0  0  0  0  0  0  0  0  0  0
  145.6050  134.2974  153.6944 H   0  0  0  0  0  0  0  0  0  0  0  0
  146.1503  135.9002  153.1889 H   0  0  0  0  0  0  0  0  0  0  0  0
  148.0446  134.9805  152.2733 H   0  0  0  0  0  0  0  0  0  0  0  0
  1  2  1  0  0  0  0
  1 20  1  0  0  0  0
  1 21  1  0  0  0  0
  1 22  1  0  0  0  0
  2  3  1  0  0  0  0
  2 23  1  0  0  0  0
  2 24  1  0  0  0  0
  3  4  1  0  0  0  0
  3 15  1  0  0  0  0
  3 25  1  0  0  0  0
  4  5  1  0  0  0  0
  4 26  1  0  0  0  0
  4 27  1  0  0  0  0
  5  6  1  0  0  0  0
  5 28  1  0  0  0  0
  6  7  2  0  0  0  0
  6  8  1  0  0  0  0
  8  9  1  0  0  0  0
  9 14  1  0  0  0  0
  9 10  2  0  0  0  0
 10 11  1  0  0  0  0
 11 12  2  0  0  0  0
 12 13  1  0  0  0  0
 12 14  1  0  0  0  0
 13 29  1  0  0  0  0
 13 30  1  0  0  0  0
 13 31  1  0  0  0  0
 15 19  1  0  0  0  0
 15 16  1  0  0  0  0
 15 40  1  0  0  0  0
 16 17  1  0  0  0  0
 16 32  1  0  0  0  0
 16 33  1  0  0  0  0
 17 18  1  0  0  0  0
 17 34  1  0  0  0  0
 17 35  1  0  0  0  0
 18 19  1  0  0  0  0
 18 36  1  0  0  0  0
 18 37  1  0  0  0  0
 19 38  1  0  0  0  0
 19 39  1  0  0  0  0
M  CHG  1   8  -1
M  CHG  1  15   1
M  END
> <s_m_source_file>
AV-unprocessed.smi

> <i_m_source_file_index>
1622

> <i_lp_mmshare_version>
43012

> <i_f3d_flags>
0

> <s_epik_input>
W0NIMl0xW0NIMl1bQ0gyXVtDSDJdTjFbQ0BIXShbQ0gyXVtDSDNdKVtDSDJdW05IXUMoPU8pW05IXWMybm5jKHMyKVtDSDNd

> <s_epik_cmdline>
J2VwaWtfcHl0aG9uJywgJy1waCcsICc3LjAnLCAnLXRuJywgJzgnLCAnLW1hJywgJzIwMCcsICctbWV0YWxfYmluZGluZycsICctaW1hZScsICc8aW5maWxlLm1hZT4nLCAnLW9tYWUnLCAnPG91dGZpbGUubWFlPic=

> <r_lp_tautomer_probability>
1

> <r_epik_Ionization_Penalty>
4.34497

> <r_epik_Ionization_Penalty_Charging>
4.23453

> <r_epik_Ionization_Penalty_Neutral>
0.110433

> <r_epik_State_Penalty>
4.23293

> <r_epik_Charging_Adjusted_Penalty>
8.46746

> <i_epik_Tot_Q>
0

> <i_epik_Tot_abs_Q>
2

> <r_epik_Metal_State_Penalty>
0.701092

> <b_epik_Metal_Only>
1

> <s_lp_Force_Field>
OPLS_2005

> <r_lp_Energy>
26.9801

> <b_lp_Chiralities_Consistent>
1

> <s_lp_Variant>
AV-unprocessed.smi:1622-4

> <Gold.Version>
5.8.1

> <Gold.Id.Protein>
6NUR|6NUR_protein|mol2

> <Gold.PLP.Fitness>
42.3990

> <Gold.PLP.PLP>
-27.9041

> <Gold.PLP.part.hbond>
-4.9113

> <Gold.PLP.part.metal>
0.0000

> <Gold.PLP.part.buried>
-2.3107

> <Gold.PLP.part.nonpolar>
-20.5253

> <Gold.PLP.part.repulsive>
0.0183

> <Gold.PLP.ligand.clash>
0.0000

> <Gold.PLP.ligand.torsion>
1.3297

> <Gold.PLP.Chemscore.Hbond>
5.6661

> <Gold.PLP.Chemscore.CHOScore>
0.0000

> <Gold.PLP.Chemscore.Metal>
0.0000

> <Gold.Chemscore.Hbonds>
donor molecule, donor type, donor heavy atom, donor atom, acceptor molecule, acceptor atom, score
      L1  H    15    40       P1  7948  2.00
      P1  H  6896  6909       L1     8  0.74
      P1  H  6931  6943       L1    11  0.09
      P1  H  6934  6947       L1    11  0.82

> <Gold.PLP.Chemscore.Internal.Correction>
0.1559

> <Gold.Rescore>
     Score         DG    S(hbond)    S(metal)    S(lipo)     H(rot)  DE(clash)    DE(int)     intcor
     12.56     -14.27       2.05        0.00      54.58       1.73       0.03       1.68       ----

> <Gold.Chemscore.Fitness>
12.5590

> <Gold.Chemscore.DG>
-14.2650

> <Gold.Chemscore.ZeroCoef>
-5.4800

> <Gold.Chemscore.Hbond>
2.0481

> <Gold.Chemscore.Metal>
0.0000

> <Gold.Chemscore.Lipo>
54.5772

> <Gold.Chemscore.Internal_Hbond>
0.0000

> <Gold.Chemscore.DEClash>
0.0310

> <Gold.Chemscore.DEInternal>
1.6750

> <Gold.Chemscore.Rot>
1.7348

> <Gold.Chemscore.Internal.Correction>
   9.000000E+99

> <Gold.Chemscore.Hbonds>
donor molecule, donor type, donor heavy atom, donor atom, acceptor molecule, acceptor atom, score
      L1  H    15    40       P1  7948  0.67
      P1  H  6896  6909       L1     8  0.19
      P1  H  6934  6947       L1    11  0.14

> <Gold.Chemscore.Hbond.Weighted>
-6.8406

> <Gold.Chemscore.Metal.Weighted>
-0.0000

> <Gold.Chemscore.Lipo.Weighted>
-6.3855

> <Gold.Chemscore.Internal_Hbond.Weighted>
0.0000

> <Gold.Chemscore.DEClash.Weighted>
0.0310

> <Gold.Chemscore.DEInternal.Weighted>
1.6750

> <Gold.Chemscore.Rot.Weighted>
4.4411

> <Gold.Chemscore.Internal.Correction.Weighted>
   9.000000E+99

> <Gold.Protein.RotatedTorsions>
[ 6907 6896 6895 6894 ] final   23.19 input  -60.11 | X-H torsion
[ 7974 7965 7964 7962 ] final  -94.94 input  175.53 | X-H torsion
[ 8008 7997 7996 7995 ] final -161.93 input   59.86 | X-H torsion
[ 10167 10162 10161 10158 ] final  105.86 input  -65.29 | X-H torsion
[ 10718 10713 10712 10709 ] final  -43.45 input   66.30 | X-H torsion
[ 10763 10752 10751 10750 ] final   38.00 input  -60.55 | X-H torsion
[ 11005 11000 10999 10996 ] final -122.50 input  -57.11 | X-H torsion

> <Gold.Protein.ActiveResidues>
 VAL166  LYS551  ARG553  GLY616  TRP617  ASP618  TYR619  PRO620  LYS621  CYS622 
 ASP623  PHE694  ASN695  SER759  ASP760  ASP761  ALA762  ILE779  LEU786  VAL792 
 PHE793  MET794  SER795  GLU796  ALA797  LYS798  CYS799  TRP800  GLU811  SER814 

> <Gold.Protein.RotatedAtoms>
  151.9385  135.0224  160.0533 H   0  0  0  0  0  0  0  0  0  0  0  0  # atno 6907 bound_to 6896
  152.2056  133.4869  159.5091 H   0  0  0  0  0  0  0  0  0  0  0  0  # atno 6908 bound_to 6896
  150.6964  134.1450  159.4162 H   0  0  0  0  0  0  0  0  0  0  0  0  # atno 6909 bound_to 6896
  145.3666  140.9499  143.2470 H   0  0  0  0  0  0  0  0  0  0  0  0  # atno 7974 bound_to 7965
  155.7993  140.0889  157.1966 H   0  0  0  0  0  0  0  0  0  0  0  0  # atno 8008 bound_to 7997
  154.3982  140.1475  156.3315 H   0  0  0  0  0  0  0  0  0  0  0  0  # atno 8009 bound_to 7997
  155.8478  140.3436  155.5676 H   0  0  0  0  0  0  0  0  0  0  0  0  # atno 8010 bound_to 7997
  139.7057  144.7087  151.1110 H   0  0  0  0  0  0  0  0  0  0  0  0  # atno 10167 bound_to 10162
  156.2488  130.4186  149.8673 H   0  0  0  0  0  0  0  0  0  0  0  0  # atno 10718 bound_to 10713
  153.0017  135.6262  154.2234 H   0  0  0  0  0  0  0  0  0  0  0  0  # atno 10763 bound_to 10752
  154.1977  135.2805  155.3003 H   0  0  0  0  0  0  0  0  0  0  0  0  # atno 10764 bound_to 10752
  154.5709  135.5677  153.7153 H   0  0  0  0  0  0  0  0  0  0  0  0  # atno 10765 bound_to 10752
  140.9990  134.0430  157.3561 H   0  0  0  0  0  0  0  0  0  0  0  0  # atno 11005 bound_to 11000
  144.8607  139.5182  143.6813 LP  0  0  0  0  0  0  0  0  0  0  0  0  # atno 17320 bound_to 7965
  146.2904  139.7122  142.9165 LP  0  0  0  0  0  0  0  0  0  0  0  0  # atno 17321 bound_to 7965
  140.7721  143.5362  150.9366 LP  0  0  0  0  0  0  0  0  0  0  0  0  # atno 17342 bound_to 10162
  139.9045  143.6795  152.3126 LP  0  0  0  0  0  0  0  0  0  0  0  0  # atno 17343 bound_to 10162
  156.6229  130.8634  151.3479 LP  0  0  0  0  0  0  0  0  0  0  0  0  # atno 17370 bound_to 10713
  157.7206  130.9553  150.1424 LP  0  0  0  0  0  0  0  0  0  0  0  0  # atno 17371 bound_to 10713
  139.9029  135.0170  156.7353 LP  0  0  0  0  0  0  0  0  0  0  0  0  # atno 17394 bound_to 11000
  140.6919  133.9382  155.7971 LP  0  0  0  0  0  0  0  0  0  0  0  0  # atno 17395 bound_to 11000

$$$$
