AV-unprocessed.smi:2261|AV-procd|sdf|9136|dock9
  -GOLD-   2272012343D 1   1.00000     0.00000
 Structure written by MMmdl.
 41 42  0  0  0  0  0  0  0  0  1 V2000
  149.2476  141.7537  154.9102 C   0  0  0  0  0  0  0  0  0  0  0  0
  150.1485  140.8160  155.7284 C   0  0  0  0  0  0  0  0  0  0  0  0
  151.2785  141.5990  156.4187 C   0  0  0  0  0  0  0  0  0  0  0  0
  149.3502  139.9649  156.7236 C   0  0  0  0  0  0  0  0  0  0  0  0
  150.0819  138.6373  156.7105 C   0  0  1  0  0  0  0  0  0  0  0  0
  149.2099  137.5433  157.1322 N   0  0  0  0  0  0  0  0  0  0  0  0
  149.5304  136.5937  158.0237 C   0  0  0  0  0  0  0  0  0  0  0  0
  150.6148  136.5409  158.6030 O   0  0  0  0  0  0  0  0  0  0  0  0
  148.4600  135.5404  158.3083 C   0  0  0  0  0  0  0  0  0  0  0  0
  148.1088  135.5344  159.7847 C   0  0  0  0  0  0  0  0  0  0  0  0
  147.5026  134.4098  160.3824 C   0  0  0  0  0  0  0  0  0  0  0  0
  147.1943  134.4551  161.7554 C   0  0  0  0  0  0  0  0  0  0  0  0
  147.5067  135.6260  162.4747 C   0  0  0  0  0  0  0  0  0  0  0  0
  148.0877  136.7083  161.9138 N   0  0  0  0  0  0  0  0  0  0  0  0
  148.3794  136.6571  160.5962 C   0  0  0  0  0  0  0  0  0  0  0  0
  150.5559  138.5342  155.2439 C   0  0  0  0  0  0  0  0  0  0  0  0
  151.8986  137.7980  155.1124 C   0  0  0  0  0  0  0  0  0  0  0  0
  149.5102  137.9386  154.2779 C   0  0  0  0  0  0  0  0  0  0  0  0
  150.7609  139.8860  154.8363 O   0  0  0  0  0  0  0  0  0  0  0  0
  148.7395  142.4727  155.5534 H   0  0  0  0  0  0  0  0  0  0  0  0
  148.4847  141.1950  154.3672 H   0  0  0  0  0  0  0  0  0  0  0  0
  149.8262  142.3144  154.1756 H   0  0  0  0  0  0  0  0  0  0  0  0
  150.8797  142.3257  157.1270 H   0  0  0  0  0  0  0  0  0  0  0  0
  151.8812  142.1431  155.6906 H   0  0  0  0  0  0  0  0  0  0  0  0
  151.9481  140.9356  156.9664 H   0  0  0  0  0  0  0  0  0  0  0  0
  149.2939  140.4072  157.7190 H   0  0  0  0  0  0  0  0  0  0  0  0
  148.3269  139.8295  156.3693 H   0  0  0  0  0  0  0  0  0  0  0  0
  150.9408  138.7173  157.3799 H   0  0  0  0  0  0  0  0  0  0  0  0
  148.2940  137.5046  156.7093 H   0  0  0  0  0  0  0  0  0  0  0  0
  147.5678  135.7367  157.7117 H   0  0  0  0  0  0  0  0  0  0  0  0
  148.8267  134.5569  158.0112 H   0  0  0  0  0  0  0  0  0  0  0  0
  147.2749  133.5289  159.8002 H   0  0  0  0  0  0  0  0  0  0  0  0
  146.7290  133.6133  162.2461 H   0  0  0  0  0  0  0  0  0  0  0  0
  147.2840  135.6947  163.5292 H   0  0  0  0  0  0  0  0  0  0  0  0
  148.8411  137.5391  160.1769 H   0  0  0  0  0  0  0  0  0  0  0  0
  151.8068  136.7507  155.4002 H   0  0  0  0  0  0  0  0  0  0  0  0
  152.6621  138.2518  155.7450 H   0  0  0  0  0  0  0  0  0  0  0  0
  152.2639  137.8273  154.0856 H   0  0  0  0  0  0  0  0  0  0  0  0
  149.3234  136.8850  154.4877 H   0  0  0  0  0  0  0  0  0  0  0  0
  149.8515  138.0074  153.2447 H   0  0  0  0  0  0  0  0  0  0  0  0
  148.5578  138.4654  154.3406 H   0  0  0  0  0  0  0  0  0  0  0  0
  1  2  1  0  0  0  0
  1 20  1  0  0  0  0
  1 21  1  0  0  0  0
  1 22  1  0  0  0  0
  2 19  1  0  0  0  0
  2  3  1  0  0  0  0
  2  4  1  0  0  0  0
  3 23  1  0  0  0  0
  3 24  1  0  0  0  0
  3 25  1  0  0  0  0
  4  5  1  0  0  0  0
  4 26  1  0  0  0  0
  4 27  1  0  0  0  0
  5  6  1  0  0  0  0
  5 16  1  0  0  0  0
  5 28  1  0  0  0  0
  6  7  1  0  0  0  0
  6 29  1  0  0  0  0
  7  8  2  0  0  0  0
  7  9  1  0  0  0  0
  9 10  1  0  0  0  0
  9 30  1  0  0  0  0
  9 31  1  0  0  0  0
 10 15  1  0  0  0  0
 10 11  2  0  0  0  0
 11 12  1  0  0  0  0
 11 32  1  0  0  0  0
 12 13  2  0  0  0  0
 12 33  1  0  0  0  0
 13 14  1  0  0  0  0
 13 34  1  0  0  0  0
 14 15  2  0  0  0  0
 15 35  1  0  0  0  0
 16 17  1  0  0  0  0
 16 18  1  0  0  0  0
 16 19  1  0  0  0  0
 17 36  1  0  0  0  0
 17 37  1  0  0  0  0
 17 38  1  0  0  0  0
 18 39  1  0  0  0  0
 18 40  1  0  0  0  0
 18 41  1  0  0  0  0
M  END
> <s_m_source_file>
AV-unprocessed.smi

> <i_m_source_file_index>
2261

> <i_lp_mmshare_version>
43012

> <i_f3d_flags>
0

> <s_epik_input>
W0NIM11DMShbQ0gzXSlbQ0gyXVtDQEhdKEMoTzEpKFtDSDNdKVtDSDNdKVtOSF1DKD1PKVtDSDJdYzJbY0hdW2NIXVtjSF1uW2NIXTI=

> <s_epik_cmdline>
J2VwaWtfcHl0aG9uJywgJy1waCcsICc3LjAnLCAnLXRuJywgJzgnLCAnLW1hJywgJzIwMCcsICctbWV0YWxfYmluZGluZycsICctaW1hZScsICc8aW5maWxlLm1hZT4nLCAnLW9tYWUnLCAnPG91dGZpbGUubWFlPic=

> <r_epik_Ionization_Penalty>
0.00420617

> <r_epik_Ionization_Penalty_Charging>
0

> <r_epik_Ionization_Penalty_Neutral>
0.00420617

> <r_epik_State_Penalty>
0.0030219

> <r_epik_Charging_Adjusted_Penalty>
0.0030219

> <i_epik_Tot_Q>
0

> <i_epik_Tot_abs_Q>
0

> <r_epik_Metal_State_Penalty>
-0

> <b_epik_Metal_Only>
0

> <s_lp_Force_Field>
OPLS_2005

> <r_lp_Energy>
17.0757

> <b_lp_Chiralities_Consistent>
1

> <s_lp_Variant>
AV-unprocessed.smi:2261-1

> <Gold.Version>
5.8.1

> <Gold.Id.Protein>
6NUR|6NUR_protein|mol2

> <Gold.PLP.Fitness>
36.2255

> <Gold.PLP.PLP>
-30.1303

> <Gold.PLP.part.hbond>
-3.0000

> <Gold.PLP.part.metal>
0.0000

> <Gold.PLP.part.buried>
-2.2550

> <Gold.PLP.part.nonpolar>
-26.2215

> <Gold.PLP.part.repulsive>
0.0669

> <Gold.PLP.ligand.clash>
0.0000

> <Gold.PLP.ligand.torsion>
0.4088

> <Gold.PLP.Chemscore.Hbond>
2.3000

> <Gold.PLP.Chemscore.CHOScore>
0.0000

> <Gold.PLP.Chemscore.Metal>
0.0000

> <Gold.Chemscore.Hbonds>
donor molecule, donor type, donor heavy atom, donor atom, acceptor molecule, acceptor atom, score
      P1  H  6896  6909       L1     8  0.96
      P1  H  6931  6943       L1    14  0.30
      P1  H  7989  7998       L1    19  1.00

> <Gold.PLP.Chemscore.Internal.Correction>
0.0129

> <Gold.Rescore>
     Score         DG    S(hbond)    S(metal)    S(lipo)     H(rot)  DE(clash)    DE(int)     intcor
     16.12     -17.63       1.83        0.00      79.73       1.28       0.01       1.50       ----

> <Gold.Chemscore.Fitness>
16.1157

> <Gold.Chemscore.DG>
-17.6268

> <Gold.Chemscore.ZeroCoef>
-5.4800

> <Gold.Chemscore.Hbond>
1.8282

> <Gold.Chemscore.Metal>
0.0000

> <Gold.Chemscore.Lipo>
79.7272

> <Gold.Chemscore.Internal_Hbond>
0.0000

> <Gold.Chemscore.DEClash>
0.0073

> <Gold.Chemscore.DEInternal>
1.5037

> <Gold.Chemscore.Rot>
1.2842

> <Gold.Chemscore.Internal.Correction>
   9.000000E+99

> <Gold.Chemscore.Hbonds>
donor molecule, donor type, donor heavy atom, donor atom, acceptor molecule, acceptor atom, score
      P1  H  6896  6909       L1     8  0.89
      P1  H  7989  7998       L1    19  0.65

> <Gold.Chemscore.Hbond.Weighted>
-6.1062

> <Gold.Chemscore.Metal.Weighted>
-0.0000

> <Gold.Chemscore.Lipo.Weighted>
-9.3281

> <Gold.Chemscore.Internal_Hbond.Weighted>
0.0000

> <Gold.Chemscore.DEClash.Weighted>
0.0073

> <Gold.Chemscore.DEInternal.Weighted>
1.5037

> <Gold.Chemscore.Rot.Weighted>
3.2875

> <Gold.Chemscore.Internal.Correction.Weighted>
   9.000000E+99

> <Gold.Protein.RotatedTorsions>
[ 6907 6896 6895 6894 ] final   89.13 input  -60.11 | X-H torsion
[ 7974 7965 7964 7962 ] final    7.47 input  175.53 | X-H torsion
[ 8008 7997 7996 7995 ] final  -34.18 input   59.86 | X-H torsion
[ 10167 10162 10161 10158 ] final  102.80 input  -65.29 | X-H torsion
[ 10718 10713 10712 10709 ] final  -65.49 input   66.30 | X-H torsion
[ 10763 10752 10751 10750 ] final -108.19 input  -60.55 | X-H torsion
[ 11005 11000 10999 10996 ] final    4.14 input  -57.11 | X-H torsion

> <Gold.Protein.ActiveResidues>
 VAL166  LYS551  ARG553  GLY616  TRP617  ASP618  TYR619  PRO620  LYS621  CYS622 
 ASP623  PHE694  ASN695  SER759  ASP760  ASP761  ALA762  ILE779  LEU786  VAL792 
 PHE793  MET794  SER795  GLU796  ALA797  LYS798  CYS799  TRP800  GLU811  SER814 

> <Gold.Protein.RotatedAtoms>
  152.5433  134.2014  159.8713 H   0  0  0  0  0  0  0  0  0  0  0  0  # atno 6907 bound_to 6896
  151.2002  133.4608  159.2603 H   0  0  0  0  0  0  0  0  0  0  0  0  # atno 6908 bound_to 6896
  151.0997  134.9977  159.8498 H   0  0  0  0  0  0  0  0  0  0  0  0  # atno 6909 bound_to 6896
  146.2426  140.0079  142.8409 H   0  0  0  0  0  0  0  0  0  0  0  0  # atno 7974 bound_to 7965
  154.4128  140.1691  156.2007 H   0  0  0  0  0  0  0  0  0  0  0  0  # atno 8008 bound_to 7997
  155.9526  140.3400  155.6397 H   0  0  0  0  0  0  0  0  0  0  0  0  # atno 8009 bound_to 7997
  155.6850  140.0727  157.2461 H   0  0  0  0  0  0  0  0  0  0  0  0  # atno 8010 bound_to 7997
  139.7318  144.7034  151.0710 H   0  0  0  0  0  0  0  0  0  0  0  0  # atno 10167 bound_to 10162
  156.0666  130.4248  150.1572 H   0  0  0  0  0  0  0  0  0  0  0  0  # atno 10718 bound_to 10713
  154.8121  135.4647  154.0543 H   0  0  0  0  0  0  0  0  0  0  0  0  # atno 10763 bound_to 10752
  153.1966  135.6863  153.8291 H   0  0  0  0  0  0  0  0  0  0  0  0  # atno 10764 bound_to 10752
  153.7790  135.3259  155.3340 H   0  0  0  0  0  0  0  0  0  0  0  0  # atno 10765 bound_to 10752
  140.5852  133.9975  155.8065 H   0  0  0  0  0  0  0  0  0  0  0  0  # atno 11005 bound_to 11000
  145.1355  140.9542  143.4519 LP  0  0  0  0  0  0  0  0  0  0  0  0  # atno 17320 bound_to 7965
  145.0346  139.3311  143.6007 LP  0  0  0  0  0  0  0  0  0  0  0  0  # atno 17321 bound_to 7965
  140.7772  143.5034  150.9743 LP  0  0  0  0  0  0  0  0  0  0  0  0  # atno 17342 bound_to 10162
  139.8722  143.7178  152.3165 LP  0  0  0  0  0  0  0  0  0  0  0  0  # atno 17343 bound_to 10162
  156.9631  130.9811  151.3475 LP  0  0  0  0  0  0  0  0  0  0  0  0  # atno 17370 bound_to 10713
  157.5712  130.8312  149.8394 LP  0  0  0  0  0  0  0  0  0  0  0  0  # atno 17371 bound_to 10713
  141.0970  133.9827  157.3143 LP  0  0  0  0  0  0  0  0  0  0  0  0  # atno 17394 bound_to 11000
  139.9299  135.0200  156.8363 LP  0  0  0  0  0  0  0  0  0  0  0  0  # atno 17395 bound_to 11000

$$$$
