AV-unprocessed.smi:429|AV-procd|sdf|2545|dock8
  -GOLD-   2262022513D 1   1.00000     0.00000
 Structure written by MMmdl.
 43 44  0  0  0  0  0  0  0  0  1 V2000
  152.8915  144.4395  157.9270 C   0  0  0  0  0  0  0  0  0  0  0  0
  151.9088  143.5458  158.6913 C   0  0  0  0  0  0  0  0  0  0  0  0
  151.7312  142.1687  158.0356 C   0  0  0  0  0  0  0  0  0  0  0  0
  151.1885  142.2678  156.5982 C   0  0  0  0  0  0  0  0  0  0  0  0
  150.6480  140.9366  156.0667 C   0  0  0  0  0  0  0  0  0  0  0  0
  151.1752  140.3870  155.0991 O   0  0  0  0  0  0  0  0  0  0  0  0
  149.5829  140.4308  156.7074 N   0  0  0  0  0  0  0  0  0  0  0  0
  148.9160  139.1792  156.3615 C   0  0  0  0  0  0  0  0  0  0  0  0
  148.7278  138.2247  157.5321 C   0  0  0  0  0  0  0  0  0  0  0  0
  149.8181  137.7358  158.2815 C   0  0  0  0  0  0  0  0  0  0  0  0
  149.5723  136.8530  159.3502 C   0  0  0  0  0  0  0  0  0  0  0  0
  148.2398  136.4774  159.6445 C   0  0  0  0  0  0  0  0  0  0  0  0
  147.9684  135.5996  160.7170 N   0  0  0  0  0  0  0  0  0  0  0  0
  147.3036  134.3331  160.4141 C   0  0  0  0  0  0  0  0  0  0  0  0
  147.3472  133.3981  161.6343 C   0  0  0  0  0  0  0  0  0  0  0  0
  146.7844  134.0572  162.7635 O   0  0  0  0  0  0  0  0  0  0  0  0
  147.5157  135.2282  163.1103 C   0  0  0  0  0  0  0  0  0  0  0  0
  147.4824  136.2293  161.9426 C   0  0  0  0  0  0  0  0  0  0  0  0
  147.1963  136.9373  158.9103 N   0  0  0  0  0  0  0  0  0  0  0  0
  147.4374  137.7842  157.8877 C   0  0  0  0  0  0  0  0  0  0  0  0
  152.9995  145.4067  158.4180 H   0  0  0  0  0  0  0  0  0  0  0  0
  152.5485  144.6203  156.9079 H   0  0  0  0  0  0  0  0  0  0  0  0
  153.8796  143.9818  157.8722 H   0  0  0  0  0  0  0  0  0  0  0  0
  152.2612  143.4203  159.7156 H   0  0  0  0  0  0  0  0  0  0  0  0
  150.9429  144.0478  158.7558 H   0  0  0  0  0  0  0  0  0  0  0  0
  152.6904  141.6487  158.0329 H   0  0  0  0  0  0  0  0  0  0  0  0
  151.0539  141.5659  158.6425 H   0  0  0  0  0  0  0  0  0  0  0  0
  150.3957  143.0167  156.5594 H   0  0  0  0  0  0  0  0  0  0  0  0
  151.9759  142.6106  155.9260 H   0  0  0  0  0  0  0  0  0  0  0  0
  149.2102  140.9465  157.4915 H   0  0  0  0  0  0  0  0  0  0  0  0
  147.9510  139.3944  155.8991 H   0  0  0  0  0  0  0  0  0  0  0  0
  149.5147  138.6740  155.6034 H   0  0  0  0  0  0  0  0  0  0  0  0
  150.8311  138.0260  158.0449 H   0  0  0  0  0  0  0  0  0  0  0  0
  150.4052  136.4664  159.9181 H   0  0  0  0  0  0  0  0  0  0  0  0
  146.2684  134.5272  160.1299 H   0  0  0  0  0  0  0  0  0  0  0  0
  147.7888  133.8443  159.5684 H   0  0  0  0  0  0  0  0  0  0  0  0
  146.7778  132.4909  161.4324 H   0  0  0  0  0  0  0  0  0  0  0  0
  148.3710  133.0895  161.8518 H   0  0  0  0  0  0  0  0  0  0  0  0
  147.0697  135.6743  163.9993 H   0  0  0  0  0  0  0  0  0  0  0  0
  148.5431  134.9656  163.3677 H   0  0  0  0  0  0  0  0  0  0  0  0
  148.0734  137.1035  162.2112 H   0  0  0  0  0  0  0  0  0  0  0  0
  146.4613  136.5759  161.7779 H   0  0  0  0  0  0  0  0  0  0  0  0
  146.5707  138.1212  157.3384 H   0  0  0  0  0  0  0  0  0  0  0  0
  1  2  1  0  0  0  0
  1 21  1  0  0  0  0
  1 22  1  0  0  0  0
  1 23  1  0  0  0  0
  2  3  1  0  0  0  0
  2 24  1  0  0  0  0
  2 25  1  0  0  0  0
  3  4  1  0  0  0  0
  3 26  1  0  0  0  0
  3 27  1  0  0  0  0
  4  5  1  0  0  0  0
  4 28  1  0  0  0  0
  4 29  1  0  0  0  0
  5  6  2  0  0  0  0
  5  7  1  0  0  0  0
  7  8  1  0  0  0  0
  7 30  1  0  0  0  0
  8  9  1  0  0  0  0
  8 31  1  0  0  0  0
  8 32  1  0  0  0  0
  9 20  1  0  0  0  0
  9 10  2  0  0  0  0
 10 11  1  0  0  0  0
 10 33  1  0  0  0  0
 11 12  2  0  0  0  0
 11 34  1  0  0  0  0
 12 13  1  0  0  0  0
 12 19  1  0  0  0  0
 13 18  1  0  0  0  0
 13 14  1  0  0  0  0
 14 15  1  0  0  0  0
 14 35  1  0  0  0  0
 14 36  1  0  0  0  0
 15 16  1  0  0  0  0
 15 37  1  0  0  0  0
 15 38  1  0  0  0  0
 16 17  1  0  0  0  0
 17 18  1  0  0  0  0
 17 39  1  0  0  0  0
 17 40  1  0  0  0  0
 18 41  1  0  0  0  0
 18 42  1  0  0  0  0
 19 20  2  0  0  0  0
 20 43  1  0  0  0  0
M  END
> <s_m_source_file>
AV-unprocessed.smi

> <i_m_source_file_index>
429

> <i_lp_mmshare_version>
43012

> <i_f3d_flags>
0

> <s_epik_input>
W0NIM11bQ0gyXVtDSDJdW0NIMl1DKD1PKVtOSF1bQ0gyXWMxW2NIXVtjSF1jKG5bY0hdMSlOMltDSDJdW0NIMl1PW0NIMl1bQ0gyXTI=

> <s_epik_cmdline>
J2VwaWtfcHl0aG9uJywgJy1waCcsICc3LjAnLCAnLXRuJywgJzgnLCAnLW1hJywgJzIwMCcsICctbWV0YWxfYmluZGluZycsICctaW1hZScsICc8aW5maWxlLm1hZT4nLCAnLW9tYWUnLCAnPG91dGZpbGUubWFlPic=

> <r_lp_tautomer_probability>
1

> <r_epik_Ionization_Penalty>
0.00508978

> <r_epik_Ionization_Penalty_Charging>
0

> <r_epik_Ionization_Penalty_Neutral>
0.00508978

> <r_epik_State_Penalty>
0.0037045

> <r_epik_Charging_Adjusted_Penalty>
0.0037045

> <i_epik_Tot_Q>
0

> <i_epik_Tot_abs_Q>
0

> <r_epik_Metal_State_Penalty>
-0

> <b_epik_Metal_Only>
0

> <s_lp_Force_Field>
OPLS_2005

> <r_lp_Energy>
15.7693

> <b_lp_Chiralities_Consistent>
1

> <s_lp_Variant>
AV-unprocessed.smi:429-1

> <Gold.Version>
5.8.1

> <Gold.Id.Protein>
6NUR|6NUR_protein|mol2

> <Gold.PLP.Fitness>
39.6307

> <Gold.PLP.PLP>
-37.0427

> <Gold.PLP.part.hbond>
-1.3947

> <Gold.PLP.part.metal>
0.0000

> <Gold.PLP.part.buried>
-6.1903

> <Gold.PLP.part.nonpolar>
-29.6022

> <Gold.PLP.part.repulsive>
0.0581

> <Gold.PLP.ligand.clash>
0.0000

> <Gold.PLP.ligand.torsion>
0.3716

> <Gold.PLP.Chemscore.Hbond>
0.9920

> <Gold.PLP.Chemscore.CHOScore>
0.0000

> <Gold.PLP.Chemscore.Metal>
0.0000

> <Gold.Chemscore.Hbonds>
donor molecule, donor type, donor heavy atom, donor atom, acceptor molecule, acceptor atom, score
      P1  H  7989  7998       L1     6  1.00

> <Gold.PLP.Chemscore.Internal.Correction>
0.3552

> <Gold.Rescore>
     Score         DG    S(hbond)    S(metal)    S(lipo)     H(rot)  DE(clash)    DE(int)     intcor
     14.09     -14.57       0.96        0.00      88.88       1.77       0.02       0.46       ----

> <Gold.Chemscore.Fitness>
14.0852

> <Gold.Chemscore.DG>
-14.5651

> <Gold.Chemscore.ZeroCoef>
-5.4800

> <Gold.Chemscore.Hbond>
0.9621

> <Gold.Chemscore.Metal>
0.0000

> <Gold.Chemscore.Lipo>
88.8797

> <Gold.Chemscore.Internal_Hbond>
0.0000

> <Gold.Chemscore.DEClash>
0.0164

> <Gold.Chemscore.DEInternal>
0.4635

> <Gold.Chemscore.Rot>
1.7684

> <Gold.Chemscore.Internal.Correction>
   9.000000E+99

> <Gold.Chemscore.Hbonds>
donor molecule, donor type, donor heavy atom, donor atom, acceptor molecule, acceptor atom, score
      P1  H  7989  7998       L1     6  0.96

> <Gold.Chemscore.Hbond.Weighted>
-3.2133

> <Gold.Chemscore.Metal.Weighted>
-0.0000

> <Gold.Chemscore.Lipo.Weighted>
-10.3989

> <Gold.Chemscore.Internal_Hbond.Weighted>
0.0000

> <Gold.Chemscore.DEClash.Weighted>
0.0164

> <Gold.Chemscore.DEInternal.Weighted>
0.4635

> <Gold.Chemscore.Rot.Weighted>
4.5271

> <Gold.Chemscore.Internal.Correction.Weighted>
   9.000000E+99

> <Gold.Protein.RotatedTorsions>
[ 6907 6896 6895 6894 ] final -109.35 input  -60.11 | X-H torsion
[ 7974 7965 7964 7962 ] final   69.65 input  175.53 | X-H torsion
[ 8008 7997 7996 7995 ] final  135.80 input   59.86 | X-H torsion
[ 10167 10162 10161 10158 ] final  -20.39 input  -65.29 | X-H torsion
[ 10718 10713 10712 10709 ] final  101.07 input   66.30 | X-H torsion
[ 10763 10752 10751 10750 ] final  173.70 input  -60.55 | X-H torsion
[ 11005 11000 10999 10996 ] final  -52.29 input  -57.11 | X-H torsion

> <Gold.Protein.ActiveResidues>
 VAL166  LYS551  ARG553  GLY616  TRP617  ASP618  TYR619  PRO620  LYS621  CYS622 
 ASP623  PHE694  ASN695  SER759  ASP760  ASP761  ALA762  ILE779  LEU786  VAL792 
 PHE793  MET794  SER795  GLU796  ALA797  LYS798  CYS799  TRP800  GLU811  SER814 

> <Gold.Protein.RotatedAtoms>
  150.7556  133.9543  159.3495 H   0  0  0  0  0  0  0  0  0  0  0  0  # atno 6907 bound_to 6896
  151.7463  135.0841  160.0333 H   0  0  0  0  0  0  0  0  0  0  0  0  # atno 6908 bound_to 6896
  152.3496  133.6126  159.5971 H   0  0  0  0  0  0  0  0  0  0  0  0  # atno 6909 bound_to 6896
  145.7878  139.2919  143.1228 H   0  0  0  0  0  0  0  0  0  0  0  0  # atno 7974 bound_to 7965
  156.3003  140.2461  156.3640 H   0  0  0  0  0  0  0  0  0  0  0  0  # atno 8008 bound_to 7997
  154.8850  140.0411  157.1824 H   0  0  0  0  0  0  0  0  0  0  0  0  # atno 8009 bound_to 7997
  154.8656  140.2927  155.5516 H   0  0  0  0  0  0  0  0  0  0  0  0  # atno 8010 bound_to 7997
  140.7275  143.4727  151.0224 H   0  0  0  0  0  0  0  0  0  0  0  0  # atno 10167 bound_to 10162
  157.6838  131.0716  150.5197 H   0  0  0  0  0  0  0  0  0  0  0  0  # atno 10718 bound_to 10713
  154.4437  135.2763  155.1830 H   0  0  0  0  0  0  0  0  0  0  0  0  # atno 10763 bound_to 10752
  154.3686  135.6113  153.5731 H   0  0  0  0  0  0  0  0  0  0  0  0  # atno 10764 bound_to 10752
  152.9842  135.5852  154.4769 H   0  0  0  0  0  0  0  0  0  0  0  0  # atno 10765 bound_to 10752
  141.0917  133.6631  156.4003 H   0  0  0  0  0  0  0  0  0  0  0  0  # atno 11005 bound_to 11000
  146.0008  140.8521  143.0019 LP  0  0  0  0  0  0  0  0  0  0  0  0  # atno 17320 bound_to 7965
  144.6786  140.2350  143.7351 LP  0  0  0  0  0  0  0  0  0  0  0  0  # atno 17321 bound_to 7965
  139.8420  143.7551  152.3180 LP  0  0  0  0  0  0  0  0  0  0  0  0  # atno 17342 bound_to 10162
  139.7703  144.7479  151.0234 LP  0  0  0  0  0  0  0  0  0  0  0  0  # atno 17343 bound_to 10162
  156.5511  130.4232  149.6107 LP  0  0  0  0  0  0  0  0  0  0  0  0  # atno 17370 bound_to 10713
  156.2902  130.7120  151.1966 LP  0  0  0  0  0  0  0  0  0  0  0  0  # atno 17371 bound_to 10713
  140.5237  134.6279  157.5327 LP  0  0  0  0  0  0  0  0  0  0  0  0  # atno 17394 bound_to 11000
  139.9744  134.7240  155.9978 LP  0  0  0  0  0  0  0  0  0  0  0  0  # atno 17395 bound_to 11000

$$$$
