AV-unprocessed.smi:2881|AV-procd|sdf|11064|dock4
  -GOLD-   2272015533D 1   1.00000     0.00000
 Structure written by MMmdl.
 40 42  0  0  0  0  0  0  0  0  1 V2000
  147.5077  135.4771  162.4109 C   0  0  0  0  0  0  0  0  0  0  0  0
  147.7445  135.8797  160.9854 C   0  0  0  0  0  0  0  0  0  0  0  0
  148.2036  135.0686  159.9065 C   0  0  0  0  0  0  0  0  0  0  0  0
  148.2390  135.9179  158.8360 C   0  0  0  0  0  0  0  0  0  0  0  0
  148.6344  135.6938  157.4093 C   0  0  0  0  0  0  0  0  0  0  0  0
  148.2529  136.8609  156.4911 C   0  0  0  0  0  0  0  0  0  0  0  0
  147.0963  137.2822  156.4428 O   0  0  0  0  0  0  0  0  0  0  0  0
  149.2525  137.3664  155.7526 N   0  0  0  0  0  0  0  0  0  0  0  0
  149.1392  138.4685  154.7950 C   0  0  1  0  0  0  0  0  0  0  0  0
  148.6269  139.7707  155.4607 C   0  0  1  0  0  0  0  0  0  0  0  0
  149.4319  140.1069  156.7344 C   0  0  0  0  0  0  0  0  0  0  0  0
  150.8066  140.5020  156.1658 C   0  0  0  0  0  0  0  0  0  0  0  0
  150.5939  140.3950  154.6406 C   0  0  2  0  0  0  0  0  0  0  0  0
  149.1434  140.8436  154.5074 C   0  0  0  0  0  0  0  0  0  0  0  0
  150.4937  138.9240  154.1740 C   0  0  1  0  0  0  0  0  0  0  0  0
  151.7549  138.0727  154.4464 C   0  0  0  0  0  0  0  0  0  0  0  0
  151.5646  136.7470  153.9988 O   0  0  0  0  0  0  0  0  0  0  0  0
  147.8231  137.1436  159.3063 N   0  0  0  0  0  0  0  0  0  0  0  0
  147.5170  137.1316  160.6168 N   0  0  0  0  0  0  0  0  0  0  0  0
  147.7382  137.9826  158.7504 H   0  0  0  0  0  0  0  0  0  0  0  0
  147.8493  134.4581  162.5940 H   0  0  0  0  0  0  0  0  0  0  0  0
  146.4469  135.5210  162.6592 H   0  0  0  0  0  0  0  0  0  0  0  0
  148.0401  136.1335  163.0995 H   0  0  0  0  0  0  0  0  0  0  0  0
  148.4649  134.0207  159.9174 H   0  0  0  0  0  0  0  0  0  0  0  0
  148.1567  134.7888  157.0322 H   0  0  0  0  0  0  0  0  0  0  0  0
  149.7106  135.5262  157.3487 H   0  0  0  0  0  0  0  0  0  0  0  0
  150.1689  136.9557  155.8583 H   0  0  0  0  0  0  0  0  0  0  0  0
  148.4537  138.1981  153.9891 H   0  0  0  0  0  0  0  0  0  0  0  0
  147.5479  139.7823  155.6169 H   0  0  0  0  0  0  0  0  0  0  0  0
  148.9817  140.9540  157.2535 H   0  0  0  0  0  0  0  0  0  0  0  0
  149.4903  139.2882  157.4511 H   0  0  0  0  0  0  0  0  0  0  0  0
  151.0504  141.5270  156.4481 H   0  0  0  0  0  0  0  0  0  0  0  0
  151.6107  139.8653  156.5326 H   0  0  0  0  0  0  0  0  0  0  0  0
  151.3044  140.9847  154.0605 H   0  0  0  0  0  0  0  0  0  0  0  0
  148.7487  140.7496  153.4941 H   0  0  0  0  0  0  0  0  0  0  0  0
  148.9688  141.8609  154.8628 H   0  0  0  0  0  0  0  0  0  0  0  0
  150.3641  138.9528  153.0900 H   0  0  0  0  0  0  0  0  0  0  0  0
  152.6057  138.4874  153.9052 H   0  0  0  0  0  0  0  0  0  0  0  0
  152.0259  138.0607  155.5018 H   0  0  0  0  0  0  0  0  0  0  0  0
  151.2367  136.7713  153.1128 H   0  0  0  0  0  0  0  0  0  0  0  0
  1 21  1  0  0  0  0
  1 22  1  0  0  0  0
  1 23  1  0  0  0  0
  1  2  1  0  0  0  0
  2 19  2  0  0  0  0
  2  3  1  0  0  0  0
  3  4  2  0  0  0  0
  3 24  1  0  0  0  0
  4 18  1  0  0  0  0
  4  5  1  0  0  0  0
  5  6  1  0  0  0  0
  5 25  1  0  0  0  0
  5 26  1  0  0  0  0
  6  7  2  0  0  0  0
  6  8  1  0  0  0  0
  8  9  1  0  0  0  0
  8 27  1  0  0  0  0
  9 15  1  0  0  0  0
  9 10  1  0  0  0  0
  9 28  1  0  0  0  0
 10 14  1  0  0  0  0
 10 11  1  0  0  0  0
 10 29  1  0  0  0  0
 11 12  1  0  0  0  0
 11 30  1  0  0  0  0
 11 31  1  0  0  0  0
 12 13  1  0  0  0  0
 12 32  1  0  0  0  0
 12 33  1  0  0  0  0
 13 14  1  0  0  0  0
 13 15  1  0  0  0  0
 13 34  1  0  0  0  0
 14 35  1  0  0  0  0
 14 36  1  0  0  0  0
 15 16  1  0  0  0  0
 15 37  1  0  0  0  0
 16 17  1  0  0  0  0
 16 38  1  0  0  0  0
 16 39  1  0  0  0  0
 17 40  1  0  0  0  0
 18 19  1  0  0  0  0
 18 20  1  0  0  0  0
M  END
> <s_m_source_file>
AV-unprocessed.smi

> <i_m_source_file_index>
2881

> <i_lp_mmshare_version>
43012

> <i_f3d_flags>
0

> <s_epik_input>
W0NIM11jMVtjSF1jKG5bbkhdMSlbQ0gyXUMoPU8pW05IXVtDQEhdKFtDQEBIXTIzKVtDQEhdKFtDSDJdW09IXSlbQ0BASF0oW0NIMl0zKVtDSDJdW0NIMl0y

> <s_epik_cmdline>
J2VwaWtfcHl0aG9uJywgJy1waCcsICc3LjAnLCAnLXRuJywgJzgnLCAnLW1hJywgJzIwMCcsICctbWV0YWxfYmluZGluZycsICctaW1hZScsICc8aW5maWxlLm1hZT4nLCAnLW9tYWUnLCAnPG91dGZpbGUubWFlPic=

> <r_lp_tautomer_probability>
0.5

> <r_epik_Ionization_Penalty>
0.00013396

> <r_epik_Ionization_Penalty_Charging>
0

> <r_epik_Ionization_Penalty_Neutral>
0.00013396

> <r_epik_State_Penalty>
0.41068

> <r_epik_Charging_Adjusted_Penalty>
0.41068

> <i_epik_Tot_Q>
0

> <i_epik_Tot_abs_Q>
0

> <r_epik_Metal_State_Penalty>
0.41066

> <b_epik_Metal_Only>
0

> <s_lp_Force_Field>
OPLS_2005

> <r_lp_Energy>
49.8973

> <b_lp_Chiralities_Consistent>
1

> <s_lp_Variant>
AV-unprocessed.smi:2881-10

> <Gold.Version>
5.8.1

> <Gold.Id.Protein>
6NUR|6NUR_protein|mol2

> <Gold.PLP.Fitness>
39.5539

> <Gold.PLP.PLP>
-28.8081

> <Gold.PLP.part.hbond>
-4.0000

> <Gold.PLP.part.metal>
0.0000

> <Gold.PLP.part.buried>
-0.8568

> <Gold.PLP.part.nonpolar>
-24.6202

> <Gold.PLP.part.repulsive>
0.1853

> <Gold.PLP.ligand.clash>
0.0000

> <Gold.PLP.ligand.torsion>
0.1798

> <Gold.PLP.Chemscore.Hbond>
3.6968

> <Gold.PLP.Chemscore.CHOScore>
0.0000

> <Gold.PLP.Chemscore.Metal>
0.0000

> <Gold.Chemscore.Hbonds>
donor molecule, donor type, donor heavy atom, donor atom, acceptor molecule, acceptor atom, score
      L1  H    17    40       P1  7949  0.94
      P1  H  6931  6943       L1    19  0.29
      P1  H  6934  6947       L1    19  1.00
      P1  H 10752 10763       L1    17  1.00

> <Gold.PLP.Chemscore.Internal.Correction>
0.0149

> <Gold.Rescore>
     Score         DG    S(hbond)    S(metal)    S(lipo)     H(rot)  DE(clash)    DE(int)     intcor
     16.02     -16.87       2.52        0.00      75.24       2.28       0.73       0.13       ----

> <Gold.Chemscore.Fitness>
16.0177

> <Gold.Chemscore.DG>
-16.8708

> <Gold.Chemscore.ZeroCoef>
-5.4800

> <Gold.Chemscore.Hbond>
2.5188

> <Gold.Chemscore.Metal>
0.0000

> <Gold.Chemscore.Lipo>
75.2397

> <Gold.Chemscore.Internal_Hbond>
0.0000

> <Gold.Chemscore.DEClash>
0.7277

> <Gold.Chemscore.DEInternal>
0.1254

> <Gold.Chemscore.Rot>
2.2755

> <Gold.Chemscore.Internal.Correction>
   9.000000E+99

> <Gold.Chemscore.Hbonds>
donor molecule, donor type, donor heavy atom, donor atom, acceptor molecule, acceptor atom, score
      L1  H    17    40       P1  7949  0.56
      P1  H  6931  6943       L1    19  0.09
      P1  H  6934  6947       L1    19  0.24
      P1  H 10752 10763       L1    17  0.85

> <Gold.Chemscore.Hbond.Weighted>
-8.4129

> <Gold.Chemscore.Metal.Weighted>
-0.0000

> <Gold.Chemscore.Lipo.Weighted>
-8.8030

> <Gold.Chemscore.Internal_Hbond.Weighted>
0.0000

> <Gold.Chemscore.DEClash.Weighted>
0.7277

> <Gold.Chemscore.DEInternal.Weighted>
0.1254

> <Gold.Chemscore.Rot.Weighted>
5.8252

> <Gold.Chemscore.Internal.Correction.Weighted>
   9.000000E+99

> <Gold.Protein.RotatedTorsions>
[ 6907 6896 6895 6894 ] final  -98.65 input  -60.11 | X-H torsion
[ 7974 7965 7964 7962 ] final  156.01 input  175.53 | X-H torsion
[ 8008 7997 7996 7995 ] final  -34.62 input   59.86 | X-H torsion
[ 10167 10162 10161 10158 ] final  132.01 input  -65.29 | X-H torsion
[ 10718 10713 10712 10709 ] final  140.10 input   66.30 | X-H torsion
[ 10763 10752 10751 10750 ] final   49.57 input  -60.55 | X-H torsion
[ 11005 11000 10999 10996 ] final -100.89 input  -57.11 | X-H torsion

> <Gold.Protein.ActiveResidues>
 VAL166  LYS551  ARG553  GLY616  TRP617  ASP618  TYR619  PRO620  LYS621  CYS622 
 ASP623  PHE694  ASN695  SER759  ASP760  ASP761  ALA762  ILE779  LEU786  VAL792 
 PHE793  MET794  SER795  GLU796  ALA797  LYS798  CYS799  TRP800  GLU811  SER814 

> <Gold.Protein.RotatedAtoms>
  150.7054  134.1161  159.4017 H   0  0  0  0  0  0  0  0  0  0  0  0  # atno 6907 bound_to 6896
  151.9148  135.0321  160.0526 H   0  0  0  0  0  0  0  0  0  0  0  0  # atno 6908 bound_to 6896
  152.2306  133.5019  159.5250 H   0  0  0  0  0  0  0  0  0  0  0  0  # atno 6909 bound_to 6896
  144.7989  139.7146  143.6190 H   0  0  0  0  0  0  0  0  0  0  0  0  # atno 7974 bound_to 7965
  154.4116  140.1679  156.2079 H   0  0  0  0  0  0  0  0  0  0  0  0  # atno 8008 bound_to 7997
  155.9469  140.3404  155.6351 H   0  0  0  0  0  0  0  0  0  0  0  0  # atno 8009 bound_to 7997
  155.6919  140.0735  157.2435 H   0  0  0  0  0  0  0  0  0  0  0  0  # atno 8010 bound_to 7997
  139.5358  144.6681  151.4790 H   0  0  0  0  0  0  0  0  0  0  0  0  # atno 10167 bound_to 10162
  157.4070  131.1023  151.0493 H   0  0  0  0  0  0  0  0  0  0  0  0  # atno 10718 bound_to 10713
  152.9786  135.5907  154.4111 H   0  0  0  0  0  0  0  0  0  0  0  0  # atno 10763 bound_to 10752
  154.3746  135.2767  155.2248 H   0  0  0  0  0  0  0  0  0  0  0  0  # atno 10764 bound_to 10752
  154.4188  135.6064  153.6052 H   0  0  0  0  0  0  0  0  0  0  0  0  # atno 10765 bound_to 10752
  141.1253  133.8435  157.1161 H   0  0  0  0  0  0  0  0  0  0  0  0  # atno 11005 bound_to 11000
  146.2265  139.5733  142.9583 LP  0  0  0  0  0  0  0  0  0  0  0  0  # atno 17320 bound_to 7965
  145.5602  141.0405  143.2230 LP  0  0  0  0  0  0  0  0  0  0  0  0  # atno 17321 bound_to 7965
  140.6564  143.8591  150.6839 LP  0  0  0  0  0  0  0  0  0  0  0  0  # atno 17342 bound_to 10162
  140.1971  143.3989  152.1819 LP  0  0  0  0  0  0  0  0  0  0  0  0  # atno 17343 bound_to 10162
  157.1471  130.6168  149.5571 LP  0  0  0  0  0  0  0  0  0  0  0  0  # atno 17370 bound_to 10713
  155.9839  130.4861  150.6958 LP  0  0  0  0  0  0  0  0  0  0  0  0  # atno 17371 bound_to 10713
  140.0245  134.9930  157.0658 LP  0  0  0  0  0  0  0  0  0  0  0  0  # atno 17394 bound_to 11000
  140.4385  134.1706  155.7172 LP  0  0  0  0  0  0  0  0  0  0  0  0  # atno 17395 bound_to 11000

$$$$
