AV-unprocessed.smi:2695|AV-procd|sdf|10412|dock4
  -GOLD-   2272014453D 1   1.00000     0.00000
 Structure written by MMmdl.
 42 43  0  0  0  0  0  0  0  0  1 V2000
  149.7467  139.3467  157.7309 C   0  0  0  0  0  0  0  0  0  0  0  0
  150.4870  138.6923  156.5715 C   0  0  0  0  0  0  0  0  0  0  0  0
  151.6179  139.2659  156.0991 C   0  0  0  0  0  0  0  0  0  0  0  0
  152.3419  138.6817  154.9569 C   0  0  0  0  0  0  0  0  0  0  0  0
  153.3880  139.1661  154.5302 O   0  0  0  0  0  0  0  0  0  0  0  0
  151.7332  137.4867  154.3562 C   0  0  0  0  0  0  0  0  0  0  0  0
  150.6067  136.9835  154.8967 C   0  0  0  0  0  0  0  0  0  0  0  0
  150.0030  135.9057  154.3723 O   0  0  0  0  0  0  0  0  0  0  0  0
  149.9440  137.5078  156.0244 N   0  0  0  0  0  0  0  0  0  0  0  0
  148.7553  136.8513  156.5988 C   0  0  0  0  0  0  0  0  0  0  0  0
  149.0695  135.9955  157.8343 C   0  0  0  0  0  0  0  0  0  0  0  0
  150.1928  135.9993  158.3395 O   0  0  0  0  0  0  0  0  0  0  0  0
  148.0521  135.2571  158.3026 N   0  0  0  0  0  0  0  0  0  0  0  0
  148.0972  134.3667  159.4639 C   0  0  1  0  0  0  0  0  0  0  0  0
  147.2854  135.0019  160.6212 C   0  0  0  0  0  0  0  0  0  0  0  0
  147.6962  136.4407  160.9609 C   0  0  0  0  0  0  0  0  0  0  0  0
  147.0986  136.6949  162.3445 C   0  0  0  0  0  0  0  0  0  0  0  0
  147.0898  135.3322  163.0484 C   0  0  0  0  0  0  0  0  0  0  0  0
  147.4112  134.2843  161.9733 C   0  0  0  0  0  0  0  0  0  0  0  0
  147.5997  132.9634  159.0451 C   0  0  0  0  0  0  0  0  0  0  0  0
  148.2287  132.5698  157.9370 F   0  0  0  0  0  0  0  0  0  0  0  0
  147.8519  132.0639  159.9952 F   0  0  0  0  0  0  0  0  0  0  0  0
  146.2878  132.9828  158.8062 F   0  0  0  0  0  0  0  0  0  0  0  0
  150.0795  140.3752  157.8737 H   0  0  0  0  0  0  0  0  0  0  0  0
  149.9367  138.8055  158.6580 H   0  0  0  0  0  0  0  0  0  0  0  0
  148.6716  139.3863  157.5571 H   0  0  0  0  0  0  0  0  0  0  0  0
  152.0092  140.1723  156.5380 H   0  0  0  0  0  0  0  0  0  0  0  0
  152.1977  137.0421  153.4879 H   0  0  0  0  0  0  0  0  0  0  0  0
  148.0010  137.5929  156.8649 H   0  0  0  0  0  0  0  0  0  0  0  0
  148.2503  136.2286  155.8615 H   0  0  0  0  0  0  0  0  0  0  0  0
  147.1693  135.3135  157.8162 H   0  0  0  0  0  0  0  0  0  0  0  0
  149.1293  134.2651  159.8039 H   0  0  0  0  0  0  0  0  0  0  0  0
  146.2294  135.0173  160.3459 H   0  0  0  0  0  0  0  0  0  0  0  0
  148.7835  136.5159  161.0123 H   0  0  0  0  0  0  0  0  0  0  0  0
  147.3489  137.1660  160.2244 H   0  0  0  0  0  0  0  0  0  0  0  0
  147.6556  137.4485  162.9019 H   0  0  0  0  0  0  0  0  0  0  0  0
  146.0750  137.0562  162.2383 H   0  0  0  0  0  0  0  0  0  0  0  0
  147.8304  135.2970  163.8482 H   0  0  0  0  0  0  0  0  0  0  0  0
  146.1151  135.1454  163.5002 H   0  0  0  0  0  0  0  0  0  0  0  0
  146.7523  133.4186  162.0434 H   0  0  0  0  0  0  0  0  0  0  0  0
  148.4336  133.9301  162.1136 H   0  0  0  0  0  0  0  0  0  0  0  0
  149.4368  136.2065  153.6778 H   0  0  0  0  0  0  0  0  0  0  0  0
  1  2  1  0  0  0  0
  1 24  1  0  0  0  0
  1 25  1  0  0  0  0
  1 26  1  0  0  0  0
  2  9  1  0  0  0  0
  2  3  2  0  0  0  0
  3  4  1  0  0  0  0
  3 27  1  0  0  0  0
  4  5  2  0  0  0  0
  4  6  1  0  0  0  0
  6  7  2  0  0  0  0
  6 28  1  0  0  0  0
  7  8  1  0  0  0  0
  7  9  1  0  0  0  0
  8 42  1  0  0  0  0
  9 10  1  0  0  0  0
 10 11  1  0  0  0  0
 10 29  1  0  0  0  0
 10 30  1  0  0  0  0
 11 12  2  0  0  0  0
 11 13  1  0  0  0  0
 13 14  1  0  0  0  0
 13 31  1  0  0  0  0
 14 15  1  0  0  0  0
 14 20  1  0  0  0  0
 14 32  1  0  0  0  0
 15 19  1  0  0  0  0
 15 16  1  0  0  0  0
 15 33  1  0  0  0  0
 16 17  1  0  0  0  0
 16 34  1  0  0  0  0
 16 35  1  0  0  0  0
 17 18  1  0  0  0  0
 17 36  1  0  0  0  0
 17 37  1  0  0  0  0
 18 19  1  0  0  0  0
 18 38  1  0  0  0  0
 18 39  1  0  0  0  0
 19 40  1  0  0  0  0
 19 41  1  0  0  0  0
 20 21  1  0  0  0  0
 20 22  1  0  0  0  0
 20 23  1  0  0  0  0
M  END
> <s_m_source_file>
AV-unprocessed.smi

> <i_m_source_file_index>
2695

> <i_lp_mmshare_version>
43012

> <i_f3d_flags>
0

> <s_epik_input>
W0NIM11jMVtjSF1jKFtPSF0pW2NIXWMoPU8pbjFbQ0gyXUMoPU8pW05IXVtDQEBIXShDKEYpKEYpRilbQ0hdMltDSDJdW0NIMl1bQ0gyXVtDSDJdMg==

> <s_epik_cmdline>
J2VwaWtfcHl0aG9uJywgJy1waCcsICc3LjAnLCAnLXRuJywgJzgnLCAnLW1hJywgJzIwMCcsICctbWV0YWxfYmluZGluZycsICctaW1hZScsICc8aW5maWxlLm1hZT4nLCAnLW9tYWUnLCAnPG91dGZpbGUubWFlPic=

> <r_epik_Ionization_Penalty>
1.35977e-07

> <r_epik_Ionization_Penalty_Charging>
0

> <r_epik_Ionization_Penalty_Neutral>
1.35977e-07

> <r_epik_State_Penalty>
2.53185

> <r_epik_Charging_Adjusted_Penalty>
2.53185

> <i_epik_Tot_Q>
0

> <i_epik_Tot_abs_Q>
0

> <r_epik_Metal_State_Penalty>
2.53184

> <b_epik_Metal_Only>
0

> <s_lp_Force_Field>
OPLS_2005

> <r_lp_Energy>
25.7414

> <b_lp_Chiralities_Consistent>
1

> <s_lp_Variant>
AV-unprocessed.smi:2695-6

> <Gold.Version>
5.8.1

> <Gold.Id.Protein>
6NUR|6NUR_protein|mol2

> <Gold.PLP.Fitness>
44.4190

> <Gold.PLP.PLP>
-36.4088

> <Gold.PLP.part.hbond>
-4.6747

> <Gold.PLP.part.metal>
0.0000

> <Gold.PLP.part.buried>
-2.8730

> <Gold.PLP.part.nonpolar>
-28.9958

> <Gold.PLP.part.repulsive>
0.0865

> <Gold.PLP.ligand.clash>
0.0000

> <Gold.PLP.ligand.torsion>
0.6087

> <Gold.PLP.Chemscore.Hbond>
2.9680

> <Gold.PLP.Chemscore.CHOScore>
0.0000

> <Gold.PLP.Chemscore.Metal>
0.0000

> <Gold.Chemscore.Hbonds>
donor molecule, donor type, donor heavy atom, donor atom, acceptor molecule, acceptor atom, score
      L1  H     8    42       P1  7948  0.98
      P1  H  6896  6907       L1    12  0.93
      P1  H  7997  8009       L1     5  1.00

> <Gold.PLP.Chemscore.Internal.Correction>
0.3236

> <Gold.Rescore>
     Score         DG    S(hbond)    S(metal)    S(lipo)     H(rot)  DE(clash)    DE(int)     intcor
     14.29     -15.30       2.62        0.00      62.86       2.45       0.01       0.99       ----

> <Gold.Chemscore.Fitness>
14.2946

> <Gold.Chemscore.DG>
-15.3035

> <Gold.Chemscore.ZeroCoef>
-5.4800

> <Gold.Chemscore.Hbond>
2.6179

> <Gold.Chemscore.Metal>
0.0000

> <Gold.Chemscore.Lipo>
62.8624

> <Gold.Chemscore.Internal_Hbond>
0.0000

> <Gold.Chemscore.DEClash>
0.0149

> <Gold.Chemscore.DEInternal>
0.9940

> <Gold.Chemscore.Rot>
2.4512

> <Gold.Chemscore.Internal.Correction>
   9.000000E+99

> <Gold.Chemscore.Hbonds>
donor molecule, donor type, donor heavy atom, donor atom, acceptor molecule, acceptor atom, score
      L1  H     8    42       P1  7948  0.65
      P1  H  6896  6907       L1    12  0.89
      P1  H  7997  8009       L1     5  0.96

> <Gold.Chemscore.Hbond.Weighted>
-8.7437

> <Gold.Chemscore.Metal.Weighted>
-0.0000

> <Gold.Chemscore.Lipo.Weighted>
-7.3549

> <Gold.Chemscore.Internal_Hbond.Weighted>
0.0000

> <Gold.Chemscore.DEClash.Weighted>
0.0149

> <Gold.Chemscore.DEInternal.Weighted>
0.9940

> <Gold.Chemscore.Rot.Weighted>
6.2752

> <Gold.Chemscore.Internal.Correction.Weighted>
   9.000000E+99

> <Gold.Protein.RotatedTorsions>
[ 6907 6896 6895 6894 ] final  -46.88 input  -60.11 | X-H torsion
[ 7974 7965 7964 7962 ] final -142.08 input  175.53 | X-H torsion
[ 8008 7997 7996 7995 ] final -125.07 input   59.86 | X-H torsion
[ 10167 10162 10161 10158 ] final  -83.44 input  -65.29 | X-H torsion
[ 10718 10713 10712 10709 ] final -166.83 input   66.30 | X-H torsion
[ 10763 10752 10751 10750 ] final  -17.90 input  -60.55 | X-H torsion
[ 11005 11000 10999 10996 ] final  -95.05 input  -57.11 | X-H torsion

> <Gold.Protein.ActiveResidues>
 VAL166  LYS551  ARG553  GLY616  TRP617  ASP618  TYR619  PRO620  LYS621  CYS622 
 ASP623  PHE694  ASN695  SER759  ASP760  ASP761  ALA762  ILE779  LEU786  VAL792 
 PHE793  MET794  SER795  GLU796  ALA797  LYS798  CYS799  TRP800  GLU811  SER814 

> <Gold.Protein.RotatedAtoms>
  150.9066  134.8481  159.7396 H   0  0  0  0  0  0  0  0  0  0  0  0  # atno 6907 bound_to 6896
  152.4922  134.4422  159.9557 H   0  0  0  0  0  0  0  0  0  0  0  0  # atno 6908 bound_to 6896
  151.4468  133.3589  159.2825 H   0  0  0  0  0  0  0  0  0  0  0  0  # atno 6909 bound_to 6896
  144.8470  140.6001  143.5415 H   0  0  0  0  0  0  0  0  0  0  0  0  # atno 7974 bound_to 7965
  155.2073  140.0418  157.2927 H   0  0  0  0  0  0  0  0  0  0  0  0  # atno 8008 bound_to 7997
  154.6035  140.2458  155.7733 H   0  0  0  0  0  0  0  0  0  0  0  0  # atno 8009 bound_to 7997
  156.2336  140.2929  156.0261 H   0  0  0  0  0  0  0  0  0  0  0  0  # atno 8010 bound_to 7997
  140.4226  143.2578  151.8869 H   0  0  0  0  0  0  0  0  0  0  0  0  # atno 10167 bound_to 10162
  156.6736  130.9094  151.3047 H   0  0  0  0  0  0  0  0  0  0  0  0  # atno 10718 bound_to 10713
  153.5809  135.7005  153.5463 H   0  0  0  0  0  0  0  0  0  0  0  0  # atno 10763 bound_to 10752
  153.3261  135.4060  155.1457 H   0  0  0  0  0  0  0  0  0  0  0  0  # atno 10764 bound_to 10752
  154.8617  135.3707  154.5337 H   0  0  0  0  0  0  0  0  0  0  0  0  # atno 10765 bound_to 10752
  141.1453  133.7999  157.0382 H   0  0  0  0  0  0  0  0  0  0  0  0  # atno 11005 bound_to 11000
  145.4577  139.1516  143.3884 LP  0  0  0  0  0  0  0  0  0  0  0  0  # atno 17320 bound_to 7965
  146.2753  140.4705  142.8798 LP  0  0  0  0  0  0  0  0  0  0  0  0  # atno 17321 bound_to 7965
  139.4783  144.5421  151.8513 LP  0  0  0  0  0  0  0  0  0  0  0  0  # atno 17342 bound_to 10162
  140.4516  144.1847  150.5898 LP  0  0  0  0  0  0  0  0  0  0  0  0  # atno 17343 bound_to 10162
  157.7068  130.9394  150.0958 LP  0  0  0  0  0  0  0  0  0  0  0  0  # atno 17370 bound_to 10713
  156.1920  130.3655  149.8898 LP  0  0  0  0  0  0  0  0  0  0  0  0  # atno 17371 bound_to 10713
  140.0710  134.9702  157.1466 LP  0  0  0  0  0  0  0  0  0  0  0  0  # atno 17394 bound_to 11000
  140.3711  134.2389  155.7178 LP  0  0  0  0  0  0  0  0  0  0  0  0  # atno 17395 bound_to 11000

$$$$
