AV-unprocessed.smi:937|AV-procd|sdf|4215|dock2
  -GOLD-   22720 2123D 1   1.00000     0.00000
 Structure written by MMmdl.
 46 47  0  0  0  0  0  0  0  0  2 V2000
  143.8934  137.9136  154.7529 C   0  0  0  0  0  0  0  0  0  0  0  0
  145.3613  138.1669  154.4823 C   0  0  0  0  0  0  0  0  0  0  0  0
  146.3850  137.5525  155.2356 C   0  0  0  0  0  0  0  0  0  0  0  0
  147.7317  137.8355  154.9264 C   0  0  0  0  0  0  0  0  0  0  0  0
  148.0276  138.7256  153.8707 C   0  0  0  0  0  0  0  0  0  0  0  0
  149.4653  139.0500  153.5156 C   0  0  0  0  0  0  0  0  0  0  0  0
  150.4667  138.3088  154.4162 C   0  0  0  0  0  0  0  0  0  0  0  0
  150.5397  138.9140  155.7399 N   0  0  0  0  0  0  0  0  0  0  0  0
  151.4954  139.7674  156.1448 C   0  0  0  0  0  0  0  0  0  0  0  0
  152.4352  140.1163  155.4327 O   0  0  0  0  0  0  0  0  0  0  0  0
  151.3460  140.2284  157.3997 N   0  0  0  0  0  0  0  0  0  0  0  0
  152.2027  141.1612  158.1346 C   0  0  2  0  0  0  0  0  0  0  0  0
  152.7772  140.4961  159.4020 C   0  0  0  0  0  0  0  0  0  0  0  0
  153.6162  141.4895  160.2189 C   0  0  0  0  0  0  0  0  0  0  0  0
  152.8025  142.7422  160.5790 C   0  0  0  0  0  0  0  0  0  0  0  0
  152.2228  143.4263  159.3228 C   0  0  2  0  0  0  0  0  0  0  0  0
  151.4135  144.6914  159.6753 C   0  0  0  0  0  0  0  0  0  0  0  0
  152.1643  145.5628  160.3499 F   0  0  0  0  0  0  0  0  0  0  0  0
  150.9711  145.2753  158.5616 F   0  0  0  0  0  0  0  0  0  0  0  0
  150.3574  144.3649  160.4204 F   0  0  0  0  0  0  0  0  0  0  0  0
  151.3890  142.4156  158.5057 C   0  0  0  0  0  0  0  0  0  0  0  0
  146.9631  139.3114  153.1533 C   0  0  0  0  0  0  0  0  0  0  0  0
  145.6863  139.0147  153.4804 N   0  3  0  0  0  0  0  0  0  0  0  0
  143.7615  137.1770  155.5461 H   0  0  0  0  0  0  0  0  0  0  0  0
  143.3999  137.5389  153.8555 H   0  0  0  0  0  0  0  0  0  0  0  0
  143.3993  138.8360  155.0591 H   0  0  0  0  0  0  0  0  0  0  0  0
  146.1452  136.8727  156.0404 H   0  0  0  0  0  0  0  0  0  0  0  0
  148.5263  137.3739  155.4947 H   0  0  0  0  0  0  0  0  0  0  0  0
  149.6351  138.7953  152.4685 H   0  0  0  0  0  0  0  0  0  0  0  0
  149.6160  140.1274  153.5965 H   0  0  0  0  0  0  0  0  0  0  0  0
  150.1627  137.2686  154.5358 H   0  0  0  0  0  0  0  0  0  0  0  0
  151.4574  138.2934  153.9586 H   0  0  0  0  0  0  0  0  0  0  0  0
  149.8055  138.6799  156.3924 H   0  0  0  0  0  0  0  0  0  0  0  0
  150.5404  139.8883  157.9051 H   0  0  0  0  0  0  0  0  0  0  0  0
  153.0257  141.4790  157.4920 H   0  0  0  0  0  0  0  0  0  0  0  0
  151.9631  140.1158  160.0209 H   0  0  0  0  0  0  0  0  0  0  0  0
  153.3911  139.6342  159.1384 H   0  0  0  0  0  0  0  0  0  0  0  0
  153.9784  141.0087  161.1280 H   0  0  0  0  0  0  0  0  0  0  0  0
  154.5003  141.7779  159.6489 H   0  0  0  0  0  0  0  0  0  0  0  0
  151.9930  142.4652  161.2556 H   0  0  0  0  0  0  0  0  0  0  0  0
  153.4371  143.4389  161.1274 H   0  0  0  0  0  0  0  0  0  0  0  0
  153.0621  143.7412  158.7004 H   0  0  0  0  0  0  0  0  0  0  0  0
  151.0204  142.8909  157.5959 H   0  0  0  0  0  0  0  0  0  0  0  0
  150.5067  142.1239  159.0778 H   0  0  0  0  0  0  0  0  0  0  0  0
  147.0923  140.0037  152.3341 H   0  0  0  0  0  0  0  0  0  0  0  0
  144.9335  139.4498  152.9468 H   0  0  0  0  0  0  0  0  0  0  0  0
  1  2  1  0  0  0  0
  1 24  1  0  0  0  0
  1 25  1  0  0  0  0
  1 26  1  0  0  0  0
  2 23  1  0  0  0  0
  2  3  2  0  0  0  0
  3  4  1  0  0  0  0
  3 27  1  0  0  0  0
  4  5  2  0  0  0  0
  4 28  1  0  0  0  0
  5  6  1  0  0  0  0
  5 22  1  0  0  0  0
  6  7  1  0  0  0  0
  6 29  1  0  0  0  0
  6 30  1  0  0  0  0
  7  8  1  0  0  0  0
  7 31  1  0  0  0  0
  7 32  1  0  0  0  0
  8  9  1  0  0  0  0
  8 33  1  0  0  0  0
  9 10  2  0  0  0  0
  9 11  1  0  0  0  0
 11 12  1  0  0  0  0
 11 34  1  0  0  0  0
 12 21  1  0  0  0  0
 12 13  1  0  0  0  0
 12 35  1  0  0  0  0
 13 14  1  0  0  0  0
 13 36  1  0  0  0  0
 13 37  1  0  0  0  0
 14 15  1  0  0  0  0
 14 38  1  0  0  0  0
 14 39  1  0  0  0  0
 15 16  1  0  0  0  0
 15 40  1  0  0  0  0
 15 41  1  0  0  0  0
 16 17  1  0  0  0  0
 16 21  1  0  0  0  0
 16 42  1  0  0  0  0
 17 18  1  0  0  0  0
 17 19  1  0  0  0  0
 17 20  1  0  0  0  0
 21 43  1  0  0  0  0
 21 44  1  0  0  0  0
 22 23  2  0  0  0  0
 22 45  1  0  0  0  0
 23 46  1  0  0  0  0
M  CHG  1  23   1
M  END
> <s_m_source_file>
AV-unprocessed.smi

> <i_m_source_file_index>
937

> <i_lp_mmshare_version>
43012

> <i_f3d_flags>
0

> <s_epik_input>
W0NIM11jMVtjSF1bY0hdYyhbY0hdbjEpW0NIMl1bQ0gyXVtOSF1DKD1PKVtOSF1bQ0BASF0yW0NIMl1bQ0gyXVtDSDJdW0NAQEhdKEMoRikoRilGKVtDSDJdMg==

> <s_epik_cmdline>
J2VwaWtfcHl0aG9uJywgJy1waCcsICc3LjAnLCAnLXRuJywgJzgnLCAnLW1hJywgJzIwMCcsICctbWV0YWxfYmluZGluZycsICctaW1hZScsICc8aW5maWxlLm1hZT4nLCAnLW9tYWUnLCAnPG91dGZpbGUubWFlPic=

> <r_epik_Ionization_Penalty>
1.4226

> <r_epik_Ionization_Penalty_Charging>
1.42255

> <r_epik_Ionization_Penalty_Neutral>
5.16456e-05

> <r_epik_State_Penalty>
1.50646

> <r_epik_Charging_Adjusted_Penalty>
2.92901

> <i_epik_Tot_Q>
1

> <i_epik_Tot_abs_Q>
1

> <r_epik_Metal_State_Penalty>
1.55846

> <b_epik_Metal_Only>
0

> <s_lp_Force_Field>
OPLS_2005

> <r_lp_Energy>
23.9189

> <b_lp_Chiralities_Consistent>
1

> <s_lp_Variant>
AV-unprocessed.smi:937-7

> <Gold.Version>
5.8.1

> <Gold.Id.Protein>
6NUR|6NUR_protein|mol2

> <Gold.PLP.Fitness>
49.5720

> <Gold.PLP.PLP>
-39.9273

> <Gold.PLP.part.hbond>
-3.0000

> <Gold.PLP.part.metal>
0.0000

> <Gold.PLP.part.buried>
-0.4534

> <Gold.PLP.part.nonpolar>
-36.4930

> <Gold.PLP.part.repulsive>
0.1005

> <Gold.PLP.ligand.clash>
0.0000

> <Gold.PLP.ligand.torsion>
0.2137

> <Gold.PLP.Chemscore.Hbond>
3.3272

> <Gold.PLP.Chemscore.CHOScore>
0.0000

> <Gold.PLP.Chemscore.Metal>
0.0000

> <Gold.Chemscore.Hbonds>
donor molecule, donor type, donor heavy atom, donor atom, acceptor molecule, acceptor atom, score
      L1  H    23    46       P1 10175  2.00
      P1  H  7989  7998       L1    10  0.35
      P1  H  7997  8009       L1    10  0.98

> <Gold.PLP.Chemscore.Internal.Correction>
0.0906

> <Gold.Rescore>
     Score         DG    S(hbond)    S(metal)    S(lipo)     H(rot)  DE(clash)    DE(int)     intcor
     18.15     -19.45       1.98        0.00      99.16       1.66       0.97       0.33       ----

> <Gold.Chemscore.Fitness>
18.1539

> <Gold.Chemscore.DG>
-19.4538

> <Gold.Chemscore.ZeroCoef>
-5.4800

> <Gold.Chemscore.Hbond>
1.9813

> <Gold.Chemscore.Metal>
0.0000

> <Gold.Chemscore.Lipo>
99.1621

> <Gold.Chemscore.Internal_Hbond>
0.0000

> <Gold.Chemscore.DEClash>
0.9746

> <Gold.Chemscore.DEInternal>
0.3253

> <Gold.Chemscore.Rot>
1.6585

> <Gold.Chemscore.Internal.Correction>
   9.000000E+99

> <Gold.Chemscore.Hbonds>
donor molecule, donor type, donor heavy atom, donor atom, acceptor molecule, acceptor atom, score
      L1  H    23    46       P1 10175  1.00
      P1  H  7989  7998       L1    10  0.25
      P1  H  7997  8009       L1    10  0.92

> <Gold.Chemscore.Hbond.Weighted>
-6.6175

> <Gold.Chemscore.Metal.Weighted>
-0.0000

> <Gold.Chemscore.Lipo.Weighted>
-11.6020

> <Gold.Chemscore.Internal_Hbond.Weighted>
0.0000

> <Gold.Chemscore.DEClash.Weighted>
0.9746

> <Gold.Chemscore.DEInternal.Weighted>
0.3253

> <Gold.Chemscore.Rot.Weighted>
4.2457

> <Gold.Chemscore.Internal.Correction.Weighted>
   9.000000E+99

> <Gold.Protein.RotatedTorsions>
[ 6907 6896 6895 6894 ] final  176.51 input  -60.11 | X-H torsion
[ 7974 7965 7964 7962 ] final  115.14 input  175.53 | X-H torsion
[ 8008 7997 7996 7995 ] final -145.30 input   59.86 | X-H torsion
[ 10167 10162 10161 10158 ] final  -52.36 input  -65.29 | X-H torsion
[ 10718 10713 10712 10709 ] final   -8.20 input   66.30 | X-H torsion
[ 10763 10752 10751 10750 ] final -150.50 input  -60.55 | X-H torsion
[ 11005 11000 10999 10996 ] final  125.72 input  -57.11 | X-H torsion

> <Gold.Protein.ActiveResidues>
 VAL166  LYS551  ARG553  GLY616  TRP617  ASP618  TYR619  PRO620  LYS621  CYS622 
 ASP623  PHE694  ASN695  SER759  ASP760  ASP761  ALA762  ILE779  LEU786  VAL792 
 PHE793  MET794  SER795  GLU796  ALA797  LYS798  CYS799  TRP800  GLU811  SER814 

> <Gold.Protein.RotatedAtoms>
  151.7190  133.3314  159.3310 H   0  0  0  0  0  0  0  0  0  0  0  0  # atno 6907 bound_to 6896
  150.7661  134.6465  159.6274 H   0  0  0  0  0  0  0  0  0  0  0  0  # atno 6908 bound_to 6896
  152.3664  134.6800  160.0242 H   0  0  0  0  0  0  0  0  0  0  0  0  # atno 6909 bound_to 6896
  145.1956  139.2978  143.4345 H   0  0  0  0  0  0  0  0  0  0  0  0  # atno 7974 bound_to 7965
  155.5410  140.0608  157.2870 H   0  0  0  0  0  0  0  0  0  0  0  0  # atno 8008 bound_to 7997
  154.4452  140.1919  156.0635 H   0  0  0  0  0  0  0  0  0  0  0  0  # atno 8009 bound_to 7997
  156.0585  140.3275  155.7437 H   0  0  0  0  0  0  0  0  0  0  0  0  # atno 8010 bound_to 7997
  140.6541  143.2587  151.4636 H   0  0  0  0  0  0  0  0  0  0  0  0  # atno 10167 bound_to 10162
  156.7060  130.5108  149.5904 H   0  0  0  0  0  0  0  0  0  0  0  0  # atno 10718 bound_to 10713
  154.8115  135.3283  154.7292 H   0  0  0  0  0  0  0  0  0  0  0  0  # atno 10763 bound_to 10752
  153.7940  135.6909  153.4871 H   0  0  0  0  0  0  0  0  0  0  0  0  # atno 10764 bound_to 10752
  153.1897  135.4555  155.0080 H   0  0  0  0  0  0  0  0  0  0  0  0  # atno 10765 bound_to 10752
  139.9420  134.9634  156.8600 H   0  0  0  0  0  0  0  0  0  0  0  0  # atno 11005 bound_to 11000
  146.3428  140.2184  142.8591 LP  0  0  0  0  0  0  0  0  0  0  0  0  # atno 17320 bound_to 7965
  144.9998  140.8621  143.5289 LP  0  0  0  0  0  0  0  0  0  0  0  0  # atno 17321 bound_to 7965
  139.5761  144.1816  152.1905 LP  0  0  0  0  0  0  0  0  0  0  0  0  # atno 17342 bound_to 10162
  140.1127  144.5443  150.6914 LP  0  0  0  0  0  0  0  0  0  0  0  0  # atno 17343 bound_to 10162
  156.1694  130.6427  151.0819 LP  0  0  0  0  0  0  0  0  0  0  0  0  # atno 17370 bound_to 10713
  157.6954  131.0795  150.6983 LP  0  0  0  0  0  0  0  0  0  0  0  0  # atno 17371 bound_to 10713
  140.5928  134.0246  155.7506 LP  0  0  0  0  0  0  0  0  0  0  0  0  # atno 17394 bound_to 11000
  141.1058  133.9696  157.2999 LP  0  0  0  0  0  0  0  0  0  0  0  0  # atno 17395 bound_to 11000

$$$$
