#       Name:                AV-unprocessed.smi:618
#       Creating user name   scv26
#       Creation time:       Fri Mar 27 00:00:28 2020


#       File generated by GOLD software.
#

@<TRIPOS>MOLECULE
AV-unprocessed.smi:618
    46    48     1
SMALL
NO_CHARGES


@<TRIPOS>ATOM
      1 ****        -1.2328   2.4757  -0.4405 O.2            1 S1                 0.0000
      2 ****        -1.7399   1.3863  -0.7071 C.2            1 S1                 0.0000
      3 ****        -1.0216   0.2790  -0.9408 N.am           1 S1                 0.0000
      4 ****         0.4358   0.2120  -0.9144 C.3            1 S1                 0.0000
      5 ****         0.9834   0.1634   0.5299 C.3            1 S1                 0.0000
      6 ****         2.5304   0.1770   0.5909 C.3            1 S1                 0.0000
      7 ****         3.0429  -1.1537   0.2152 N.4            1 S1                 1.0000
      8 ****         4.5019  -1.3588   0.2077 C.3            1 S1                 0.0000
      9 ****         4.6907  -2.8756   0.4084 C.3            1 S1                 0.0000
     10 ****         3.2836  -3.4398   0.6738 C.3            1 S1                 0.0000
     11 ****         2.4863  -2.2021   1.0724 C.3            1 S1                 0.0000
     12 ****         0.9642  -2.2373   0.8955 C.3            1 S1                 0.0000
     13 ****         0.4497  -0.9532   1.2597 O.3            1 S1                 0.0000
     14 ****        -3.0586   1.1385  -0.7797 N.am           1 S1                 0.0000
     15 ****        -4.1366   2.0491  -0.6108 C.ar           1 S1                 0.0000
     16 ****        -4.0315   3.4493  -0.7946 C.ar           1 S1                 0.0000
     17 ****        -5.1785   4.2464  -0.6161 C.ar           1 S1                 0.0000
     18 ****        -6.3885   3.6155  -0.2678 C.ar           1 S1                 0.0000
     19 ****        -6.5065   2.2810  -0.1032 N.ar           1 S1                 0.0000
     20 ****        -5.4030   1.5231  -0.2774 C.ar           1 S1                 0.0000
     21 ****        -1.5166  -0.5761  -1.1489 H              1 S1                 0.0000
     22 ****         0.7495  -0.6618  -1.4845 H              1 S1                 0.0000
     23 ****         0.8476   1.0743  -1.4416 H              1 S1                 0.0000
     24 ****         0.6361   1.0601   1.0440 H              1 S1                 0.0000
     25 ****         2.9407   0.9391  -0.0726 H              1 S1                 0.0000
     26 ****         2.8617   0.4202   1.6017 H              1 S1                 0.0000
     27 ****         4.9409  -1.0017  -0.7241 H              1 S1                 0.0000
     28 ****         4.9614  -0.8114   1.0323 H              1 S1                 0.0000
     29 ****         5.1422  -3.3465  -0.4655 H              1 S1                 0.0000
     30 ****         5.3484  -3.0615   1.2583 H              1 S1                 0.0000
     31 ****         2.8785  -3.8705  -0.2432 H              1 S1                 0.0000
     32 ****         3.2747  -4.2132   1.4425 H              1 S1                 0.0000
     33 ****         2.7190  -1.9636   2.1129 H              1 S1                 0.0000
     34 ****         0.6850  -2.4948  -0.1265 H              1 S1                 0.0000
     35 ****         0.5232  -2.9930   1.5456 H              1 S1                 0.0000
     36 ****        -3.3248   0.1746  -0.9188 H              1 S1                 0.0000
     37 ****        -3.1054   3.9233  -1.0805 H              1 S1                 0.0000
     38 ****        -5.1324   5.3172  -0.7474 H              1 S1                 0.0000
     39 ****        -7.2865   4.1977  -0.1240 H              1 S1                 0.0000
     40 ****        -5.5358   0.4597  -0.1403 H              1 S1                 0.0000
     41 ****         2.7216  -1.3496  -0.7222 H              1 S1                 0.0000
     42 ****        -0.2381   2.5652  -0.3898 LP             1 S1                 0.0000
     43 ****        -1.8155   3.2713  -0.2746 LP             1 S1                 0.0000
     44 ****        -0.5401  -0.9676   1.1181 LP             1 S1                 0.0000
     45 ****         0.6455  -0.8078   2.2296 LP             1 S1                 0.0000
     46 ****        -7.3836   1.8669   0.1401 LP             1 S1                 0.0000
@<TRIPOS>BOND
    1    1    2 2     
    2    2    3 am    
    3    2   14 am    
    4    3    4 1     
    5    3   21 1     
    6    4    5 1     
    7    4   22 1     
    8    4   23 1     
    9    5   13 1     
   10    5    6 1     
   11    5   24 1     
   12    6    7 1     
   13    6   25 1     
   14    6   26 1     
   15    7   11 1     
   16    7    8 1     
   17    7   41 1     
   18    8    9 1     
   19    8   27 1     
   20    8   28 1     
   21    9   10 1     
   22    9   29 1     
   23    9   30 1     
   24   10   11 1     
   25   10   31 1     
   26   10   32 1     
   27   11   12 1     
   28   11   33 1     
   29   12   13 1     
   30   12   34 1     
   31   12   35 1     
   32   14   15 1     
   33   14   36 1     
   34   15   20 ar    
   35   15   16 ar    
   36   16   17 ar    
   37   16   37 1     
   38   17   18 ar    
   39   17   38 1     
   40   18   19 ar    
   41   18   39 1     
   42   19   20 ar    
   43   20   40 1     
   44    1   42 1     
   45    1   43 1     
   46   13   44 1     
   47   13   45 1     
   48   19   46 1     
@<TRIPOS>SUBSTRUCTURE
      1 S1             1
@<TRIPOS>SET
LONE_PAIRS      STATIC     ATOMS    <user>   **** ""
5 42 43 44 45 46
DONOR_HYDROGENS      STATIC     ATOMS    <user>   **** ""
3 21 41 36
ATOM$BLUE        STATIC     ATOMS    COLORGROUP SYSTEM
5 42 43 44 45 46
ATOM$RED        STATIC     ATOMS    COLORGROUP SYSTEM
3 21 41 36
