AV-unprocessed.smi:652|AV-procd|sdf|3198|dock7
  -GOLD-   22720 0133D 1   1.00000     0.00000
 Structure written by MMmdl.
 49 50  0  0  0  0  0  0  0  0  3 V2000
  145.9439  131.5338  149.2289 C   0  0  0  0  0  0  0  0  0  0  0  0
  144.8531  132.4161  149.8570 C   0  0  0  0  0  0  0  0  0  0  0  0
  143.5569  132.3823  149.0365 C   0  0  0  0  0  0  0  0  0  0  0  0
  145.3151  133.7964  149.9766 N   0  0  0  0  0  0  0  0  0  0  0  0
  145.2891  134.5317  151.0993 C   0  0  0  0  0  0  0  0  0  0  0  0
  144.8658  134.1058  152.1743 O   0  0  0  0  0  0  0  0  0  0  0  0
  145.8248  135.9628  150.9774 C   0  0  0  0  0  0  0  0  0  0  0  0
  144.7570  137.0427  151.2546 C   0  0  0  0  0  0  0  0  0  0  0  0
  145.1046  137.9079  152.4102 N   0  3  1  0  0  0  0  0  0  0  0  0
  144.8722  137.2280  153.7067 C   0  0  0  0  0  0  0  0  0  0  0  0
  145.1992  138.1691  154.8763 C   0  0  0  0  0  0  0  0  0  0  0  0
  146.5433  138.6188  154.7601 O   0  0  0  0  0  0  0  0  0  0  0  0
  146.7663  139.3634  153.5684 C   0  0  1  0  0  0  0  0  0  0  0  0
  148.2212  139.8674  153.6104 C   0  0  0  0  0  0  0  0  0  0  0  0
  149.1973  138.8076  153.3924 N   0  0  0  0  0  0  0  0  0  0  0  0
  150.4042  138.7522  154.1053 C   0  0  0  0  0  0  0  0  0  0  0  0
  150.7976  139.6893  155.0899 C   0  0  0  0  0  0  0  0  0  0  0  0
  152.0368  139.5069  155.7272 C   0  0  0  0  0  0  0  0  0  0  0  0
  152.8102  138.3975  155.3430 C   0  0  0  0  0  0  0  0  0  0  0  0
  152.4174  137.5137  154.3989 N   0  0  0  0  0  0  0  0  0  0  0  0
  151.2264  137.7147  153.8083 N   0  3  0  0  0  0  0  0  0  0  0  0
  146.4846  138.4530  152.3533 C   0  0  0  0  0  0  0  0  0  0  0  0
  145.6069  130.5006  149.1395 H   0  0  0  0  0  0  0  0  0  0  0  0
  146.8501  131.5292  149.8355 H   0  0  0  0  0  0  0  0  0  0  0  0
  146.2122  131.8828  148.2314 H   0  0  0  0  0  0  0  0  0  0  0  0
  144.6250  132.0311  150.8526 H   0  0  0  0  0  0  0  0  0  0  0  0
  143.1706  131.3659  148.9566 H   0  0  0  0  0  0  0  0  0  0  0  0
  143.7161  132.7579  148.0250 H   0  0  0  0  0  0  0  0  0  0  0  0
  142.7810  132.9921  149.5006 H   0  0  0  0  0  0  0  0  0  0  0  0
  145.6794  134.2241  149.1375 H   0  0  0  0  0  0  0  0  0  0  0  0
  146.6632  136.0705  151.6658 H   0  0  0  0  0  0  0  0  0  0  0  0
  146.2246  136.0876  149.9702 H   0  0  0  0  0  0  0  0  0  0  0  0
  144.6659  137.6780  150.3717 H   0  0  0  0  0  0  0  0  0  0  0  0
  143.7769  136.5890  151.4123 H   0  0  0  0  0  0  0  0  0  0  0  0
  143.8323  136.9063  153.7776 H   0  0  0  0  0  0  0  0  0  0  0  0
  145.4903  136.3307  153.7657 H   0  0  0  0  0  0  0  0  0  0  0  0
  144.5158  139.0197  154.8973 H   0  0  0  0  0  0  0  0  0  0  0  0
  145.0833  137.6441  155.8246 H   0  0  0  0  0  0  0  0  0  0  0  0
  146.0860  140.2168  153.5586 H   0  0  0  0  0  0  0  0  0  0  0  0
  148.3721  140.6568  152.8740 H   0  0  0  0  0  0  0  0  0  0  0  0
  148.4239  140.3253  154.5791 H   0  0  0  0  0  0  0  0  0  0  0  0
  148.9984  138.1052  152.6939 H   0  0  0  0  0  0  0  0  0  0  0  0
  150.1790  140.5309  155.3626 H   0  0  0  0  0  0  0  0  0  0  0  0
  152.3837  140.1921  156.4865 H   0  0  0  0  0  0  0  0  0  0  0  0
  153.7697  138.2124  155.8036 H   0  0  0  0  0  0  0  0  0  0  0  0
  147.1993  137.6286  152.3282 H   0  0  0  0  0  0  0  0  0  0  0  0
  146.6237  139.0235  151.4358 H   0  0  0  0  0  0  0  0  0  0  0  0
  144.4700  138.6934  152.3847 H   0  0  0  0  0  0  0  0  0  0  0  0
  150.9232  137.0481  153.0981 H   0  0  0  0  0  0  0  0  0  0  0  0
  1  2  1  0  0  0  0
  1 23  1  0  0  0  0
  1 24  1  0  0  0  0
  1 25  1  0  0  0  0
  2  3  1  0  0  0  0
  2  4  1  0  0  0  0
  2 26  1  0  0  0  0
  3 27  1  0  0  0  0
  3 28  1  0  0  0  0
  3 29  1  0  0  0  0
  4  5  1  0  0  0  0
  4 30  1  0  0  0  0
  5  6  2  0  0  0  0
  5  7  1  0  0  0  0
  7  8  1  0  0  0  0
  7 31  1  0  0  0  0
  7 32  1  0  0  0  0
  8  9  1  0  0  0  0
  8 33  1  0  0  0  0
  8 34  1  0  0  0  0
  9 22  1  0  0  0  0
  9 10  1  0  0  0  0
  9 48  1  0  0  0  0
 10 11  1  0  0  0  0
 10 35  1  0  0  0  0
 10 36  1  0  0  0  0
 11 12  1  0  0  0  0
 11 37  1  0  0  0  0
 11 38  1  0  0  0  0
 12 13  1  0  0  0  0
 13 14  1  0  0  0  0
 13 22  1  0  0  0  0
 13 39  1  0  0  0  0
 14 15  1  0  0  0  0
 14 40  1  0  0  0  0
 14 41  1  0  0  0  0
 15 16  1  0  0  0  0
 15 42  1  0  0  0  0
 16 21  1  0  0  0  0
 16 17  2  0  0  0  0
 17 18  1  0  0  0  0
 17 43  1  0  0  0  0
 18 19  2  0  0  0  0
 18 44  1  0  0  0  0
 19 20  1  0  0  0  0
 19 45  1  0  0  0  0
 20 21  2  0  0  0  0
 21 49  1  0  0  0  0
 22 46  1  0  0  0  0
 22 47  1  0  0  0  0
M  CHG  1   9   1
M  CHG  1  21   1
M  END
> <s_m_source_file>
AV-unprocessed.smi

> <i_m_source_file_index>
652

> <i_lp_mmshare_version>
43012

> <i_f3d_flags>
0

> <s_epik_input>
W0NIM11bQ0hdKFtDSDNdKVtOSF1DKD1PKVtDSDJdW0NIMl1OMVtDSDJdW0NIMl1PW0NASF0oW0NIMl0xKVtDSDJdW05IXWMyW2NIXVtjSF1bY0hdbm4y

> <s_epik_cmdline>
J2VwaWtfcHl0aG9uJywgJy1waCcsICc3LjAnLCAnLXRuJywgJzgnLCAnLW1hJywgJzIwMCcsICctbWV0YWxfYmluZGluZycsICctaW1hZScsICc8aW5maWxlLm1hZT4nLCAnLW9tYWUnLCAnPG91dGZpbGUubWFlPic=

> <r_lp_tautomer_probability>
0.966961

> <r_epik_Ionization_Penalty>
2.79885

> <r_epik_Ionization_Penalty_Charging>
2.79884

> <r_epik_Ionization_Penalty_Neutral>
3.2567e-06

> <r_epik_State_Penalty>
2.43203

> <r_epik_Charging_Adjusted_Penalty>
5.23087

> <i_epik_Tot_Q>
2

> <i_epik_Tot_abs_Q>
2

> <r_epik_Metal_State_Penalty>
2.43963

> <b_epik_Metal_Only>
0

> <s_lp_Force_Field>
OPLS_2005

> <r_lp_Energy>
31.8116

> <b_lp_Chiralities_Consistent>
1

> <s_lp_Variant>
AV-unprocessed.smi:652-7

> <Gold.Version>
5.8.1

> <Gold.Id.Protein>
6NUR|6NUR_protein|mol2

> <Gold.PLP.Fitness>
59.0796

> <Gold.PLP.PLP>
-37.8601

> <Gold.PLP.part.hbond>
-7.1821

> <Gold.PLP.part.metal>
0.0000

> <Gold.PLP.part.buried>
4.6559

> <Gold.PLP.part.nonpolar>
-36.7634

> <Gold.PLP.part.repulsive>
0.6067

> <Gold.PLP.ligand.clash>
0.0000

> <Gold.PLP.ligand.torsion>
0.7855

> <Gold.PLP.Chemscore.Hbond>
7.5720

> <Gold.PLP.Chemscore.CHOScore>
0.0000

> <Gold.PLP.Chemscore.Metal>
0.0000

> <Gold.Chemscore.Hbonds>
donor molecule, donor type, donor heavy atom, donor atom, acceptor molecule, acceptor atom, score
      L1  H     4    30       P1  7921  1.00
      L1  H     9    48       P1 10175  2.00
      L1  H    15    42       P1  7948  2.00
      L1  H    21    49       P1  7949  1.80
      P1  H 10752 10765       L1    20  0.67

> <Gold.PLP.Chemscore.Internal.Correction>
0.0744

> <Gold.Rescore>
     Score         DG    S(hbond)    S(metal)    S(lipo)     H(rot)  DE(clash)    DE(int)     intcor
     19.31     -22.13       3.53        0.00      92.62       2.33       2.00       0.83       ----

> <Gold.Chemscore.Fitness>
19.3052

> <Gold.Chemscore.DG>
-22.1334

> <Gold.Chemscore.ZeroCoef>
-5.4800

> <Gold.Chemscore.Hbond>
3.5295

> <Gold.Chemscore.Metal>
0.0000

> <Gold.Chemscore.Lipo>
92.6169

> <Gold.Chemscore.Internal_Hbond>
0.0000

> <Gold.Chemscore.DEClash>
1.9999

> <Gold.Chemscore.DEInternal>
0.8282

> <Gold.Chemscore.Rot>
2.3326

> <Gold.Chemscore.Internal.Correction>
   9.000000E+99

> <Gold.Chemscore.Hbonds>
donor molecule, donor type, donor heavy atom, donor atom, acceptor molecule, acceptor atom, score
      L1  H     4    30       P1  7921  0.70
      L1  H     9    48       P1 10175  1.00
      L1  H    15    42       P1  7948  0.93
      L1  H    21    49       P1  7949  0.17
      P1  H 10752 10765       L1    20  0.52

> <Gold.Chemscore.Hbond.Weighted>
-11.7886

> <Gold.Chemscore.Metal.Weighted>
-0.0000

> <Gold.Chemscore.Lipo.Weighted>
-10.8362

> <Gold.Chemscore.Internal_Hbond.Weighted>
0.0000

> <Gold.Chemscore.DEClash.Weighted>
1.9999

> <Gold.Chemscore.DEInternal.Weighted>
0.8282

> <Gold.Chemscore.Rot.Weighted>
5.9714

> <Gold.Chemscore.Internal.Correction.Weighted>
   9.000000E+99

> <Gold.Protein.RotatedTorsions>
[ 6907 6896 6895 6894 ] final -109.71 input  -60.11 | X-H torsion
[ 7974 7965 7964 7962 ] final -113.70 input  175.53 | X-H torsion
[ 8008 7997 7996 7995 ] final  -35.79 input   59.86 | X-H torsion
[ 10167 10162 10161 10158 ] final  116.52 input  -65.29 | X-H torsion
[ 10718 10713 10712 10709 ] final  -87.46 input   66.30 | X-H torsion
[ 10763 10752 10751 10750 ] final  151.43 input  -60.55 | X-H torsion
[ 11005 11000 10999 10996 ] final   78.44 input  -57.11 | X-H torsion

> <Gold.Protein.ActiveResidues>
 VAL166  LYS551  ARG553  GLY616  TRP617  ASP618  TYR619  PRO620  LYS621  CYS622 
 ASP623  PHE694  ASN695  SER759  ASP760  ASP761  ALA762  ILE779  LEU786  VAL792 
 PHE793  MET794  SER795  GLU796  ALA797  LYS798  CYS799  TRP800  GLU811  SER814 

> <Gold.Protein.RotatedAtoms>
  150.7579  133.9489  159.3479 H   0  0  0  0  0  0  0  0  0  0  0  0  # atno 6907 bound_to 6896
  151.7404  135.0853  160.0324 H   0  0  0  0  0  0  0  0  0  0  0  0  # atno 6908 bound_to 6896
  152.3532  133.6168  159.5996 H   0  0  0  0  0  0  0  0  0  0  0  0  # atno 6909 bound_to 6896
  145.1290  140.8713  143.3769 H   0  0  0  0  0  0  0  0  0  0  0  0  # atno 7974 bound_to 7965
  154.4087  140.1648  156.2269 H   0  0  0  0  0  0  0  0  0  0  0  0  # atno 8008 bound_to 7997
  155.9316  140.3414  155.6231 H   0  0  0  0  0  0  0  0  0  0  0  0  # atno 8009 bound_to 7997
  155.7099  140.0755  157.2366 H   0  0  0  0  0  0  0  0  0  0  0  0  # atno 8010 bound_to 7997
  139.6241  144.7106  151.2570 H   0  0  0  0  0  0  0  0  0  0  0  0  # atno 10167 bound_to 10162
  155.9985  130.4801  150.4871 H   0  0  0  0  0  0  0  0  0  0  0  0  # atno 10718 bound_to 10713
  154.1036  135.2844  155.3246 H   0  0  0  0  0  0  0  0  0  0  0  0  # atno 10763 bound_to 10752
  154.6538  135.5359  153.7937 H   0  0  0  0  0  0  0  0  0  0  0  0  # atno 10764 bound_to 10752
  153.0370  135.6517  154.1198 H   0  0  0  0  0  0  0  0  0  0  0  0  # atno 10765 bound_to 10752
  139.9212  134.7764  156.1650 H   0  0  0  0  0  0  0  0  0  0  0  0  # atno 11005 bound_to 11000
  145.0657  139.3071  143.5858 LP  0  0  0  0  0  0  0  0  0  0  0  0  # atno 17320 bound_to 7965
  146.3515  140.0114  142.8667 LP  0  0  0  0  0  0  0  0  0  0  0  0  # atno 17321 bound_to 7965
  140.7400  143.6600  150.8173 LP  0  0  0  0  0  0  0  0  0  0  0  0  # atno 17342 bound_to 10162
  140.0215  143.5537  152.2798 LP  0  0  0  0  0  0  0  0  0  0  0  0  # atno 17343 bound_to 10162
  157.2870  131.0618  151.2159 LP  0  0  0  0  0  0  0  0  0  0  0  0  # atno 17370 bound_to 10713
  157.3186  130.6925  149.6256 LP  0  0  0  0  0  0  0  0  0  0  0  0  # atno 17371 bound_to 10713
  141.0735  133.6786  156.2188 LP  0  0  0  0  0  0  0  0  0  0  0  0  # atno 17394 bound_to 11000
  140.6468  134.5109  157.5574 LP  0  0  0  0  0  0  0  0  0  0  0  0  # atno 17395 bound_to 11000

$$$$
