AV-unprocessed.smi:3083|AV-procd|sdf|11746|dock6
  -GOLD-   2272017143D 1   1.00000     0.00000
 Structure written by MMmdl.
 28 29  0  0  0  0  0  0  0  0  2 V2000
  148.9046  138.5353  153.2414 N   0  3  0  0  0  0  0  0  0  0  0  0
  149.7210  138.9235  154.4068 C   0  0  2  0  0  0  0  0  0  0  0  0
  149.2868  138.1515  155.6726 C   0  0  0  0  0  0  0  0  0  0  0  0
  150.1053  138.5745  156.9030 C   0  0  0  0  0  0  0  0  0  0  0  0
  150.0622  140.0954  157.1154 C   0  0  0  0  0  0  0  0  0  0  0  0
  150.5595  140.8392  155.8647 C   0  0  0  0  0  0  0  0  0  0  0  0
  149.7625  140.4676  154.5958 C   0  0  2  0  0  0  0  0  0  0  0  0
  148.4621  141.1416  154.5665 N   0  0  0  0  0  0  0  0  0  0  0  0
  147.6068  141.2493  153.4877 C   0  0  0  0  0  0  0  0  0  0  0  0
  146.5299  141.9899  153.8819 C   0  0  0  0  0  0  0  0  0  0  0  0
  146.8238  142.3158  155.2340 C   0  0  0  0  0  0  0  0  0  0  0  0
  147.9793  141.8141  155.6362 N   0  0  0  0  0  0  0  0  0  0  0  0
  147.9277  138.5583  153.4986 H   0  0  0  0  0  0  0  0  0  0  0  0
  149.1541  137.6015  152.9491 H   0  0  0  0  0  0  0  0  0  0  0  0
  150.7381  138.6033  154.1762 H   0  0  0  0  0  0  0  0  0  0  0  0
  148.2267  138.2948  155.8767 H   0  0  0  0  0  0  0  0  0  0  0  0
  149.4117  137.0803  155.5104 H   0  0  0  0  0  0  0  0  0  0  0  0
  149.7305  138.0643  157.7908 H   0  0  0  0  0  0  0  0  0  0  0  0
  151.1409  138.2551  156.7791 H   0  0  0  0  0  0  0  0  0  0  0  0
  149.0471  140.4083  157.3613 H   0  0  0  0  0  0  0  0  0  0  0  0
  150.6795  140.3646  157.9730 H   0  0  0  0  0  0  0  0  0  0  0  0
  150.5235  141.9164  156.0323 H   0  0  0  0  0  0  0  0  0  0  0  0
  151.6112  140.5956  155.7080 H   0  0  0  0  0  0  0  0  0  0  0  0
  150.3159  140.8716  153.7464 H   0  0  0  0  0  0  0  0  0  0  0  0
  147.8333  140.7936  152.5349 H   0  0  0  0  0  0  0  0  0  0  0  0
  145.6683  142.2646  153.2914 H   0  0  0  0  0  0  0  0  0  0  0  0
  146.2385  142.9003  155.9285 H   0  0  0  0  0  0  0  0  0  0  0  0
  149.0676  139.1818  152.4828 H   0  0  0  0  0  0  0  0  0  0  0  0
  1  2  1  0  0  0  0
  1 13  1  0  0  0  0
  1 14  1  0  0  0  0
  1 28  1  0  0  0  0
  2  7  1  0  0  0  0
  2  3  1  0  0  0  0
  2 15  1  0  0  0  0
  3  4  1  0  0  0  0
  3 16  1  0  0  0  0
  3 17  1  0  0  0  0
  4  5  1  0  0  0  0
  4 18  1  0  0  0  0
  4 19  1  0  0  0  0
  5  6  1  0  0  0  0
  5 20  1  0  0  0  0
  5 21  1  0  0  0  0
  6  7  1  0  0  0  0
  6 22  1  0  0  0  0
  6 23  1  0  0  0  0
  7  8  1  0  0  0  0
  7 24  1  0  0  0  0
  8 12  1  0  0  0  0
  8  9  1  0  0  0  0
  9 10  2  0  0  0  0
  9 25  1  0  0  0  0
 10 11  1  0  0  0  0
 10 26  1  0  0  0  0
 11 12  2  0  0  0  0
 11 27  1  0  0  0  0
M  CHG  1   1   1
M  END
> <s_m_source_file>
AV-unprocessed.smi

> <i_m_source_file_index>
3083

> <i_lp_mmshare_version>
43012

> <i_f3d_flags>
0

> <s_epik_input>
W05IMl1bQ0BASF0xW0NIMl1bQ0gyXVtDSDJdW0NIMl1bQ0BIXTFuMltjSF1bY0hdW2NIXW4y

> <s_epik_cmdline>
J2VwaWtfcHl0aG9uJywgJy1waCcsICc3LjAnLCAnLXRuJywgJzgnLCAnLW1hJywgJzIwMCcsICctbWV0YWxfYmluZGluZycsICctaW1hZScsICc8aW5maWxlLm1hZT4nLCAnLW9tYWUnLCAnPG91dGZpbGUubWFlPic=

> <r_lp_tautomer_probability>
1

> <r_epik_Ionization_Penalty>
0.00385053

> <r_epik_Ionization_Penalty_Charging>
0.0038389

> <r_epik_Ionization_Penalty_Neutral>
1.16305e-05

> <r_epik_State_Penalty>
-0

> <r_epik_Charging_Adjusted_Penalty>
0.0038389

> <i_epik_Tot_Q>
1

> <i_epik_Tot_abs_Q>
1

> <r_epik_Metal_State_Penalty>
-0

> <b_epik_Metal_Only>
0

> <s_lp_Force_Field>
OPLS_2005

> <r_lp_Energy>
16.3847

> <b_lp_Chiralities_Consistent>
1

> <s_lp_Variant>
AV-unprocessed.smi:3083-3

> <Gold.Version>
5.8.1

> <Gold.Id.Protein>
6NUR|6NUR_protein|mol2

> <Gold.PLP.Fitness>
33.9044

> <Gold.PLP.PLP>
-22.1302

> <Gold.PLP.part.hbond>
-2.0000

> <Gold.PLP.part.metal>
0.0000

> <Gold.PLP.part.buried>
-2.1907

> <Gold.PLP.part.nonpolar>
-18.5209

> <Gold.PLP.part.repulsive>
0.7038

> <Gold.PLP.ligand.clash>
0.0000

> <Gold.PLP.ligand.torsion>
0.1452

> <Gold.PLP.Chemscore.Hbond>
3.0000

> <Gold.PLP.Chemscore.CHOScore>
1.0000

> <Gold.PLP.Chemscore.Metal>
0.0000

> <Gold.Chemscore.Hbonds>
donor molecule, donor type, donor heavy atom, donor atom, acceptor molecule, acceptor atom, score
      L1  H     1    14       P1  7948  2.00
      L1  H     1    28       P1  7957  1.00
      L1  C     9    25       P1  7957  1.00

> <Gold.PLP.Chemscore.Internal.Correction>
0.0646

> <Gold.Rescore>
     Score         DG    S(hbond)    S(metal)    S(lipo)     H(rot)  DE(clash)    DE(int)     intcor
     14.02     -15.20       1.97        0.00      48.77       1.00       0.00       1.17       ----

> <Gold.Chemscore.Fitness>
14.0221

> <Gold.Chemscore.DG>
-15.1980

> <Gold.Chemscore.ZeroCoef>
-5.4800

> <Gold.Chemscore.Hbond>
1.9675

> <Gold.Chemscore.Metal>
0.0000

> <Gold.Chemscore.Lipo>
48.7746

> <Gold.Chemscore.Internal_Hbond>
0.0000

> <Gold.Chemscore.DEClash>
0.0048

> <Gold.Chemscore.DEInternal>
1.1711

> <Gold.Chemscore.Rot>
1.0000

> <Gold.Chemscore.Internal.Correction>
   9.000000E+99

> <Gold.Chemscore.Hbonds>
donor molecule, donor type, donor heavy atom, donor atom, acceptor molecule, acceptor atom, score
      L1  H     1    14       P1  7948  0.95
      L1  H     1    28       P1  7957  1.00

> <Gold.Chemscore.Hbond.Weighted>
-6.5714

> <Gold.Chemscore.Metal.Weighted>
-0.0000

> <Gold.Chemscore.Lipo.Weighted>
-5.7066

> <Gold.Chemscore.Internal_Hbond.Weighted>
0.0000

> <Gold.Chemscore.DEClash.Weighted>
0.0048

> <Gold.Chemscore.DEInternal.Weighted>
1.1711

> <Gold.Chemscore.Rot.Weighted>
2.5600

> <Gold.Chemscore.Internal.Correction.Weighted>
   9.000000E+99

> <Gold.Protein.RotatedTorsions>
[ 6907 6896 6895 6894 ] final  164.69 input  -60.11 | X-H torsion
[ 7974 7965 7964 7962 ] final  -62.07 input  175.53 | X-H torsion
[ 8008 7997 7996 7995 ] final  -23.84 input   59.86 | X-H torsion
[ 10167 10162 10161 10158 ] final  -36.08 input  -65.29 | X-H torsion
[ 10718 10713 10712 10709 ] final -106.56 input   66.30 | X-H torsion
[ 10763 10752 10751 10750 ] final -133.73 input  -60.55 | X-H torsion
[ 11005 11000 10999 10996 ] final   57.77 input  -57.11 | X-H torsion

> <Gold.Protein.ActiveResidues>
 VAL166  LYS551  ARG553  GLY616  TRP617  ASP618  TYR619  PRO620  LYS621  CYS622 
 ASP623  PHE694  ASN695  SER759  ASP760  ASP761  ALA762  ILE779  LEU786  VAL792 
 PHE793  MET794  SER795  GLU796  ALA797  LYS798  CYS799  TRP800  GLU811  SER814 

> <Gold.Protein.RotatedAtoms>
  151.9059  133.3549  159.3846 H   0  0  0  0  0  0  0  0  0  0  0  0  # atno 6907 bound_to 6896
  150.7069  134.4781  159.5466 H   0  0  0  0  0  0  0  0  0  0  0  0  # atno 6908 bound_to 6896
  152.2378  134.8258  160.0515 H   0  0  0  0  0  0  0  0  0  0  0  0  # atno 6909 bound_to 6896
  145.7958  140.8684  143.0257 H   0  0  0  0  0  0  0  0  0  0  0  0  # atno 7974 bound_to 7965
  154.4562  140.1970  156.0372 H   0  0  0  0  0  0  0  0  0  0  0  0  # atno 8008 bound_to 7997
  156.0751  140.3279  155.7596 H   0  0  0  0  0  0  0  0  0  0  0  0  # atno 8009 bound_to 7997
  155.5201  140.0569  157.2899 H   0  0  0  0  0  0  0  0  0  0  0  0  # atno 8010 bound_to 7997
  140.7151  143.3433  151.2310 H   0  0  0  0  0  0  0  0  0  0  0  0  # atno 10167 bound_to 10162
  156.0396  130.5619  150.7698 H   0  0  0  0  0  0  0  0  0  0  0  0  # atno 10718 bound_to 10713
  154.8729  135.3756  154.4621 H   0  0  0  0  0  0  0  0  0  0  0  0  # atno 10763 bound_to 10752
  153.5288  135.7028  153.5699 H   0  0  0  0  0  0  0  0  0  0  0  0  # atno 10764 bound_to 10752
  153.3912  135.3972  155.1890 H   0  0  0  0  0  0  0  0  0  0  0  0  # atno 10765 bound_to 10752
  140.0428  134.5849  155.9360 H   0  0  0  0  0  0  0  0  0  0  0  0  # atno 11005 bound_to 11000
  144.6775  140.0188  143.7484 LP  0  0  0  0  0  0  0  0  0  0  0  0  # atno 17320 bound_to 7965
  145.9929  139.3029  143.0974 LP  0  0  0  0  0  0  0  0  0  0  0  0  # atno 17321 bound_to 7965
  139.6946  143.9634  152.2876 LP  0  0  0  0  0  0  0  0  0  0  0  0  # atno 17342 bound_to 10162
  139.9307  144.6743  150.8366 LP  0  0  0  0  0  0  0  0  0  0  0  0  # atno 17343 bound_to 10162
  157.5195  131.0930  151.0096 LP  0  0  0  0  0  0  0  0  0  0  0  0  # atno 17370 bound_to 10713
  157.0431  130.5757  149.5359 LP  0  0  0  0  0  0  0  0  0  0  0  0  # atno 17371 bound_to 10713
  141.1891  133.6564  156.5355 LP  0  0  0  0  0  0  0  0  0  0  0  0  # atno 17394 bound_to 11000
  140.4042  134.7330  157.4798 LP  0  0  0  0  0  0  0  0  0  0  0  0  # atno 17395 bound_to 11000

$$$$
