AV-unprocessed.smi:1376|AV-procd|sdf|5593|dock10
  -GOLD-   22720 5193D 1   1.00000     0.00000
 Structure written by MMmdl.
 42 43  0  0  0  0  0  0  0  0  1 V2000
  151.5714  141.3064  157.0757 O   0  0  0  0  0  0  0  0  0  0  0  0
  150.8787  142.3107  156.9033 C   0  0  0  0  0  0  0  0  0  0  0  0
  151.3096  143.6783  157.4537 C   0  0  0  0  0  0  0  0  0  0  0  0
  151.7526  143.6374  158.8575 N   0  0  0  0  0  0  0  0  0  0  0  0
  152.6933  142.6456  159.2005 C   0  0  0  0  0  0  0  0  0  0  0  0
  153.1607  142.5123  160.4518 C   0  0  0  0  0  0  0  0  0  0  0  0
  152.6738  143.4213  161.4623 C   0  0  0  0  0  0  0  0  0  0  0  0
  151.7722  144.3720  161.1457 C   0  0  0  0  0  0  0  0  0  0  0  0
  151.2564  144.5194  159.7795 C   0  0  0  0  0  0  0  0  0  0  0  0
  150.4285  145.3811  159.4830 O   0  0  0  0  0  0  0  0  0  0  0  0
  149.7191  142.2939  156.2283 N   0  0  0  0  0  0  0  0  0  0  0  0
  149.1131  141.1107  155.6251 C   0  0  1  0  0  0  0  0  0  0  0  0
  147.8519  141.5157  154.8401 C   0  0  0  0  0  0  0  0  0  0  0  0
  147.2066  140.3039  154.1488 C   0  0  0  0  0  0  0  0  0  0  0  0
  148.2128  139.5646  153.2496 C   0  0  0  0  0  0  0  0  0  0  0  0
  149.4769  139.1530  154.0256 C   0  0  2  0  0  0  0  0  0  0  0  0
  149.0917  138.1635  154.9744 O   0  0  0  0  0  0  0  0  0  0  0  0
  150.1277  137.7117  155.8358 C   0  0  0  0  0  0  0  0  0  0  0  0
  150.8561  136.5386  155.1694 C   0  0  0  0  0  0  0  0  0  0  0  0
  151.5516  136.9875  154.1252 F   0  0  0  0  0  0  0  0  0  0  0  0
  151.6977  135.9699  156.0322 F   0  0  0  0  0  0  0  0  0  0  0  0
  149.9764  135.6341  154.7397 F   0  0  0  0  0  0  0  0  0  0  0  0
  150.1148  140.3857  154.7009 C   0  0  0  0  0  0  0  0  0  0  0  0
  152.1075  144.0689  156.8203 H   0  0  0  0  0  0  0  0  0  0  0  0
  150.4830  144.3812  157.3342 H   0  0  0  0  0  0  0  0  0  0  0  0
  153.0007  142.0030  158.3882 H   0  0  0  0  0  0  0  0  0  0  0  0
  153.8788  141.7438  160.6967 H   0  0  0  0  0  0  0  0  0  0  0  0
  153.0333  143.3377  162.4774 H   0  0  0  0  0  0  0  0  0  0  0  0
  151.4186  145.0423  161.9154 H   0  0  0  0  0  0  0  0  0  0  0  0
  149.2135  143.1629  156.1332 H   0  0  0  0  0  0  0  0  0  0  0  0
  148.8125  140.4312  156.4251 H   0  0  0  0  0  0  0  0  0  0  0  0
  147.1282  141.9831  155.5089 H   0  0  0  0  0  0  0  0  0  0  0  0
  148.1080  142.2650  154.0894 H   0  0  0  0  0  0  0  0  0  0  0  0
  146.8180  139.6191  154.9036 H   0  0  0  0  0  0  0  0  0  0  0  0
  146.3492  140.6272  153.5581 H   0  0  0  0  0  0  0  0  0  0  0  0
  147.7423  138.6853  152.8081 H   0  0  0  0  0  0  0  0  0  0  0  0
  148.4936  140.2115  152.4175 H   0  0  0  0  0  0  0  0  0  0  0  0
  150.1843  138.7137  153.3204 H   0  0  0  0  0  0  0  0  0  0  0  0
  150.8327  138.5202  156.0343 H   0  0  0  0  0  0  0  0  0  0  0  0
  149.7210  137.3868  156.7931 H   0  0  0  0  0  0  0  0  0  0  0  0
  150.4534  141.0759  153.9269 H   0  0  0  0  0  0  0  0  0  0  0  0
  151.0119  140.1026  155.2501 H   0  0  0  0  0  0  0  0  0  0  0  0
  1  2  2  0  0  0  0
  2  3  1  0  0  0  0
  2 11  1  0  0  0  0
  3  4  1  0  0  0  0
  3 24  1  0  0  0  0
  3 25  1  0  0  0  0
  4  9  1  0  0  0  0
  4  5  1  0  0  0  0
  5  6  2  0  0  0  0
  5 26  1  0  0  0  0
  6  7  1  0  0  0  0
  6 27  1  0  0  0  0
  7  8  2  0  0  0  0
  7 28  1  0  0  0  0
  8  9  1  0  0  0  0
  8 29  1  0  0  0  0
  9 10  2  0  0  0  0
 11 12  1  0  0  0  0
 11 30  1  0  0  0  0
 12 23  1  0  0  0  0
 12 13  1  0  0  0  0
 12 31  1  0  0  0  0
 13 14  1  0  0  0  0
 13 32  1  0  0  0  0
 13 33  1  0  0  0  0
 14 15  1  0  0  0  0
 14 34  1  0  0  0  0
 14 35  1  0  0  0  0
 15 16  1  0  0  0  0
 15 36  1  0  0  0  0
 15 37  1  0  0  0  0
 16 17  1  0  0  0  0
 16 23  1  0  0  0  0
 16 38  1  0  0  0  0
 17 18  1  0  0  0  0
 18 19  1  0  0  0  0
 18 39  1  0  0  0  0
 18 40  1  0  0  0  0
 19 20  1  0  0  0  0
 19 21  1  0  0  0  0
 19 22  1  0  0  0  0
 23 41  1  0  0  0  0
 23 42  1  0  0  0  0
M  END
> <s_m_source_file>
AV-unprocessed.smi

> <i_m_source_file_index>
1376

> <i_lp_mmshare_version>
43012

> <i_f3d_flags>
0

> <s_epik_input>
Tz1jMVtjSF1bY0hdW2NIXVtjSF1uMVtDSDJdQyg9TylbTkhdW0NAQEhdMltDSDJdW0NIMl1bQ0gyXVtDQEhdKFtDSDJdMilPW0NIMl1DKEYpKEYpRg==

> <s_epik_cmdline>
J2VwaWtfcHl0aG9uJywgJy1waCcsICc3LjAnLCAnLXRuJywgJzgnLCAnLW1hJywgJzIwMCcsICctbWV0YWxfYmluZGluZycsICctaW1hZScsICc8aW5maWxlLm1hZT4nLCAnLW9tYWUnLCAnPG91dGZpbGUubWFlPic=

> <r_lp_tautomer_probability>
1

> <r_epik_Ionization_Penalty>
4.08567e-07

> <r_epik_Ionization_Penalty_Charging>
3.90028e-07

> <r_epik_Ionization_Penalty_Neutral>
1.85393e-08

> <r_epik_State_Penalty>
-0

> <r_epik_Charging_Adjusted_Penalty>
3.90028e-07

> <i_epik_Tot_Q>
0

> <i_epik_Tot_abs_Q>
0

> <r_epik_Metal_State_Penalty>
-0

> <b_epik_Metal_Only>
0

> <s_lp_Force_Field>
OPLS_2005

> <r_lp_Energy>
20.214

> <b_lp_Chiralities_Consistent>
1

> <s_lp_Variant>
AV-unprocessed.smi:1376-4

> <Gold.Version>
5.8.1

> <Gold.Id.Protein>
6NUR|6NUR_protein|mol2

> <Gold.PLP.Fitness>
46.8197

> <Gold.PLP.PLP>
-44.8656

> <Gold.PLP.part.hbond>
-2.0793

> <Gold.PLP.part.metal>
0.0000

> <Gold.PLP.part.buried>
-0.7531

> <Gold.PLP.part.nonpolar>
-42.6509

> <Gold.PLP.part.repulsive>
0.3704

> <Gold.PLP.ligand.clash>
0.0000

> <Gold.PLP.ligand.torsion>
0.5378

> <Gold.PLP.Chemscore.Hbond>
1.0000

> <Gold.PLP.Chemscore.CHOScore>
0.0000

> <Gold.PLP.Chemscore.Metal>
0.0000

> <Gold.Chemscore.Hbonds>
donor molecule, donor type, donor heavy atom, donor atom, acceptor molecule, acceptor atom, score
      L1  H    11    30       P1  8028  1.00

> <Gold.PLP.Chemscore.Internal.Correction>
0.0297

> <Gold.Rescore>
     Score         DG    S(hbond)    S(metal)    S(lipo)     H(rot)  DE(clash)    DE(int)     intcor
     11.82     -15.57       1.00        0.00     105.39       2.18       1.76       1.98       ----

> <Gold.Chemscore.Fitness>
11.8240

> <Gold.Chemscore.DG>
-15.5661

> <Gold.Chemscore.ZeroCoef>
-5.4800

> <Gold.Chemscore.Hbond>
0.9986

> <Gold.Chemscore.Metal>
0.0000

> <Gold.Chemscore.Lipo>
105.3939

> <Gold.Chemscore.Internal_Hbond>
0.0000

> <Gold.Chemscore.DEClash>
1.7634

> <Gold.Chemscore.DEInternal>
1.9787

> <Gold.Chemscore.Rot>
2.1797

> <Gold.Chemscore.Internal.Correction>
   9.000000E+99

> <Gold.Chemscore.Hbonds>
donor molecule, donor type, donor heavy atom, donor atom, acceptor molecule, acceptor atom, score
      L1  H    11    30       P1  8028  0.99

> <Gold.Chemscore.Hbond.Weighted>
-3.3352

> <Gold.Chemscore.Metal.Weighted>
-0.0000

> <Gold.Chemscore.Lipo.Weighted>
-12.3311

> <Gold.Chemscore.Internal_Hbond.Weighted>
0.0000

> <Gold.Chemscore.DEClash.Weighted>
1.7634

> <Gold.Chemscore.DEInternal.Weighted>
1.9787

> <Gold.Chemscore.Rot.Weighted>
5.5802

> <Gold.Chemscore.Internal.Correction.Weighted>
   9.000000E+99

> <Gold.Protein.RotatedTorsions>
[ 6907 6896 6895 6894 ] final  -98.69 input  -60.11 | X-H torsion
[ 7974 7965 7964 7962 ] final  118.11 input  175.53 | X-H torsion
[ 8008 7997 7996 7995 ] final  -11.61 input   59.86 | X-H torsion
[ 10167 10162 10161 10158 ] final -110.87 input  -65.29 | X-H torsion
[ 10718 10713 10712 10709 ] final  -93.88 input   66.30 | X-H torsion
[ 10763 10752 10751 10750 ] final  165.15 input  -60.55 | X-H torsion
[ 11005 11000 10999 10996 ] final  -53.51 input  -57.11 | X-H torsion

> <Gold.Protein.ActiveResidues>
 VAL166  LYS551  ARG553  GLY616  TRP617  ASP618  TYR619  PRO620  LYS621  CYS622 
 ASP623  PHE694  ASN695  SER759  ASP760  ASP761  ALA762  ILE779  LEU786  VAL792 
 PHE793  MET794  SER795  GLU796  ALA797  LYS798  CYS799  TRP800  GLU811  SER814 

> <Gold.Protein.RotatedAtoms>
  150.7055  134.1156  159.4015 H   0  0  0  0  0  0  0  0  0  0  0  0  # atno 6907 bound_to 6896
  151.9142  135.0323  160.0526 H   0  0  0  0  0  0  0  0  0  0  0  0  # atno 6908 bound_to 6896
  152.2310  133.5023  159.5252 H   0  0  0  0  0  0  0  0  0  0  0  0  # atno 6909 bound_to 6896
  145.1592  139.3165  143.4526 H   0  0  0  0  0  0  0  0  0  0  0  0  # atno 7974 bound_to 7965
  154.5450  140.2298  155.8578 H   0  0  0  0  0  0  0  0  0  0  0  0  # atno 8008 bound_to 7997
  156.1894  140.3081  155.9264 H   0  0  0  0  0  0  0  0  0  0  0  0  # atno 8009 bound_to 7997
  155.3183  140.0439  157.3029 H   0  0  0  0  0  0  0  0  0  0  0  0  # atno 8010 bound_to 7997
  140.1398  143.4289  152.1570 H   0  0  0  0  0  0  0  0  0  0  0  0  # atno 10167 bound_to 10162
  156.0019  130.5045  150.5843 H   0  0  0  0  0  0  0  0  0  0  0  0  # atno 10718 bound_to 10713
  154.3197  135.2756  155.2525 H   0  0  0  0  0  0  0  0  0  0  0  0  # atno 10763 bound_to 10752
  154.4884  135.5840  153.6444 H   0  0  0  0  0  0  0  0  0  0  0  0  # atno 10764 bound_to 10752
  152.9878  135.6128  154.3381 H   0  0  0  0  0  0  0  0  0  0  0  0  # atno 10765 bound_to 10752
  141.0979  133.6622  156.4182 H   0  0  0  0  0  0  0  0  0  0  0  0  # atno 11005 bound_to 11000
  146.3484  140.1696  142.8590 LP  0  0  0  0  0  0  0  0  0  0  0  0  # atno 17320 bound_to 7965
  145.0349  140.8900  143.5087 LP  0  0  0  0  0  0  0  0  0  0  0  0  # atno 17321 bound_to 7965
  139.5478  144.7313  151.4529 LP  0  0  0  0  0  0  0  0  0  0  0  0  # atno 17342 bound_to 10162
  140.6767  143.8173  150.7068 LP  0  0  0  0  0  0  0  0  0  0  0  0  # atno 17343 bound_to 10162
  157.3718  131.0767  151.1551 LP  0  0  0  0  0  0  0  0  0  0  0  0  # atno 17370 bound_to 10713
  157.2302  130.6521  149.5846 LP  0  0  0  0  0  0  0  0  0  0  0  0  # atno 17371 bound_to 10713
  140.5094  134.6410  157.5278 LP  0  0  0  0  0  0  0  0  0  0  0  0  # atno 17394 bound_to 11000
  139.9821  134.7120  155.9840 LP  0  0  0  0  0  0  0  0  0  0  0  0  # atno 17395 bound_to 11000

$$$$
