AV-unprocessed.smi:1291|AV-procd|sdf|5393|dock7
  -GOLD-   22720 4553D 1   1.00000     0.00000
 Structure written by MMmdl.
 44 46  0  0  0  0  0  0  0  0  2 V2000
  153.3592  138.9589  156.1981 O   0  0  0  0  0  0  0  0  0  0  0  0
  152.1905  139.7484  156.1253 C   0  0  0  0  0  0  0  0  0  0  0  0
  152.1955  140.9026  157.0772 C   0  0  0  0  0  0  0  0  0  0  0  0
  152.0591  142.2205  156.7533 N   0  3  0  0  0  0  0  0  0  0  0  0
  152.1048  143.0003  157.9091 C   0  0  0  0  0  0  0  0  0  0  0  0
  152.0065  144.3776  158.0830 C   0  0  0  0  0  0  0  0  0  0  0  0
  152.0836  144.8552  159.4076 C   0  0  0  0  0  0  0  0  0  0  0  0
  152.2538  143.9754  160.4962 C   0  0  0  0  0  0  0  0  0  0  0  0
  152.3577  142.5817  160.3065 C   0  0  0  0  0  0  0  0  0  0  0  0
  152.2799  142.1164  158.9936 C   0  0  0  0  0  0  0  0  0  0  0  0
  152.3358  140.8343  158.4323 N   0  0  0  0  0  0  0  0  0  0  0  0
  152.5221  139.6628  159.3042 C   0  0  0  0  0  0  0  0  0  0  0  0
  151.2505  139.2899  160.0925 C   0  0  2  0  0  0  0  0  0  0  0  0
  151.6170  138.6476  161.2976 O   0  0  0  0  0  0  0  0  0  0  0  0
  150.3450  138.3385  159.2960 C   0  0  0  0  0  0  0  0  0  0  0  0
  149.2364  137.9763  160.1022 O   0  0  0  0  0  0  0  0  0  0  0  0
  148.9148  136.5987  160.0084 C   0  0  0  0  0  0  0  0  0  0  0  0
  147.7300  136.2476  160.8869 C   0  0  0  0  0  0  0  0  0  0  0  0
  146.9816  137.2679  161.5112 C   0  0  0  0  0  0  0  0  0  0  0  0
  145.8809  136.9405  162.3270 C   0  0  0  0  0  0  0  0  0  0  0  0
  145.5235  135.5921  162.5205 C   0  0  0  0  0  0  0  0  0  0  0  0
  146.2666  134.5713  161.8970 C   0  0  0  0  0  0  0  0  0  0  0  0
  147.3680  134.8969  161.0812 C   0  0  0  0  0  0  0  0  0  0  0  0
  148.0777  133.9077  160.4867 F   0  0  0  0  0  0  0  0  0  0  0  0
  153.1148  138.0504  156.1052 H   0  0  0  0  0  0  0  0  0  0  0  0
  152.0835  140.1245  155.1077 H   0  0  0  0  0  0  0  0  0  0  0  0
  151.3254  139.1180  156.3311 H   0  0  0  0  0  0  0  0  0  0  0  0
  151.8740  145.0529  157.2506 H   0  0  0  0  0  0  0  0  0  0  0  0
  152.0083  145.9170  159.5927 H   0  0  0  0  0  0  0  0  0  0  0  0
  152.3037  144.3765  161.4983 H   0  0  0  0  0  0  0  0  0  0  0  0
  152.4806  141.9175  161.1491 H   0  0  0  0  0  0  0  0  0  0  0  0
  152.8176  138.8309  158.6637 H   0  0  0  0  0  0  0  0  0  0  0  0
  153.3652  139.8394  159.9725 H   0  0  0  0  0  0  0  0  0  0  0  0
  150.7015  140.2012  160.3324 H   0  0  0  0  0  0  0  0  0  0  0  0
  151.4750  139.2515  162.0111 H   0  0  0  0  0  0  0  0  0  0  0  0
  149.9692  138.8464  158.4062 H   0  0  0  0  0  0  0  0  0  0  0  0
  150.8979  137.4599  158.9582 H   0  0  0  0  0  0  0  0  0  0  0  0
  148.6971  136.3387  158.9715 H   0  0  0  0  0  0  0  0  0  0  0  0
  149.7681  135.9932  160.3182 H   0  0  0  0  0  0  0  0  0  0  0  0
  147.2499  138.3045  161.3694 H   0  0  0  0  0  0  0  0  0  0  0  0
  145.3113  137.7243  162.8047 H   0  0  0  0  0  0  0  0  0  0  0  0
  144.6803  135.3409  163.1469 H   0  0  0  0  0  0  0  0  0  0  0  0
  145.9917  133.5373  162.0450 H   0  0  0  0  0  0  0  0  0  0  0  0
  151.9397  142.5547  155.8056 H   0  0  0  0  0  0  0  0  0  0  0  0
  1  2  1  0  0  0  0
  1 25  1  0  0  0  0
  2  3  1  0  0  0  0
  2 26  1  0  0  0  0
  2 27  1  0  0  0  0
  3 11  1  0  0  0  0
  3  4  2  0  0  0  0
  4  5  1  0  0  0  0
  4 44  1  0  0  0  0
  5 10  2  0  0  0  0
  5  6  1  0  0  0  0
  6  7  2  0  0  0  0
  6 28  1  0  0  0  0
  7  8  1  0  0  0  0
  7 29  1  0  0  0  0
  8  9  2  0  0  0  0
  8 30  1  0  0  0  0
  9 10  1  0  0  0  0
  9 31  1  0  0  0  0
 10 11  1  0  0  0  0
 11 12  1  0  0  0  0
 12 13  1  0  0  0  0
 12 32  1  0  0  0  0
 12 33  1  0  0  0  0
 13 14  1  0  0  0  0
 13 15  1  0  0  0  0
 13 34  1  0  0  0  0
 14 35  1  0  0  0  0
 15 16  1  0  0  0  0
 15 36  1  0  0  0  0
 15 37  1  0  0  0  0
 16 17  1  0  0  0  0
 17 18  1  0  0  0  0
 17 38  1  0  0  0  0
 17 39  1  0  0  0  0
 18 23  1  0  0  0  0
 18 19  2  0  0  0  0
 19 20  1  0  0  0  0
 19 40  1  0  0  0  0
 20 21  2  0  0  0  0
 20 41  1  0  0  0  0
 21 22  1  0  0  0  0
 21 42  1  0  0  0  0
 22 23  2  0  0  0  0
 22 43  1  0  0  0  0
 23 24  1  0  0  0  0
M  CHG  1   4   1
M  END
> <s_m_source_file>
AV-unprocessed.smi

> <i_m_source_file_index>
1291

> <i_lp_mmshare_version>
43012

> <i_f3d_flags>
0

> <s_epik_input>
W2NIXTFbY0hdW2NIXVtjSF1jKGMxMiluKGMobjIpW0NIMl1bT0hdKVtDSDJdW0NASF0oW09IXSlbQ0gyXU9bQ0gyXWMzW2NIXVtjSF1bY0hdW2NIXWMzRg==

> <s_epik_cmdline>
J2VwaWtfcHl0aG9uJywgJy1waCcsICc3LjAnLCAnLXRuJywgJzgnLCAnLW1hJywgJzIwMCcsICctbWV0YWxfYmluZGluZycsICctaW1hZScsICc8aW5maWxlLm1hZT4nLCAnLW9tYWUnLCAnPG91dGZpbGUubWFlPic=

> <r_epik_Ionization_Penalty>
1.34314

> <r_epik_Ionization_Penalty_Charging>
1.34228

> <r_epik_Ionization_Penalty_Neutral>
0.000856861

> <r_epik_State_Penalty>
1.41963

> <r_epik_Charging_Adjusted_Penalty>
2.76191

> <i_epik_Tot_Q>
1

> <i_epik_Tot_abs_Q>
1

> <r_epik_Metal_State_Penalty>
5.45585

> <b_epik_Metal_Only>
0

> <s_lp_Force_Field>
OPLS_2005

> <r_lp_Energy>
17.9638

> <b_lp_Chiralities_Consistent>
1

> <s_lp_Variant>
AV-unprocessed.smi:1291-3

> <Gold.Version>
5.8.1

> <Gold.Id.Protein>
6NUR|6NUR_protein|mol2

> <Gold.PLP.Fitness>
64.2536

> <Gold.PLP.PLP>
-56.8718

> <Gold.PLP.part.hbond>
-3.1541

> <Gold.PLP.part.metal>
0.0000

> <Gold.PLP.part.buried>
-6.3546

> <Gold.PLP.part.nonpolar>
-48.5120

> <Gold.PLP.part.repulsive>
0.0673

> <Gold.PLP.ligand.clash>
0.0000

> <Gold.PLP.ligand.torsion>
0.9031

> <Gold.PLP.Chemscore.Hbond>
3.0140

> <Gold.PLP.Chemscore.CHOScore>
0.0000

> <Gold.PLP.Chemscore.Metal>
0.0000

> <Gold.Chemscore.Hbonds>
donor molecule, donor type, donor heavy atom, donor atom, acceptor molecule, acceptor atom, score
      P1  H  6931  6943       L1    16  0.05
      P1  H  7997  8009       L1     1  0.81

> <Gold.PLP.Chemscore.Internal.Correction>
0.1459

> <Gold.Rescore>
     Score         DG    S(hbond)    S(metal)    S(lipo)     H(rot)  DE(clash)    DE(int)     intcor
     18.68     -19.41       2.01        0.00     136.85       3.44       0.07       0.66       ----

> <Gold.Chemscore.Fitness>
18.6811

> <Gold.Chemscore.DG>
-19.4149

> <Gold.Chemscore.ZeroCoef>
-5.4800

> <Gold.Chemscore.Hbond>
2.0114

> <Gold.Chemscore.Metal>
0.0000

> <Gold.Chemscore.Lipo>
136.8468

> <Gold.Chemscore.Internal_Hbond>
0.0000

> <Gold.Chemscore.DEClash>
0.0737

> <Gold.Chemscore.DEInternal>
0.6602

> <Gold.Chemscore.Rot>
3.4353

> <Gold.Chemscore.Internal.Correction>
   9.000000E+99

> <Gold.Chemscore.Hbonds>
donor molecule, donor type, donor heavy atom, donor atom, acceptor molecule, acceptor atom, score
      P1  H  6931  6943       L1    16  0.03
      P1  H  7997  8009       L1     1  0.13

> <Gold.Chemscore.Hbond.Weighted>
-6.7182

> <Gold.Chemscore.Metal.Weighted>
-0.0000

> <Gold.Chemscore.Lipo.Weighted>
-16.0111

> <Gold.Chemscore.Internal_Hbond.Weighted>
0.0000

> <Gold.Chemscore.DEClash.Weighted>
0.0737

> <Gold.Chemscore.DEInternal.Weighted>
0.6602

> <Gold.Chemscore.Rot.Weighted>
8.7944

> <Gold.Chemscore.Internal.Correction.Weighted>
   9.000000E+99

> <Gold.Protein.RotatedTorsions>
[ 6907 6896 6895 6894 ] final   71.35 input  -60.11 | X-H torsion
[ 7974 7965 7964 7962 ] final  -32.70 input  175.53 | X-H torsion
[ 8008 7997 7996 7995 ] final -159.98 input   59.86 | X-H torsion
[ 10167 10162 10161 10158 ] final   97.04 input  -65.29 | X-H torsion
[ 10718 10713 10712 10709 ] final   63.18 input   66.30 | X-H torsion
[ 10763 10752 10751 10750 ] final  -47.52 input  -60.55 | X-H torsion
[ 11005 11000 10999 10996 ] final   49.50 input  -57.11 | X-H torsion

> <Gold.Protein.ActiveResidues>
 VAL166  LYS551  ARG553  GLY616  TRP617  ASP618  TYR619  PRO620  LYS621  CYS622 
 ASP623  PHE694  ASN695  SER759  ASP760  ASP761  ALA762  ILE779  LEU786  VAL792 
 PHE793  MET794  SER795  GLU796  ALA797  LYS798  CYS799  TRP800  GLU811  SER814 

> <Gold.Protein.RotatedAtoms>
  152.4805  134.4733  159.9642 H   0  0  0  0  0  0  0  0  0  0  0  0  # atno 6907 bound_to 6896
  151.4740  133.3556  159.2835 H   0  0  0  0  0  0  0  0  0  0  0  0  # atno 6908 bound_to 6896
  150.8873  134.8299  159.7329 H   0  0  0  0  0  0  0  0  0  0  0  0  # atno 6909 bound_to 6896
  146.0969  140.5825  142.8839 H   0  0  0  0  0  0  0  0  0  0  0  0  # atno 7974 bound_to 7965
  155.7706  140.0851  157.2110 H   0  0  0  0  0  0  0  0  0  0  0  0  # atno 8008 bound_to 7997
  154.3996  140.1526  156.2994 H   0  0  0  0  0  0  0  0  0  0  0  0  # atno 8009 bound_to 7997
  155.8751  140.3423  155.5851 H   0  0  0  0  0  0  0  0  0  0  0  0  # atno 8010 bound_to 7997
  139.7838  144.6878  150.9986 H   0  0  0  0  0  0  0  0  0  0  0  0  # atno 10167 bound_to 10162
  157.5953  130.9091  149.9683 H   0  0  0  0  0  0  0  0  0  0  0  0  # atno 10718 bound_to 10713
  154.0627  135.6616  153.4814 H   0  0  0  0  0  0  0  0  0  0  0  0  # atno 10763 bound_to 10752
  153.0421  135.5138  154.7644 H   0  0  0  0  0  0  0  0  0  0  0  0  # atno 10764 bound_to 10752
  154.6685  135.3026  154.9741 H   0  0  0  0  0  0  0  0  0  0  0  0  # atno 10765 bound_to 10752
  140.1098  134.4970  155.8688 H   0  0  0  0  0  0  0  0  0  0  0  0  # atno 11005 bound_to 11000
  144.7402  140.4921  143.6874 LP  0  0  0  0  0  0  0  0  0  0  0  0  # atno 17320 bound_to 7965
  145.5931  139.1497  143.3171 LP  0  0  0  0  0  0  0  0  0  0  0  0  # atno 17321 bound_to 7965
  140.7819  143.4454  151.0490 LP  0  0  0  0  0  0  0  0  0  0  0  0  # atno 17342 bound_to 10162
  139.8134  143.7920  152.3173 LP  0  0  0  0  0  0  0  0  0  0  0  0  # atno 17343 bound_to 10162
  156.1014  130.3655  150.0210 LP  0  0  0  0  0  0  0  0  0  0  0  0  # atno 17370 bound_to 10713
  156.8325  130.9397  151.3636 LP  0  0  0  0  0  0  0  0  0  0  0  0  # atno 17371 bound_to 10713
  141.2127  133.6723  156.6682 LP  0  0  0  0  0  0  0  0  0  0  0  0  # atno 17394 bound_to 11000
  140.3107  134.8089  157.4173 LP  0  0  0  0  0  0  0  0  0  0  0  0  # atno 17395 bound_to 11000

$$$$
