AV-unprocessed.smi:970|AV-procd|sdf|4291|dock9
  -GOLD-   22720 2193D 1   1.00000     0.00000
 Structure written by MMmdl.
 31 31  0  0  0  0  0  0  0  0  1 V2000
  154.3136  139.9052  161.0023 C   0  0  0  0  0  0  0  0  0  0  0  0
  153.6618  140.7300  159.9967 N   0  0  0  0  0  0  0  0  0  0  0  0
  153.2190  141.9764  160.2155 C   0  0  0  0  0  0  0  0  0  0  0  0
  153.3297  142.5488  161.3014 O   0  0  0  0  0  0  0  0  0  0  0  0
  152.5698  142.6879  159.0172 C   0  0  2  0  0  0  0  0  0  0  0  0
  152.1037  144.0765  159.4852 C   0  0  0  0  0  0  0  0  0  0  0  0
  151.3936  141.9509  158.5597 N   0  0  0  0  0  0  0  0  0  0  0  0
  151.4130  140.8774  157.7516 C   0  0  0  0  0  0  0  0  0  0  0  0
  152.4556  140.3975  157.3040 O   0  0  0  0  0  0  0  0  0  0  0  0
  150.0474  140.2518  157.4149 C   0  0  2  0  0  0  0  0  0  0  0  0
  149.9457  138.7665  157.8172 C   0  0  0  0  0  0  0  0  0  0  0  0
  149.7175  140.4501  156.0081 N   0  0  0  0  0  0  0  0  0  0  0  0
  149.6918  141.5698  155.2819 C   0  0  0  0  0  0  0  0  0  0  0  0
  149.3798  141.3784  154.0079 N   0  0  0  0  0  0  0  0  0  0  0  0
  149.2200  140.0217  154.0137 C   0  0  0  0  0  0  0  0  0  0  0  0
  149.4162  139.4154  155.1843 N   0  0  0  0  0  0  0  0  0  0  0  0
  154.5413  138.9233  160.5879 H   0  0  0  0  0  0  0  0  0  0  0  0
  153.6686  139.7673  161.8712 H   0  0  0  0  0  0  0  0  0  0  0  0
  155.2480  140.3622  161.3307 H   0  0  0  0  0  0  0  0  0  0  0  0
  153.5369  140.3286  159.0784 H   0  0  0  0  0  0  0  0  0  0  0  0
  153.2884  142.7971  158.2023 H   0  0  0  0  0  0  0  0  0  0  0  0
  152.9438  144.6800  159.8314 H   0  0  0  0  0  0  0  0  0  0  0  0
  151.3817  144.0113  160.3008 H   0  0  0  0  0  0  0  0  0  0  0  0
  151.6287  144.6222  158.6693 H   0  0  0  0  0  0  0  0  0  0  0  0
  150.4979  142.2770  158.8921 H   0  0  0  0  0  0  0  0  0  0  0  0
  149.3043  140.7974  157.9986 H   0  0  0  0  0  0  0  0  0  0  0  0
  150.1144  138.6344  158.8866 H   0  0  0  0  0  0  0  0  0  0  0  0
  150.6733  138.1500  157.2881 H   0  0  0  0  0  0  0  0  0  0  0  0
  148.9543  138.3719  157.5939 H   0  0  0  0  0  0  0  0  0  0  0  0
  149.9104  142.5445  155.6928 H   0  0  0  0  0  0  0  0  0  0  0  0
  148.9563  139.4636  153.1275 H   0  0  0  0  0  0  0  0  0  0  0  0
  1  2  1  0  0  0  0
  1 17  1  0  0  0  0
  1 18  1  0  0  0  0
  1 19  1  0  0  0  0
  2  3  1  0  0  0  0
  2 20  1  0  0  0  0
  3  4  2  0  0  0  0
  3  5  1  0  0  0  0
  5  6  1  0  0  0  0
  5  7  1  0  0  0  0
  5 21  1  0  0  0  0
  6 22  1  0  0  0  0
  6 23  1  0  0  0  0
  6 24  1  0  0  0  0
  7  8  1  0  0  0  0
  7 25  1  0  0  0  0
  8  9  2  0  0  0  0
  8 10  1  0  0  0  0
 10 11  1  0  0  0  0
 10 12  1  0  0  0  0
 10 26  1  0  0  0  0
 11 27  1  0  0  0  0
 11 28  1  0  0  0  0
 11 29  1  0  0  0  0
 12 16  1  0  0  0  0
 12 13  1  0  0  0  0
 13 14  2  0  0  0  0
 13 30  1  0  0  0  0
 14 15  1  0  0  0  0
 15 16  2  0  0  0  0
 15 31  1  0  0  0  0
M  END
> <s_m_source_file>
AV-unprocessed.smi

> <i_m_source_file_index>
970

> <i_lp_mmshare_version>
43012

> <i_f3d_flags>
0

> <s_epik_input>
W0NIM11bTkhdQyg9TylbQ0BIXShbQ0gzXSlbTkhdQyg9TylbQ0BIXShbQ0gzXSluMVtjSF1uW2NIXW4x

> <s_epik_cmdline>
J2VwaWtfcHl0aG9uJywgJy1waCcsICc3LjAnLCAnLXRuJywgJzgnLCAnLW1hJywgJzIwMCcsICctbWV0YWxfYmluZGluZycsICctaW1hZScsICc8aW5maWxlLm1hZT4nLCAnLW9tYWUnLCAnPG91dGZpbGUubWFlPic=

> <r_lp_tautomer_probability>
1

> <r_epik_Ionization_Penalty>
1.07271e-05

> <r_epik_Ionization_Penalty_Charging>
0

> <r_epik_Ionization_Penalty_Neutral>
1.07271e-05

> <r_epik_State_Penalty>
-0

> <r_epik_Charging_Adjusted_Penalty>
0

> <i_epik_Tot_Q>
0

> <i_epik_Tot_abs_Q>
0

> <r_epik_Metal_State_Penalty>
-0

> <b_epik_Metal_Only>
0

> <s_lp_Force_Field>
OPLS_2005

> <r_lp_Energy>
8.61602

> <b_lp_Chiralities_Consistent>
1

> <s_lp_Variant>
AV-unprocessed.smi:970-1

> <Gold.Version>
5.8.1

> <Gold.Id.Protein>
6NUR|6NUR_protein|mol2

> <Gold.PLP.Fitness>
37.4492

> <Gold.PLP.PLP>
-27.6138

> <Gold.PLP.part.hbond>
-3.0000

> <Gold.PLP.part.metal>
0.0000

> <Gold.PLP.part.buried>
-0.5523

> <Gold.PLP.part.nonpolar>
-22.8821

> <Gold.PLP.part.repulsive>
0.4175

> <Gold.PLP.ligand.clash>
0.0000

> <Gold.PLP.ligand.torsion>
0.4116

> <Gold.PLP.Chemscore.Hbond>
1.6455

> <Gold.PLP.Chemscore.CHOScore>
1.8689

> <Gold.PLP.Chemscore.Metal>
0.0000

> <Gold.Chemscore.Hbonds>
donor molecule, donor type, donor heavy atom, donor atom, acceptor molecule, acceptor atom, score
      P1  H  7989  7998       L1    14  0.01
      P1  H  7997  8010       L1     9  0.86
      P1  H  8011  8017       L1    14  0.74
      L1  C    13    30       P1  8028  1.00
      L1  C    15    31       P1  7957  0.86

> <Gold.PLP.Chemscore.Internal.Correction>
0.1154

> <Gold.Rescore>
     Score         DG    S(hbond)    S(metal)    S(lipo)     H(rot)  DE(clash)    DE(int)     intcor
      6.22      -8.23       1.48        0.00      37.82       2.59       0.37       1.64       ----

> <Gold.Chemscore.Fitness>
6.2208

> <Gold.Chemscore.DG>
-8.2326

> <Gold.Chemscore.ZeroCoef>
-5.4800

> <Gold.Chemscore.Hbond>
1.4809

> <Gold.Chemscore.Metal>
0.0000

> <Gold.Chemscore.Lipo>
37.8180

> <Gold.Chemscore.Internal_Hbond>
0.0000

> <Gold.Chemscore.DEClash>
0.3715

> <Gold.Chemscore.DEInternal>
1.6403

> <Gold.Chemscore.Rot>
2.5852

> <Gold.Chemscore.Internal.Correction>
   9.000000E+99

> <Gold.Chemscore.Hbonds>
donor molecule, donor type, donor heavy atom, donor atom, acceptor molecule, acceptor atom, score
      P1  H  7997  8010       L1     9  0.81
      P1  H  8011  8017       L1    14  0.70

> <Gold.Chemscore.Hbond.Weighted>
-4.9461

> <Gold.Chemscore.Metal.Weighted>
-0.0000

> <Gold.Chemscore.Lipo.Weighted>
-4.4247

> <Gold.Chemscore.Internal_Hbond.Weighted>
0.0000

> <Gold.Chemscore.DEClash.Weighted>
0.3715

> <Gold.Chemscore.DEInternal.Weighted>
1.6403

> <Gold.Chemscore.Rot.Weighted>
6.6182

> <Gold.Chemscore.Internal.Correction.Weighted>
   9.000000E+99

> <Gold.Protein.RotatedTorsions>
[ 6907 6896 6895 6894 ] final  167.35 input  -60.11 | X-H torsion
[ 7974 7965 7964 7962 ] final    6.48 input  175.53 | X-H torsion
[ 8008 7997 7996 7995 ] final   53.72 input   59.86 | X-H torsion
[ 10167 10162 10161 10158 ] final  -42.44 input  -65.29 | X-H torsion
[ 10718 10713 10712 10709 ] final   94.72 input   66.30 | X-H torsion
[ 10763 10752 10751 10750 ] final   76.90 input  -60.55 | X-H torsion
[ 11005 11000 10999 10996 ] final -138.13 input  -57.11 | X-H torsion

> <Gold.Protein.ActiveResidues>
 VAL166  LYS551  ARG553  GLY616  TRP617  ASP618  TYR619  PRO620  LYS621  CYS622 
 ASP623  PHE694  ASN695  SER759  ASP760  ASP761  ALA762  ILE779  LEU786  VAL792 
 PHE793  MET794  SER795  GLU796  ALA797  LYS798  CYS799  TRP800  GLU811  SER814 

> <Gold.Protein.RotatedAtoms>
  151.8646  133.3464  159.3714 H   0  0  0  0  0  0  0  0  0  0  0  0  # atno 6907 bound_to 6896
  150.7169  134.5172  159.5645 H   0  0  0  0  0  0  0  0  0  0  0  0  # atno 6908 bound_to 6896
  152.2693  134.7951  160.0468 H   0  0  0  0  0  0  0  0  0  0  0  0  # atno 6909 bound_to 6896
  146.2434  140.0227  142.8396 H   0  0  0  0  0  0  0  0  0  0  0  0  # atno 7974 bound_to 7965
  155.4729  140.3466  155.4328 H   0  0  0  0  0  0  0  0  0  0  0  0  # atno 8008 bound_to 7997
  156.1089  140.1455  156.9395 H   0  0  0  0  0  0  0  0  0  0  0  0  # atno 8009 bound_to 7997
  154.4743  140.0890  156.7201 H   0  0  0  0  0  0  0  0  0  0  0  0  # atno 8010 bound_to 7997
  140.6969  143.3037  151.3210 H   0  0  0  0  0  0  0  0  0  0  0  0  # atno 10167 bound_to 10162
  157.6945  131.0522  150.4229 H   0  0  0  0  0  0  0  0  0  0  0  0  # atno 10718 bound_to 10713
  153.0759  135.4934  154.8403 H   0  0  0  0  0  0  0  0  0  0  0  0  # atno 10763 bound_to 10752
  154.7086  135.3015  154.9234 H   0  0  0  0  0  0  0  0  0  0  0  0  # atno 10764 bound_to 10752
  153.9935  135.6775  153.4808 H   0  0  0  0  0  0  0  0  0  0  0  0  # atno 10765 bound_to 10752
  140.8645  134.2128  157.4688 H   0  0  0  0  0  0  0  0  0  0  0  0  # atno 11005 bound_to 11000
  145.1226  140.9471  143.4591 LP  0  0  0  0  0  0  0  0  0  0  0  0  # atno 17320 bound_to 7965
  145.0466  139.3216  143.5950 LP  0  0  0  0  0  0  0  0  0  0  0  0  # atno 17321 bound_to 7965
  139.6435  144.0494  152.2573 LP  0  0  0  0  0  0  0  0  0  0  0  0  # atno 17342 bound_to 10162
  140.0008  144.6295  150.7732 LP  0  0  0  0  0  0  0  0  0  0  0  0  # atno 17343 bound_to 10162
  156.4602  130.4030  149.6581 LP  0  0  0  0  0  0  0  0  0  0  0  0  # atno 17370 bound_to 10713
  156.3698  130.7525  151.2507 LP  0  0  0  0  0  0  0  0  0  0  0  0  # atno 17371 bound_to 10713
  139.8708  134.9745  156.4849 LP  0  0  0  0  0  0  0  0  0  0  0  0  # atno 17394 bound_to 11000
  140.8645  133.8035  155.9299 LP  0  0  0  0  0  0  0  0  0  0  0  0  # atno 17395 bound_to 11000

$$$$
