AV-unprocessed.smi:243|AV-procd|sdf|1855|dock2
  -GOLD-   2262020483D 1   1.00000     0.00000
 Structure written by MMmdl.
 58 61  0  0  0  0  0  0  0  0  2 V2000
  152.3686  144.3568  158.2716 C   0  0  0  0  0  0  0  0  0  0  0  0
  151.1719  143.5062  158.7221 C   0  0  0  0  0  0  0  0  0  0  0  0
  150.4577  142.8761  157.5828 N   0  3  1  0  0  0  0  0  0  0  0  0
  151.3458  142.0657  156.7119 C   0  0  0  0  0  0  0  0  0  0  0  0
  150.5872  141.5733  155.4735 C   0  0  0  0  0  0  0  0  0  0  0  0
  149.3384  140.7511  155.8613 C   0  0  2  0  0  0  0  0  0  0  0  0
  148.6257  140.2287  154.6845 N   0  0  0  0  0  0  0  0  0  0  0  0
  147.9290  141.2017  153.8508 C   0  0  0  0  0  0  0  0  0  0  0  0
  147.9709  139.0482  154.8204 C   0  0  0  0  0  0  0  0  0  0  0  0
  148.0866  138.3971  156.0047 N   0  0  0  0  0  0  0  0  0  0  0  0
  147.4629  137.2313  156.1968 C   0  0  0  0  0  0  0  0  0  0  0  0
  146.6870  136.5513  155.3510 N   0  0  0  0  0  0  0  0  0  0  0  0
  146.5749  137.1949  154.1542 C   0  0  0  0  0  0  0  0  0  0  0  0
  147.1794  138.4358  153.8049 C   0  0  0  0  0  0  0  0  0  0  0  0
  146.8274  138.7813  152.5050 N   0  0  0  0  0  0  0  0  0  0  0  0
  146.0640  137.8003  152.1083 C   0  0  0  0  0  0  0  0  0  0  0  0
  145.8626  136.8023  153.0344 N   0  0  0  0  0  0  0  0  0  0  0  0
  145.0586  135.6024  152.8621 C   0  0  0  0  0  0  0  0  0  0  0  0
  145.8622  134.3920  152.3317 C   0  0  2  0  0  0  0  0  0  0  0  0
  147.1422  134.3822  152.9392 O   0  0  0  0  0  0  0  0  0  0  0  0
  146.0464  134.3803  150.8162 C   0  0  0  0  0  0  0  0  0  0  0  0
  146.0462  132.8947  150.4841 C   0  0  0  0  0  0  0  0  0  0  0  0
  145.0491  132.3872  151.3534 O   0  0  0  0  0  0  0  0  0  0  0  0
  145.1783  133.0390  152.6125 C   0  0  0  0  0  0  0  0  0  0  0  0
  148.4476  141.5667  156.8355 C   0  0  1  0  0  0  0  0  0  0  0  0
  147.2619  140.7393  157.3651 C   0  0  0  0  0  0  0  0  0  0  0  0
  149.2815  142.0862  158.0268 C   0  0  0  0  0  0  0  0  0  0  0  0
  152.8102  144.8760  159.1226 H   0  0  0  0  0  0  0  0  0  0  0  0
  152.0642  145.1128  157.5472 H   0  0  0  0  0  0  0  0  0  0  0  0
  153.1561  143.7540  157.8206 H   0  0  0  0  0  0  0  0  0  0  0  0
  151.4877  142.7430  159.4348 H   0  0  0  0  0  0  0  0  0  0  0  0
  150.4849  144.1626  159.2577 H   0  0  0  0  0  0  0  0  0  0  0  0
  152.2016  142.6553  156.3851 H   0  0  0  0  0  0  0  0  0  0  0  0
  151.7418  141.2187  157.2745 H   0  0  0  0  0  0  0  0  0  0  0  0
  150.3011  142.4392  154.8755 H   0  0  0  0  0  0  0  0  0  0  0  0
  151.2586  140.9777  154.8547 H   0  0  0  0  0  0  0  0  0  0  0  0
  149.6906  139.8773  156.4117 H   0  0  0  0  0  0  0  0  0  0  0  0
  147.4475  140.7181  152.9995 H   0  0  0  0  0  0  0  0  0  0  0  0
  148.6382  141.9304  153.4576 H   0  0  0  0  0  0  0  0  0  0  0  0
  147.1696  141.7430  154.4146 H   0  0  0  0  0  0  0  0  0  0  0  0
  147.6062  136.7783  157.1666 H   0  0  0  0  0  0  0  0  0  0  0  0
  145.6241  137.7779  151.1218 H   0  0  0  0  0  0  0  0  0  0  0  0
  144.5926  135.3578  153.8176 H   0  0  0  0  0  0  0  0  0  0  0  0
  144.2429  135.8387  152.1775 H   0  0  0  0  0  0  0  0  0  0  0  0
  147.5950  135.1758  152.6981 H   0  0  0  0  0  0  0  0  0  0  0  0
  145.1897  134.8464  150.3280 H   0  0  0  0  0  0  0  0  0  0  0  0
  146.9443  134.8979  150.4760 H   0  0  0  0  0  0  0  0  0  0  0  0
  145.8106  132.6939  149.4388 H   0  0  0  0  0  0  0  0  0  0  0  0
  147.0090  132.4377  150.7182 H   0  0  0  0  0  0  0  0  0  0  0  0
  145.7662  132.4134  153.2864 H   0  0  0  0  0  0  0  0  0  0  0  0
  144.1898  133.1561  153.0575 H   0  0  0  0  0  0  0  0  0  0  0  0
  148.0519  142.4390  156.3146 H   0  0  0  0  0  0  0  0  0  0  0  0
  147.6065  139.8602  157.9105 H   0  0  0  0  0  0  0  0  0  0  0  0
  146.6140  140.3923  156.5609 H   0  0  0  0  0  0  0  0  0  0  0  0
  146.6446  141.3289  158.0432 H   0  0  0  0  0  0  0  0  0  0  0  0
  149.6213  141.2534  158.6450 H   0  0  0  0  0  0  0  0  0  0  0  0
  148.6468  142.7087  158.6590 H   0  0  0  0  0  0  0  0  0  0  0  0
  150.0948  143.6315  157.0183 H   0  0  0  0  0  0  0  0  0  0  0  0
  1  2  1  0  0  0  0
  1 28  1  0  0  0  0
  1 29  1  0  0  0  0
  1 30  1  0  0  0  0
  2  3  1  0  0  0  0
  2 31  1  0  0  0  0
  2 32  1  0  0  0  0
  3 27  1  0  0  0  0
  3  4  1  0  0  0  0
  3 58  1  0  0  0  0
  4  5  1  0  0  0  0
  4 33  1  0  0  0  0
  4 34  1  0  0  0  0
  5  6  1  0  0  0  0
  5 35  1  0  0  0  0
  5 36  1  0  0  0  0
  6  7  1  0  0  0  0
  6 25  1  0  0  0  0
  6 37  1  0  0  0  0
  7  8  1  0  0  0  0
  7  9  1  0  0  0  0
  8 38  1  0  0  0  0
  8 39  1  0  0  0  0
  8 40  1  0  0  0  0
  9 14  1  0  0  0  0
  9 10  2  0  0  0  0
 10 11  1  0  0  0  0
 11 12  2  0  0  0  0
 11 41  1  0  0  0  0
 12 13  1  0  0  0  0
 13 17  1  0  0  0  0
 13 14  2  0  0  0  0
 14 15  1  0  0  0  0
 15 16  2  0  0  0  0
 16 17  1  0  0  0  0
 16 42  1  0  0  0  0
 17 18  1  0  0  0  0
 18 19  1  0  0  0  0
 18 43  1  0  0  0  0
 18 44  1  0  0  0  0
 19 24  1  0  0  0  0
 19 20  1  0  0  0  0
 19 21  1  0  0  0  0
 20 45  1  0  0  0  0
 21 22  1  0  0  0  0
 21 46  1  0  0  0  0
 21 47  1  0  0  0  0
 22 23  1  0  0  0  0
 22 48  1  0  0  0  0
 22 49  1  0  0  0  0
 23 24  1  0  0  0  0
 24 50  1  0  0  0  0
 24 51  1  0  0  0  0
 25 26  1  0  0  0  0
 25 27  1  0  0  0  0
 25 52  1  0  0  0  0
 26 53  1  0  0  0  0
 26 54  1  0  0  0  0
 26 55  1  0  0  0  0
 27 56  1  0  0  0  0
 27 57  1  0  0  0  0
M  CHG  1   3   1
M  END
> <s_m_source_file>
AV-unprocessed.smi

> <i_m_source_file_index>
243

> <i_lp_mmshare_version>
43012

> <i_f3d_flags>
0

> <s_epik_input>
W0NIM11bQ0gyXU4xW0NIMl1bQ0gyXVtDQEhdKFtDQEBIXShbQ0gzXSlbQ0gyXTEpTihbQ0gzXSljKG5bY0hdbjIpYyhjMjMpbltjSF1uM1tDSDJdW0NAQF00KFtPSF0pW0NIMl1bQ0gyXU9bQ0gyXTQ=

> <s_epik_cmdline>
J2VwaWtfcHl0aG9uJywgJy1waCcsICc3LjAnLCAnLXRuJywgJzgnLCAnLW1hJywgJzIwMCcsICctbWV0YWxfYmluZGluZycsICctaW1hZScsICc8aW5maWxlLm1hZT4nLCAnLW9tYWUnLCAnPG91dGZpbGUubWFlPic=

> <r_lp_tautomer_probability>
1

> <r_epik_Ionization_Penalty>
0.00253099

> <r_epik_Ionization_Penalty_Charging>
0.00137877

> <r_epik_Ionization_Penalty_Neutral>
0.00115221

> <r_epik_State_Penalty>
-0

> <r_epik_Charging_Adjusted_Penalty>
0.00137877

> <i_epik_Tot_Q>
1

> <i_epik_Tot_abs_Q>
1

> <r_epik_Metal_State_Penalty>
-0

> <b_epik_Metal_Only>
0

> <s_lp_Force_Field>
OPLS_2005

> <r_lp_Energy>
45.753

> <b_lp_Chiralities_Consistent>
1

> <s_lp_Variant>
AV-unprocessed.smi:243-8

> <Gold.Version>
5.8.1

> <Gold.Id.Protein>
6NUR|6NUR_protein|mol2

> <Gold.PLP.Fitness>
45.1031

> <Gold.PLP.PLP>
-35.2362

> <Gold.PLP.part.hbond>
-2.0000

> <Gold.PLP.part.metal>
0.0000

> <Gold.PLP.part.buried>
-6.0988

> <Gold.PLP.part.nonpolar>
-27.0559

> <Gold.PLP.part.repulsive>
0.5723

> <Gold.PLP.ligand.clash>
0.0000

> <Gold.PLP.ligand.torsion>
1.4304

> <Gold.PLP.Chemscore.Hbond>
3.0000

> <Gold.PLP.Chemscore.CHOScore>
1.0000

> <Gold.PLP.Chemscore.Metal>
0.0000

> <Gold.Chemscore.Hbonds>
donor molecule, donor type, donor heavy atom, donor atom, acceptor molecule, acceptor atom, score
      L1  H     3    58       P1  8028  1.62
      L1  H    20    45       P1  7948  1.00
      L1  C    16    42       P1 10171  1.00

> <Gold.PLP.Chemscore.Internal.Correction>
0.7277

> <Gold.Rescore>
     Score         DG    S(hbond)    S(metal)    S(lipo)     H(rot)  DE(clash)    DE(int)     intcor
     13.32     -15.94       1.96        0.00      88.77       2.53       0.10       2.53       ----

> <Gold.Chemscore.Fitness>
13.3165

> <Gold.Chemscore.DG>
-15.9382

> <Gold.Chemscore.ZeroCoef>
-5.4800

> <Gold.Chemscore.Hbond>
1.9611

> <Gold.Chemscore.Metal>
0.0000

> <Gold.Chemscore.Lipo>
88.7682

> <Gold.Chemscore.Internal_Hbond>
0.0000

> <Gold.Chemscore.DEClash>
0.0963

> <Gold.Chemscore.DEInternal>
2.5254

> <Gold.Chemscore.Rot>
2.5305

> <Gold.Chemscore.Internal.Correction>
   9.000000E+99

> <Gold.Chemscore.Hbonds>
donor molecule, donor type, donor heavy atom, donor atom, acceptor molecule, acceptor atom, score
      L1  H     3    58       P1  8028  0.80
      L1  H    20    45       P1  7948  0.98

> <Gold.Chemscore.Hbond.Weighted>
-6.5502

> <Gold.Chemscore.Metal.Weighted>
-0.0000

> <Gold.Chemscore.Lipo.Weighted>
-10.3859

> <Gold.Chemscore.Internal_Hbond.Weighted>
0.0000

> <Gold.Chemscore.DEClash.Weighted>
0.0963

> <Gold.Chemscore.DEInternal.Weighted>
2.5254

> <Gold.Chemscore.Rot.Weighted>
6.4780

> <Gold.Chemscore.Internal.Correction.Weighted>
   9.000000E+99

> <Gold.Protein.RotatedTorsions>
[ 6907 6896 6895 6894 ] final  -35.38 input  -60.11 | X-H torsion
[ 7974 7965 7964 7962 ] final   89.52 input  175.53 | X-H torsion
[ 8008 7997 7996 7995 ] final -140.40 input   59.86 | X-H torsion
[ 10167 10162 10161 10158 ] final  -53.64 input  -65.29 | X-H torsion
[ 10718 10713 10712 10709 ] final  -75.97 input   66.30 | X-H torsion
[ 10763 10752 10751 10750 ] final -159.49 input  -60.55 | X-H torsion
[ 11005 11000 10999 10996 ] final   74.06 input  -57.11 | X-H torsion

> <Gold.Protein.ActiveResidues>
 VAL166  LYS551  ARG553  GLY616  TRP617  ASP618  TYR619  PRO620  LYS621  CYS622 
 ASP623  PHE694  ASN695  SER759  ASP760  ASP761  ALA762  ILE779  LEU786  VAL792 
 PHE793  MET794  SER795  GLU796  ALA797  LYS798  CYS799  TRP800  GLU811  SER814 

> <Gold.Protein.RotatedAtoms>
  151.0405  134.9603  159.8158 H   0  0  0  0  0  0  0  0  0  0  0  0  # atno 6907 bound_to 6896
  152.5363  134.2664  159.8965 H   0  0  0  0  0  0  0  0  0  0  0  0  # atno 6908 bound_to 6896
  151.2676  133.4228  159.2653 H   0  0  0  0  0  0  0  0  0  0  0  0  # atno 6909 bound_to 6896
  145.5312  139.2283  143.2617 H   0  0  0  0  0  0  0  0  0  0  0  0  # atno 7974 bound_to 7965
  155.4607  140.0545  157.2991 H   0  0  0  0  0  0  0  0  0  0  0  0  # atno 8008 bound_to 7997
  154.4739  140.2052  155.9882 H   0  0  0  0  0  0  0  0  0  0  0  0  # atno 8009 bound_to 7997
  156.1100  140.3205  155.8064 H   0  0  0  0  0  0  0  0  0  0  0  0  # atno 8010 bound_to 7997
  140.6473  143.2543  151.4822 H   0  0  0  0  0  0  0  0  0  0  0  0  # atno 10167 bound_to 10162
  156.0190  130.4454  150.3122 H   0  0  0  0  0  0  0  0  0  0  0  0  # atno 10718 bound_to 10713
  154.7470  135.3083  154.8626 H   0  0  0  0  0  0  0  0  0  0  0  0  # atno 10763 bound_to 10752
  153.9424  135.6773  153.4748 H   0  0  0  0  0  0  0  0  0  0  0  0  # atno 10764 bound_to 10752
  153.1067  135.4886  154.8890 H   0  0  0  0  0  0  0  0  0  0  0  0  # atno 10765 bound_to 10752
  139.9409  134.7400  156.1102 H   0  0  0  0  0  0  0  0  0  0  0  0  # atno 11005 bound_to 11000
  146.2042  140.6129  142.9088 LP  0  0  0  0  0  0  0  0  0  0  0  0  # atno 17320 bound_to 7965
  144.7625  140.5454  143.6726 LP  0  0  0  0  0  0  0  0  0  0  0  0  # atno 17321 bound_to 7965
  139.5685  144.1984  152.1801 LP  0  0  0  0  0  0  0  0  0  0  0  0  # atno 17342 bound_to 10162
  140.1273  144.5319  150.6824 LP  0  0  0  0  0  0  0  0  0  0  0  0  # atno 17343 bound_to 10162
  157.1224  131.0250  151.3003 LP  0  0  0  0  0  0  0  0  0  0  0  0  # atno 17370 bound_to 10713
  157.4617  130.7657  149.7242 LP  0  0  0  0  0  0  0  0  0  0  0  0  # atno 17371 bound_to 10713
  141.1043  133.6665  156.2827 LP  0  0  0  0  0  0  0  0  0  0  0  0  # atno 17394 bound_to 11000
  140.5954  134.5609  157.5507 LP  0  0  0  0  0  0  0  0  0  0  0  0  # atno 17395 bound_to 11000

$$$$
