AV-unprocessed.smi:703|AV-procd|sdf|3430|dock8
  -GOLD-   22720 0413D 1   1.00000     0.00000
 Structure written by MMmdl.
 38 39  0  0  0  0  0  0  0  0  2 V2000
  144.6141  135.7435  152.7368 C   0  0  0  0  0  0  0  0  0  0  0  0
  145.6516  135.9700  153.8446 C   0  0  0  0  0  0  0  0  0  0  0  0
  146.7030  136.9320  153.4390 N   0  3  1  0  0  0  0  0  0  0  0  0
  146.2093  138.2245  152.9276 C   0  0  0  0  0  0  0  0  0  0  0  0
  147.4297  139.1475  152.9550 C   0  0  1  0  0  0  0  0  0  0  0  0
  147.0751  140.6367  153.0610 C   0  0  0  0  0  0  0  0  0  0  0  0
  148.2791  138.6213  154.1270 C   0  0  2  0  0  0  0  0  0  0  0  0
  149.6767  138.4606  153.7141 N   0  0  0  0  0  0  0  0  0  0  0  0
  150.8893  138.3920  154.9375 S   0  0  0  0  0  0  0  0  0  0  0  0
  151.8068  137.2960  154.5898 O   0  0  0  0  0  0  0  0  0  0  0  0
  151.4090  139.7563  155.1151 O   0  0  0  0  0  0  0  0  0  0  0  0
  149.9279  137.9074  156.4329 C   0  0  0  0  0  0  0  0  0  0  0  0
  150.8585  137.7506  157.6018 C   0  0  0  0  0  0  0  0  0  0  0  0
  151.6227  138.7505  158.2648 C   0  0  0  0  0  0  0  0  0  0  0  0
  152.2755  138.0565  159.2424 C   0  0  0  0  0  0  0  0  0  0  0  0
  151.9429  136.7418  159.1948 O   0  0  0  0  0  0  0  0  0  0  0  0
  151.0364  136.5568  158.1448 N   0  0  0  0  0  0  0  0  0  0  0  0
  147.6629  137.2656  154.5103 C   0  0  0  0  0  0  0  0  0  0  0  0
  143.8933  134.9818  153.0351 H   0  0  0  0  0  0  0  0  0  0  0  0
  145.0881  135.4065  151.8143 H   0  0  0  0  0  0  0  0  0  0  0  0
  144.0546  136.6526  152.5156 H   0  0  0  0  0  0  0  0  0  0  0  0
  145.1636  136.3095  154.7593 H   0  0  0  0  0  0  0  0  0  0  0  0
  146.1268  135.0164  154.0780 H   0  0  0  0  0  0  0  0  0  0  0  0
  145.7867  138.1335  151.9267 H   0  0  0  0  0  0  0  0  0  0  0  0
  145.4307  138.6047  153.5914 H   0  0  0  0  0  0  0  0  0  0  0  0
  147.9723  138.9918  152.0205 H   0  0  0  0  0  0  0  0  0  0  0  0
  146.5170  140.8502  153.9733 H   0  0  0  0  0  0  0  0  0  0  0  0
  146.4657  140.9554  152.2149 H   0  0  0  0  0  0  0  0  0  0  0  0
  147.9761  141.2507  153.0710 H   0  0  0  0  0  0  0  0  0  0  0  0
  148.2237  139.2949  154.9840 H   0  0  0  0  0  0  0  0  0  0  0  0
  149.7849  137.6982  153.0454 H   0  0  0  0  0  0  0  0  0  0  0  0
  149.1795  138.6748  156.6286 H   0  0  0  0  0  0  0  0  0  0  0  0
  149.4030  136.9765  156.2158 H   0  0  0  0  0  0  0  0  0  0  0  0
  151.6850  139.8077  158.0538 H   0  0  0  0  0  0  0  0  0  0  0  0
  152.9756  138.3412  160.0138 H   0  0  0  0  0  0  0  0  0  0  0  0
  147.1291  137.3695  155.4567 H   0  0  0  0  0  0  0  0  0  0  0  0
  148.4016  136.4729  154.6372 H   0  0  0  0  0  0  0  0  0  0  0  0
  147.2400  136.5088  152.6956 H   0  0  0  0  0  0  0  0  0  0  0  0
  1  2  1  0  0  0  0
  1 19  1  0  0  0  0
  1 20  1  0  0  0  0
  1 21  1  0  0  0  0
  2  3  1  0  0  0  0
  2 22  1  0  0  0  0
  2 23  1  0  0  0  0
  3 18  1  0  0  0  0
  3  4  1  0  0  0  0
  3 38  1  0  0  0  0
  4  5  1  0  0  0  0
  4 24  1  0  0  0  0
  4 25  1  0  0  0  0
  5  6  1  0  0  0  0
  5  7  1  0  0  0  0
  5 26  1  0  0  0  0
  6 27  1  0  0  0  0
  6 28  1  0  0  0  0
  6 29  1  0  0  0  0
  7  8  1  0  0  0  0
  7 18  1  0  0  0  0
  7 30  1  0  0  0  0
  8  9  1  0  0  0  0
  8 31  1  0  0  0  0
  9 10  2  0  0  0  0
  9 11  2  0  0  0  0
  9 12  1  0  0  0  0
 12 13  1  0  0  0  0
 12 32  1  0  0  0  0
 12 33  1  0  0  0  0
 13 17  2  0  0  0  0
 13 14  1  0  0  0  0
 14 15  2  0  0  0  0
 14 34  1  0  0  0  0
 15 16  1  0  0  0  0
 15 35  1  0  0  0  0
 16 17  1  0  0  0  0
 18 36  1  0  0  0  0
 18 37  1  0  0  0  0
M  CHG  1   3   1
M  END
> <s_m_source_file>
AV-unprocessed.smi

> <i_m_source_file_index>
703

> <i_lp_mmshare_version>
43012

> <i_f3d_flags>
0

> <s_epik_input>
W0NIM11bQ0gyXU4xW0NIMl1bQ0BASF0oW0NIM10pW0NASF0oW0NIMl0xKVtOSF1TKD1PKSg9TylbQ0gyXWMyW2NIXVtjSF1vbjI=

> <s_epik_cmdline>
J2VwaWtfcHl0aG9uJywgJy1waCcsICc3LjAnLCAnLXRuJywgJzgnLCAnLW1hJywgJzIwMCcsICctbWV0YWxfYmluZGluZycsICctaW1hZScsICc8aW5maWxlLm1hZT4nLCAnLW9tYWUnLCAnPG91dGZpbGUubWFlPic=

> <r_epik_Ionization_Penalty>
0.00324529

> <r_epik_Ionization_Penalty_Charging>
0.0019384

> <r_epik_Ionization_Penalty_Neutral>
0.00130689

> <r_epik_State_Penalty>
0.00218682

> <r_epik_Charging_Adjusted_Penalty>
0.00412522

> <i_epik_Tot_Q>
1

> <i_epik_Tot_abs_Q>
1

> <r_epik_Metal_State_Penalty>
0.310831

> <b_epik_Metal_Only>
0

> <s_lp_Force_Field>
OPLS_2005

> <r_lp_Energy>
19.0456

> <b_lp_Chiralities_Consistent>
1

> <s_lp_Variant>
AV-unprocessed.smi:703-5

> <Gold.Version>
5.8.1

> <Gold.Id.Protein>
6NUR|6NUR_protein|mol2

> <Gold.PLP.Fitness>
38.2890

> <Gold.PLP.PLP>
-21.8282

> <Gold.PLP.part.hbond>
-6.9309

> <Gold.PLP.part.metal>
0.0000

> <Gold.PLP.part.buried>
-2.5882

> <Gold.PLP.part.nonpolar>
-13.6699

> <Gold.PLP.part.repulsive>
0.1683

> <Gold.PLP.ligand.clash>
0.0000

> <Gold.PLP.ligand.torsion>
0.7414

> <Gold.PLP.Chemscore.Hbond>
5.9280

> <Gold.PLP.Chemscore.CHOScore>
0.0000

> <Gold.PLP.Chemscore.Metal>
0.0000

> <Gold.Chemscore.Hbonds>
donor molecule, donor type, donor heavy atom, donor atom, acceptor molecule, acceptor atom, score
      L1  H     3    38       P1  7948  1.98
      L1  H     8    31       P1  7948  1.00
      P1  H  6896  6909       L1    16  0.93
      P1  H  7989  7998       L1    11  1.00
      P1  H 10752 10765       L1    10  1.00

> <Gold.PLP.Chemscore.Internal.Correction>
0.1596

> <Gold.Rescore>
     Score         DG    S(hbond)    S(metal)    S(lipo)     H(rot)  DE(clash)    DE(int)     intcor
     17.39     -19.16       3.99        0.00      45.48       1.94       0.02       1.75       ----

> <Gold.Chemscore.Fitness>
17.3923

> <Gold.Chemscore.DG>
-19.1590

> <Gold.Chemscore.ZeroCoef>
-5.4800

> <Gold.Chemscore.Hbond>
3.9893

> <Gold.Chemscore.Metal>
0.0000

> <Gold.Chemscore.Lipo>
45.4804

> <Gold.Chemscore.Internal_Hbond>
0.0000

> <Gold.Chemscore.DEClash>
0.0192

> <Gold.Chemscore.DEInternal>
1.7474

> <Gold.Chemscore.Rot>
1.9400

> <Gold.Chemscore.Internal.Correction>
   9.000000E+99

> <Gold.Chemscore.Hbonds>
donor molecule, donor type, donor heavy atom, donor atom, acceptor molecule, acceptor atom, score
      L1  H     3    38       P1  7948  0.93
      L1  H     8    31       P1  7948  0.50
      P1  H  6896  6909       L1    16  0.23
      P1  H  7989  7998       L1    11  0.94
      P1  H 10752 10765       L1    10  0.91

> <Gold.Chemscore.Hbond.Weighted>
-13.3243

> <Gold.Chemscore.Metal.Weighted>
-0.0000

> <Gold.Chemscore.Lipo.Weighted>
-5.3212

> <Gold.Chemscore.Internal_Hbond.Weighted>
0.0000

> <Gold.Chemscore.DEClash.Weighted>
0.0192

> <Gold.Chemscore.DEInternal.Weighted>
1.7474

> <Gold.Chemscore.Rot.Weighted>
4.9665

> <Gold.Chemscore.Internal.Correction.Weighted>
   9.000000E+99

> <Gold.Protein.RotatedTorsions>
[ 6907 6896 6895 6894 ] final  135.77 input  -60.11 | X-H torsion
[ 7974 7965 7964 7962 ] final  152.83 input  175.53 | X-H torsion
[ 8008 7997 7996 7995 ] final  143.14 input   59.86 | X-H torsion
[ 10167 10162 10161 10158 ] final   45.11 input  -65.29 | X-H torsion
[ 10718 10713 10712 10709 ] final -174.30 input   66.30 | X-H torsion
[ 10763 10752 10751 10750 ] final  163.70 input  -60.55 | X-H torsion
[ 11005 11000 10999 10996 ] final  100.97 input  -57.11 | X-H torsion

> <Gold.Protein.ActiveResidues>
 VAL166  LYS551  ARG553  GLY616  TRP617  ASP618  TYR619  PRO620  LYS621  CYS622 
 ASP623  PHE694  ASN695  SER759  ASP760  ASP761  ALA762  ILE779  LEU786  VAL792 
 PHE793  MET794  SER795  GLU796  ALA797  LYS798  CYS799  TRP800  GLU811  SER814 

> <Gold.Protein.RotatedAtoms>
  152.2967  133.5615  159.5592 H   0  0  0  0  0  0  0  0  0  0  0  0  # atno 6907 bound_to 6896
  150.7259  134.0350  159.3755 H   0  0  0  0  0  0  0  0  0  0  0  0  # atno 6908 bound_to 6896
  151.8252  135.0639  160.0481 H   0  0  0  0  0  0  0  0  0  0  0  0  # atno 6909 bound_to 6896
  144.8196  139.6720  143.6106 H   0  0  0  0  0  0  0  0  0  0  0  0  # atno 7974 bound_to 7965
  156.2936  140.2270  156.4843 H   0  0  0  0  0  0  0  0  0  0  0  0  # atno 8008 bound_to 7997
  154.7826  140.0459  157.1160 H   0  0  0  0  0  0  0  0  0  0  0  0  # atno 8009 bound_to 7997
  154.9740  140.3070  155.4978 H   0  0  0  0  0  0  0  0  0  0  0  0  # atno 8010 bound_to 7997
  140.3275  144.2630  150.6173 H   0  0  0  0  0  0  0  0  0  0  0  0  # atno 10167 bound_to 10162
  156.7831  130.9490  151.3120 H   0  0  0  0  0  0  0  0  0  0  0  0  # atno 10718 bound_to 10713
  154.2976  135.2759  155.2626 H   0  0  0  0  0  0  0  0  0  0  0  0  # atno 10763 bound_to 10752
  154.5077  135.5791  153.6583 H   0  0  0  0  0  0  0  0  0  0  0  0  # atno 10764 bound_to 10752
  152.9905  135.6173  154.3145 H   0  0  0  0  0  0  0  0  0  0  0  0  # atno 10765 bound_to 10752
  139.8772  134.9163  156.4837 H   0  0  0  0  0  0  0  0  0  0  0  0  # atno 11005 bound_to 11000
  146.2500  139.6180  142.9433 LP  0  0  0  0  0  0  0  0  0  0  0  0  # atno 17320 bound_to 7965
  145.5136  141.0434  143.2474 LP  0  0  0  0  0  0  0  0  0  0  0  0  # atno 17321 bound_to 7965
  140.5428  143.2220  151.8057 LP  0  0  0  0  0  0  0  0  0  0  0  0  # atno 17342 bound_to 10162
  139.4862  144.4579  151.9577 LP  0  0  0  0  0  0  0  0  0  0  0  0  # atno 17343 bound_to 10162
  157.6637  130.8988  149.9885 LP  0  0  0  0  0  0  0  0  0  0  0  0  # atno 17370 bound_to 10713
  156.1206  130.3646  149.9894 LP  0  0  0  0  0  0  0  0  0  0  0  0  # atno 17371 bound_to 10713
  140.8709  133.7989  155.9363 LP  0  0  0  0  0  0  0  0  0  0  0  0  # atno 17394 bound_to 11000
  140.8954  134.2444  157.5071 LP  0  0  0  0  0  0  0  0  0  0  0  0  # atno 17395 bound_to 11000

$$$$
