AV-unprocessed.smi:1734|AV-procd|sdf|6987|dock9
  -GOLD-   22720 8203D 1   1.00000     0.00000
 Structure written by MMmdl.
 51 53  0  0  0  0  0  0  0  0  2 V2000
  147.7866  133.2865  152.4257 C   0  0  0  0  0  0  0  0  0  0  0  0
  146.3729  133.3119  151.8672 C   0  0  0  0  0  0  0  0  0  0  0  0
  145.6862  132.0948  151.6711 C   0  0  0  0  0  0  0  0  0  0  0  0
  144.3801  132.1202  151.1535 C   0  0  0  0  0  0  0  0  0  0  0  0
  143.8116  133.3699  150.8529 C   0  0  0  0  0  0  0  0  0  0  0  0
  144.4603  134.5379  151.0377 N   0  0  0  0  0  0  0  0  0  0  0  0
  145.7227  134.5306  151.5352 C   0  0  0  0  0  0  0  0  0  0  0  0
  146.4685  135.7232  151.7531 N   0  0  0  0  0  0  0  0  0  0  0  0
  146.0105  136.9576  152.0253 C   0  0  0  0  0  0  0  0  0  0  0  0
  144.8255  137.2749  152.1319 O   0  0  0  0  0  0  0  0  0  0  0  0
  147.0199  137.8251  152.1876 N   0  0  0  0  0  0  0  0  0  0  0  0
  146.8556  139.2337  152.5275 C   0  0  0  0  0  0  0  0  0  0  0  0
  146.7560  139.4978  154.0577 C   0  0  1  0  0  0  0  0  0  0  0  0
  148.1327  139.5174  154.7811 C   0  0  1  0  0  0  0  0  0  0  0  0
  148.8750  138.1908  154.7438 C   0  0  0  0  0  0  0  0  0  0  0  0
  150.2965  138.6048  155.1033 C   0  0  0  0  0  0  0  0  0  0  0  0
  150.4643  139.8986  154.5387 O   0  0  0  0  0  0  0  0  0  0  0  0
  149.1988  140.4362  154.1686 C   0  0  0  0  0  0  0  0  0  0  0  0
  146.0042  140.7541  154.3553 N   0  3  0  0  0  0  0  0  0  0  0  0
  145.5797  140.9438  155.7657 C   0  0  0  0  0  0  0  0  0  0  0  0
  144.6678  142.1770  155.8743 C   0  0  0  0  0  0  0  0  0  0  0  0
  145.3556  143.3219  155.3839 O   0  0  0  0  0  0  0  0  0  0  0  0
  145.7099  143.1891  154.0120 C   0  0  0  0  0  0  0  0  0  0  0  0
  146.6485  141.9839  153.8323 C   0  0  0  0  0  0  0  0  0  0  0  0
  148.1115  132.2673  152.6369 H   0  0  0  0  0  0  0  0  0  0  0  0
  147.8414  133.8545  153.3549 H   0  0  0  0  0  0  0  0  0  0  0  0
  148.4862  133.7206  151.7108 H   0  0  0  0  0  0  0  0  0  0  0  0
  146.1520  131.1508  151.9132 H   0  0  0  0  0  0  0  0  0  0  0  0
  143.8286  131.2060  150.9911 H   0  0  0  0  0  0  0  0  0  0  0  0
  142.8102  133.4341  150.4536 H   0  0  0  0  0  0  0  0  0  0  0  0
  147.4710  135.6182  151.7040 H   0  0  0  0  0  0  0  0  0  0  0  0
  147.9649  137.4862  152.0793 H   0  0  0  0  0  0  0  0  0  0  0  0
  147.7093  139.7654  152.1072 H   0  0  0  0  0  0  0  0  0  0  0  0
  145.9759  139.6107  152.0049 H   0  0  0  0  0  0  0  0  0  0  0  0
  146.1809  138.6874  154.5080 H   0  0  0  0  0  0  0  0  0  0  0  0
  147.9985  139.8056  155.8246 H   0  0  0  0  0  0  0  0  0  0  0  0
  148.4718  137.4501  155.4351 H   0  0  0  0  0  0  0  0  0  0  0  0
  148.8525  137.7676  153.7384 H   0  0  0  0  0  0  0  0  0  0  0  0
  150.4089  138.6798  156.1856 H   0  0  0  0  0  0  0  0  0  0  0  0
  151.0446  137.9044  154.7310 H   0  0  0  0  0  0  0  0  0  0  0  0
  149.1368  140.4334  153.0796 H   0  0  0  0  0  0  0  0  0  0  0  0
  149.1092  141.4674  154.5104 H   0  0  0  0  0  0  0  0  0  0  0  0
  145.0463  140.0654  156.1274 H   0  0  0  0  0  0  0  0  0  0  0  0
  146.4498  141.0822  156.4085 H   0  0  0  0  0  0  0  0  0  0  0  0
  143.7408  142.0269  155.3180 H   0  0  0  0  0  0  0  0  0  0  0  0
  144.3906  142.3500  156.9144 H   0  0  0  0  0  0  0  0  0  0  0  0
  144.8122  143.0788  153.4014 H   0  0  0  0  0  0  0  0  0  0  0  0
  146.2060  144.1033  153.6855 H   0  0  0  0  0  0  0  0  0  0  0  0
  147.5877  142.1696  154.3540 H   0  0  0  0  0  0  0  0  0  0  0  0
  146.8872  141.8626  152.7751 H   0  0  0  0  0  0  0  0  0  0  0  0
  145.1487  140.6684  153.8253 H   0  0  0  0  0  0  0  0  0  0  0  0
  1  2  1  0  0  0  0
  1 25  1  0  0  0  0
  1 26  1  0  0  0  0
  1 27  1  0  0  0  0
  2  7  1  0  0  0  0
  2  3  2  0  0  0  0
  3  4  1  0  0  0  0
  3 28  1  0  0  0  0
  4  5  2  0  0  0  0
  4 29  1  0  0  0  0
  5  6  1  0  0  0  0
  5 30  1  0  0  0  0
  6  7  2  0  0  0  0
  7  8  1  0  0  0  0
  8  9  1  0  0  0  0
  8 31  1  0  0  0  0
  9 10  2  0  0  0  0
  9 11  1  0  0  0  0
 11 12  1  0  0  0  0
 11 32  1  0  0  0  0
 12 13  1  0  0  0  0
 12 33  1  0  0  0  0
 12 34  1  0  0  0  0
 13 14  1  0  0  0  0
 13 19  1  0  0  0  0
 13 35  1  0  0  0  0
 14 18  1  0  0  0  0
 14 15  1  0  0  0  0
 14 36  1  0  0  0  0
 15 16  1  0  0  0  0
 15 37  1  0  0  0  0
 15 38  1  0  0  0  0
 16 17  1  0  0  0  0
 16 39  1  0  0  0  0
 16 40  1  0  0  0  0
 17 18  1  0  0  0  0
 18 41  1  0  0  0  0
 18 42  1  0  0  0  0
 19 24  1  0  0  0  0
 19 20  1  0  0  0  0
 19 51  1  0  0  0  0
 20 21  1  0  0  0  0
 20 43  1  0  0  0  0
 20 44  1  0  0  0  0
 21 22  1  0  0  0  0
 21 45  1  0  0  0  0
 21 46  1  0  0  0  0
 22 23  1  0  0  0  0
 23 24  1  0  0  0  0
 23 47  1  0  0  0  0
 23 48  1  0  0  0  0
 24 49  1  0  0  0  0
 24 50  1  0  0  0  0
M  CHG  1  19   1
M  END
> <s_m_source_file>
AV-unprocessed.smi

> <i_m_source_file_index>
1734

> <i_lp_mmshare_version>
43012

> <i_f3d_flags>
0

> <s_epik_input>
W0NIM11jMVtjSF1bY0hdW2NIXW5jMVtOSF1DKD1PKVtOSF1bQ0gyXVtDQEhdKFtDQEBIXTJbQ0gyXVtDSDJdT1tDSDJdMilOM1tDSDJdW0NIMl1PW0NIMl1bQ0gyXTM=

> <s_epik_cmdline>
J2VwaWtfcHl0aG9uJywgJy1waCcsICc3LjAnLCAnLXRuJywgJzgnLCAnLW1hJywgJzIwMCcsICctbWV0YWxfYmluZGluZycsICctaW1hZScsICc8aW5maWxlLm1hZT4nLCAnLW9tYWUnLCAnPG91dGZpbGUubWFlPic=

> <r_epik_Ionization_Penalty>
0.983302

> <r_epik_Ionization_Penalty_Charging>
0.98326

> <r_epik_Ionization_Penalty_Neutral>
4.21967e-05

> <r_epik_State_Penalty>
1.0303

> <r_epik_Charging_Adjusted_Penalty>
2.01356

> <i_epik_Tot_Q>
1

> <i_epik_Tot_abs_Q>
1

> <r_epik_Metal_State_Penalty>
1.03031

> <b_epik_Metal_Only>
0

> <s_lp_Force_Field>
OPLS_2005

> <r_lp_Energy>
38.82

> <b_lp_Chiralities_Consistent>
1

> <s_lp_Variant>
AV-unprocessed.smi:1734-8

> <Gold.Version>
5.8.1

> <Gold.Id.Protein>
6NUR|6NUR_protein|mol2

> <Gold.PLP.Fitness>
55.4502

> <Gold.PLP.PLP>
-38.6486

> <Gold.PLP.part.hbond>
-4.0000

> <Gold.PLP.part.metal>
0.0000

> <Gold.PLP.part.buried>
-4.6098

> <Gold.PLP.part.nonpolar>
-31.5591

> <Gold.PLP.part.repulsive>
1.9860

> <Gold.PLP.ligand.clash>
0.0000

> <Gold.PLP.ligand.torsion>
0.7503

> <Gold.PLP.Chemscore.Hbond>
4.9920

> <Gold.PLP.Chemscore.CHOScore>
1.0000

> <Gold.PLP.Chemscore.Metal>
0.0000

> <Gold.Chemscore.Hbonds>
donor molecule, donor type, donor heavy atom, donor atom, acceptor molecule, acceptor atom, score
      L1  H     8    31       P1  7948  1.00
      L1  H    11    32       P1  7948  0.98
      L1  H    19    51       P1 10175  2.00
      P1  H  7989  7998       L1    17  1.00
      L1  C     5    30       P1 10186  1.00

> <Gold.PLP.Chemscore.Internal.Correction>
0.3261

> <Gold.Rescore>
     Score         DG    S(hbond)    S(metal)    S(lipo)     H(rot)  DE(clash)    DE(int)     intcor
     19.46     -24.42       3.81        0.00      90.21       1.70       2.90       2.05       ----

> <Gold.Chemscore.Fitness>
19.4647

> <Gold.Chemscore.DG>
-24.4219

> <Gold.Chemscore.ZeroCoef>
-5.4800

> <Gold.Chemscore.Hbond>
3.8130

> <Gold.Chemscore.Metal>
0.0000

> <Gold.Chemscore.Lipo>
90.2131

> <Gold.Chemscore.Internal_Hbond>
0.0000

> <Gold.Chemscore.DEClash>
2.9026

> <Gold.Chemscore.DEInternal>
2.0546

> <Gold.Chemscore.Rot>
1.6986

> <Gold.Chemscore.Internal.Correction>
   9.000000E+99

> <Gold.Chemscore.Hbonds>
donor molecule, donor type, donor heavy atom, donor atom, acceptor molecule, acceptor atom, score
      L1  H     8    31       P1  7948  0.93
      L1  H    11    32       P1  7948  0.91
      L1  H    19    51       P1 10175  0.95
      P1  H  7989  7998       L1    17  0.35

> <Gold.Chemscore.Hbond.Weighted>
-12.7354

> <Gold.Chemscore.Metal.Weighted>
-0.0000

> <Gold.Chemscore.Lipo.Weighted>
-10.5549

> <Gold.Chemscore.Internal_Hbond.Weighted>
0.0000

> <Gold.Chemscore.DEClash.Weighted>
2.9026

> <Gold.Chemscore.DEInternal.Weighted>
2.0546

> <Gold.Chemscore.Rot.Weighted>
4.3485

> <Gold.Chemscore.Internal.Correction.Weighted>
   9.000000E+99

> <Gold.Protein.RotatedTorsions>
[ 6907 6896 6895 6894 ] final -177.77 input  -60.11 | X-H torsion
[ 7974 7965 7964 7962 ] final -109.40 input  175.53 | X-H torsion
[ 8008 7997 7996 7995 ] final  174.04 input   59.86 | X-H torsion
[ 10167 10162 10161 10158 ] final   47.97 input  -65.29 | X-H torsion
[ 10718 10713 10712 10709 ] final  -55.33 input   66.30 | X-H torsion
[ 10763 10752 10751 10750 ] final -161.20 input  -60.55 | X-H torsion
[ 11005 11000 10999 10996 ] final -101.97 input  -57.11 | X-H torsion

> <Gold.Protein.ActiveResidues>
 VAL166  LYS551  ARG553  GLY616  TRP617  ASP618  TYR619  PRO620  LYS621  CYS622 
 ASP623  PHE694  ASN695  SER759  ASP760  ASP761  ALA762  ILE779  LEU786  VAL792 
 PHE793  MET794  SER795  GLU796  ALA797  LYS798  CYS799  TRP800  GLU811  SER814 

> <Gold.Protein.RotatedAtoms>
  151.6264  133.3335  159.3098 H   0  0  0  0  0  0  0  0  0  0  0  0  # atno 6907 bound_to 6896
  150.8079  134.7220  159.6673 H   0  0  0  0  0  0  0  0  0  0  0  0  # atno 6908 bound_to 6896
  152.4175  134.6019  160.0054 H   0  0  0  0  0  0  0  0  0  0  0  0  # atno 6909 bound_to 6896
  145.1810  140.8971  143.3480 H   0  0  0  0  0  0  0  0  0  0  0  0  # atno 7974 bound_to 7965
  156.1015  140.1444  156.9462 H   0  0  0  0  0  0  0  0  0  0  0  0  # atno 8008 bound_to 7997
  154.4705  140.0911  156.7178 H   0  0  0  0  0  0  0  0  0  0  0  0  # atno 8009 bound_to 7997
  155.4752  140.3443  155.4334 H   0  0  0  0  0  0  0  0  0  0  0  0  # atno 8010 bound_to 7997
  140.2982  144.2966  150.6225 H   0  0  0  0  0  0  0  0  0  0  0  0  # atno 10167 bound_to 10162
  156.1377  130.4156  150.0156 H   0  0  0  0  0  0  0  0  0  0  0  0  # atno 10718 bound_to 10713
  154.7324  135.3049  154.8868 H   0  0  0  0  0  0  0  0  0  0  0  0  # atno 10763 bound_to 10752
  153.9707  135.6742  153.4751 H   0  0  0  0  0  0  0  0  0  0  0  0  # atno 10764 bound_to 10752
  153.0931  135.4949  154.8649 H   0  0  0  0  0  0  0  0  0  0  0  0  # atno 10765 bound_to 10752
  141.1209  133.8520  157.1299 H   0  0  0  0  0  0  0  0  0  0  0  0  # atno 11005 bound_to 11000
  145.0137  139.3487  143.6107 LP  0  0  0  0  0  0  0  0  0  0  0  0  # atno 17320 bound_to 7965
  146.3453  139.9409  142.8741 LP  0  0  0  0  0  0  0  0  0  0  0  0  # atno 17321 bound_to 7965
  140.5674  143.2184  151.7659 LP  0  0  0  0  0  0  0  0  0  0  0  0  # atno 17342 bound_to 10162
  139.4921  144.4264  151.9920 LP  0  0  0  0  0  0  0  0  0  0  0  0  # atno 17343 bound_to 10162
  156.8050  130.9304  151.3645 LP  0  0  0  0  0  0  0  0  0  0  0  0  # atno 17370 bound_to 10713
  157.6548  130.8915  149.9706 LP  0  0  0  0  0  0  0  0  0  0  0  0  # atno 17371 bound_to 10713
  140.0165  134.9965  157.0505 LP  0  0  0  0  0  0  0  0  0  0  0  0  # atno 17394 bound_to 11000
  140.4510  134.1582  155.7181 LP  0  0  0  0  0  0  0  0  0  0  0  0  # atno 17395 bound_to 11000

$$$$
