AV-unprocessed.smi:276|AV-procd|sdf|2081|dock5
  -GOLD-   2262021353D 1   1.00000     0.00000
 Structure written by MMmdl.
 57 61  0  0  0  0  0  0  0  0  1 V2000
  153.9735  141.4584  161.0919 C   0  0  0  0  0  0  0  0  0  0  0  0
  153.5415  142.5259  160.2670 O   0  0  0  0  0  0  0  0  0  0  0  0
  152.8459  142.0765  159.1148 C   0  0  1  0  0  0  0  0  0  0  0  0
  151.8682  140.9231  159.3707 C   0  0  0  0  0  0  0  0  0  0  0  0
  150.8679  141.6186  158.4260 C   0  0  2  0  0  0  0  0  0  0  0  0
  150.9982  141.1281  157.0462 N   0  0  0  0  0  0  0  0  0  0  0  0
  151.5522  139.7865  156.8907 C   0  0  0  0  0  0  0  0  0  0  0  0
  149.9068  141.2682  156.2611 C   0  0  0  0  0  0  0  0  0  0  0  0
  150.0640  141.0076  154.9395 N   0  0  0  0  0  0  0  0  0  0  0  0
  149.0272  141.1309  154.1054 C   0  0  0  0  0  0  0  0  0  0  0  0
  147.7710  141.4875  154.3814 N   0  0  0  0  0  0  0  0  0  0  0  0
  147.6077  141.7369  155.7122 C   0  0  0  0  0  0  0  0  0  0  0  0
  148.6117  141.6484  156.7172 C   0  0  0  0  0  0  0  0  0  0  0  0
  148.0679  141.9674  157.9563 N   0  0  0  0  0  0  0  0  0  0  0  0
  146.8181  142.2391  157.6969 C   0  0  0  0  0  0  0  0  0  0  0  0
  146.4573  142.1259  156.3738 N   0  0  0  0  0  0  0  0  0  0  0  0
  145.1425  142.3597  155.8034 C   0  0  0  0  0  0  0  0  0  0  0  0
  144.7672  143.8545  155.7787 C   0  0  2  0  0  0  0  0  0  0  0  0
  144.4200  144.2666  157.0874 O   0  0  0  0  0  0  0  0  0  0  0  0
  143.5858  144.1423  154.8334 C   0  0  1  0  0  0  0  0  0  0  0  0
  142.2249  143.6857  155.3625 C   0  0  0  0  0  0  0  0  0  0  0  0
  141.2823  144.5852  154.5969 C   0  0  0  0  0  0  0  0  0  0  0  0
  142.0544  145.9003  154.5817 C   0  0  0  0  0  0  0  0  0  0  0  0
  143.4344  145.5469  154.6358 O   0  0  0  0  0  0  0  0  0  0  0  0
  151.6243  142.9371  158.7452 C   0  0  0  0  0  0  0  0  0  0  0  0
  151.0327  143.9138  159.7781 C   0  0  0  0  0  0  0  0  0  0  0  0
  151.7568  145.0457  159.0443 C   0  0  0  0  0  0  0  0  0  0  0  0
  151.7623  144.1490  157.8038 C   0  0  0  0  0  0  0  0  0  0  0  0
  154.5057  141.8562  161.9558 H   0  0  0  0  0  0  0  0  0  0  0  0
  154.6526  140.7960  160.5534 H   0  0  0  0  0  0  0  0  0  0  0  0
  153.1298  140.8720  161.4582 H   0  0  0  0  0  0  0  0  0  0  0  0
  153.4940  141.9020  158.2530 H   0  0  0  0  0  0  0  0  0  0  0  0
  152.2378  139.9462  159.0605 H   0  0  0  0  0  0  0  0  0  0  0  0
  151.5129  140.8970  160.4022 H   0  0  0  0  0  0  0  0  0  0  0  0
  149.8503  141.5911  158.8152 H   0  0  0  0  0  0  0  0  0  0  0  0
  151.3240  139.3524  155.9155 H   0  0  0  0  0  0  0  0  0  0  0  0
  151.1588  139.1175  157.6567 H   0  0  0  0  0  0  0  0  0  0  0  0
  152.6373  139.8122  156.9848 H   0  0  0  0  0  0  0  0  0  0  0  0
  149.2342  140.9129  153.0681 H   0  0  0  0  0  0  0  0  0  0  0  0
  146.1215  142.5319  158.4689 H   0  0  0  0  0  0  0  0  0  0  0  0
  145.1386  141.9507  154.7925 H   0  0  0  0  0  0  0  0  0  0  0  0
  144.4069  141.7899  156.3728 H   0  0  0  0  0  0  0  0  0  0  0  0
  145.6315  144.4389  155.4603 H   0  0  0  0  0  0  0  0  0  0  0  0
  144.0263  143.5351  157.5375 H   0  0  0  0  0  0  0  0  0  0  0  0
  143.7612  143.6876  153.8568 H   0  0  0  0  0  0  0  0  0  0  0  0
  142.0352  142.6256  155.1921 H   0  0  0  0  0  0  0  0  0  0  0  0
  142.1405  143.8813  156.4325 H   0  0  0  0  0  0  0  0  0  0  0  0
  141.1533  144.2125  153.5797 H   0  0  0  0  0  0  0  0  0  0  0  0
  140.2984  144.6718  155.0585 H   0  0  0  0  0  0  0  0  0  0  0  0
  141.8314  146.5016  153.7002 H   0  0  0  0  0  0  0  0  0  0  0  0
  141.8157  146.4936  155.4652 H   0  0  0  0  0  0  0  0  0  0  0  0
  149.9471  143.9957  159.7032 H   0  0  0  0  0  0  0  0  0  0  0  0
  151.3486  143.7587  160.8099 H   0  0  0  0  0  0  0  0  0  0  0  0
  151.1819  145.9663  158.9415 H   0  0  0  0  0  0  0  0  0  0  0  0
  152.7580  145.2321  159.4365 H   0  0  0  0  0  0  0  0  0  0  0  0
  152.6841  144.1776  157.2222 H   0  0  0  0  0  0  0  0  0  0  0  0
  150.8869  144.3336  157.1817 H   0  0  0  0  0  0  0  0  0  0  0  0
  1  2  1  0  0  0  0
  1 29  1  0  0  0  0
  1 30  1  0  0  0  0
  1 31  1  0  0  0  0
  2  3  1  0  0  0  0
  3 25  1  0  0  0  0
  3  4  1  0  0  0  0
  3 32  1  0  0  0  0
  4  5  1  0  0  0  0
  4 33  1  0  0  0  0
  4 34  1  0  0  0  0
  5  6  1  0  0  0  0
  5 25  1  0  0  0  0
  5 35  1  0  0  0  0
  6  7  1  0  0  0  0
  6  8  1  0  0  0  0
  7 36  1  0  0  0  0
  7 37  1  0  0  0  0
  7 38  1  0  0  0  0
  8 13  1  0  0  0  0
  8  9  2  0  0  0  0
  9 10  1  0  0  0  0
 10 11  2  0  0  0  0
 10 39  1  0  0  0  0
 11 12  1  0  0  0  0
 12 16  1  0  0  0  0
 12 13  2  0  0  0  0
 13 14  1  0  0  0  0
 14 15  2  0  0  0  0
 15 16  1  0  0  0  0
 15 40  1  0  0  0  0
 16 17  1  0  0  0  0
 17 18  1  0  0  0  0
 17 41  1  0  0  0  0
 17 42  1  0  0  0  0
 18 19  1  0  0  0  0
 18 20  1  0  0  0  0
 18 43  1  0  0  0  0
 19 44  1  0  0  0  0
 20 24  1  0  0  0  0
 20 21  1  0  0  0  0
 20 45  1  0  0  0  0
 21 22  1  0  0  0  0
 21 46  1  0  0  0  0
 21 47  1  0  0  0  0
 22 23  1  0  0  0  0
 22 48  1  0  0  0  0
 22 49  1  0  0  0  0
 23 24  1  0  0  0  0
 23 50  1  0  0  0  0
 23 51  1  0  0  0  0
 25 28  1  0  0  0  0
 25 26  1  0  0  0  0
 26 27  1  0  0  0  0
 26 52  1  0  0  0  0
 26 53  1  0  0  0  0
 27 28  1  0  0  0  0
 27 54  1  0  0  0  0
 27 55  1  0  0  0  0
 28 56  1  0  0  0  0
 28 57  1  0  0  0  0
M  END
> <s_m_source_file>
AV-unprocessed.smi

> <i_m_source_file_index>
276

> <i_lp_mmshare_version>
43012

> <i_f3d_flags>
0

> <s_epik_input>
W0NIMl0xW0NIMl1bQ0gyXUMxMltDQEhdKE9bQ0gzXSlbQ0gyXVtDQEhdMk4oW0NIM10pYyhuW2NIXW4zKWMoYzM0KW5bY0hdbjRbQ0gyXVtDQEhdKFtPSF0pW0NAQEhdNVtDSDJdW0NIMl1bQ0gyXU81

> <s_epik_cmdline>
J2VwaWtfcHl0aG9uJywgJy1waCcsICc3LjAnLCAnLXRuJywgJzgnLCAnLW1hJywgJzIwMCcsICctbWV0YWxfYmluZGluZycsICctaW1hZScsICc8aW5maWxlLm1hZT4nLCAnLW9tYWUnLCAnPG91dGZpbGUubWFlPic=

> <r_lp_tautomer_probability>
1

> <r_epik_Ionization_Penalty>
0.00204117

> <r_epik_Ionization_Penalty_Charging>
0

> <r_epik_Ionization_Penalty_Neutral>
0.00204117

> <r_epik_State_Penalty>
0.00127401

> <r_epik_Charging_Adjusted_Penalty>
0.00127401

> <i_epik_Tot_Q>
0

> <i_epik_Tot_abs_Q>
0

> <r_epik_Metal_State_Penalty>
-0

> <b_epik_Metal_Only>
0

> <s_lp_Force_Field>
OPLS_2005

> <r_lp_Energy>
57.2167

> <b_lp_Chiralities_Consistent>
1

> <s_lp_Variant>
AV-unprocessed.smi:276-12

> <Gold.Version>
5.8.1

> <Gold.Id.Protein>
6NUR|6NUR_protein|mol2

> <Gold.PLP.Fitness>
47.7442

> <Gold.PLP.PLP>
-46.3327

> <Gold.PLP.part.hbond>
-1.0000

> <Gold.PLP.part.metal>
0.0000

> <Gold.PLP.part.buried>
-5.7305

> <Gold.PLP.part.nonpolar>
-39.0753

> <Gold.PLP.part.repulsive>
0.4708

> <Gold.PLP.ligand.clash>
0.1370

> <Gold.PLP.ligand.torsion>
1.9276

> <Gold.PLP.Chemscore.Hbond>
0.5217

> <Gold.PLP.Chemscore.CHOScore>
1.0000

> <Gold.PLP.Chemscore.Metal>
0.0000

> <Gold.Chemscore.Hbonds>
donor molecule, donor type, donor heavy atom, donor atom, acceptor molecule, acceptor atom, score
      P1  H  7989  7998       L1     9  0.48
      L1  C    10    39       P1  7957  1.00

> <Gold.PLP.Chemscore.Internal.Correction>
0.8387

> <Gold.Rescore>
     Score         DG    S(hbond)    S(metal)    S(lipo)     H(rot)  DE(clash)    DE(int)     intcor
      9.97     -13.20       0.17        0.00     120.53       2.72       0.10       3.14       ----

> <Gold.Chemscore.Fitness>
9.9670

> <Gold.Chemscore.DG>
-13.1994

> <Gold.Chemscore.ZeroCoef>
-5.4800

> <Gold.Chemscore.Hbond>
0.1717

> <Gold.Chemscore.Metal>
0.0000

> <Gold.Chemscore.Lipo>
120.5287

> <Gold.Chemscore.Internal_Hbond>
0.0000

> <Gold.Chemscore.DEClash>
0.0957

> <Gold.Chemscore.DEInternal>
3.1367

> <Gold.Chemscore.Rot>
2.7172

> <Gold.Chemscore.Internal.Correction>
   9.000000E+99

> <Gold.Chemscore.Hbonds>
donor molecule, donor type, donor heavy atom, donor atom, acceptor molecule, acceptor atom, score
      P1  H  7989  7998       L1     9  0.09

> <Gold.Chemscore.Hbond.Weighted>
-0.5736

> <Gold.Chemscore.Metal.Weighted>
-0.0000

> <Gold.Chemscore.Lipo.Weighted>
-14.1019

> <Gold.Chemscore.Internal_Hbond.Weighted>
0.0000

> <Gold.Chemscore.DEClash.Weighted>
0.0957

> <Gold.Chemscore.DEInternal.Weighted>
3.1367

> <Gold.Chemscore.Rot.Weighted>
6.9560

> <Gold.Chemscore.Internal.Correction.Weighted>
   9.000000E+99

> <Gold.Protein.RotatedTorsions>
[ 6907 6896 6895 6894 ] final  125.57 input  -60.11 | X-H torsion
[ 7974 7965 7964 7962 ] final   21.90 input  175.53 | X-H torsion
[ 8008 7997 7996 7995 ] final  -45.81 input   59.86 | X-H torsion
[ 10167 10162 10161 10158 ] final  -72.55 input  -65.29 | X-H torsion
[ 10718 10713 10712 10709 ] final -149.28 input   66.30 | X-H torsion
[ 10763 10752 10751 10750 ] final -153.54 input  -60.55 | X-H torsion
[ 11005 11000 10999 10996 ] final   26.99 input  -57.11 | X-H torsion

> <Gold.Protein.ActiveResidues>
 VAL166  LYS551  ARG553  GLY616  TRP617  ASP618  TYR619  PRO620  LYS621  CYS622 
 ASP623  PHE694  ASN695  SER759  ASP760  ASP761  ALA762  ILE779  LEU786  VAL792 
 PHE793  MET794  SER795  GLU796  ALA797  LYS798  CYS799  TRP800  GLU811  SER814 

> <Gold.Protein.RotatedAtoms>
  152.3980  133.6776  159.6292 H   0  0  0  0  0  0  0  0  0  0  0  0  # atno 6907 bound_to 6896
  150.7876  133.8840  159.3303 H   0  0  0  0  0  0  0  0  0  0  0  0  # atno 6908 bound_to 6896
  151.6611  135.0990  160.0231 H   0  0  0  0  0  0  0  0  0  0  0  0  # atno 6909 bound_to 6896
  146.2052  139.7961  142.8731 H   0  0  0  0  0  0  0  0  0  0  0  0  # atno 7974 bound_to 7965
  154.4003  140.1387  156.3908 H   0  0  0  0  0  0  0  0  0  0  0  0  # atno 8008 bound_to 7997
  155.7916  140.3478  155.5332 H   0  0  0  0  0  0  0  0  0  0  0  0  # atno 8009 bound_to 7997
  155.8574  140.0951  157.1626 H   0  0  0  0  0  0  0  0  0  0  0  0  # atno 8010 bound_to 7997
  140.5183  143.2335  151.7474 H   0  0  0  0  0  0  0  0  0  0  0  0  # atno 10167 bound_to 10162
  156.4311  130.8076  151.2303 H   0  0  0  0  0  0  0  0  0  0  0  0  # atno 10718 bound_to 10713
  154.7920  135.3210  154.7754 H   0  0  0  0  0  0  0  0  0  0  0  0  # atno 10763 bound_to 10752
  153.8441  135.6868  153.4804 H   0  0  0  0  0  0  0  0  0  0  0  0  # atno 10764 bound_to 10752
  153.1595  135.4666  154.9692 H   0  0  0  0  0  0  0  0  0  0  0  0  # atno 10765 bound_to 10752
  140.3310  134.2437  155.7702 H   0  0  0  0  0  0  0  0  0  0  0  0  # atno 11005 bound_to 11000
  145.3345  141.0274  143.3427 LP  0  0  0  0  0  0  0  0  0  0  0  0  # atno 17320 bound_to 7965
  144.8775  139.4950  143.6738 LP  0  0  0  0  0  0  0  0  0  0  0  0  # atno 17321 bound_to 7965
  139.4916  144.4292  151.9892 LP  0  0  0  0  0  0  0  0  0  0  0  0  # atno 17342 bound_to 10162
  140.3387  144.3229  150.5972 LP  0  0  0  0  0  0  0  0  0  0  0  0  # atno 17343 bound_to 10162
  157.7508  131.0198  150.3681 LP  0  0  0  0  0  0  0  0  0  0  0  0  # atno 17370 bound_to 10713
  156.4019  130.3917  149.6954 LP  0  0  0  0  0  0  0  0  0  0  0  0  # atno 17371 bound_to 10713
  141.2063  133.7836  157.0184 LP  0  0  0  0  0  0  0  0  0  0  0  0  # atno 17394 bound_to 11000
  140.0860  134.9620  157.1701 LP  0  0  0  0  0  0  0  0  0  0  0  0  # atno 17395 bound_to 11000

$$$$
