AV-unprocessed.smi:40|AV-procd|sdf|378|dock8
  -GOLD-   2262016233D 1   1.00000     0.00000
 Structure written by MMmdl.
 47 48  0  0  0  0  0  0  0  0  1 V2000
  142.6077  135.1324  163.0639 C   0  0  0  0  0  0  0  0  0  0  0  0
  143.3017  133.9423  162.3931 C   0  0  0  0  0  0  0  0  0  0  0  0
  144.7888  133.8431  162.7623 C   0  0  0  0  0  0  0  0  0  0  0  0
  145.6322  134.9433  162.1051 C   0  0  0  0  0  0  0  0  0  0  0  0
  147.1250  134.8146  162.4443 C   0  0  0  0  0  0  0  0  0  0  0  0
  147.9153  134.9025  161.2665 O   0  0  0  0  0  0  0  0  0  0  0  0
  148.0592  136.0793  160.6167 C   0  0  0  0  0  0  0  0  0  0  0  0
  147.6274  137.1568  161.0261 O   0  0  0  0  0  0  0  0  0  0  0  0
  148.8181  135.9075  159.3949 N   0  0  0  0  0  0  0  0  0  0  0  0
  149.1476  136.8694  158.5060 C   0  0  0  0  0  0  0  0  0  0  0  0
  149.7251  137.9584  158.9760 N   0  0  0  0  0  0  0  0  0  0  0  0
  150.1136  139.0113  158.1920 C   0  0  0  0  0  0  0  0  0  0  0  0
  150.7003  139.9727  158.6865 O   0  0  0  0  0  0  0  0  0  0  0  0
  149.8266  138.9426  156.8056 N   0  0  0  0  0  0  0  0  0  0  0  0
  150.2835  140.0852  155.9115 C   0  0  1  0  0  0  0  0  0  0  0  0
  150.1660  139.7071  154.5670 O   0  0  0  0  0  0  0  0  0  0  0  0
  149.0469  140.3375  153.9501 C   0  0  1  0  0  0  0  0  0  0  0  0
  147.7842  139.4630  154.0808 C   0  0  0  0  0  0  0  0  0  0  0  0
  148.9873  141.6883  154.6663 C   0  0  1  0  0  0  0  0  0  0  0  0
  147.6983  142.2696  154.6295 O   0  0  0  0  0  0  0  0  0  0  0  0
  149.4160  141.3567  156.0904 C   0  0  2  0  0  0  0  0  0  0  0  0
  150.1635  142.4346  156.6176 O   0  0  0  0  0  0  0  0  0  0  0  0
  149.2512  137.7858  156.2923 C   0  0  0  0  0  0  0  0  0  0  0  0
  148.8876  136.7534  157.0827 C   0  0  0  0  0  0  0  0  0  0  0  0
  148.2942  135.6693  156.5526 F   0  0  0  0  0  0  0  0  0  0  0  0
  151.3368  140.2228  156.1622 H   0  0  0  0  0  0  0  0  0  0  0  0
  149.2591  140.4790  152.8898 H   0  0  0  0  0  0  0  0  0  0  0  0
  149.7053  142.3642  154.1985 H   0  0  0  0  0  0  0  0  0  0  0  0
  148.5483  141.1392  156.7155 H   0  0  0  0  0  0  0  0  0  0  0  0
  141.5553  135.1768  162.7825 H   0  0  0  0  0  0  0  0  0  0  0  0
  143.0702  136.0748  162.7692 H   0  0  0  0  0  0  0  0  0  0  0  0
  142.6594  135.0578  164.1505 H   0  0  0  0  0  0  0  0  0  0  0  0
  142.7918  133.0212  162.6773 H   0  0  0  0  0  0  0  0  0  0  0  0
  143.1983  134.0314  161.3111 H   0  0  0  0  0  0  0  0  0  0  0  0
  144.8982  133.9033  163.8459 H   0  0  0  0  0  0  0  0  0  0  0  0
  145.1724  132.8656  162.4672 H   0  0  0  0  0  0  0  0  0  0  0  0
  145.5043  134.9057  161.0226 H   0  0  0  0  0  0  0  0  0  0  0  0
  145.2647  135.9188  162.4259 H   0  0  0  0  0  0  0  0  0  0  0  0
  147.4259  135.5687  163.1733 H   0  0  0  0  0  0  0  0  0  0  0  0
  147.3119  133.8446  162.9055 H   0  0  0  0  0  0  0  0  0  0  0  0
  149.0781  134.9547  159.1864 H   0  0  0  0  0  0  0  0  0  0  0  0
  146.9397  139.9128  153.5585 H   0  0  0  0  0  0  0  0  0  0  0  0
  147.4899  139.3223  155.1206 H   0  0  0  0  0  0  0  0  0  0  0  0
  147.9467  138.4790  153.6412 H   0  0  0  0  0  0  0  0  0  0  0  0
  147.7764  143.1811  154.8672 H   0  0  0  0  0  0  0  0  0  0  0  0
  149.7348  143.2407  156.3714 H   0  0  0  0  0  0  0  0  0  0  0  0
  149.0693  137.6777  155.2341 H   0  0  0  0  0  0  0  0  0  0  0  0
  1  2  1  0  0  0  0
  1 30  1  0  0  0  0
  1 31  1  0  0  0  0
  1 32  1  0  0  0  0
  2  3  1  0  0  0  0
  2 33  1  0  0  0  0
  2 34  1  0  0  0  0
  3  4  1  0  0  0  0
  3 35  1  0  0  0  0
  3 36  1  0  0  0  0
  4  5  1  0  0  0  0
  4 37  1  0  0  0  0
  4 38  1  0  0  0  0
  5  6  1  0  0  0  0
  5 39  1  0  0  0  0
  5 40  1  0  0  0  0
  6  7  1  0  0  0  0
  7  8  2  0  0  0  0
  7  9  1  0  0  0  0
  9 10  1  0  0  0  0
  9 41  1  0  0  0  0
 10 24  1  0  0  0  0
 10 11  2  0  0  0  0
 11 12  1  0  0  0  0
 12 13  2  0  0  0  0
 12 14  1  0  0  0  0
 14 15  1  0  0  0  0
 14 23  1  0  0  0  0
 15 26  1  0  0  0  0
 15 21  1  0  0  0  0
 15 16  1  0  0  0  0
 16 17  1  0  0  0  0
 17 27  1  0  0  0  0
 17 18  1  0  0  0  0
 17 19  1  0  0  0  0
 18 42  1  0  0  0  0
 18 43  1  0  0  0  0
 18 44  1  0  0  0  0
 19 28  1  0  0  0  0
 19 20  1  0  0  0  0
 19 21  1  0  0  0  0
 20 45  1  0  0  0  0
 21 29  1  0  0  0  0
 21 22  1  0  0  0  0
 22 46  1  0  0  0  0
 23 24  2  0  0  0  0
 23 47  1  0  0  0  0
 24 25  1  0  0  0  0
M  END
> <s_m_source_file>
AV-unprocessed.smi

> <i_m_source_file_index>
40

> <i_lp_mmshare_version>
43012

> <i_f3d_flags>
0

> <s_epik_input>
W0NIM11bQ0gyXVtDSDJdW0NIMl1bQ0gyXU9DKD1PKVtOSF1jMW5jKD1PKW4oW2NIXWMxRilbQ0BASF0yT1tDQEhdKFtDSDNdKVtDQEBIXShbT0hdKVtDQEhdMltPSF0=

> <s_epik_cmdline>
J2VwaWtfcHl0aG9uJywgJy1waCcsICc3LjAnLCAnLXRuJywgJzgnLCAnLW1hJywgJzIwMCcsICctbWV0YWxfYmluZGluZycsICctaW1hZScsICc8aW5maWxlLm1hZT4nLCAnLW9tYWUnLCAnPG91dGZpbGUubWFlPic=

> <r_lp_tautomer_probability>
1

> <r_epik_Ionization_Penalty>
2.29506e-06

> <r_epik_Ionization_Penalty_Charging>
8.26867e-09

> <r_epik_Ionization_Penalty_Neutral>
2.2868e-06

> <r_epik_State_Penalty>
-0

> <r_epik_Charging_Adjusted_Penalty>
8.26867e-09

> <i_epik_Tot_Q>
0

> <i_epik_Tot_abs_Q>
0

> <r_epik_Metal_State_Penalty>
-0

> <b_epik_Metal_Only>
0

> <s_epik_Chemistry_Notes>
This compound has an ester and may undergo hydrolysis at high or low pH. This compound contains an acetal/aminal-like group ( X-CH(R)-Y where X, Y are N, S, or O) that may be acid/base labile, releasing an aldehyde.

> <s_lp_Force_Field>
OPLS_2005

> <r_lp_Energy>
34.9505

> <b_lp_Chiralities_Consistent>
1

> <s_lp_Variant>
AV-unprocessed.smi:40-12

> <Gold.Version>
5.8.1

> <Gold.Id.Protein>
6NUR|6NUR_protein|mol2

> <Gold.PLP.Fitness>
46.6414

> <Gold.PLP.PLP>
-35.6131

> <Gold.PLP.part.hbond>
-5.2885

> <Gold.PLP.part.metal>
0.0000

> <Gold.PLP.part.buried>
-2.2476

> <Gold.PLP.part.nonpolar>
-27.6451

> <Gold.PLP.part.repulsive>
0.2585

> <Gold.PLP.ligand.clash>
0.0000

> <Gold.PLP.ligand.torsion>
1.1068

> <Gold.PLP.Chemscore.Hbond>
4.3607

> <Gold.PLP.Chemscore.CHOScore>
0.0000

> <Gold.PLP.Chemscore.Metal>
0.0000

> <Gold.Chemscore.Hbonds>
donor molecule, donor type, donor heavy atom, donor atom, acceptor molecule, acceptor atom, score
      L1  H    20    45       P1  8028  1.00
      L1  H    22    46       P1  8028  1.00
      P1  H  6931  6943       L1     8  0.90
      P1  H  6934  6947       L1     8  0.93
      P1  H  7989  7998       L1    16  0.49

> <Gold.PLP.Chemscore.Internal.Correction>
0.1596

> <Gold.Rescore>
     Score         DG    S(hbond)    S(metal)    S(lipo)     H(rot)  DE(clash)    DE(int)     intcor
     13.18     -15.54       3.46        0.00      67.95       3.70       0.31       2.05       ----

> <Gold.Chemscore.Fitness>
13.1842

> <Gold.Chemscore.DG>
-15.5350

> <Gold.Chemscore.ZeroCoef>
-5.4800

> <Gold.Chemscore.Hbond>
3.4629

> <Gold.Chemscore.Metal>
0.0000

> <Gold.Chemscore.Lipo>
67.9467

> <Gold.Chemscore.Internal_Hbond>
0.0000

> <Gold.Chemscore.DEClash>
0.3055

> <Gold.Chemscore.DEInternal>
2.0454

> <Gold.Chemscore.Rot>
3.6957

> <Gold.Chemscore.Internal.Correction>
   9.000000E+99

> <Gold.Chemscore.Hbonds>
donor molecule, donor type, donor heavy atom, donor atom, acceptor molecule, acceptor atom, score
      L1  H    20    45       P1  8028  0.63
      L1  H    22    46       P1  8028  1.00
      P1  H  6931  6943       L1     8  0.73
      P1  H  6934  6947       L1     8  0.89
      P1  H  7989  7998       L1    16  0.03

> <Gold.Chemscore.Hbond.Weighted>
-11.5662

> <Gold.Chemscore.Metal.Weighted>
-0.0000

> <Gold.Chemscore.Lipo.Weighted>
-7.9498

> <Gold.Chemscore.Internal_Hbond.Weighted>
0.0000

> <Gold.Chemscore.DEClash.Weighted>
0.3055

> <Gold.Chemscore.DEInternal.Weighted>
2.0454

> <Gold.Chemscore.Rot.Weighted>
9.4610

> <Gold.Chemscore.Internal.Correction.Weighted>
   9.000000E+99

> <Gold.Protein.RotatedTorsions>
[ 6907 6896 6895 6894 ] final -168.04 input  -60.11 | X-H torsion
[ 7974 7965 7964 7962 ] final  122.54 input  175.53 | X-H torsion
[ 8008 7997 7996 7995 ] final   69.57 input   59.86 | X-H torsion
[ 10167 10162 10161 10158 ] final  174.91 input  -65.29 | X-H torsion
[ 10718 10713 10712 10709 ] final   95.80 input   66.30 | X-H torsion
[ 10763 10752 10751 10750 ] final -167.36 input  -60.55 | X-H torsion
[ 11005 11000 10999 10996 ] final  113.68 input  -57.11 | X-H torsion

> <Gold.Protein.ActiveResidues>
 VAL166  LYS551  ARG553  GLY616  TRP617  ASP618  TYR619  PRO620  LYS621  CYS622 
 ASP623  PHE694  ASN695  SER759  ASP760  ASP761  ALA762  ILE779  LEU786  VAL792 
 PHE793  MET794  SER795  GLU796  ALA797  LYS798  CYS799  TRP800  GLU811  SER814 

> <Gold.Protein.RotatedAtoms>
  151.4691  133.3573  159.2820 H   0  0  0  0  0  0  0  0  0  0  0  0  # atno 6907 bound_to 6896
  150.8973  134.8384  159.7346 H   0  0  0  0  0  0  0  0  0  0  0  0  # atno 6908 bound_to 6896
  152.4859  134.4608  159.9656 H   0  0  0  0  0  0  0  0  0  0  0  0  # atno 6909 bound_to 6896
  145.1063  139.3483  143.4786 H   0  0  0  0  0  0  0  0  0  0  0  0  # atno 7974 bound_to 7965
  155.7257  140.3492  155.5036 H   0  0  0  0  0  0  0  0  0  0  0  0  # atno 8008 bound_to 7997
  155.9229  140.1070  157.1214 H   0  0  0  0  0  0  0  0  0  0  0  0  # atno 8009 bound_to 7997
  154.4072  140.1246  156.4689 H   0  0  0  0  0  0  0  0  0  0  0  0  # atno 8010 bound_to 7997
  139.5158  144.3092  152.0307 H   0  0  0  0  0  0  0  0  0  0  0  0  # atno 10167 bound_to 10162
  157.6934  131.0557  150.4394 H   0  0  0  0  0  0  0  0  0  0  0  0  # atno 10718 bound_to 10713
  154.6740  135.2944  154.9703 H   0  0  0  0  0  0  0  0  0  0  0  0  # atno 10763 bound_to 10752
  154.0721  135.6616  153.4829 H   0  0  0  0  0  0  0  0  0  0  0  0  # atno 10764 bound_to 10752
  153.0504  135.5177  154.7750 H   0  0  0  0  0  0  0  0  0  0  0  0  # atno 10765 bound_to 10752
  139.8959  134.9554  156.6776 H   0  0  0  0  0  0  0  0  0  0  0  0  # atno 11005 bound_to 11000
  146.3528  140.0963  142.8610 LP  0  0  0  0  0  0  0  0  0  0  0  0  # atno 17320 bound_to 7965
  145.0897  140.9276  143.4776 LP  0  0  0  0  0  0  0  0  0  0  0  0  # atno 17321 bound_to 7965
  140.2537  144.4141  150.6212 LP  0  0  0  0  0  0  0  0  0  0  0  0  # atno 17342 bound_to 10162
  140.6206  143.2176  151.6701 LP  0  0  0  0  0  0  0  0  0  0  0  0  # atno 17343 bound_to 10162
  156.4754  130.4062  149.6493 LP  0  0  0  0  0  0  0  0  0  0  0  0  # atno 17370 bound_to 10713
  156.3558  130.7456  151.2421 LP  0  0  0  0  0  0  0  0  0  0  0  0  # atno 17371 bound_to 10713
  140.7324  133.9047  155.8220 LP  0  0  0  0  0  0  0  0  0  0  0  0  # atno 17394 bound_to 11000
  141.0143  134.0978  157.4189 LP  0  0  0  0  0  0  0  0  0  0  0  0  # atno 17395 bound_to 11000

$$$$
