#       Name:                AV-unprocessed.smi:1655
#       Creating user name   scv26
#       Creation time:       Fri Mar 27 07:34:54 2020


#       File generated by GOLD software.
#

@<TRIPOS>MOLECULE
AV-unprocessed.smi:1655
    41    42     1
SMALL
NO_CHARGES


@<TRIPOS>ATOM
      1 ****        -6.9792   1.8183  -1.1204 C.3            1 S1                 0.0000
      2 ****        -5.5141   1.5449  -1.1017 C.2            1 S1                 0.0000
      3 ****        -4.7833   0.4083  -0.8977 C.2            1 S1                 0.0000
      4 ****        -3.4433   0.8636  -1.0171 C.2            1 S1                 0.0000
      5 ****        -2.3545  -0.0327  -0.8674 N.am           1 S1                 0.0000
      6 ****        -1.0433   0.2493  -0.9523 C.2            1 S1                 0.0000
      7 ****        -0.5700   1.3624  -1.1841 O.2            1 S1                 0.0000
      8 ****        -0.2957  -0.8451  -0.7486 N.am           1 S1                 0.0000
      9 ****         1.1622  -0.8788  -0.7653 C.3            1 S1                 0.0000
     10 ****         1.7553  -0.3829   0.5641 C.3            1 S1                 0.0000
     11 ****         3.2897  -0.4407   0.5863 C.3            1 S1                 0.0000
     12 ****         3.9133   0.1058   1.8705 C.3            1 S1                 0.0000
     13 ****         5.2238  -0.6588   1.9944 C.3            1 S1                 0.0000
     14 ****         5.1195  -1.7598   0.9361 C.3            1 S1                 0.0000
     15 ****         3.7482  -1.7833   0.5692 O.3            1 S1                 0.0000
     16 ****        -3.3630   2.1610  -1.2701 N.2            1 S1                 0.0000
     17 ****        -4.6898   2.6043  -1.3253 O.3            1 S1                 0.0000
     18 ****        -7.5371   0.9252  -1.4023 H              1 S1                 0.0000
     19 ****        -7.2199   2.6053  -1.8354 H              1 S1                 0.0000
     20 ****        -7.3248   2.1371  -0.1370 H              1 S1                 0.0000
     21 ****        -5.1514  -0.5866  -0.6958 H              1 S1                 0.0000
     22 ****        -2.6003  -0.9916  -0.6715 H              1 S1                 0.0000
     23 ****        -0.7676  -1.7185  -0.5658 H              1 S1                 0.0000
     24 ****         1.4715  -1.9078  -0.9499 H              1 S1                 0.0000
     25 ****         1.5418  -0.2863  -1.5996 H              1 S1                 0.0000
     26 ****         1.4396   0.6465   0.7388 H              1 S1                 0.0000
     27 ****         1.3542  -0.9723   1.3896 H              1 S1                 0.0000
     28 ****         3.7028   0.0866  -0.2758 H              1 S1                 0.0000
     29 ****         4.0550   1.1863   1.8357 H              1 S1                 0.0000
     30 ****         3.2788  -0.1206   2.7285 H              1 S1                 0.0000
     31 ****         6.0871  -0.0193   1.8080 H              1 S1                 0.0000
     32 ****         5.3270  -1.0799   2.9952 H              1 S1                 0.0000
     33 ****         5.7196  -1.5085   0.0602 H              1 S1                 0.0000
     34 ****         5.4475  -2.7311   1.3066 H              1 S1                 0.0000
     35 ****        -1.1771   2.1442  -1.3263 LP             1 S1                 0.0000
     36 ****         0.4215   1.4844  -1.2302 LP             1 S1                 0.0000
     37 ****         3.6447  -2.1696  -0.3473 LP             1 S1                 0.0000
     38 ****         3.2274  -2.3322   1.2230 LP             1 S1                 0.0000
     39 ****        -2.5340   2.7061  -1.3948 LP             1 S1                 0.0000
     40 ****        -4.8408   3.3018  -0.6248 LP             1 S1                 0.0000
     41 ****        -4.8776   2.9921  -2.2277 LP             1 S1                 0.0000
@<TRIPOS>BOND
    1    1    2 1     
    2    1   18 1     
    3    1   19 1     
    4    1   20 1     
    5    2   17 1     
    6    2    3 2     
    7    3    4 1     
    8    3   21 1     
    9    4    5 1     
   10    4   16 2     
   11    5    6 am    
   12    5   22 1     
   13    6    7 2     
   14    6    8 am    
   15    8    9 1     
   16    8   23 1     
   17    9   10 1     
   18    9   24 1     
   19    9   25 1     
   20   10   11 1     
   21   10   26 1     
   22   10   27 1     
   23   11   15 1     
   24   11   12 1     
   25   11   28 1     
   26   12   13 1     
   27   12   29 1     
   28   12   30 1     
   29   13   14 1     
   30   13   31 1     
   31   13   32 1     
   32   14   15 1     
   33   14   33 1     
   34   14   34 1     
   35   16   17 1     
   36    7   35 1     
   37    7   36 1     
   38   15   37 1     
   39   15   38 1     
   40   16   39 1     
   41   17   40 1     
   42   17   41 1     
@<TRIPOS>SUBSTRUCTURE
      1 S1             1
@<TRIPOS>SET
LONE_PAIRS      STATIC     ATOMS    <user>   **** ""
7 35 36 37 38 39 40 41
DONOR_HYDROGENS      STATIC     ATOMS    <user>   **** ""
2 22 23
ATOM$BLUE        STATIC     ATOMS    COLORGROUP SYSTEM
7 35 36 37 38 39 40 41
ATOM$RED        STATIC     ATOMS    COLORGROUP SYSTEM
2 22 23
