AV-unprocessed.smi:2157|AV-procd|sdf|8784|dock2
  -GOLD-   2272011563D 1   1.00000     0.00000
 Structure written by MMmdl.
 41 42  0  0  0  0  0  0  0  0  1 V2000
  152.1315  145.2117  159.0783 C   0  0  0  0  0  0  0  0  0  0  0  0
  152.3927  143.7254  158.7958 C   0  0  1  0  0  0  0  0  0  0  0  0
  152.6299  142.9385  160.0992 C   0  0  0  0  0  0  0  0  0  0  0  0
  152.8898  141.4502  159.8185 C   0  0  0  0  0  0  0  0  0  0  0  0
  151.7407  140.8281  159.0111 C   0  0  0  0  0  0  0  0  0  0  0  0
  151.4945  141.5990  157.7017 C   0  0  1  0  0  0  0  0  0  0  0  0
  150.3592  141.0119  156.9968 N   0  0  0  0  0  0  0  0  0  0  0  0
  150.3890  140.5154  155.7508 C   0  0  0  0  0  0  0  0  0  0  0  0
  151.4046  140.5008  155.0534 O   0  0  0  0  0  0  0  0  0  0  0  0
  149.0650  139.9362  155.2337 C   0  0  0  0  0  0  0  0  0  0  0  0
  147.9793  140.9236  155.1677 N   0  0  0  0  0  0  0  0  0  0  0  0
  147.5232  141.3535  153.9346 C   0  0  0  0  0  0  0  0  0  0  0  0
  146.5352  142.2615  153.7803 C   0  0  0  0  0  0  0  0  0  0  0  0
  145.8772  142.8517  154.9389 C   0  0  0  0  0  0  0  0  0  0  0  0
  144.9733  143.6845  154.8544 O   0  0  0  0  0  0  0  0  0  0  0  0
  146.3588  142.3947  156.1868 N   0  0  0  0  0  0  0  0  0  0  0  0
  145.7308  142.9593  157.3633 C   0  0  0  0  0  0  0  0  0  0  0  0
  147.3995  141.4490  156.3434 C   0  0  0  0  0  0  0  0  0  0  0  0
  147.8014  141.0845  157.4508 O   0  0  0  0  0  0  0  0  0  0  0  0
  151.2433  143.0948  157.9849 C   0  0  0  0  0  0  0  0  0  0  0  0
  151.2313  145.3492  159.6784 H   0  0  0  0  0  0  0  0  0  0  0  0
  152.0022  145.7710  158.1511 H   0  0  0  0  0  0  0  0  0  0  0  0
  152.9648  145.6606  159.6196 H   0  0  0  0  0  0  0  0  0  0  0  0
  153.3011  143.6608  158.1951 H   0  0  0  0  0  0  0  0  0  0  0  0
  153.4767  143.3606  160.6414 H   0  0  0  0  0  0  0  0  0  0  0  0
  151.7634  143.0386  160.7545 H   0  0  0  0  0  0  0  0  0  0  0  0
  153.8253  141.3390  159.2689 H   0  0  0  0  0  0  0  0  0  0  0  0
  153.0173  140.9120  160.7581 H   0  0  0  0  0  0  0  0  0  0  0  0
  151.9686  139.7838  158.7937 H   0  0  0  0  0  0  0  0  0  0  0  0
  150.8335  140.8272  159.6174 H   0  0  0  0  0  0  0  0  0  0  0  0
  152.3878  141.5029  157.0812 H   0  0  0  0  0  0  0  0  0  0  0  0
  149.4823  140.9804  157.4964 H   0  0  0  0  0  0  0  0  0  0  0  0
  149.2415  139.5158  154.2427 H   0  0  0  0  0  0  0  0  0  0  0  0
  148.7693  139.0930  155.8606 H   0  0  0  0  0  0  0  0  0  0  0  0
  147.9819  140.9461  153.0453 H   0  0  0  0  0  0  0  0  0  0  0  0
  146.2284  142.5552  152.7872 H   0  0  0  0  0  0  0  0  0  0  0  0
  146.1068  142.4980  158.2757 H   0  0  0  0  0  0  0  0  0  0  0  0
  144.6581  142.7751  157.2806 H   0  0  0  0  0  0  0  0  0  0  0  0
  145.9522  144.0279  157.3631 H   0  0  0  0  0  0  0  0  0  0  0  0
  150.3055  143.2122  158.5304 H   0  0  0  0  0  0  0  0  0  0  0  0
  151.1209  143.6334  157.0442 H   0  0  0  0  0  0  0  0  0  0  0  0
  1  2  1  0  0  0  0
  1 21  1  0  0  0  0
  1 22  1  0  0  0  0
  1 23  1  0  0  0  0
  2 20  1  0  0  0  0
  2  3  1  0  0  0  0
  2 24  1  0  0  0  0
  3  4  1  0  0  0  0
  3 25  1  0  0  0  0
  3 26  1  0  0  0  0
  4  5  1  0  0  0  0
  4 27  1  0  0  0  0
  4 28  1  0  0  0  0
  5  6  1  0  0  0  0
  5 29  1  0  0  0  0
  5 30  1  0  0  0  0
  6  7  1  0  0  0  0
  6 20  1  0  0  0  0
  6 31  1  0  0  0  0
  7  8  1  0  0  0  0
  7 32  1  0  0  0  0
  8  9  2  0  0  0  0
  8 10  1  0  0  0  0
 10 11  1  0  0  0  0
 10 33  1  0  0  0  0
 10 34  1  0  0  0  0
 11 18  1  0  0  0  0
 11 12  1  0  0  0  0
 12 13  2  0  0  0  0
 12 35  1  0  0  0  0
 13 14  1  0  0  0  0
 13 36  1  0  0  0  0
 14 15  2  0  0  0  0
 14 16  1  0  0  0  0
 16 17  1  0  0  0  0
 16 18  1  0  0  0  0
 17 37  1  0  0  0  0
 17 38  1  0  0  0  0
 17 39  1  0  0  0  0
 18 19  2  0  0  0  0
 20 40  1  0  0  0  0
 20 41  1  0  0  0  0
M  END
> <s_m_source_file>
AV-unprocessed.smi

> <i_m_source_file_index>
2157

> <i_lp_mmshare_version>
43012

> <i_f3d_flags>
0

> <s_epik_input>
W0NIM11bQ0BASF0xW0NIMl1bQ0gyXVtDSDJdW0NASF0oW0NIMl0xKVtOSF1DKD1PKVtDSDJdbjJbY0hdW2NIXWMoPU8pbihbQ0gzXSljMj1P

> <s_epik_cmdline>
J2VwaWtfcHl0aG9uJywgJy1waCcsICc3LjAnLCAnLXRuJywgJzgnLCAnLW1hJywgJzIwMCcsICctbWV0YWxfYmluZGluZycsICctaW1hZScsICc8aW5maWxlLm1hZT4nLCAnLW9tYWUnLCAnPG91dGZpbGUubWFlPic=

> <r_lp_tautomer_probability>
1

> <r_epik_Ionization_Penalty>
3.1838e-08

> <r_epik_Ionization_Penalty_Charging>
1.27911e-08

> <r_epik_Ionization_Penalty_Neutral>
1.90469e-08

> <r_epik_State_Penalty>
-0

> <r_epik_Charging_Adjusted_Penalty>
1.27911e-08

> <i_epik_Tot_Q>
0

> <i_epik_Tot_abs_Q>
0

> <r_epik_Metal_State_Penalty>
-0

> <b_epik_Metal_Only>
0

> <s_lp_Force_Field>
OPLS_2005

> <r_lp_Energy>
16.3739

> <b_lp_Chiralities_Consistent>
1

> <s_lp_Variant>
AV-unprocessed.smi:2157-2

> <Gold.Version>
5.8.1

> <Gold.Id.Protein>
6NUR|6NUR_protein|mol2

> <Gold.PLP.Fitness>
46.9870

> <Gold.PLP.PLP>
-41.3549

> <Gold.PLP.part.hbond>
-1.0000

> <Gold.PLP.part.metal>
0.0000

> <Gold.PLP.part.buried>
-6.2794

> <Gold.PLP.part.nonpolar>
-34.0765

> <Gold.PLP.part.repulsive>
0.3351

> <Gold.PLP.ligand.clash>
0.0000

> <Gold.PLP.ligand.torsion>
0.1068

> <Gold.PLP.Chemscore.Hbond>
0.9440

> <Gold.PLP.Chemscore.CHOScore>
1.0000

> <Gold.PLP.Chemscore.Metal>
0.0000

> <Gold.Chemscore.Hbonds>
donor molecule, donor type, donor heavy atom, donor atom, acceptor molecule, acceptor atom, score
      P1  H  7989  7998       L1     9  0.91
      L1  C    12    35       P1  7957  0.73

> <Gold.PLP.Chemscore.Internal.Correction>
0.0136

> <Gold.Rescore>
     Score         DG    S(hbond)    S(metal)    S(lipo)     H(rot)  DE(clash)    DE(int)     intcor
     14.41     -16.13       0.98        0.00      96.37       1.52       0.01       1.71       ----

> <Gold.Chemscore.Fitness>
14.4081

> <Gold.Chemscore.DG>
-16.1255

> <Gold.Chemscore.ZeroCoef>
-5.4800

> <Gold.Chemscore.Hbond>
0.9795

> <Gold.Chemscore.Metal>
0.0000

> <Gold.Chemscore.Lipo>
96.3740

> <Gold.Chemscore.Internal_Hbond>
0.0000

> <Gold.Chemscore.DEClash>
0.0086

> <Gold.Chemscore.DEInternal>
1.7089

> <Gold.Chemscore.Rot>
1.5242

> <Gold.Chemscore.Internal.Correction>
   9.000000E+99

> <Gold.Chemscore.Hbonds>
donor molecule, donor type, donor heavy atom, donor atom, acceptor molecule, acceptor atom, score
      P1  H  7989  7998       L1     9  0.89

> <Gold.Chemscore.Hbond.Weighted>
-3.2717

> <Gold.Chemscore.Metal.Weighted>
-0.0000

> <Gold.Chemscore.Lipo.Weighted>
-11.2758

> <Gold.Chemscore.Internal_Hbond.Weighted>
0.0000

> <Gold.Chemscore.DEClash.Weighted>
0.0086

> <Gold.Chemscore.DEInternal.Weighted>
1.7089

> <Gold.Chemscore.Rot.Weighted>
3.9019

> <Gold.Chemscore.Internal.Correction.Weighted>
   9.000000E+99

> <Gold.Protein.RotatedTorsions>
[ 6907 6896 6895 6894 ] final   -0.25 input  -60.11 | X-H torsion
[ 7974 7965 7964 7962 ] final -100.22 input  175.53 | X-H torsion
[ 8008 7997 7996 7995 ] final  -23.90 input   59.86 | X-H torsion
[ 10167 10162 10161 10158 ] final  136.33 input  -65.29 | X-H torsion
[ 10718 10713 10712 10709 ] final    3.56 input   66.30 | X-H torsion
[ 10763 10752 10751 10750 ] final  -22.16 input  -60.55 | X-H torsion
[ 11005 11000 10999 10996 ] final  140.50 input  -57.11 | X-H torsion

> <Gold.Protein.ActiveResidues>
 VAL166  LYS551  ARG553  GLY616  TRP617  ASP618  TYR619  PRO620  LYS621  CYS622 
 ASP623  PHE694  ASN695  SER759  ASP760  ASP761  ALA762  ILE779  LEU786  VAL792 
 PHE793  MET794  SER795  GLU796  ALA797  LYS798  CYS799  TRP800  GLU811  SER814 

> <Gold.Protein.RotatedAtoms>
  151.5653  135.1064  159.9981 H   0  0  0  0  0  0  0  0  0  0  0  0  # atno 6907 bound_to 6896
  152.4427  133.7474  159.6685 H   0  0  0  0  0  0  0  0  0  0  0  0  # atno 6908 bound_to 6896
  150.8336  133.7982  159.3112 H   0  0  0  0  0  0  0  0  0  0  0  0  # atno 6909 bound_to 6896
  145.2974  140.9368  143.2843 H   0  0  0  0  0  0  0  0  0  0  0  0  # atno 7974 bound_to 7965
  154.4559  140.1968  156.0382 H   0  0  0  0  0  0  0  0  0  0  0  0  # atno 8008 bound_to 7997
  156.0744  140.3280  155.7588 H   0  0  0  0  0  0  0  0  0  0  0  0  # atno 8009 bound_to 7997
  155.5211  140.0570  157.2897 H   0  0  0  0  0  0  0  0  0  0  0  0  # atno 8010 bound_to 7997
  139.5184  144.6470  151.5412 H   0  0  0  0  0  0  0  0  0  0  0  0  # atno 10167 bound_to 10162
  156.8796  130.5649  149.5653 H   0  0  0  0  0  0  0  0  0  0  0  0  # atno 10718 bound_to 10713
  153.6476  135.6982  153.5220 H   0  0  0  0  0  0  0  0  0  0  0  0  # atno 10763 bound_to 10752
  153.2732  135.4208  155.1007 H   0  0  0  0  0  0  0  0  0  0  0  0  # atno 10764 bound_to 10752
  154.8484  135.3583  154.6020 H   0  0  0  0  0  0  0  0  0  0  0  0  # atno 10765 bound_to 10752
  140.0332  134.9342  157.0702 H   0  0  0  0  0  0  0  0  0  0  0  0  # atno 11005 bound_to 11000
  144.9122  139.4515  143.6581 LP  0  0  0  0  0  0  0  0  0  0  0  0  # atno 17320 bound_to 7965
  146.3164  139.7936  142.8980 LP  0  0  0  0  0  0  0  0  0  0  0  0  # atno 17321 bound_to 7965
  140.6259  143.9170  150.6564 LP  0  0  0  0  0  0  0  0  0  0  0  0  # atno 17342 bound_to 10162
  140.2458  143.3629  152.1448 LP  0  0  0  0  0  0  0  0  0  0  0  0  # atno 17343 bound_to 10162
  156.0684  130.5722  150.9335 LP  0  0  0  0  0  0  0  0  0  0  0  0  # atno 17370 bound_to 10713
  157.6148  131.0934  150.8730 LP  0  0  0  0  0  0  0  0  0  0  0  0  # atno 17371 bound_to 10713
  140.4191  134.1900  155.7164 LP  0  0  0  0  0  0  0  0  0  0  0  0  # atno 17394 bound_to 11000
  141.1843  133.8347  157.1146 LP  0  0  0  0  0  0  0  0  0  0  0  0  # atno 17395 bound_to 11000

$$$$
