AV-unprocessed.smi:1436|AV-procd|sdf|5860|dock9
  -GOLD-   22720 5533D 1   1.00000     0.00000
 Structure written by MMmdl.
 43 44  0  0  0  0  0  0  0  0  1 V2000
  151.2644  138.2098  154.5992 C   0  0  0  0  0  0  0  0  0  0  0  0
  150.9899  139.4726  155.3635 C   0  0  0  0  0  0  0  0  0  0  0  0
  150.4211  140.4961  154.7491 N   0  0  0  0  0  0  0  0  0  0  0  0
  150.3140  141.5071  155.7087 O   0  0  0  0  0  0  0  0  0  0  0  0
  150.8306  141.0471  156.8766 C   0  0  0  0  0  0  0  0  0  0  0  0
  150.8161  141.9871  158.0340 C   0  0  0  0  0  0  0  0  0  0  0  0
  151.2754  139.7623  156.7292 C   0  0  0  0  0  0  0  0  0  0  0  0
  151.9175  138.8666  157.7595 C   0  0  0  0  0  0  0  0  0  0  0  0
  150.9382  137.7859  158.2279 C   0  0  0  0  0  0  0  0  0  0  0  0
  151.3487  136.6763  158.5703 O   0  0  0  0  0  0  0  0  0  0  0  0
  149.6398  138.1253  158.2326 N   0  0  0  0  0  0  0  0  0  0  0  0
  148.5317  137.2478  158.6027 C   0  0  1  0  0  0  0  0  0  0  0  0
  148.4404  136.0547  157.6382 C   0  0  0  0  0  0  0  0  0  0  0  0
  148.5895  136.8416  160.0958 C   0  0  0  0  0  0  0  0  0  0  0  0
  147.4294  136.1240  160.6339 N   0  0  0  0  0  0  0  0  0  0  0  0
  147.4726  136.0904  162.0924 C   0  0  0  0  0  0  0  0  0  0  0  0
  146.2630  135.3512  162.6899 C   0  0  0  0  0  0  0  0  0  0  0  0
  146.2039  134.0313  162.1600 O   0  0  0  0  0  0  0  0  0  0  0  0
  146.1114  134.0168  160.7398 C   0  0  0  0  0  0  0  0  0  0  0  0
  147.3181  134.7550  160.1348 C   0  0  0  0  0  0  0  0  0  0  0  0
  152.3106  138.1620  154.2968 H   0  0  0  0  0  0  0  0  0  0  0  0
  150.6543  138.1427  153.6980 H   0  0  0  0  0  0  0  0  0  0  0  0
  151.0525  137.3300  155.2069 H   0  0  0  0  0  0  0  0  0  0  0  0
  151.8207  142.1159  158.4371 H   0  0  0  0  0  0  0  0  0  0  0  0
  150.1778  141.6064  158.8313 H   0  0  0  0  0  0  0  0  0  0  0  0
  150.4422  142.9685  157.7408 H   0  0  0  0  0  0  0  0  0  0  0  0
  152.8016  138.3703  157.3589 H   0  0  0  0  0  0  0  0  0  0  0  0
  152.2593  139.4490  158.6161 H   0  0  0  0  0  0  0  0  0  0  0  0
  149.3966  139.0603  157.9391 H   0  0  0  0  0  0  0  0  0  0  0  0
  147.6118  137.8197  158.4680 H   0  0  0  0  0  0  0  0  0  0  0  0
  147.5981  135.4110  157.8932 H   0  0  0  0  0  0  0  0  0  0  0  0
  149.3441  135.4451  157.6611 H   0  0  0  0  0  0  0  0  0  0  0  0
  148.2972  136.3923  156.6114 H   0  0  0  0  0  0  0  0  0  0  0  0
  149.5024  136.2784  160.2964 H   0  0  0  0  0  0  0  0  0  0  0  0
  148.6977  137.7690  160.6599 H   0  0  0  0  0  0  0  0  0  0  0  0
  148.3909  135.6033  162.4240 H   0  0  0  0  0  0  0  0  0  0  0  0
  147.5000  137.1074  162.4857 H   0  0  0  0  0  0  0  0  0  0  0  0
  146.3493  135.2966  163.7753 H   0  0  0  0  0  0  0  0  0  0  0  0
  145.3362  135.8824  162.4676 H   0  0  0  0  0  0  0  0  0  0  0  0
  146.0874  132.9831  160.3946 H   0  0  0  0  0  0  0  0  0  0  0  0
  145.1766  134.4826  160.4242 H   0  0  0  0  0  0  0  0  0  0  0  0
  147.2118  134.7530  159.0514 H   0  0  0  0  0  0  0  0  0  0  0  0
  148.2295  134.2031  160.3648 H   0  0  0  0  0  0  0  0  0  0  0  0
  1  2  1  0  0  0  0
  1 21  1  0  0  0  0
  1 22  1  0  0  0  0
  1 23  1  0  0  0  0
  2  7  1  0  0  0  0
  2  3  2  0  0  0  0
  3  4  1  0  0  0  0
  4  5  1  0  0  0  0
  5  6  1  0  0  0  0
  5  7  2  0  0  0  0
  6 24  1  0  0  0  0
  6 25  1  0  0  0  0
  6 26  1  0  0  0  0
  7  8  1  0  0  0  0
  8  9  1  0  0  0  0
  8 27  1  0  0  0  0
  8 28  1  0  0  0  0
  9 10  2  0  0  0  0
  9 11  1  0  0  0  0
 11 12  1  0  0  0  0
 11 29  1  0  0  0  0
 12 13  1  0  0  0  0
 12 14  1  0  0  0  0
 12 30  1  0  0  0  0
 13 31  1  0  0  0  0
 13 32  1  0  0  0  0
 13 33  1  0  0  0  0
 14 15  1  0  0  0  0
 14 34  1  0  0  0  0
 14 35  1  0  0  0  0
 15 20  1  0  0  0  0
 15 16  1  0  0  0  0
 16 17  1  0  0  0  0
 16 36  1  0  0  0  0
 16 37  1  0  0  0  0
 17 18  1  0  0  0  0
 17 38  1  0  0  0  0
 17 39  1  0  0  0  0
 18 19  1  0  0  0  0
 19 20  1  0  0  0  0
 19 40  1  0  0  0  0
 19 41  1  0  0  0  0
 20 42  1  0  0  0  0
 20 43  1  0  0  0  0
M  END
> <s_m_source_file>
AV-unprocessed.smi

> <i_m_source_file_index>
1436

> <i_lp_mmshare_version>
43012

> <i_f3d_flags>
0

> <s_epik_input>
W0NIM11jMW5vYyhbQ0gzXSljMVtDSDJdQyg9TylbTkhdW0NASF0oW0NIM10pW0NIMl1OMltDSDJdW0NIMl1PW0NIMl1bQ0gyXTI=

> <s_epik_cmdline>
J2VwaWtfcHl0aG9uJywgJy1waCcsICc3LjAnLCAnLXRuJywgJzgnLCAnLW1hJywgJzIwMCcsICctbWV0YWxfYmluZGluZycsICctaW1hZScsICc8aW5maWxlLm1hZT4nLCAnLW9tYWUnLCAnPG91dGZpbGUubWFlPic=

> <r_epik_Ionization_Penalty>
0.234179

> <r_epik_Ionization_Penalty_Charging>
0

> <r_epik_Ionization_Penalty_Neutral>
0.234179

> <r_epik_State_Penalty>
0.224936

> <r_epik_Charging_Adjusted_Penalty>
0.224936

> <i_epik_Tot_Q>
0

> <i_epik_Tot_abs_Q>
0

> <r_epik_Metal_State_Penalty>
0.224936

> <b_epik_Metal_Only>
0

> <s_lp_Force_Field>
OPLS_2005

> <r_lp_Energy>
22.5578

> <b_lp_Chiralities_Consistent>
1

> <s_lp_Variant>
AV-unprocessed.smi:1436-2

> <Gold.Version>
5.8.1

> <Gold.Id.Protein>
6NUR|6NUR_protein|mol2

> <Gold.PLP.Fitness>
37.5541

> <Gold.PLP.PLP>
-33.1832

> <Gold.PLP.part.hbond>
-2.8701

> <Gold.PLP.part.metal>
0.0000

> <Gold.PLP.part.buried>
-5.9830

> <Gold.PLP.part.nonpolar>
-25.6038

> <Gold.PLP.part.repulsive>
0.2925

> <Gold.PLP.ligand.clash>
0.0000

> <Gold.PLP.ligand.torsion>
0.6575

> <Gold.PLP.Chemscore.Hbond>
1.8723

> <Gold.PLP.Chemscore.CHOScore>
0.0000

> <Gold.PLP.Chemscore.Metal>
0.0000

> <Gold.Chemscore.Hbonds>
donor molecule, donor type, donor heavy atom, donor atom, acceptor molecule, acceptor atom, score
      P1  H  6896  6908       L1    10  0.69
      P1  H  7989  7998       L1     3  1.00

> <Gold.PLP.Chemscore.Internal.Correction>
0.0691

> <Gold.Rescore>
     Score         DG    S(hbond)    S(metal)    S(lipo)     H(rot)  DE(clash)    DE(int)     intcor
     15.17     -15.94       1.81        0.00      75.23       1.71       0.03       0.75       ----

> <Gold.Chemscore.Fitness>
15.1684

> <Gold.Chemscore.DG>
-15.9433

> <Gold.Chemscore.ZeroCoef>
-5.4800

> <Gold.Chemscore.Hbond>
1.8114

> <Gold.Chemscore.Metal>
0.0000

> <Gold.Chemscore.Lipo>
75.2337

> <Gold.Chemscore.Internal_Hbond>
0.0000

> <Gold.Chemscore.DEClash>
0.0285

> <Gold.Chemscore.DEInternal>
0.7464

> <Gold.Chemscore.Rot>
1.7145

> <Gold.Chemscore.Internal.Correction>
   9.000000E+99

> <Gold.Chemscore.Hbonds>
donor molecule, donor type, donor heavy atom, donor atom, acceptor molecule, acceptor atom, score
      P1  H  6896  6908       L1    10  0.66
      P1  H  7989  7998       L1     3  0.27

> <Gold.Chemscore.Hbond.Weighted>
-6.0500

> <Gold.Chemscore.Metal.Weighted>
-0.0000

> <Gold.Chemscore.Lipo.Weighted>
-8.8023

> <Gold.Chemscore.Internal_Hbond.Weighted>
0.0000

> <Gold.Chemscore.DEClash.Weighted>
0.0285

> <Gold.Chemscore.DEInternal.Weighted>
0.7464

> <Gold.Chemscore.Rot.Weighted>
4.3891

> <Gold.Chemscore.Internal.Correction.Weighted>
   9.000000E+99

> <Gold.Protein.RotatedTorsions>
[ 6907 6896 6895 6894 ] final -123.64 input  -60.11 | X-H torsion
[ 7974 7965 7964 7962 ] final  132.63 input  175.53 | X-H torsion
[ 8008 7997 7996 7995 ] final  102.81 input   59.86 | X-H torsion
[ 10167 10162 10161 10158 ] final  -46.41 input  -65.29 | X-H torsion
[ 10718 10713 10712 10709 ] final  -98.91 input   66.30 | X-H torsion
[ 10763 10752 10751 10750 ] final  -52.03 input  -60.55 | X-H torsion
[ 11005 11000 10999 10996 ] final -140.64 input  -57.11 | X-H torsion

> <Gold.Protein.ActiveResidues>
 VAL166  LYS551  ARG553  GLY616  TRP617  ASP618  TYR619  PRO620  LYS621  CYS622 
 ASP623  PHE694  ASN695  SER759  ASP760  ASP761  ALA762  ILE779  LEU786  VAL792 
 PHE793  MET794  SER795  GLU796  ALA797  LYS798  CYS799  TRP800  GLU811  SER814 

> <Gold.Protein.RotatedAtoms>
  150.8691  133.7532  159.2967 H   0  0  0  0  0  0  0  0  0  0  0  0  # atno 6907 bound_to 6896
  151.5150  135.1064  159.9873 H   0  0  0  0  0  0  0  0  0  0  0  0  # atno 6908 bound_to 6896
  152.4682  133.7925  159.6965 H   0  0  0  0  0  0  0  0  0  0  0  0  # atno 6909 bound_to 6896
  144.9949  139.4369  143.5321 H   0  0  0  0  0  0  0  0  0  0  0  0  # atno 7974 bound_to 7965
  156.1427  140.3175  155.8521 H   0  0  0  0  0  0  0  0  0  0  0  0  # atno 8008 bound_to 7997
  155.4123  140.0506  157.3048 H   0  0  0  0  0  0  0  0  0  0  0  0  # atno 8009 bound_to 7997
  154.4990  140.2122  155.9398 H   0  0  0  0  0  0  0  0  0  0  0  0  # atno 8010 bound_to 7997
  140.6818  143.2832  151.3778 H   0  0  0  0  0  0  0  0  0  0  0  0  # atno 10167 bound_to 10162
  156.0120  130.5259  150.6593 H   0  0  0  0  0  0  0  0  0  0  0  0  # atno 10718 bound_to 10713
  154.1361  135.6512  153.4932 H   0  0  0  0  0  0  0  0  0  0  0  0  # atno 10763 bound_to 10752
  153.0180  135.5304  154.6952 H   0  0  0  0  0  0  0  0  0  0  0  0  # atno 10764 bound_to 10752
  154.6200  135.2963  155.0307 H   0  0  0  0  0  0  0  0  0  0  0  0  # atno 10765 bound_to 10752
  140.8403  134.2410  157.4813 H   0  0  0  0  0  0  0  0  0  0  0  0  # atno 11005 bound_to 11000
  146.3439  139.9302  142.8754 LP  0  0  0  0  0  0  0  0  0  0  0  0  # atno 17320 bound_to 7965
  145.2234  140.9944  143.4032 LP  0  0  0  0  0  0  0  0  0  0  0  0  # atno 17321 bound_to 7965
  139.6147  144.1027  152.2334 LP  0  0  0  0  0  0  0  0  0  0  0  0  # atno 17342 bound_to 10162
  140.0452  144.5976  150.7379 LP  0  0  0  0  0  0  0  0  0  0  0  0  # atno 17343 bound_to 10162
  157.4338  131.0852  151.1012 LP  0  0  0  0  0  0  0  0  0  0  0  0  # atno 17370 bound_to 10713
  157.1577  130.6212  149.5601 LP  0  0  0  0  0  0  0  0  0  0  0  0  # atno 17371 bound_to 10713
  139.8703  134.9632  156.4453 LP  0  0  0  0  0  0  0  0  0  0  0  0  # atno 17394 bound_to 11000
  140.8903  133.7853  155.9564 LP  0  0  0  0  0  0  0  0  0  0  0  0  # atno 17395 bound_to 11000

$$$$
