#       Name:                AV-unprocessed.smi:2710
#       Creating user name   scv26
#       Creation time:       Fri Mar 27 14:50:50 2020


#       File generated by GOLD software.
#

@<TRIPOS>MOLECULE
AV-unprocessed.smi:2710
    57    58     1
SMALL
NO_CHARGES


@<TRIPOS>ATOM
      1 ****        -6.1287  -3.9098  -1.5200 C.3            1 S1                 0.0000
      2 ****        -5.8970  -3.1439  -0.2089 C.3            1 S1                 0.0000
      3 ****        -4.4830  -2.7230  -0.0159 N.4            1 S1                 1.0000
      4 ****        -4.2191  -2.2718   1.3768 C.3            1 S1                 0.0000
      5 ****        -2.7177  -2.0492   1.6213 C.3            1 S1                 0.0000
      6 ****        -2.1318  -1.0530   0.6110 C.3            1 S1                 0.0000
      7 ****        -0.6932  -0.9170   0.8216 N.am           1 S1                 0.0000
      8 ****         0.0443   0.1357   0.4388 C.2            1 S1                 0.0000
      9 ****        -0.4248   1.1127  -0.1436 O.2            1 S1                 0.0000
     10 ****         1.3334  -0.0245   0.7834 N.am           1 S1                 0.0000
     11 ****         2.4315   0.8515   0.5641 C.ar           1 S1                 0.0000
     12 ****         3.6569   0.5737   1.2023 C.ar           1 S1                 0.0000
     13 ****         4.7453   1.3534   1.0350 N.ar           1 S1                 0.0000
     14 ****         4.6212   2.4347   0.2544 C.ar           1 S1                 0.0000
     15 ****         5.9002   3.2367  -0.0441 C.3            1 S1                 0.0000
     16 ****         5.5714   4.7196  -0.3365 C.3            1 S1                 0.0000
     17 ****         6.6233   2.6198  -1.2556 C.3            1 S1                 0.0000
     18 ****         6.8507   3.2432   1.1762 C.3            1 S1                 0.0000
     19 ****         3.5211   2.7608  -0.4367 N.ar           1 S1                 0.0000
     20 ****         2.4241   1.9899  -0.2779 C.ar           1 S1                 0.0000
     21 ****        -2.4359  -1.5397  -0.8187 C.3            1 S1                 0.0000
     22 ****        -3.9429  -1.7821  -1.0470 C.3            1 S1                 0.0000
     23 ****        -4.7340  -0.4606  -1.1577 C.3            1 S1                 0.0000
     24 ****        -7.1431  -4.3084  -1.5549 H              1 S1                 0.0000
     25 ****        -5.4409  -4.7508  -1.6139 H              1 S1                 0.0000
     26 ****        -6.0074  -3.2706  -2.3943 H              1 S1                 0.0000
     27 ****        -6.5690  -2.2885  -0.1387 H              1 S1                 0.0000
     28 ****        -6.1728  -3.8071   0.6120 H              1 S1                 0.0000
     29 ****        -4.7787  -1.3600   1.5881 H              1 S1                 0.0000
     30 ****        -4.5799  -3.0244   2.0789 H              1 S1                 0.0000
     31 ****        -2.5603  -1.6872   2.6381 H              1 S1                 0.0000
     32 ****        -2.1942  -3.0037   1.5486 H              1 S1                 0.0000
     33 ****        -2.6023  -0.0818   0.7743 H              1 S1                 0.0000
     34 ****        -0.2273  -1.6735   1.3013 H              1 S1                 0.0000
     35 ****         1.5523  -0.8660   1.2963 H              1 S1                 0.0000
     36 ****         3.7694  -0.2842   1.8491 H              1 S1                 0.0000
     37 ****         6.4786   5.3023  -0.5007 H              1 S1                 0.0000
     38 ****         5.0335   5.1785   0.4941 H              1 S1                 0.0000
     39 ****         4.9584   4.8344  -1.2312 H              1 S1                 0.0000
     40 ****         5.9912   2.6352  -2.1442 H              1 S1                 0.0000
     41 ****         6.8983   1.5815  -1.0659 H              1 S1                 0.0000
     42 ****         7.5381   3.1641  -1.4924 H              1 S1                 0.0000
     43 ****         7.7364   3.8505   0.9864 H              1 S1                 0.0000
     44 ****         7.2043   2.2418   1.4244 H              1 S1                 0.0000
     45 ****         6.3586   3.6496   2.0605 H              1 S1                 0.0000
     46 ****         1.5622   2.2939  -0.8501 H              1 S1                 0.0000
     47 ****        -2.0599  -0.8245  -1.5516 H              1 S1                 0.0000
     48 ****        -1.8957  -2.4698  -1.0038 H              1 S1                 0.0000
     49 ****        -4.0179  -2.2759  -2.0152 H              1 S1                 0.0000
     50 ****        -4.2832   0.1950  -1.9031 H              1 S1                 0.0000
     51 ****        -4.7593   0.0900  -0.2180 H              1 S1                 0.0000
     52 ****        -5.7632  -0.6293  -1.4732 H              1 S1                 0.0000
     53 ****        -3.9421  -3.5694  -0.1217 H              1 S1                 0.0000
     54 ****        -1.4018   1.1480  -0.3537 LP             1 S1                 0.0000
     55 ****         0.1710   1.8715  -0.4069 LP             1 S1                 0.0000
     56 ****         5.6139   1.1318   1.4781 LP             1 S1                 0.0000
     57 ****         3.5126   3.5501  -1.0507 LP             1 S1                 0.0000
@<TRIPOS>BOND
    1    1    2 1     
    2    1   24 1     
    3    1   25 1     
    4    1   26 1     
    5    2    3 1     
    6    2   27 1     
    7    2   28 1     
    8    3   22 1     
    9    3    4 1     
   10    3   53 1     
   11    4    5 1     
   12    4   29 1     
   13    4   30 1     
   14    5    6 1     
   15    5   31 1     
   16    5   32 1     
   17    6    7 1     
   18    6   21 1     
   19    6   33 1     
   20    7    8 am    
   21    7   34 1     
   22    8    9 2     
   23    8   10 am    
   24   10   11 1     
   25   10   35 1     
   26   11   20 ar    
   27   11   12 ar    
   28   12   13 ar    
   29   12   36 1     
   30   13   14 ar    
   31   14   15 1     
   32   14   19 ar    
   33   15   16 1     
   34   15   17 1     
   35   15   18 1     
   36   16   37 1     
   37   16   38 1     
   38   16   39 1     
   39   17   40 1     
   40   17   41 1     
   41   17   42 1     
   42   18   43 1     
   43   18   44 1     
   44   18   45 1     
   45   19   20 ar    
   46   20   46 1     
   47   21   22 1     
   48   21   47 1     
   49   21   48 1     
   50   22   23 1     
   51   22   49 1     
   52   23   50 1     
   53   23   51 1     
   54   23   52 1     
   55    9   54 1     
   56    9   55 1     
   57   13   56 1     
   58   19   57 1     
@<TRIPOS>SUBSTRUCTURE
      1 S1             1
@<TRIPOS>SET
LONE_PAIRS      STATIC     ATOMS    <user>   **** ""
4 54 55 56 57
DONOR_HYDROGENS      STATIC     ATOMS    <user>   **** ""
3 53 34 35
ATOM$BLUE        STATIC     ATOMS    COLORGROUP SYSTEM
4 54 55 56 57
ATOM$RED        STATIC     ATOMS    COLORGROUP SYSTEM
3 53 34 35
