AV-unprocessed.smi:1432|AV-procd|sdf|5833|dock3
  -GOLD-   22720 5493D 1   1.00000     0.00000
 Structure written by MMmdl.
 47 48  0  0  0  0  0  0  0  0  2 V2000
  147.6865  135.3560  156.6367 C   0  0  0  0  0  0  0  0  0  0  0  0
  147.8823  135.6335  155.1302 C   0  0  2  0  0  0  0  0  0  0  0  0
  147.2154  134.5604  154.2441 C   0  0  0  0  0  0  0  0  0  0  0  0
  147.9869  133.2326  154.2653 C   0  0  0  0  0  0  0  0  0  0  0  0
  149.4541  133.4711  153.8889 C   0  0  0  0  0  0  0  0  0  0  0  0
  150.0920  134.5448  154.7860 C   0  0  0  0  0  0  0  0  0  0  0  0
  149.3134  135.8129  154.7402 N   0  3  2  0  0  0  0  0  0  0  0  0
  149.9809  136.9490  155.4268 C   0  0  0  0  0  0  0  0  0  0  0  0
  149.1336  138.2349  155.3849 C   0  0  0  0  0  0  0  0  0  0  0  0
  149.9638  139.4291  155.4883 N   0  0  0  0  0  0  0  0  0  0  0  0
  149.5252  140.6375  155.8722 C   0  0  0  0  0  0  0  0  0  0  0  0
  148.3596  140.8530  156.2072 O   0  0  0  0  0  0  0  0  0  0  0  0
  150.5729  141.7595  155.8978 C   0  0  0  0  0  0  0  0  0  0  0  0
  151.2058  141.9332  157.2163 N   0  0  0  0  0  0  0  0  0  0  0  0
  150.9451  143.1366  157.9011 C   0  0  0  0  0  0  0  0  0  0  0  0
  151.4774  143.4253  159.1040 C   0  0  0  0  0  0  0  0  0  0  0  0
  151.1388  144.7121  159.8406 C   0  0  0  0  0  0  0  0  0  0  0  0
  151.6669  144.7180  161.0648 F   0  0  0  0  0  0  0  0  0  0  0  0
  151.6255  145.7574  159.1732 F   0  0  0  0  0  0  0  0  0  0  0  0
  149.8192  144.8694  159.9527 F   0  0  0  0  0  0  0  0  0  0  0  0
  152.3220  142.4070  159.6971 C   0  0  0  0  0  0  0  0  0  0  0  0
  152.5767  141.2484  159.0585 C   0  0  0  0  0  0  0  0  0  0  0  0
  152.0126  140.9610  157.7378 C   0  0  0  0  0  0  0  0  0  0  0  0
  152.2500  139.9127  157.1371 O   0  0  0  0  0  0  0  0  0  0  0  0
  146.6273  135.2535  156.8732 H   0  0  0  0  0  0  0  0  0  0  0  0
  148.0695  136.1705  157.2516 H   0  0  0  0  0  0  0  0  0  0  0  0
  148.1785  134.4386  156.9583 H   0  0  0  0  0  0  0  0  0  0  0  0
  147.3732  136.5741  154.9135 H   0  0  0  0  0  0  0  0  0  0  0  0
  146.1830  134.3982  154.5560 H   0  0  0  0  0  0  0  0  0  0  0  0
  147.1655  134.9251  153.2169 H   0  0  0  0  0  0  0  0  0  0  0  0
  147.9263  132.7774  155.2544 H   0  0  0  0  0  0  0  0  0  0  0  0
  147.5327  132.5241  153.5720 H   0  0  0  0  0  0  0  0  0  0  0  0
  150.0150  132.5391  153.9665 H   0  0  0  0  0  0  0  0  0  0  0  0
  149.5173  133.7833  152.8457 H   0  0  0  0  0  0  0  0  0  0  0  0
  150.1677  134.1861  155.8129 H   0  0  0  0  0  0  0  0  0  0  0  0
  151.1124  134.7164  154.4460 H   0  0  0  0  0  0  0  0  0  0  0  0
  150.1480  136.6812  156.4711 H   0  0  0  0  0  0  0  0  0  0  0  0
  150.9656  137.1222  154.9901 H   0  0  0  0  0  0  0  0  0  0  0  0
  148.5821  138.3065  154.4484 H   0  0  0  0  0  0  0  0  0  0  0  0
  148.3893  138.2291  156.1831 H   0  0  0  0  0  0  0  0  0  0  0  0
  150.9365  139.3360  155.2318 H   0  0  0  0  0  0  0  0  0  0  0  0
  151.3237  141.5403  155.1376 H   0  0  0  0  0  0  0  0  0  0  0  0
  150.1108  142.6957  155.5788 H   0  0  0  0  0  0  0  0  0  0  0  0
  150.2860  143.8166  157.3809 H   0  0  0  0  0  0  0  0  0  0  0  0
  152.7626  142.5774  160.6683 H   0  0  0  0  0  0  0  0  0  0  0  0
  153.2131  140.5132  159.5291 H   0  0  0  0  0  0  0  0  0  0  0  0
  149.2806  136.0773  153.7657 H   0  0  0  0  0  0  0  0  0  0  0  0
  1  2  1  0  0  0  0
  1 25  1  0  0  0  0
  1 26  1  0  0  0  0
  1 27  1  0  0  0  0
  2  7  1  0  0  0  0
  2  3  1  0  0  0  0
  2 28  1  0  0  0  0
  3  4  1  0  0  0  0
  3 29  1  0  0  0  0
  3 30  1  0  0  0  0
  4  5  1  0  0  0  0
  4 31  1  0  0  0  0
  4 32  1  0  0  0  0
  5  6  1  0  0  0  0
  5 33  1  0  0  0  0
  5 34  1  0  0  0  0
  6  7  1  0  0  0  0
  6 35  1  0  0  0  0
  6 36  1  0  0  0  0
  7  8  1  0  0  0  0
  7 47  1  0  0  0  0
  8  9  1  0  0  0  0
  8 37  1  0  0  0  0
  8 38  1  0  0  0  0
  9 10  1  0  0  0  0
  9 39  1  0  0  0  0
  9 40  1  0  0  0  0
 10 11  1  0  0  0  0
 10 41  1  0  0  0  0
 11 12  2  0  0  0  0
 11 13  1  0  0  0  0
 13 14  1  0  0  0  0
 13 42  1  0  0  0  0
 13 43  1  0  0  0  0
 14 23  1  0  0  0  0
 14 15  1  0  0  0  0
 15 16  2  0  0  0  0
 15 44  1  0  0  0  0
 16 17  1  0  0  0  0
 16 21  1  0  0  0  0
 17 18  1  0  0  0  0
 17 19  1  0  0  0  0
 17 20  1  0  0  0  0
 21 22  2  0  0  0  0
 21 45  1  0  0  0  0
 22 23  1  0  0  0  0
 22 46  1  0  0  0  0
 23 24  2  0  0  0  0
M  CHG  1   7   1
M  END
> <s_m_source_file>
AV-unprocessed.smi

> <i_m_source_file_index>
1432

> <i_lp_mmshare_version>
43012

> <i_f3d_flags>
0

> <s_epik_input>
W0NIM11bQ0BASF0xW0NIMl1bQ0gyXVtDSDJdW0NIMl1OMVtDSDJdW0NIMl1bTkhdQyg9TylbQ0gyXW4yW2NIXWMoQyhGKShGKUYpW2NIXVtjSF1jMj1P

> <s_epik_cmdline>
J2VwaWtfcHl0aG9uJywgJy1waCcsICc3LjAnLCAnLXRuJywgJzgnLCAnLW1hJywgJzIwMCcsICctbWV0YWxfYmluZGluZycsICctaW1hZScsICc8aW5maWxlLm1hZT4nLCAnLW9tYWUnLCAnPG91dGZpbGUubWFlPic=

> <r_lp_tautomer_probability>
1

> <r_epik_Ionization_Penalty>
0.00237222

> <r_epik_Ionization_Penalty_Charging>
0.00237213

> <r_epik_Ionization_Penalty_Neutral>
8.2065e-08

> <r_epik_State_Penalty>
0.00163922

> <r_epik_Charging_Adjusted_Penalty>
0.00401135

> <i_epik_Tot_Q>
1

> <i_epik_Tot_abs_Q>
1

> <r_epik_Metal_State_Penalty>
-0

> <b_epik_Metal_Only>
0

> <s_lp_Force_Field>
OPLS_2005

> <r_lp_Energy>
31.3892

> <b_lp_Chiralities_Consistent>
1

> <s_lp_Variant>
AV-unprocessed.smi:1432-3

> <Gold.Version>
5.8.1

> <Gold.Id.Protein>
6NUR|6NUR_protein|mol2

> <Gold.PLP.Fitness>
53.6380

> <Gold.PLP.PLP>
-43.4980

> <Gold.PLP.part.hbond>
-2.0000

> <Gold.PLP.part.metal>
0.0000

> <Gold.PLP.part.buried>
-5.7817

> <Gold.PLP.part.nonpolar>
-34.7930

> <Gold.PLP.part.repulsive>
0.1310

> <Gold.PLP.ligand.clash>
0.0000

> <Gold.PLP.ligand.torsion>
0.8198

> <Gold.PLP.Chemscore.Hbond>
2.9913

> <Gold.PLP.Chemscore.CHOScore>
0.8940

> <Gold.PLP.Chemscore.Metal>
0.0000

> <Gold.Chemscore.Hbonds>
donor molecule, donor type, donor heavy atom, donor atom, acceptor molecule, acceptor atom, score
      L1  H     7    47       P1  7948  2.00
      P1  H  7997  8009       L1    24  0.59
      L1  C    15    44       P1  8028  1.00

> <Gold.PLP.Chemscore.Internal.Correction>
0.1240

> <Gold.Rescore>
     Score         DG    S(hbond)    S(metal)    S(lipo)     H(rot)  DE(clash)    DE(int)     intcor
     14.81     -16.06       1.80        0.00      84.49       2.08       0.37       0.88       ----

> <Gold.Chemscore.Fitness>
14.8076

> <Gold.Chemscore.DG>
-16.0568

> <Gold.Chemscore.ZeroCoef>
-5.4800

> <Gold.Chemscore.Hbond>
1.7982

> <Gold.Chemscore.Metal>
0.0000

> <Gold.Chemscore.Lipo>
84.4940

> <Gold.Chemscore.Internal_Hbond>
0.0000

> <Gold.Chemscore.DEClash>
0.3671

> <Gold.Chemscore.DEInternal>
0.8821

> <Gold.Chemscore.Rot>
2.0762

> <Gold.Chemscore.Internal.Correction>
   9.000000E+99

> <Gold.Chemscore.Hbonds>
donor molecule, donor type, donor heavy atom, donor atom, acceptor molecule, acceptor atom, score
      L1  H     7    47       P1  7948  0.82
      P1  H  7997  8009       L1    24  0.26

> <Gold.Chemscore.Hbond.Weighted>
-6.0060

> <Gold.Chemscore.Metal.Weighted>
-0.0000

> <Gold.Chemscore.Lipo.Weighted>
-9.8858

> <Gold.Chemscore.Internal_Hbond.Weighted>
0.0000

> <Gold.Chemscore.DEClash.Weighted>
0.3671

> <Gold.Chemscore.DEInternal.Weighted>
0.8821

> <Gold.Chemscore.Rot.Weighted>
5.3150

> <Gold.Chemscore.Internal.Correction.Weighted>
   9.000000E+99

> <Gold.Protein.RotatedTorsions>
[ 6907 6896 6895 6894 ] final  -80.88 input  -60.11 | X-H torsion
[ 7974 7965 7964 7962 ] final  -14.20 input  175.53 | X-H torsion
[ 8008 7997 7996 7995 ] final -170.40 input   59.86 | X-H torsion
[ 10167 10162 10161 10158 ] final -144.04 input  -65.29 | X-H torsion
[ 10718 10713 10712 10709 ] final  129.45 input   66.30 | X-H torsion
[ 10763 10752 10751 10750 ] final  107.90 input  -60.55 | X-H torsion
[ 11005 11000 10999 10996 ] final   88.49 input  -57.11 | X-H torsion

> <Gold.Protein.ActiveResidues>
 VAL166  LYS551  ARG553  GLY616  TRP617  ASP618  TYR619  PRO620  LYS621  CYS622 
 ASP623  PHE694  ASN695  SER759  ASP760  ASP761  ALA762  ILE779  LEU786  VAL792 
 PHE793  MET794  SER795  GLU796  ALA797  LYS798  CYS799  TRP800  GLU811  SER814 

> <Gold.Protein.RotatedAtoms>
  150.6921  134.3902  159.5072 H   0  0  0  0  0  0  0  0  0  0  0  0  # atno 6907 bound_to 6896
  152.1691  134.8846  160.0545 H   0  0  0  0  0  0  0  0  0  0  0  0  # atno 6908 bound_to 6896
  151.9879  133.3745  159.4170 H   0  0  0  0  0  0  0  0  0  0  0  0  # atno 6909 bound_to 6896
  146.2084  140.3314  142.8399 H   0  0  0  0  0  0  0  0  0  0  0  0  # atno 7974 bound_to 7965
  155.9178  140.1069  157.1230 H   0  0  0  0  0  0  0  0  0  0  0  0  # atno 8008 bound_to 7997
  154.4049  140.1262  156.4706 H   0  0  0  0  0  0  0  0  0  0  0  0  # atno 8009 bound_to 7997
  155.7232  140.3469  155.5028 H   0  0  0  0  0  0  0  0  0  0  0  0  # atno 8010 bound_to 7997
  139.7936  143.7931  152.2652 H   0  0  0  0  0  0  0  0  0  0  0  0  # atno 10167 bound_to 10162
  157.5153  131.1097  150.9234 H   0  0  0  0  0  0  0  0  0  0  0  0  # atno 10718 bound_to 10713
  153.4131  135.3829  155.2063 H   0  0  0  0  0  0  0  0  0  0  0  0  # atno 10763 bound_to 10752
  154.8739  135.3799  154.4476 H   0  0  0  0  0  0  0  0  0  0  0  0  # atno 10764 bound_to 10752
  153.4987  135.7088  153.5906 H   0  0  0  0  0  0  0  0  0  0  0  0  # atno 10765 bound_to 10752
  139.8895  134.8491  156.3008 H   0  0  0  0  0  0  0  0  0  0  0  0  # atno 11005 bound_to 11000
  144.8849  140.7449  143.5963 LP  0  0  0  0  0  0  0  0  0  0  0  0  # atno 17320 bound_to 7965
  145.3235  139.1781  143.4575 LP  0  0  0  0  0  0  0  0  0  0  0  0  # atno 17321 bound_to 7965
  139.8030  144.7366  150.9799 LP  0  0  0  0  0  0  0  0  0  0  0  0  # atno 17342 bound_to 10162
  140.7820  143.4326  151.0672 LP  0  0  0  0  0  0  0  0  0  0  0  0  # atno 17343 bound_to 10162
  156.9862  130.5546  149.5300 LP  0  0  0  0  0  0  0  0  0  0  0  0  # atno 17370 bound_to 10713
  156.0316  130.5407  150.8548 LP  0  0  0  0  0  0  0  0  0  0  0  0  # atno 17371 bound_to 10713
  140.9915  133.7206  156.0821 LP  0  0  0  0  0  0  0  0  0  0  0  0  # atno 17394 bound_to 11000
  140.7619  134.3930  157.5524 LP  0  0  0  0  0  0  0  0  0  0  0  0  # atno 17395 bound_to 11000

$$$$
