AV-unprocessed.smi:2041|AV-procd|sdf|8293|dock3
  -GOLD-   2272010563D 1   1.00000     0.00000
 Structure written by MMmdl.
 30 31  0  0  0  0  0  0  0  0  2 V2000
  150.4357  140.2527  157.2695 O   0  0  0  0  0  0  0  0  0  0  0  0
  150.4146  141.4528  156.9861 C   0  0  0  0  0  0  0  0  0  0  0  0
  151.1290  142.4313  157.5881 N   0  5  0  0  0  0  0  0  0  0  0  0
  151.9683  142.1291  158.5919 C   0  0  0  0  0  0  0  0  0  0  0  0
  152.4251  140.8911  158.8141 N   0  0  0  0  0  0  0  0  0  0  0  0
  153.2803  140.8042  159.9142 C   0  0  0  0  0  0  0  0  0  0  0  0
  153.4715  142.0017  160.5507 C   0  0  0  0  0  0  0  0  0  0  0  0
  152.5782  143.2828  159.7820 S   0  0  0  0  0  0  0  0  0  0  0  0
  149.6297  141.8914  155.9897 N   0  0  0  0  0  0  0  0  0  0  0  0
  148.7572  141.0684  155.1470 C   0  0  1  0  0  0  0  0  0  0  0  0
  148.1052  141.9995  154.0989 C   0  0  0  0  0  0  0  0  0  0  0  0
  146.7966  141.4485  153.5052 C   0  0  0  0  0  0  0  0  0  0  0  0
  146.9476  140.1612  152.6803 C   0  0  0  0  0  0  0  0  0  0  0  0
  147.4683  138.9635  153.4931 C   0  0  0  0  0  0  0  0  0  0  0  0
  148.9061  139.0369  153.7147 N   0  0  0  0  0  0  0  0  0  0  0  0
  149.5663  139.9696  154.4179 C   0  0  0  0  0  0  0  0  0  0  0  0
  150.7957  139.9493  154.4719 O   0  0  0  0  0  0  0  0  0  0  0  0
  153.7080  139.8473  160.1735 H   0  0  0  0  0  0  0  0  0  0  0  0
  154.0781  142.2081  161.4194 H   0  0  0  0  0  0  0  0  0  0  0  0
  149.6513  142.8802  155.7892 H   0  0  0  0  0  0  0  0  0  0  0  0
  147.9881  140.6144  155.7743 H   0  0  0  0  0  0  0  0  0  0  0  0
  147.8627  142.9522  154.5729 H   0  0  0  0  0  0  0  0  0  0  0  0
  148.8092  142.2431  153.3011 H   0  0  0  0  0  0  0  0  0  0  0  0
  146.0784  141.2815  154.3088 H   0  0  0  0  0  0  0  0  0  0  0  0
  146.3551  142.2162  152.8687 H   0  0  0  0  0  0  0  0  0  0  0  0
  145.9690  139.9029  152.2745 H   0  0  0  0  0  0  0  0  0  0  0  0
  147.5908  140.3389  151.8173 H   0  0  0  0  0  0  0  0  0  0  0  0
  146.9382  138.8677  154.4417 H   0  0  0  0  0  0  0  0  0  0  0  0
  147.2764  138.0438  152.9399 H   0  0  0  0  0  0  0  0  0  0  0  0
  149.4640  138.3272  153.2623 H   0  0  0  0  0  0  0  0  0  0  0  0
  1  2  2  0  0  0  0
  2  3  1  0  0  0  0
  2  9  1  0  0  0  0
  3  4  1  0  0  0  0
  4  8  1  0  0  0  0
  4  5  2  0  0  0  0
  5  6  1  0  0  0  0
  6  7  2  0  0  0  0
  6 18  1  0  0  0  0
  7  8  1  0  0  0  0
  7 19  1  0  0  0  0
  9 10  1  0  0  0  0
  9 20  1  0  0  0  0
 10 16  1  0  0  0  0
 10 11  1  0  0  0  0
 10 21  1  0  0  0  0
 11 12  1  0  0  0  0
 11 22  1  0  0  0  0
 11 23  1  0  0  0  0
 12 13  1  0  0  0  0
 12 24  1  0  0  0  0
 12 25  1  0  0  0  0
 13 14  1  0  0  0  0
 13 26  1  0  0  0  0
 13 27  1  0  0  0  0
 14 15  1  0  0  0  0
 14 28  1  0  0  0  0
 14 29  1  0  0  0  0
 15 16  1  0  0  0  0
 15 30  1  0  0  0  0
 16 17  2  0  0  0  0
M  CHG  1   3  -1
M  END
> <s_m_source_file>
AV-unprocessed.smi

> <i_m_source_file_index>
2041

> <i_lp_mmshare_version>
43012

> <i_f3d_flags>
0

> <s_epik_input>
czFbY0hdW2NIXW5jMVtOSF1DKD1PKVtOSF1bQ0BASF0yW0NIMl1bQ0gyXVtDSDJdW0NIMl1bTkhdQzI9Tw==

> <s_epik_cmdline>
J2VwaWtfcHl0aG9uJywgJy1waCcsICc3LjAnLCAnLXRuJywgJzgnLCAnLW1hJywgJzIwMCcsICctbWV0YWxfYmluZGluZycsICctaW1hZScsICc8aW5maWxlLm1hZT4nLCAnLW9tYWUnLCAnPG91dGZpbGUubWFlPic=

> <r_lp_tautomer_probability>
1

> <r_epik_Ionization_Penalty>
7.83857

> <r_epik_Ionization_Penalty_Charging>
6.39911

> <r_epik_Ionization_Penalty_Neutral>
1.43945

> <r_epik_State_Penalty>
6.3991

> <r_epik_Charging_Adjusted_Penalty>
12.7982

> <i_epik_Tot_Q>
-1

> <i_epik_Tot_abs_Q>
1

> <r_epik_Metal_State_Penalty>
2.33024

> <b_epik_Metal_Only>
1

> <s_lp_Force_Field>
OPLS_2005

> <r_lp_Energy>
7.07092

> <b_lp_Chiralities_Consistent>
1

> <s_lp_Variant>
AV-unprocessed.smi:2041-4

> <Gold.Version>
5.8.1

> <Gold.Id.Protein>
6NUR|6NUR_protein|mol2

> <Gold.PLP.Fitness>
39.3294

> <Gold.PLP.PLP>
-33.4999

> <Gold.PLP.part.hbond>
-3.0000

> <Gold.PLP.part.metal>
0.0000

> <Gold.PLP.part.buried>
-2.6353

> <Gold.PLP.part.nonpolar>
-27.5544

> <Gold.PLP.part.repulsive>
0.3418

> <Gold.PLP.ligand.clash>
0.0000

> <Gold.PLP.ligand.torsion>
0.0870

> <Gold.PLP.Chemscore.Hbond>
2.0000

> <Gold.PLP.Chemscore.CHOScore>
0.0000

> <Gold.PLP.Chemscore.Metal>
0.0000

> <Gold.Chemscore.Hbonds>
donor molecule, donor type, donor heavy atom, donor atom, acceptor molecule, acceptor atom, score
      L1  H     9    20       P1  8028  1.00
      P1  H  7989  7998       L1    17  1.00

> <Gold.PLP.Chemscore.Internal.Correction>
0.0035

> <Gold.Rescore>
     Score         DG    S(hbond)    S(metal)    S(lipo)     H(rot)  DE(clash)    DE(int)     intcor
     15.46     -17.25       1.97        0.00      66.12       1.00       0.01       1.78       ----

> <Gold.Chemscore.Fitness>
15.4587

> <Gold.Chemscore.DG>
-17.2504

> <Gold.Chemscore.ZeroCoef>
-5.4800

> <Gold.Chemscore.Hbond>
1.9745

> <Gold.Chemscore.Metal>
0.0000

> <Gold.Chemscore.Lipo>
66.1152

> <Gold.Chemscore.Internal_Hbond>
0.0000

> <Gold.Chemscore.DEClash>
0.0108

> <Gold.Chemscore.DEInternal>
1.7808

> <Gold.Chemscore.Rot>
1.0000

> <Gold.Chemscore.Internal.Correction>
   9.000000E+99

> <Gold.Chemscore.Hbonds>
donor molecule, donor type, donor heavy atom, donor atom, acceptor molecule, acceptor atom, score
      L1  H     9    20       P1  8028  0.95
      P1  H  7989  7998       L1    17  0.94

> <Gold.Chemscore.Hbond.Weighted>
-6.5949

> <Gold.Chemscore.Metal.Weighted>
-0.0000

> <Gold.Chemscore.Lipo.Weighted>
-7.7355

> <Gold.Chemscore.Internal_Hbond.Weighted>
0.0000

> <Gold.Chemscore.DEClash.Weighted>
0.0108

> <Gold.Chemscore.DEInternal.Weighted>
1.7808

> <Gold.Chemscore.Rot.Weighted>
2.5600

> <Gold.Chemscore.Internal.Correction.Weighted>
   9.000000E+99

> <Gold.Protein.RotatedTorsions>
[ 6907 6896 6895 6894 ] final   38.04 input  -60.11 | X-H torsion
[ 7974 7965 7964 7962 ] final -135.23 input  175.53 | X-H torsion
[ 8008 7997 7996 7995 ] final   15.34 input   59.86 | X-H torsion
[ 10167 10162 10161 10158 ] final  -23.07 input  -65.29 | X-H torsion
[ 10718 10713 10712 10709 ] final  -22.54 input   66.30 | X-H torsion
[ 10763 10752 10751 10750 ] final  104.15 input  -60.55 | X-H torsion
[ 11005 11000 10999 10996 ] final   25.95 input  -57.11 | X-H torsion

> <Gold.Protein.ActiveResidues>
 VAL166  LYS551  ARG553  GLY616  TRP617  ASP618  TYR619  PRO620  LYS621  CYS622 
 ASP623  PHE694  ASN695  SER759  ASP760  ASP761  ALA762  ILE779  LEU786  VAL792 
 PHE793  MET794  SER795  GLU796  ALA797  LYS798  CYS799  TRP800  GLU811  SER814 

> <Gold.Protein.RotatedAtoms>
  152.1512  134.8987  160.0547 H   0  0  0  0  0  0  0  0  0  0  0  0  # atno 6907 bound_to 6896
  152.0018  133.3823  159.4193 H   0  0  0  0  0  0  0  0  0  0  0  0  # atno 6908 bound_to 6896
  150.6876  134.3748  159.5052 H   0  0  0  0  0  0  0  0  0  0  0  0  # atno 6909 bound_to 6896
  144.9033  140.6799  143.5071 H   0  0  0  0  0  0  0  0  0  0  0  0  # atno 7974 bound_to 7965
  154.8612  140.2944  155.5538 H   0  0  0  0  0  0  0  0  0  0  0  0  # atno 8008 bound_to 7997
  156.3020  140.2477  156.3519 H   0  0  0  0  0  0  0  0  0  0  0  0  # atno 8009 bound_to 7997
  154.8916  140.0394  157.1831 H   0  0  0  0  0  0  0  0  0  0  0  0  # atno 8010 bound_to 7997
  140.7287  143.4477  151.0563 H   0  0  0  0  0  0  0  0  0  0  0  0  # atno 10167 bound_to 10162
  156.5032  130.4593  149.6689 H   0  0  0  0  0  0  0  0  0  0  0  0  # atno 10718 bound_to 10713
  153.3621  135.3953  155.1726 H   0  0  0  0  0  0  0  0  0  0  0  0  # atno 10763 bound_to 10752
  154.8681  135.3682  154.5086 H   0  0  0  0  0  0  0  0  0  0  0  0  # atno 10764 bound_to 10752
  153.5546  135.7082  153.5635 H   0  0  0  0  0  0  0  0  0  0  0  0  # atno 10765 bound_to 10752
  140.3423  134.2320  155.7688 H   0  0  0  0  0  0  0  0  0  0  0  0  # atno 11005 bound_to 11000
  145.3579  139.1689  143.4399 LP  0  0  0  0  0  0  0  0  0  0  0  0  # atno 17320 bound_to 7965
  146.3120  140.3639  142.8667 LP  0  0  0  0  0  0  0  0  0  0  0  0  # atno 17321 bound_to 7965
  139.8150  143.7899  152.3174 LP  0  0  0  0  0  0  0  0  0  0  0  0  # atno 17342 bound_to 10162
  139.7961  144.7392  150.9888 LP  0  0  0  0  0  0  0  0  0  0  0  0  # atno 17343 bound_to 10162
  156.3313  130.7333  151.2262 LP  0  0  0  0  0  0  0  0  0  0  0  0  # atno 17370 bound_to 10713
  157.7460  131.0429  150.4718 LP  0  0  0  0  0  0  0  0  0  0  0  0  # atno 17371 bound_to 10713
  141.2035  133.7910  157.0336 LP  0  0  0  0  0  0  0  0  0  0  0  0  # atno 17394 bound_to 11000
  140.0771  134.9669  157.1563 LP  0  0  0  0  0  0  0  0  0  0  0  0  # atno 17395 bound_to 11000

$$$$
