AV-unprocessed.smi:3193|AV-procd|sdf|12206|dock4
  -GOLD-   2272018 43D 1   1.00000     0.00000
 Structure written by MMmdl.
 41 42  0  0  0  0  0  0  0  0  3 V2000
  153.3301  142.3362  159.4737 C   0  0  0  0  0  0  0  0  0  0  0  0
  151.9001  142.6912  159.9307 C   0  0  1  0  0  0  0  0  0  0  0  0
  151.9070  143.7809  161.0237 C   0  0  0  0  0  0  0  0  0  0  0  0
  152.2549  145.1703  160.4634 C   0  0  0  0  0  0  0  0  0  0  0  0
  151.3158  145.5556  159.3112 C   0  0  0  0  0  0  0  0  0  0  0  0
  151.3055  144.4835  158.2094 C   0  0  0  0  0  0  0  0  0  0  0  0
  150.9430  143.0921  158.7759 C   0  0  1  0  0  0  0  0  0  0  0  0
  150.8536  142.0135  157.6775 C   0  0  0  0  0  0  0  0  0  0  0  0
  149.7121  142.2515  156.7708 N   0  3  0  0  0  0  0  0  0  0  0  0
  149.8647  141.6320  155.4394 C   0  0  0  0  0  0  0  0  0  0  0  0
  149.4704  140.1483  155.4686 C   0  0  0  0  0  0  0  0  0  0  0  0
  150.5341  139.2898  154.9412 N   0  0  0  0  0  0  0  0  0  0  0  0
  151.8616  139.3040  155.2864 C   0  0  0  0  0  0  0  0  0  0  0  0
  152.4709  138.3305  154.5374 C   0  0  0  0  0  0  0  0  0  0  0  0
  151.4910  137.7644  153.7666 N   0  3  0  0  0  0  0  0  0  0  0  0
  150.3136  138.3483  154.0139 C   0  0  0  0  0  0  0  0  0  0  0  0
  153.8176  143.1650  158.9611 H   0  0  0  0  0  0  0  0  0  0  0  0
  153.3362  141.4803  158.7993 H   0  0  0  0  0  0  0  0  0  0  0  0
  153.9536  142.0693  160.3274 H   0  0  0  0  0  0  0  0  0  0  0  0
  151.4952  141.7886  160.3906 H   0  0  0  0  0  0  0  0  0  0  0  0
  150.9226  143.8246  161.4918 H   0  0  0  0  0  0  0  0  0  0  0  0
  152.6041  143.5148  161.8189 H   0  0  0  0  0  0  0  0  0  0  0  0
  152.1905  145.9155  161.2570 H   0  0  0  0  0  0  0  0  0  0  0  0
  153.2885  145.1849  160.1166 H   0  0  0  0  0  0  0  0  0  0  0  0
  150.3047  145.6906  159.6970 H   0  0  0  0  0  0  0  0  0  0  0  0
  151.6163  146.5170  158.8934 H   0  0  0  0  0  0  0  0  0  0  0  0
  150.5913  144.7761  157.4395 H   0  0  0  0  0  0  0  0  0  0  0  0
  152.2797  144.4503  157.7205 H   0  0  0  0  0  0  0  0  0  0  0  0
  149.9485  143.1742  159.2186 H   0  0  0  0  0  0  0  0  0  0  0  0
  151.7753  141.9798  157.0950 H   0  0  0  0  0  0  0  0  0  0  0  0
  150.7272  141.0314  158.1356 H   0  0  0  0  0  0  0  0  0  0  0  0
  148.8789  141.8810  157.2057 H   0  0  0  0  0  0  0  0  0  0  0  0
  149.2456  142.1702  154.7202 H   0  0  0  0  0  0  0  0  0  0  0  0
  150.9009  141.7355  155.1142 H   0  0  0  0  0  0  0  0  0  0  0  0
  149.2585  139.8256  156.4890 H   0  0  0  0  0  0  0  0  0  0  0  0
  148.5676  139.9727  154.8815 H   0  0  0  0  0  0  0  0  0  0  0  0
  152.2659  139.9864  156.0205 H   0  0  0  0  0  0  0  0  0  0  0  0
  153.5011  138.0066  154.4961 H   0  0  0  0  0  0  0  0  0  0  0  0
  149.3723  138.1058  153.5534 H   0  0  0  0  0  0  0  0  0  0  0  0
  149.5991  143.2487  156.6553 H   0  0  0  0  0  0  0  0  0  0  0  0
  151.6349  137.0109  153.1056 H   0  0  0  0  0  0  0  0  0  0  0  0
  1  2  1  0  0  0  0
  1 17  1  0  0  0  0
  1 18  1  0  0  0  0
  1 19  1  0  0  0  0
  2  7  1  0  0  0  0
  2  3  1  0  0  0  0
  2 20  1  0  0  0  0
  3  4  1  0  0  0  0
  3 21  1  0  0  0  0
  3 22  1  0  0  0  0
  4  5  1  0  0  0  0
  4 23  1  0  0  0  0
  4 24  1  0  0  0  0
  5  6  1  0  0  0  0
  5 25  1  0  0  0  0
  5 26  1  0  0  0  0
  6  7  1  0  0  0  0
  6 27  1  0  0  0  0
  6 28  1  0  0  0  0
  7  8  1  0  0  0  0
  7 29  1  0  0  0  0
  8  9  1  0  0  0  0
  8 30  1  0  0  0  0
  8 31  1  0  0  0  0
  9 10  1  0  0  0  0
  9 32  1  0  0  0  0
  9 40  1  0  0  0  0
 10 11  1  0  0  0  0
 10 33  1  0  0  0  0
 10 34  1  0  0  0  0
 11 12  1  0  0  0  0
 11 35  1  0  0  0  0
 11 36  1  0  0  0  0
 12 16  1  0  0  0  0
 12 13  1  0  0  0  0
 13 14  2  0  0  0  0
 13 37  1  0  0  0  0
 14 15  1  0  0  0  0
 14 38  1  0  0  0  0
 15 16  2  0  0  0  0
 15 41  1  0  0  0  0
 16 39  1  0  0  0  0
M  CHG  1   9   1
M  CHG  1  15   1
M  END
> <s_m_source_file>
AV-unprocessed.smi

> <i_m_source_file_index>
3193

> <i_lp_mmshare_version>
43012

> <i_f3d_flags>
0

> <s_epik_input>
W0NIM11bQ0BASF0xW0NIMl1bQ0gyXVtDSDJdW0NIMl1bQ0BIXTFbQ0gyXVtOSF1bQ0gyXVtDSDJdbjJbY0hdW2NIXW5bY0hdMg==

> <s_epik_cmdline>
J2VwaWtfcHl0aG9uJywgJy1waCcsICc3LjAnLCAnLXRuJywgJzgnLCAnLW1hJywgJzIwMCcsICctbWV0YWxfYmluZGluZycsICctaW1hZScsICc8aW5maWxlLm1hZT4nLCAnLW9tYWUnLCAnPG91dGZpbGUubWFlPic=

> <r_lp_tautomer_probability>
1

> <r_epik_Ionization_Penalty>
1.50262

> <r_epik_Ionization_Penalty_Charging>
0.00193432

> <r_epik_Ionization_Penalty_Neutral>
1.50068

> <r_epik_State_Penalty>
1.11854

> <r_epik_Charging_Adjusted_Penalty>
1.12048

> <i_epik_Tot_Q>
2

> <i_epik_Tot_abs_Q>
2

> <r_epik_Metal_State_Penalty>
5.11322

> <b_epik_Metal_Only>
0

> <s_lp_Force_Field>
OPLS_2005

> <r_lp_Energy>
27.2728

> <b_lp_Chiralities_Consistent>
1

> <s_lp_Variant>
AV-unprocessed.smi:3193-6

> <Gold.Version>
5.8.1

> <Gold.Id.Protein>
6NUR|6NUR_protein|mol2

> <Gold.PLP.Fitness>
54.1471

> <Gold.PLP.PLP>
-40.7668

> <Gold.PLP.part.hbond>
-2.0000

> <Gold.PLP.part.metal>
0.0000

> <Gold.PLP.part.buried>
-2.9942

> <Gold.PLP.part.nonpolar>
-36.6834

> <Gold.PLP.part.repulsive>
0.1683

> <Gold.PLP.ligand.clash>
0.0000

> <Gold.PLP.ligand.torsion>
0.7659

> <Gold.PLP.Chemscore.Hbond>
3.9840

> <Gold.PLP.Chemscore.CHOScore>
0.9780

> <Gold.PLP.Chemscore.Metal>
0.0000

> <Gold.Chemscore.Hbonds>
donor molecule, donor type, donor heavy atom, donor atom, acceptor molecule, acceptor atom, score
      L1  H     9    40       P1  8028  1.98
      L1  H    15    41       P1  7949  2.00
      L1  C    16    39       P1  7948  0.91

> <Gold.PLP.Chemscore.Internal.Correction>
0.0259

> <Gold.Rescore>
     Score         DG    S(hbond)    S(metal)    S(lipo)     H(rot)  DE(clash)    DE(int)     intcor
     18.38     -19.93       1.90        0.00     112.44       1.98       0.72       0.83       ----

> <Gold.Chemscore.Fitness>
18.3833

> <Gold.Chemscore.DG>
-19.9299

> <Gold.Chemscore.ZeroCoef>
-5.4800

> <Gold.Chemscore.Hbond>
1.9032

> <Gold.Chemscore.Metal>
0.0000

> <Gold.Chemscore.Lipo>
112.4400

> <Gold.Chemscore.Internal_Hbond>
0.0000

> <Gold.Chemscore.DEClash>
0.7164

> <Gold.Chemscore.DEInternal>
0.8301

> <Gold.Chemscore.Rot>
1.9774

> <Gold.Chemscore.Internal.Correction>
   9.000000E+99

> <Gold.Chemscore.Hbonds>
donor molecule, donor type, donor heavy atom, donor atom, acceptor molecule, acceptor atom, score
      L1  H     9    40       P1  8028  0.94
      L1  H    15    41       P1  7949  0.92

> <Gold.Chemscore.Hbond.Weighted>
-6.3566

> <Gold.Chemscore.Metal.Weighted>
-0.0000

> <Gold.Chemscore.Lipo.Weighted>
-13.1555

> <Gold.Chemscore.Internal_Hbond.Weighted>
0.0000

> <Gold.Chemscore.DEClash.Weighted>
0.7164

> <Gold.Chemscore.DEInternal.Weighted>
0.8301

> <Gold.Chemscore.Rot.Weighted>
5.0622

> <Gold.Chemscore.Internal.Correction.Weighted>
   9.000000E+99

> <Gold.Protein.RotatedTorsions>
[ 6907 6896 6895 6894 ] final  -91.01 input  -60.11 | X-H torsion
[ 7974 7965 7964 7962 ] final  -86.28 input  175.53 | X-H torsion
[ 8008 7997 7996 7995 ] final  165.95 input   59.86 | X-H torsion
[ 10167 10162 10161 10158 ] final   58.05 input  -65.29 | X-H torsion
[ 10718 10713 10712 10709 ] final -135.56 input   66.30 | X-H torsion
[ 10763 10752 10751 10750 ] final  -14.24 input  -60.55 | X-H torsion
[ 11005 11000 10999 10996 ] final  173.16 input  -57.11 | X-H torsion

> <Gold.Protein.ActiveResidues>
 VAL166  LYS551  ARG553  GLY616  TRP617  ASP618  TYR619  PRO620  LYS621  CYS622 
 ASP623  PHE694  ASN695  SER759  ASP760  ASP761  ALA762  ILE779  LEU786  VAL792 
 PHE793  MET794  SER795  GLU796  ALA797  LYS798  CYS799  TRP800  GLU811  SER814 

> <Gold.Protein.RotatedAtoms>
  150.6888  134.2343  159.4446 H   0  0  0  0  0  0  0  0  0  0  0  0  # atno 6907 bound_to 6896
  152.0291  134.9775  160.0581 H   0  0  0  0  0  0  0  0  0  0  0  0  # atno 6908 bound_to 6896
  152.1322  133.4379  159.4763 H   0  0  0  0  0  0  0  0  0  0  0  0  # atno 6909 bound_to 6896
  145.4820  140.9556  143.1859 H   0  0  0  0  0  0  0  0  0  0  0  0  # atno 7974 bound_to 7965
  156.1759  140.1656  156.8364 H   0  0  0  0  0  0  0  0  0  0  0  0  # atno 8008 bound_to 7997
  154.5306  140.0758  156.8371 H   0  0  0  0  0  0  0  0  0  0  0  0  # atno 8009 bound_to 7997
  155.3415  140.3385  155.4241 H   0  0  0  0  0  0  0  0  0  0  0  0  # atno 8010 bound_to 7997
  140.1914  144.4082  150.6569 H   0  0  0  0  0  0  0  0  0  0  0  0  # atno 10167 bound_to 10162
  156.2675  130.7246  151.1202 H   0  0  0  0  0  0  0  0  0  0  0  0  # atno 10718 bound_to 10713
  153.5253  135.7015  153.5710 H   0  0  0  0  0  0  0  0  0  0  0  0  # atno 10763 bound_to 10752
  153.3741  135.3937  155.1810 H   0  0  0  0  0  0  0  0  0  0  0  0  # atno 10764 bound_to 10752
  154.8690  135.3819  154.4745 H   0  0  0  0  0  0  0  0  0  0  0  0  # atno 10765 bound_to 10752
  140.3375  134.7305  157.4179 H   0  0  0  0  0  0  0  0  0  0  0  0  # atno 11005 bound_to 11000
  144.7883  139.6380  143.7124 LP  0  0  0  0  0  0  0  0  0  0  0  0  # atno 17320 bound_to 7965
  146.2335  139.5860  142.9539 LP  0  0  0  0  0  0  0  0  0  0  0  0  # atno 17321 bound_to 7965
  140.6453  143.2212  151.6199 LP  0  0  0  0  0  0  0  0  0  0  0  0  # atno 17342 bound_to 10162
  139.5254  144.3074  152.1022 LP  0  0  0  0  0  0  0  0  0  0  0  0  # atno 17343 bound_to 10162
  157.7272  131.0640  150.5874 LP  0  0  0  0  0  0  0  0  0  0  0  0  # atno 17370 bound_to 10713
  156.5967  130.4343  149.5914 LP  0  0  0  0  0  0  0  0  0  0  0  0  # atno 17371 bound_to 10713
  140.0809  134.5733  155.8542 LP  0  0  0  0  0  0  0  0  0  0  0  0  # atno 17394 bound_to 11000
  141.2047  133.6641  156.6138 LP  0  0  0  0  0  0  0  0  0  0  0  0  # atno 17395 bound_to 11000

$$$$
