AV-unprocessed.smi:3262|AV-procd|sdf|12485|dock2
  -GOLD-   2272018383D 1   1.00000     0.00000
 Structure written by MMmdl.
 40 41  0  0  0  0  0  0  0  0  2 V2000
  153.0407  140.1121  158.3241 O   0  0  0  0  0  0  0  0  0  0  0  0
  152.5351  141.1954  158.6241 C   0  0  0  0  0  0  0  0  0  0  0  0
  151.3830  141.6159  158.0715 N   0  0  0  0  0  0  0  0  0  0  0  0
  150.5895  140.8656  157.1046 C   0  0  0  0  0  0  0  0  0  0  0  0
  150.3807  141.6663  155.8044 C   0  0  0  0  0  0  0  0  0  0  0  0
  149.2792  141.1504  154.8877 C   0  0  0  0  0  0  0  0  0  0  0  0
  149.2091  139.8255  154.3941 C   0  0  0  0  0  0  0  0  0  0  0  0
  148.1387  139.4563  153.5528 C   0  0  0  0  0  0  0  0  0  0  0  0
  147.1586  140.4130  153.2196 C   0  0  0  0  0  0  0  0  0  0  0  0
  147.2742  141.7183  153.7377 C   0  0  0  0  0  0  0  0  0  0  0  0
  148.3143  142.0334  154.5403 N   0  3  0  0  0  0  0  0  0  0  0  0
  153.1141  142.0749  159.4847 N   0  0  0  0  0  0  0  0  0  0  0  0
  152.5111  143.3672  159.8784 C   0  0  0  0  0  0  0  0  0  0  0  0
  152.7680  143.7953  161.3394 C   0  0  0  0  0  0  0  0  0  0  0  0
  152.5686  142.6794  162.3818 C   0  0  0  0  0  0  0  0  0  0  0  0
  153.8289  141.8257  162.6013 C   0  0  0  0  0  0  0  0  0  0  0  0
  154.2328  140.9543  161.4018 C   0  0  0  0  0  0  0  0  0  0  0  0
  154.4122  141.7480  160.0951 C   0  0  0  0  0  0  0  0  0  0  0  0
  151.0353  142.5246  158.3422 H   0  0  0  0  0  0  0  0  0  0  0  0
  151.1178  139.9357  156.8921 H   0  0  0  0  0  0  0  0  0  0  0  0
  149.6319  140.5916  157.5508 H   0  0  0  0  0  0  0  0  0  0  0  0
  150.1504  142.7047  156.0462 H   0  0  0  0  0  0  0  0  0  0  0  0
  151.3130  141.6822  155.2379 H   0  0  0  0  0  0  0  0  0  0  0  0
  149.9563  139.0886  154.6476 H   0  0  0  0  0  0  0  0  0  0  0  0
  148.0701  138.4493  153.1678 H   0  0  0  0  0  0  0  0  0  0  0  0
  146.3308  140.1493  152.5774 H   0  0  0  0  0  0  0  0  0  0  0  0
  146.5716  142.5137  153.5367 H   0  0  0  0  0  0  0  0  0  0  0  0
  152.8664  144.1427  159.1989 H   0  0  0  0  0  0  0  0  0  0  0  0
  151.4264  143.3387  159.7667 H   0  0  0  0  0  0  0  0  0  0  0  0
  153.7646  144.2262  161.4423 H   0  0  0  0  0  0  0  0  0  0  0  0
  152.0838  144.6130  161.5696 H   0  0  0  0  0  0  0  0  0  0  0  0
  152.3149  143.1453  163.3347 H   0  0  0  0  0  0  0  0  0  0  0  0
  151.7153  142.0527  162.1192 H   0  0  0  0  0  0  0  0  0  0  0  0
  154.6613  142.4765  162.8714 H   0  0  0  0  0  0  0  0  0  0  0  0
  153.6703  141.1768  163.4633 H   0  0  0  0  0  0  0  0  0  0  0  0
  155.1735  140.4585  161.6431 H   0  0  0  0  0  0  0  0  0  0  0  0
  153.5046  140.1544  161.2614 H   0  0  0  0  0  0  0  0  0  0  0  0
  155.0166  141.1624  159.4001 H   0  0  0  0  0  0  0  0  0  0  0  0
  154.9994  142.6506  160.2671 H   0  0  0  0  0  0  0  0  0  0  0  0
  148.3748  142.9848  154.9040 H   0  0  0  0  0  0  0  0  0  0  0  0
  1  2  2  0  0  0  0
  2  3  1  0  0  0  0
  2 12  1  0  0  0  0
  3  4  1  0  0  0  0
  3 19  1  0  0  0  0
  4  5  1  0  0  0  0
  4 20  1  0  0  0  0
  4 21  1  0  0  0  0
  5  6  1  0  0  0  0
  5 22  1  0  0  0  0
  5 23  1  0  0  0  0
  6 11  1  0  0  0  0
  6  7  2  0  0  0  0
  7  8  1  0  0  0  0
  7 24  1  0  0  0  0
  8  9  2  0  0  0  0
  8 25  1  0  0  0  0
  9 10  1  0  0  0  0
  9 26  1  0  0  0  0
 10 11  2  0  0  0  0
 10 27  1  0  0  0  0
 11 40  1  0  0  0  0
 12 18  1  0  0  0  0
 12 13  1  0  0  0  0
 13 14  1  0  0  0  0
 13 28  1  0  0  0  0
 13 29  1  0  0  0  0
 14 15  1  0  0  0  0
 14 30  1  0  0  0  0
 14 31  1  0  0  0  0
 15 16  1  0  0  0  0
 15 32  1  0  0  0  0
 15 33  1  0  0  0  0
 16 17  1  0  0  0  0
 16 34  1  0  0  0  0
 16 35  1  0  0  0  0
 17 18  1  0  0  0  0
 17 36  1  0  0  0  0
 17 37  1  0  0  0  0
 18 38  1  0  0  0  0
 18 39  1  0  0  0  0
M  CHG  1  11   1
M  END
> <s_m_source_file>
AV-unprocessed.smi

> <i_m_source_file_index>
3262

> <i_lp_mmshare_version>
43012

> <i_f3d_flags>
0

> <s_epik_input>
W0NIMl0xW0NIMl1bQ0gyXVtDSDJdW0NIMl1bQ0gyXU4xQyg9TylbTkhdW0NIMl1bQ0gyXWMyW2NIXVtjSF1bY0hdW2NIXW4y

> <s_epik_cmdline>
J2VwaWtfcHl0aG9uJywgJy1waCcsICc3LjAnLCAnLXRuJywgJzgnLCAnLW1hJywgJzIwMCcsICctbWV0YWxfYmluZGluZycsICctaW1hZScsICc8aW5maWxlLm1hZT4nLCAnLW9tYWUnLCAnPG91dGZpbGUubWFlPic=

> <r_epik_Ionization_Penalty>
1.55113

> <r_epik_Ionization_Penalty_Charging>
1.55107

> <r_epik_Ionization_Penalty_Neutral>
5.98909e-05

> <r_epik_State_Penalty>
1.64529

> <r_epik_Charging_Adjusted_Penalty>
3.19637

> <i_epik_Tot_Q>
1

> <i_epik_Tot_abs_Q>
1

> <r_epik_Metal_State_Penalty>
1.68744

> <b_epik_Metal_Only>
0

> <s_lp_Force_Field>
OPLS_2005

> <r_lp_Energy>
39.791

> <b_lp_Chiralities_Consistent>
1

> <s_lp_Variant>
AV-unprocessed.smi:3262-2

> <Gold.Version>
5.8.1

> <Gold.Id.Protein>
6NUR|6NUR_protein|mol2

> <Gold.PLP.Fitness>
51.2246

> <Gold.PLP.PLP>
-42.3945

> <Gold.PLP.part.hbond>
-2.0000

> <Gold.PLP.part.metal>
0.0000

> <Gold.PLP.part.buried>
-2.2841

> <Gold.PLP.part.nonpolar>
-37.0306

> <Gold.PLP.part.repulsive>
0.2626

> <Gold.PLP.ligand.clash>
0.0000

> <Gold.PLP.ligand.torsion>
0.0889

> <Gold.PLP.Chemscore.Hbond>
3.0000

> <Gold.PLP.Chemscore.CHOScore>
0.0000

> <Gold.PLP.Chemscore.Metal>
0.0000

> <Gold.Chemscore.Hbonds>
donor molecule, donor type, donor heavy atom, donor atom, acceptor molecule, acceptor atom, score
      L1  H    11    40       P1  8028  2.00
      P1  H  7997  8009       L1     1  1.00

> <Gold.PLP.Chemscore.Internal.Correction>
0.0079

> <Gold.Rescore>
     Score         DG    S(hbond)    S(metal)    S(lipo)     H(rot)  DE(clash)    DE(int)     intcor
     21.42     -21.98       1.93        0.00     115.27       1.34       0.38       0.18       ----

> <Gold.Chemscore.Fitness>
21.4236

> <Gold.Chemscore.DG>
-21.9794

> <Gold.Chemscore.ZeroCoef>
-5.4800

> <Gold.Chemscore.Hbond>
1.9301

> <Gold.Chemscore.Metal>
0.0000

> <Gold.Chemscore.Lipo>
115.2739

> <Gold.Chemscore.Internal_Hbond>
0.0000

> <Gold.Chemscore.DEClash>
0.3764

> <Gold.Chemscore.DEInternal>
0.1794

> <Gold.Chemscore.Rot>
1.3415

> <Gold.Chemscore.Internal.Correction>
   9.000000E+99

> <Gold.Chemscore.Hbonds>
donor molecule, donor type, donor heavy atom, donor atom, acceptor molecule, acceptor atom, score
      L1  H    11    40       P1  8028  0.99
      P1  H  7997  8009       L1     1  0.87

> <Gold.Chemscore.Hbond.Weighted>
-6.4465

> <Gold.Chemscore.Metal.Weighted>
-0.0000

> <Gold.Chemscore.Lipo.Weighted>
-13.4871

> <Gold.Chemscore.Internal_Hbond.Weighted>
0.0000

> <Gold.Chemscore.DEClash.Weighted>
0.3764

> <Gold.Chemscore.DEInternal.Weighted>
0.1794

> <Gold.Chemscore.Rot.Weighted>
3.4342

> <Gold.Chemscore.Internal.Correction.Weighted>
   9.000000E+99

> <Gold.Protein.RotatedTorsions>
[ 6907 6896 6895 6894 ] final   36.70 input  -60.11 | X-H torsion
[ 7974 7965 7964 7962 ] final   -1.39 input  175.53 | X-H torsion
[ 8008 7997 7996 7995 ] final  160.03 input   59.86 | X-H torsion
[ 10167 10162 10161 10158 ] final   76.84 input  -65.29 | X-H torsion
[ 10718 10713 10712 10709 ] final   96.66 input   66.30 | X-H torsion
[ 10763 10752 10751 10750 ] final  -51.95 input  -60.55 | X-H torsion
[ 11005 11000 10999 10996 ] final   40.40 input  -57.11 | X-H torsion

> <Gold.Protein.ActiveResidues>
 VAL166  LYS551  ARG553  GLY616  TRP617  ASP618  TYR619  PRO620  LYS621  CYS622 
 ASP623  PHE694  ASN695  SER759  ASP760  ASP761  ALA762  ILE779  LEU786  VAL792 
 PHE793  MET794  SER795  GLU796  ALA797  LYS798  CYS799  TRP800  GLU811  SER814 

> <Gold.Protein.RotatedAtoms>
  152.1332  134.9119  160.0557 H   0  0  0  0  0  0  0  0  0  0  0  0  # atno 6907 bound_to 6896
  152.0215  133.3896  159.4268 H   0  0  0  0  0  0  0  0  0  0  0  0  # atno 6908 bound_to 6896
  150.6858  134.3542  159.4966 H   0  0  0  0  0  0  0  0  0  0  0  0  # atno 6909 bound_to 6896
  146.2417  140.1414  142.8335 H   0  0  0  0  0  0  0  0  0  0  0  0  # atno 7974 bound_to 7965
  156.2200  140.1815  156.7500 H   0  0  0  0  0  0  0  0  0  0  0  0  # atno 8008 bound_to 7997
  154.5850  140.0660  156.9187 H   0  0  0  0  0  0  0  0  0  0  0  0  # atno 8009 bound_to 7997
  155.2435  140.3324  155.4292 H   0  0  0  0  0  0  0  0  0  0  0  0  # atno 8010 bound_to 7997
  139.9879  144.5778  150.7843 H   0  0  0  0  0  0  0  0  0  0  0  0  # atno 10167 bound_to 10162
  157.6924  131.0585  150.4525 H   0  0  0  0  0  0  0  0  0  0  0  0  # atno 10718 bound_to 10713
  154.1349  135.6514  153.4930 H   0  0  0  0  0  0  0  0  0  0  0  0  # atno 10763 bound_to 10752
  153.0184  135.5301  154.6964 H   0  0  0  0  0  0  0  0  0  0  0  0  # atno 10764 bound_to 10752
  154.6209  135.2964  155.0298 H   0  0  0  0  0  0  0  0  0  0  0  0  # atno 10765 bound_to 10752
  140.1935  134.3958  155.8134 H   0  0  0  0  0  0  0  0  0  0  0  0  # atno 11005 bound_to 11000
  145.0244  140.8820  143.5147 LP  0  0  0  0  0  0  0  0  0  0  0  0  # atno 17320 bound_to 7965
  145.1467  139.2539  143.5462 LP  0  0  0  0  0  0  0  0  0  0  0  0  # atno 17321 bound_to 7965
  140.7465  143.2892  151.3377 LP  0  0  0  0  0  0  0  0  0  0  0  0  # atno 17342 bound_to 10162
  139.6361  144.0627  152.2517 LP  0  0  0  0  0  0  0  0  0  0  0  0  # atno 17343 bound_to 10162
  156.4876  130.4088  149.6425 LP  0  0  0  0  0  0  0  0  0  0  0  0  # atno 17370 bound_to 10713
  156.3448  130.7401  151.2352 LP  0  0  0  0  0  0  0  0  0  0  0  0  # atno 17371 bound_to 10713
  141.2226  133.7058  156.8135 LP  0  0  0  0  0  0  0  0  0  0  0  0  # atno 17394 bound_to 11000
  140.2133  134.8811  157.3299 LP  0  0  0  0  0  0  0  0  0  0  0  0  # atno 17395 bound_to 11000

$$$$
