AV-unprocessed.smi:1659|AV-procd|sdf|6650|dock2
  -GOLD-   22720 7353D 1   1.00000     0.00000
 Structure written by MMmdl.
 43 44  0  0  0  0  0  0  0  0  1 V2000
  148.4924  131.0307  152.9967 C   0  0  0  0  0  0  0  0  0  0  0  0
  149.0033  132.3360  153.5028 C   0  0  0  0  0  0  0  0  0  0  0  0
  149.0804  133.5826  152.9484 C   0  0  0  0  0  0  0  0  0  0  0  0
  149.6721  134.3563  153.9820 C   0  0  0  0  0  0  0  0  0  0  0  0
  149.9276  135.7396  153.8004 N   0  0  0  0  0  0  0  0  0  0  0  0
  150.8629  136.4868  154.4113 C   0  0  0  0  0  0  0  0  0  0  0  0
  151.6662  136.0731  155.2477 O   0  0  0  0  0  0  0  0  0  0  0  0
  150.8188  137.7605  153.9942 N   0  0  0  0  0  0  0  0  0  0  0  0
  151.7021  138.8241  154.4585 C   0  0  0  0  0  0  0  0  0  0  0  0
  151.1904  139.4542  155.7635 C   0  0  0  0  0  0  0  0  0  0  0  0
  151.4253  140.9735  155.8136 C   0  0  0  0  0  0  0  0  0  0  0  0
  151.4403  141.4681  157.1988 N   0  0  0  0  0  0  0  0  0  0  0  0
  150.5648  142.6176  157.4748 C   0  0  0  0  0  0  0  0  0  0  0  0
  151.3542  143.8874  157.8473 C   0  0  0  0  0  0  0  0  0  0  0  0
  151.8021  143.9359  159.3157 C   0  0  0  0  0  0  0  0  0  0  0  0
  152.7809  142.8228  159.7169 C   0  0  0  0  0  0  0  0  0  0  0  0
  152.1861  141.4115  159.5785 C   0  0  0  0  0  0  0  0  0  0  0  0
  152.2297  140.8904  158.1362 C   0  0  0  0  0  0  0  0  0  0  0  0
  152.9794  139.9465  157.8830 O   0  0  0  0  0  0  0  0  0  0  0  0
  149.9336  133.6459  155.0686 N   0  0  0  0  0  0  0  0  0  0  0  0
  149.5054  132.3475  154.7673 O   0  0  0  0  0  0  0  0  0  0  0  0
  148.3374  131.0647  151.9183 H   0  0  0  0  0  0  0  0  0  0  0  0
  147.5420  130.7799  153.4679 H   0  0  0  0  0  0  0  0  0  0  0  0
  149.1992  130.2288  153.2107 H   0  0  0  0  0  0  0  0  0  0  0  0
  148.7628  133.8880  151.9626 H   0  0  0  0  0  0  0  0  0  0  0  0
  149.3336  136.2108  153.1345 H   0  0  0  0  0  0  0  0  0  0  0  0
  150.1259  138.0132  153.3048 H   0  0  0  0  0  0  0  0  0  0  0  0
  152.6918  138.3953  154.6173 H   0  0  0  0  0  0  0  0  0  0  0  0
  151.8138  139.5848  153.6839 H   0  0  0  0  0  0  0  0  0  0  0  0
  150.1259  139.2449  155.8762 H   0  0  0  0  0  0  0  0  0  0  0  0
  151.6880  138.9826  156.6118 H   0  0  0  0  0  0  0  0  0  0  0  0
  152.3564  141.2200  155.3027 H   0  0  0  0  0  0  0  0  0  0  0  0
  150.6515  141.4853  155.2384 H   0  0  0  0  0  0  0  0  0  0  0  0
  149.9602  142.8499  156.5978 H   0  0  0  0  0  0  0  0  0  0  0  0
  149.8455  142.3648  158.2549 H   0  0  0  0  0  0  0  0  0  0  0  0
  152.2123  144.0077  157.1847 H   0  0  0  0  0  0  0  0  0  0  0  0
  150.7160  144.7529  157.6658 H   0  0  0  0  0  0  0  0  0  0  0  0
  152.2740  144.9005  159.5055 H   0  0  0  0  0  0  0  0  0  0  0  0
  150.9257  143.9005  159.9641 H   0  0  0  0  0  0  0  0  0  0  0  0
  153.6997  142.9072  159.1343 H   0  0  0  0  0  0  0  0  0  0  0  0
  153.0742  142.9777  160.7556 H   0  0  0  0  0  0  0  0  0  0  0  0
  152.7670  140.7268  160.1980 H   0  0  0  0  0  0  0  0  0  0  0  0
  151.1686  141.3699  159.9687 H   0  0  0  0  0  0  0  0  0  0  0  0
  1  2  1  0  0  0  0
  1 22  1  0  0  0  0
  1 23  1  0  0  0  0
  1 24  1  0  0  0  0
  2 21  1  0  0  0  0
  2  3  2  0  0  0  0
  3  4  1  0  0  0  0
  3 25  1  0  0  0  0
  4  5  1  0  0  0  0
  4 20  2  0  0  0  0
  5  6  1  0  0  0  0
  5 26  1  0  0  0  0
  6  7  2  0  0  0  0
  6  8  1  0  0  0  0
  8  9  1  0  0  0  0
  8 27  1  0  0  0  0
  9 10  1  0  0  0  0
  9 28  1  0  0  0  0
  9 29  1  0  0  0  0
 10 11  1  0  0  0  0
 10 30  1  0  0  0  0
 10 31  1  0  0  0  0
 11 12  1  0  0  0  0
 11 32  1  0  0  0  0
 11 33  1  0  0  0  0
 12 18  1  0  0  0  0
 12 13  1  0  0  0  0
 13 14  1  0  0  0  0
 13 34  1  0  0  0  0
 13 35  1  0  0  0  0
 14 15  1  0  0  0  0
 14 36  1  0  0  0  0
 14 37  1  0  0  0  0
 15 16  1  0  0  0  0
 15 38  1  0  0  0  0
 15 39  1  0  0  0  0
 16 17  1  0  0  0  0
 16 40  1  0  0  0  0
 16 41  1  0  0  0  0
 17 18  1  0  0  0  0
 17 42  1  0  0  0  0
 17 43  1  0  0  0  0
 18 19  2  0  0  0  0
 20 21  1  0  0  0  0
M  END
> <s_m_source_file>
AV-unprocessed.smi

> <i_m_source_file_index>
1659

> <i_lp_mmshare_version>
43012

> <i_f3d_flags>
0

> <s_epik_input>
W0NIM11jMVtjSF1jKG5vMSlbTkhdQyg9TylbTkhdW0NIMl1bQ0gyXVtDSDJdTjJbQ0gyXVtDSDJdW0NIMl1bQ0gyXVtDSDJdQzI9Tw==

> <s_epik_cmdline>
J2VwaWtfcHl0aG9uJywgJy1waCcsICc3LjAnLCAnLXRuJywgJzgnLCAnLW1hJywgJzIwMCcsICctbWV0YWxfYmluZGluZycsICctaW1hZScsICc8aW5maWxlLm1hZT4nLCAnLW9tYWUnLCAnPG91dGZpbGUubWFlPic=

> <r_lp_tautomer_probability>
1

> <r_epik_Ionization_Penalty>
2.8543e-05

> <r_epik_Ionization_Penalty_Charging>
0

> <r_epik_Ionization_Penalty_Neutral>
2.8543e-05

> <r_epik_State_Penalty>
-0

> <r_epik_Charging_Adjusted_Penalty>
0

> <i_epik_Tot_Q>
0

> <i_epik_Tot_abs_Q>
0

> <r_epik_Metal_State_Penalty>
0.00845548

> <b_epik_Metal_Only>
0

> <s_lp_Force_Field>
OPLS_2005

> <r_lp_Energy>
16.7735

> <b_lp_Chiralities_Consistent>
1

> <s_lp_Variant>
AV-unprocessed.smi:1659-1

> <Gold.Version>
5.8.1

> <Gold.Id.Protein>
6NUR|6NUR_protein|mol2

> <Gold.PLP.Fitness>
50.6630

> <Gold.PLP.PLP>
-43.2308

> <Gold.PLP.part.hbond>
-4.7221

> <Gold.PLP.part.metal>
0.0000

> <Gold.PLP.part.buried>
-2.0505

> <Gold.PLP.part.nonpolar>
-35.5411

> <Gold.PLP.part.repulsive>
0.2199

> <Gold.PLP.ligand.clash>
0.0000

> <Gold.PLP.ligand.torsion>
0.7658

> <Gold.PLP.Chemscore.Hbond>
2.9600

> <Gold.PLP.Chemscore.CHOScore>
0.0000

> <Gold.PLP.Chemscore.Metal>
0.0000

> <Gold.Chemscore.Hbonds>
donor molecule, donor type, donor heavy atom, donor atom, acceptor molecule, acceptor atom, score
      L1  H     5    26       P1  7948  0.35
      P1  H  7997  8008       L1    19  0.90
      P1  H 10752 10765       L1     7  0.99

> <Gold.PLP.Chemscore.Internal.Correction>
0.0838

> <Gold.Rescore>
     Score         DG    S(hbond)    S(metal)    S(lipo)     H(rot)  DE(clash)    DE(int)     intcor
     16.02     -19.26       2.48        0.00      88.21       1.88       0.03       3.22       ----

> <Gold.Chemscore.Fitness>
16.0153

> <Gold.Chemscore.DG>
-19.2580

> <Gold.Chemscore.ZeroCoef>
-5.4800

> <Gold.Chemscore.Hbond>
2.4773

> <Gold.Chemscore.Metal>
0.0000

> <Gold.Chemscore.Lipo>
88.2110

> <Gold.Chemscore.Internal_Hbond>
0.0000

> <Gold.Chemscore.DEClash>
0.0255

> <Gold.Chemscore.DEInternal>
3.2172

> <Gold.Chemscore.Rot>
1.8816

> <Gold.Chemscore.Internal.Correction>
   9.000000E+99

> <Gold.Chemscore.Hbonds>
donor molecule, donor type, donor heavy atom, donor atom, acceptor molecule, acceptor atom, score
      L1  H     5    26       P1  7948  0.22
      P1  H  7997  8008       L1    19  0.88
      P1  H 10752 10765       L1     7  0.92

> <Gold.Chemscore.Hbond.Weighted>
-8.2741

> <Gold.Chemscore.Metal.Weighted>
-0.0000

> <Gold.Chemscore.Lipo.Weighted>
-10.3207

> <Gold.Chemscore.Internal_Hbond.Weighted>
0.0000

> <Gold.Chemscore.DEClash.Weighted>
0.0255

> <Gold.Chemscore.DEInternal.Weighted>
3.2172

> <Gold.Chemscore.Rot.Weighted>
4.8169

> <Gold.Chemscore.Internal.Correction.Weighted>
   9.000000E+99

> <Gold.Protein.RotatedTorsions>
[ 6907 6896 6895 6894 ] final  -55.87 input  -60.11 | X-H torsion
[ 7974 7965 7964 7962 ] final  -98.57 input  175.53 | X-H torsion
[ 8008 7997 7996 7995 ] final  -95.09 input   59.86 | X-H torsion
[ 10167 10162 10161 10158 ] final  -96.82 input  -65.29 | X-H torsion
[ 10718 10713 10712 10709 ] final -129.20 input   66.30 | X-H torsion
[ 10763 10752 10751 10750 ] final -152.33 input  -60.55 | X-H torsion
[ 11005 11000 10999 10996 ] final   36.06 input  -57.11 | X-H torsion

> <Gold.Protein.ActiveResidues>
 VAL166  LYS551  ARG553  GLY616  TRP617  ASP618  TYR619  PRO620  LYS621  CYS622 
 ASP623  PHE694  ASN695  SER759  ASP760  ASP761  ALA762  ILE779  LEU786  VAL792 
 PHE793  MET794  SER795  GLU796  ALA797  LYS798  CYS799  TRP800  GLU811  SER814 

> <Gold.Protein.RotatedAtoms>
  150.8215  134.7425  159.6775 H   0  0  0  0  0  0  0  0  0  0  0  0  # atno 6907 bound_to 6896
  152.4330  134.5738  159.9938 H   0  0  0  0  0  0  0  0  0  0  0  0  # atno 6908 bound_to 6896
  151.5920  133.3328  159.3065 H   0  0  0  0  0  0  0  0  0  0  0  0  # atno 6909 bound_to 6896
  145.3189  140.9417  143.2727 H   0  0  0  0  0  0  0  0  0  0  0  0  # atno 7974 bound_to 7965
  154.7568  140.0483  157.0940 H   0  0  0  0  0  0  0  0  0  0  0  0  # atno 8008 bound_to 7997
  154.9987  140.3122  155.4856 H   0  0  0  0  0  0  0  0  0  0  0  0  # atno 8009 bound_to 7997
  156.2896  140.2205  156.5096 H   0  0  0  0  0  0  0  0  0  0  0  0  # atno 8010 bound_to 7997
  140.2898  143.3228  152.0357 H   0  0  0  0  0  0  0  0  0  0  0  0  # atno 10167 bound_to 10162
  156.2024  130.6866  151.0555 H   0  0  0  0  0  0  0  0  0  0  0  0  # atno 10718 bound_to 10713
  154.8001  135.3239  154.7571 H   0  0  0  0  0  0  0  0  0  0  0  0  # atno 10763 bound_to 10752
  153.8241  135.6885  153.4827 H   0  0  0  0  0  0  0  0  0  0  0  0  # atno 10764 bound_to 10752
  153.1713  135.4622  154.9849 H   0  0  0  0  0  0  0  0  0  0  0  0  # atno 10765 bound_to 10752
  140.2363  134.3467  155.7943 H   0  0  0  0  0  0  0  0  0  0  0  0  # atno 11005 bound_to 11000
  144.8955  139.4718  143.6657 LP  0  0  0  0  0  0  0  0  0  0  0  0  # atno 17320 bound_to 7965
  146.3090  139.7678  142.9034 LP  0  0  0  0  0  0  0  0  0  0  0  0  # atno 17321 bound_to 7965
  139.4941  144.6533  151.6628 LP  0  0  0  0  0  0  0  0  0  0  0  0  # atno 17342 bound_to 10162
  140.5742  144.0058  150.6232 LP  0  0  0  0  0  0  0  0  0  0  0  0  # atno 17343 bound_to 10162
  157.6993  131.0782  150.6870 LP  0  0  0  0  0  0  0  0  0  0  0  0  # atno 17370 bound_to 10713
  156.6928  130.4600  149.5595 LP  0  0  0  0  0  0  0  0  0  0  0  0  # atno 17371 bound_to 10713
  141.2214  133.7274  156.8814 LP  0  0  0  0  0  0  0  0  0  0  0  0  # atno 17394 bound_to 11000
  140.1698  134.9107  157.2820 LP  0  0  0  0  0  0  0  0  0  0  0  0  # atno 17395 bound_to 11000

$$$$
