AV-unprocessed.smi:497|AV-procd|sdf|2725|dock2
  -GOLD-   2262023173D 1   1.00000     0.00000
 Structure written by MMmdl.
 40 42  0  0  0  0  0  0  0  0  2 V2000
  150.4041  139.8717  154.9292 C   0  0  0  0  0  0  0  0  0  0  0  0
  150.1773  141.1938  155.3844 O   0  0  0  0  0  0  0  0  0  0  0  0
  150.4291  141.3420  156.7727 C   0  0  0  0  0  0  0  0  0  0  0  0
  151.8731  140.9226  157.0812 C   0  0  0  0  0  0  0  0  0  0  0  0
  152.2618  141.2419  158.4633 N   0  0  0  0  0  0  0  0  0  0  0  0
  152.8087  140.4573  159.4378 C   0  0  0  0  0  0  0  0  0  0  0  0
  153.1706  139.0075  159.3417 C   0  0  0  0  0  0  0  0  0  0  0  0
  153.4376  138.4032  160.6411 N   0  0  0  0  0  0  0  0  0  0  0  0
  153.6340  137.0932  160.8578 C   0  0  0  0  0  0  0  0  0  0  0  0
  153.6153  136.2480  159.9634 O   0  0  0  0  0  0  0  0  0  0  0  0
  153.8700  136.7023  162.2605 C   0  0  0  0  0  0  0  0  0  0  0  0
  153.6695  137.3774  163.4363 C   0  0  0  0  0  0  0  0  0  0  0  0
  154.0845  136.5067  164.4818 C   0  0  0  0  0  0  0  0  0  0  0  0
  154.5110  135.3626  163.8707 C   0  0  0  0  0  0  0  0  0  0  0  0
  154.3900  135.4669  162.5193 O   0  0  0  0  0  0  0  0  0  0  0  0
  152.9709  141.2413  160.5413 N   0  3  0  0  0  0  0  0  0  0  0  0
  152.5183  142.5337  160.2747 C   0  0  0  0  0  0  0  0  0  0  0  0
  152.4753  143.6684  161.0790 C   0  0  0  0  0  0  0  0  0  0  0  0
  151.9420  144.8370  160.4965 C   0  0  0  0  0  0  0  0  0  0  0  0
  151.4773  144.8474  159.1652 C   0  0  0  0  0  0  0  0  0  0  0  0
  151.5276  143.6908  158.3592 C   0  0  0  0  0  0  0  0  0  0  0  0
  152.0579  142.5404  158.9424 C   0  0  0  0  0  0  0  0  0  0  0  0
  150.2019  139.8132  153.8597 H   0  0  0  0  0  0  0  0  0  0  0  0
  149.7476  139.1627  155.4354 H   0  0  0  0  0  0  0  0  0  0  0  0
  151.4394  139.5700  155.0931 H   0  0  0  0  0  0  0  0  0  0  0  0
  150.2740  142.3791  157.0742 H   0  0  0  0  0  0  0  0  0  0  0  0
  149.7307  140.7287  157.3445 H   0  0  0  0  0  0  0  0  0  0  0  0
  151.9895  139.8490  156.9370 H   0  0  0  0  0  0  0  0  0  0  0  0
  152.5750  141.3969  156.3950 H   0  0  0  0  0  0  0  0  0  0  0  0
  152.3416  138.4723  158.8784 H   0  0  0  0  0  0  0  0  0  0  0  0
  154.0280  138.8710  158.6822 H   0  0  0  0  0  0  0  0  0  0  0  0
  153.4624  139.0230  161.4379 H   0  0  0  0  0  0  0  0  0  0  0  0
  153.2724  138.3770  163.5361 H   0  0  0  0  0  0  0  0  0  0  0  0
  154.0727  136.6937  165.5454 H   0  0  0  0  0  0  0  0  0  0  0  0
  154.9122  134.4254  164.2275 H   0  0  0  0  0  0  0  0  0  0  0  0
  152.8294  143.6623  162.0995 H   0  0  0  0  0  0  0  0  0  0  0  0
  151.8871  145.7430  161.0827 H   0  0  0  0  0  0  0  0  0  0  0  0
  151.0737  145.7611  158.7534 H   0  0  0  0  0  0  0  0  0  0  0  0
  151.1674  143.7089  157.3413 H   0  0  0  0  0  0  0  0  0  0  0  0
  153.3619  140.9116  161.4141 H   0  0  0  0  0  0  0  0  0  0  0  0
  1  2  1  0  0  0  0
  1 23  1  0  0  0  0
  1 24  1  0  0  0  0
  1 25  1  0  0  0  0
  2  3  1  0  0  0  0
  3  4  1  0  0  0  0
  3 26  1  0  0  0  0
  3 27  1  0  0  0  0
  4  5  1  0  0  0  0
  4 28  1  0  0  0  0
  4 29  1  0  0  0  0
  5 22  1  0  0  0  0
  5  6  1  0  0  0  0
  6  7  1  0  0  0  0
  6 16  2  0  0  0  0
  7  8  1  0  0  0  0
  7 30  1  0  0  0  0
  7 31  1  0  0  0  0
  8  9  1  0  0  0  0
  8 32  1  0  0  0  0
  9 10  2  0  0  0  0
  9 11  1  0  0  0  0
 11 15  1  0  0  0  0
 11 12  2  0  0  0  0
 12 13  1  0  0  0  0
 12 33  1  0  0  0  0
 13 14  2  0  0  0  0
 13 34  1  0  0  0  0
 14 15  1  0  0  0  0
 14 35  1  0  0  0  0
 16 17  1  0  0  0  0
 16 40  1  0  0  0  0
 17 22  2  0  0  0  0
 17 18  1  0  0  0  0
 18 19  2  0  0  0  0
 18 36  1  0  0  0  0
 19 20  1  0  0  0  0
 19 37  1  0  0  0  0
 20 21  2  0  0  0  0
 20 38  1  0  0  0  0
 21 22  1  0  0  0  0
 21 39  1  0  0  0  0
M  CHG  1  16   1
M  END
> <s_m_source_file>
AV-unprocessed.smi

> <i_m_source_file_index>
497

> <i_lp_mmshare_version>
43012

> <i_f3d_flags>
0

> <s_epik_input>
W2NIXTFbY0hdW2NIXVtjSF1jKGMxMiluKFtDSDJdW0NIMl1PW0NIM10pYyhuMilbQ0gyXVtOSF1DKD1PKWMzW2NIXVtjSF1bY0hdbzM=

> <s_epik_cmdline>
J2VwaWtfcHl0aG9uJywgJy1waCcsICc3LjAnLCAnLXRuJywgJzgnLCAnLW1hJywgJzIwMCcsICctbWV0YWxfYmluZGluZycsICctaW1hZScsICc8aW5maWxlLm1hZT4nLCAnLW9tYWUnLCAnPG91dGZpbGUubWFlPic=

> <r_epik_Ionization_Penalty>
1.26486

> <r_epik_Ionization_Penalty_Charging>
1.26483

> <r_epik_Ionization_Penalty_Neutral>
2.77772e-05

> <r_epik_State_Penalty>
1.33577

> <r_epik_Charging_Adjusted_Penalty>
2.6006

> <i_epik_Tot_Q>
1

> <i_epik_Tot_abs_Q>
1

> <r_epik_Metal_State_Penalty>
1.44158

> <b_epik_Metal_Only>
0

> <s_lp_Force_Field>
OPLS_2005

> <r_lp_Energy>
9.51778

> <b_lp_Chiralities_Consistent>
1

> <s_lp_Variant>
AV-unprocessed.smi:497-2

> <Gold.Version>
5.8.1

> <Gold.Id.Protein>
6NUR|6NUR_protein|mol2

> <Gold.PLP.Fitness>
50.5183

> <Gold.PLP.PLP>
-48.2363

> <Gold.PLP.part.hbond>
-1.5410

> <Gold.PLP.part.metal>
0.0000

> <Gold.PLP.part.buried>
-6.5862

> <Gold.PLP.part.nonpolar>
-40.4371

> <Gold.PLP.part.repulsive>
0.2367

> <Gold.PLP.ligand.clash>
0.0000

> <Gold.PLP.ligand.torsion>
0.3800

> <Gold.PLP.Chemscore.Hbond>
1.0000

> <Gold.PLP.Chemscore.CHOScore>
0.0000

> <Gold.PLP.Chemscore.Metal>
0.0000

> <Gold.Chemscore.Hbonds>
donor molecule, donor type, donor heavy atom, donor atom, acceptor molecule, acceptor atom, score
      P1  H  6896  6907       L1    10  1.00

> <Gold.PLP.Chemscore.Internal.Correction>
0.0420

> <Gold.Rescore>
     Score         DG    S(hbond)    S(metal)    S(lipo)     H(rot)  DE(clash)    DE(int)     intcor
     18.42     -18.79       0.99        0.00     128.40       1.96       0.04       0.32       ----

> <Gold.Chemscore.Fitness>
18.4235

> <Gold.Chemscore.DG>
-18.7868

> <Gold.Chemscore.ZeroCoef>
-5.4800

> <Gold.Chemscore.Hbond>
0.9862

> <Gold.Chemscore.Metal>
0.0000

> <Gold.Chemscore.Lipo>
128.4049

> <Gold.Chemscore.Internal_Hbond>
0.0000

> <Gold.Chemscore.DEClash>
0.0440

> <Gold.Chemscore.DEInternal>
0.3193

> <Gold.Chemscore.Rot>
1.9573

> <Gold.Chemscore.Internal.Correction>
   9.000000E+99

> <Gold.Chemscore.Hbonds>
donor molecule, donor type, donor heavy atom, donor atom, acceptor molecule, acceptor atom, score
      P1  H  6896  6907       L1    10  0.97

> <Gold.Chemscore.Hbond.Weighted>
-3.2940

> <Gold.Chemscore.Metal.Weighted>
-0.0000

> <Gold.Chemscore.Lipo.Weighted>
-15.0234

> <Gold.Chemscore.Internal_Hbond.Weighted>
0.0000

> <Gold.Chemscore.DEClash.Weighted>
0.0440

> <Gold.Chemscore.DEInternal.Weighted>
0.3193

> <Gold.Chemscore.Rot.Weighted>
5.0107

> <Gold.Chemscore.Internal.Correction.Weighted>
   9.000000E+99

> <Gold.Protein.RotatedTorsions>
[ 6907 6896 6895 6894 ] final   61.00 input  -60.11 | X-H torsion
[ 7974 7965 7964 7962 ] final   75.06 input  175.53 | X-H torsion
[ 8008 7997 7996 7995 ] final  -72.27 input   59.86 | X-H torsion
[ 10167 10162 10161 10158 ] final  168.51 input  -65.29 | X-H torsion
[ 10718 10713 10712 10709 ] final   -4.50 input   66.30 | X-H torsion
[ 10763 10752 10751 10750 ] final   46.80 input  -60.55 | X-H torsion
[ 11005 11000 10999 10996 ] final   53.23 input  -57.11 | X-H torsion

> <Gold.Protein.ActiveResidues>
 VAL166  LYS551  ARG553  GLY616  TRP617  ASP618  TYR619  PRO620  LYS621  CYS622 
 ASP623  PHE694  ASN695  SER759  ASP760  ASP761  ALA762  ILE779  LEU786  VAL792 
 PHE793  MET794  SER795  GLU796  ALA797  LYS798  CYS799  TRP800  GLU811  SER814 

> <Gold.Protein.RotatedAtoms>
  152.4052  134.6219  160.0052 H   0  0  0  0  0  0  0  0  0  0  0  0  # atno 6907 bound_to 6896
  151.6413  133.3320  159.3139 H   0  0  0  0  0  0  0  0  0  0  0  0  # atno 6908 bound_to 6896
  150.7947  134.7040  159.6611 H   0  0  0  0  0  0  0  0  0  0  0  0  # atno 6909 bound_to 6896
  145.7203  139.2646  143.1599 H   0  0  0  0  0  0  0  0  0  0  0  0  # atno 7974 bound_to 7965
  154.5153  140.0800  156.8068 H   0  0  0  0  0  0  0  0  0  0  0  0  # atno 8008 bound_to 7997
  155.3695  140.3422  155.4224 H   0  0  0  0  0  0  0  0  0  0  0  0  # atno 8009 bound_to 7997
  156.1620  140.1591  156.8583 H   0  0  0  0  0  0  0  0  0  0  0  0  # atno 8010 bound_to 7997
  139.4970  144.3806  151.9626 H   0  0  0  0  0  0  0  0  0  0  0  0  # atno 10167 bound_to 10162
  156.7604  130.5268  149.5786 H   0  0  0  0  0  0  0  0  0  0  0  0  # atno 10718 bound_to 10713
  152.9806  135.5996  154.3658 H   0  0  0  0  0  0  0  0  0  0  0  0  # atno 10763 bound_to 10752
  154.3336  135.2768  155.2461 H   0  0  0  0  0  0  0  0  0  0  0  0  # atno 10764 bound_to 10752
  154.4574  135.5974  153.6288 H   0  0  0  0  0  0  0  0  0  0  0  0  # atno 10765 bound_to 10752
  140.0784  134.5373  155.8972 H   0  0  0  0  0  0  0  0  0  0  0  0  # atno 11005 bound_to 11000
  146.0631  140.7949  142.9725 LP  0  0  0  0  0  0  0  0  0  0  0  0  # atno 17320 bound_to 7965
  144.6918  140.3227  143.7229 LP  0  0  0  0  0  0  0  0  0  0  0  0  # atno 17321 bound_to 7965
  140.3243  144.3392  150.6002 LP  0  0  0  0  0  0  0  0  0  0  0  0  # atno 17342 bound_to 10162
  140.5697  143.2182  151.7620 LP  0  0  0  0  0  0  0  0  0  0  0  0  # atno 17343 bound_to 10162
  156.1342  130.6200  151.0377 LP  0  0  0  0  0  0  0  0  0  0  0  0  # atno 17370 bound_to 10713
  157.6737  131.0855  150.7549 LP  0  0  0  0  0  0  0  0  0  0  0  0  # atno 17371 bound_to 10713
  141.2038  133.6634  156.6082 LP  0  0  0  0  0  0  0  0  0  0  0  0  # atno 17394 bound_to 11000
  140.3524  134.7757  157.4476 LP  0  0  0  0  0  0  0  0  0  0  0  0  # atno 17395 bound_to 11000

$$$$
