AV-unprocessed.smi:44|AV-procd|sdf|396|dock1
  -GOLD-   2262016253D 1   1.00000     0.00000
 Structure written by MMmdl.
 29 31  0  0  0  0  0  0  0  0  1 V2000
  153.2461  136.5297  159.7948 O   0  0  0  0  0  0  0  0  0  0  0  0
  153.6099  137.5852  160.3090 C   0  0  0  0  0  0  0  0  0  0  0  0
  154.4384  137.6542  161.3796 N   0  0  0  0  0  0  0  0  0  0  0  0
  154.8604  138.8682  161.9783 C   0  0  0  0  0  0  0  0  0  0  0  0
  154.5088  140.0639  161.5800 N   0  0  0  0  0  0  0  0  0  0  0  0
  153.6660  140.0219  160.4876 C   0  0  0  0  0  0  0  0  0  0  0  0
  153.1898  138.9217  159.8262 C   0  0  0  0  0  0  0  0  0  0  0  0
  152.3585  139.2838  158.7739 N   0  0  0  0  0  0  0  0  0  0  0  0
  152.3717  140.6132  158.8484 C   0  0  0  0  0  0  0  0  0  0  0  0
  153.1262  141.1288  159.8399 N   0  0  0  0  0  0  0  0  0  0  0  0
  153.3332  142.5711  160.1749 C   0  0  2  0  0  0  0  0  0  0  0  0
  152.9700  142.8314  161.6414 C   0  0  0  0  0  0  0  0  0  0  0  0
  152.2044  144.1322  161.5399 C   0  0  0  0  0  0  0  0  0  0  0  0
  151.4831  143.9529  160.2054 C   0  0  1  0  0  0  0  0  0  0  0  0
  150.9975  145.2591  159.5617 C   0  0  0  0  0  0  0  0  0  0  0  0
  150.4251  144.9982  158.2978 O   0  0  0  0  0  0  0  0  0  0  0  0
  152.4731  143.3409  159.3851 O   0  0  0  0  0  0  0  0  0  0  0  0
  154.7698  136.7840  161.7693 H   0  0  0  0  0  0  0  0  0  0  0  0
  154.3719  142.7906  159.9273 H   0  0  0  0  0  0  0  0  0  0  0  0
  150.6522  143.2550  160.3217 H   0  0  0  0  0  0  0  0  0  0  0  0
  155.5265  138.7133  162.8284 H   0  0  0  0  0  0  0  0  0  0  0  0
  151.8134  141.2302  158.1603 H   0  0  0  0  0  0  0  0  0  0  0  0
  152.3229  142.0384  162.0205 H   0  0  0  0  0  0  0  0  0  0  0  0
  153.8630  142.8926  162.2640 H   0  0  0  0  0  0  0  0  0  0  0  0
  151.5220  144.2913  162.3753 H   0  0  0  0  0  0  0  0  0  0  0  0
  152.8971  144.9739  161.4949 H   0  0  0  0  0  0  0  0  0  0  0  0
  150.2682  145.7618  160.1975 H   0  0  0  0  0  0  0  0  0  0  0  0
  151.8350  145.9441  159.4268 H   0  0  0  0  0  0  0  0  0  0  0  0
  149.6433  145.5215  158.2089 H   0  0  0  0  0  0  0  0  0  0  0  0
  1  2  2  0  0  0  0
  2  7  1  0  0  0  0
  2  3  1  0  0  0  0
  3 18  1  0  0  0  0
  3  4  1  0  0  0  0
  4  5  2  0  0  0  0
  4 21  1  0  0  0  0
  5  6  1  0  0  0  0
  6 10  1  0  0  0  0
  6  7  2  0  0  0  0
  7  8  1  0  0  0  0
  8  9  2  0  0  0  0
  9 10  1  0  0  0  0
  9 22  1  0  0  0  0
 10 11  1  0  0  0  0
 11 19  1  0  0  0  0
 11 17  1  0  0  0  0
 11 12  1  0  0  0  0
 12 13  1  0  0  0  0
 12 23  1  0  0  0  0
 12 24  1  0  0  0  0
 13 14  1  0  0  0  0
 13 25  1  0  0  0  0
 13 26  1  0  0  0  0
 14 20  1  0  0  0  0
 14 15  1  0  0  0  0
 14 17  1  0  0  0  0
 15 16  1  0  0  0  0
 15 27  1  0  0  0  0
 15 28  1  0  0  0  0
 16 29  1  0  0  0  0
M  END
> <s_m_source_file>
AV-unprocessed.smi

> <i_m_source_file_index>
44

> <i_lp_mmshare_version>
43012

> <i_f3d_flags>
0

> <s_epik_input>
bjFbY0hdW25IXWMoPU8pYyhjMTIpbltjSF1uMltDQEhdM1tDSDJdW0NIMl1bQ0BIXShPMylbQ0gyXVtPSF0=

> <s_epik_cmdline>
J2VwaWtfcHl0aG9uJywgJy1waCcsICc3LjAnLCAnLXRuJywgJzgnLCAnLW1hJywgJzIwMCcsICctbWV0YWxfYmluZGluZycsICctaW1hZScsICc8aW5maWxlLm1hZT4nLCAnLW9tYWUnLCAnPG91dGZpbGUubWFlPic=

> <r_lp_tautomer_probability>
0.85571

> <r_epik_Ionization_Penalty>
0.00801444

> <r_epik_Ionization_Penalty_Charging>
0.00794574

> <r_epik_Ionization_Penalty_Neutral>
6.87072e-05

> <r_epik_State_Penalty>
0.0826172

> <r_epik_Charging_Adjusted_Penalty>
0.090563

> <i_epik_Tot_Q>
0

> <i_epik_Tot_abs_Q>
0

> <r_epik_Metal_State_Penalty>
0.440697

> <b_epik_Metal_Only>
0

> <s_epik_Chemistry_Notes>
This compound contains an acetal/aminal-like group ( X-CH(R)-Y where X, Y are N, S, or O) that may be acid/base labile, releasing an aldehyde.

> <s_lp_Force_Field>
OPLS_2005

> <r_lp_Energy>
42.0168

> <b_lp_Chiralities_Consistent>
1

> <s_lp_Variant>
AV-unprocessed.smi:44-2

> <Gold.Version>
5.8.1

> <Gold.Id.Protein>
6NUR|6NUR_protein|mol2

> <Gold.PLP.Fitness>
41.9110

> <Gold.PLP.PLP>
-36.0693

> <Gold.PLP.part.hbond>
-3.0000

> <Gold.PLP.part.metal>
0.0000

> <Gold.PLP.part.buried>
-6.5268

> <Gold.PLP.part.nonpolar>
-26.2240

> <Gold.PLP.part.repulsive>
0.0090

> <Gold.PLP.ligand.clash>
0.0000

> <Gold.PLP.ligand.torsion>
0.0854

> <Gold.PLP.Chemscore.Hbond>
2.0000

> <Gold.PLP.Chemscore.CHOScore>
0.0000

> <Gold.PLP.Chemscore.Metal>
0.0000

> <Gold.Chemscore.Hbonds>
donor molecule, donor type, donor heavy atom, donor atom, acceptor molecule, acceptor atom, score
      L1  H    16    29       P1  8029  1.00
      P1  H  6896  6908       L1     1  1.00

> <Gold.PLP.Chemscore.Internal.Correction>
0.0124

> <Gold.Rescore>
     Score         DG    S(hbond)    S(metal)    S(lipo)     H(rot)  DE(clash)    DE(int)     intcor
     11.25     -11.46       1.77        0.00      50.46       2.27       0.00       0.22       ----

> <Gold.Chemscore.Fitness>
11.2460

> <Gold.Chemscore.DG>
-11.4650

> <Gold.Chemscore.ZeroCoef>
-5.4800

> <Gold.Chemscore.Hbond>
1.7659

> <Gold.Chemscore.Metal>
0.0000

> <Gold.Chemscore.Lipo>
50.4565

> <Gold.Chemscore.Internal_Hbond>
0.0000

> <Gold.Chemscore.DEClash>
0.0000

> <Gold.Chemscore.DEInternal>
0.2190

> <Gold.Chemscore.Rot>
2.2720

> <Gold.Chemscore.Internal.Correction>
   9.000000E+99

> <Gold.Chemscore.Hbonds>
donor molecule, donor type, donor heavy atom, donor atom, acceptor molecule, acceptor atom, score
      L1  H    16    29       P1  8029  0.50
      P1  H  6896  6908       L1     1  0.99

> <Gold.Chemscore.Hbond.Weighted>
-5.8980

> <Gold.Chemscore.Metal.Weighted>
-0.0000

> <Gold.Chemscore.Lipo.Weighted>
-5.9034

> <Gold.Chemscore.Internal_Hbond.Weighted>
0.0000

> <Gold.Chemscore.DEClash.Weighted>
0.0000

> <Gold.Chemscore.DEInternal.Weighted>
0.2190

> <Gold.Chemscore.Rot.Weighted>
5.8164

> <Gold.Chemscore.Internal.Correction.Weighted>
   9.000000E+99

> <Gold.Protein.RotatedTorsions>
[ 6907 6896 6895 6894 ] final  -73.35 input  -60.11 | X-H torsion
[ 7974 7965 7964 7962 ] final  -79.78 input  175.53 | X-H torsion
[ 8008 7997 7996 7995 ] final   31.78 input   59.86 | X-H torsion
[ 10167 10162 10161 10158 ] final   98.38 input  -65.29 | X-H torsion
[ 10718 10713 10712 10709 ] final -174.67 input   66.30 | X-H torsion
[ 10763 10752 10751 10750 ] final  -26.71 input  -60.55 | X-H torsion
[ 11005 11000 10999 10996 ] final  -43.22 input  -57.11 | X-H torsion

> <Gold.Protein.ActiveResidues>
 VAL166  LYS551  ARG553  GLY616  TRP617  ASP618  TYR619  PRO620  LYS621  CYS622 
 ASP623  PHE694  ASN695  SER759  ASP760  ASP761  ALA762  ILE779  LEU786  VAL792 
 PHE793  MET794  SER795  GLU796  ALA797  LYS798  CYS799  TRP800  GLU811  SER814 

> <Gold.Protein.RotatedAtoms>
  150.7134  134.5029  159.5569 H   0  0  0  0  0  0  0  0  0  0  0  0  # atno 6907 bound_to 6896
  152.2623  134.8018  160.0437 H   0  0  0  0  0  0  0  0  0  0  0  0  # atno 6908 bound_to 6896
  151.8728  133.3444  159.3777 H   0  0  0  0  0  0  0  0  0  0  0  0  # atno 6909 bound_to 6896
  145.5687  140.9470  143.1407 H   0  0  0  0  0  0  0  0  0  0  0  0  # atno 7974 bound_to 7965
  155.1120  140.3240  155.4519 H   0  0  0  0  0  0  0  0  0  0  0  0  # atno 8008 bound_to 7997
  156.2688  140.2042  156.6192 H   0  0  0  0  0  0  0  0  0  0  0  0  # atno 8009 bound_to 7997
  154.6749  140.0532  157.0192 H   0  0  0  0  0  0  0  0  0  0  0  0  # atno 8010 bound_to 7997
  139.7714  144.6921  151.0150 H   0  0  0  0  0  0  0  0  0  0  0  0  # atno 10167 bound_to 10162
  156.7885  130.9509  151.3120 H   0  0  0  0  0  0  0  0  0  0  0  0  # atno 10718 bound_to 10713
  153.7204  135.6945  153.5014 H   0  0  0  0  0  0  0  0  0  0  0  0  # atno 10763 bound_to 10752
  153.2208  135.4370  155.0486 H   0  0  0  0  0  0  0  0  0  0  0  0  # atno 10764 bound_to 10752
  154.8286  135.3460  154.6738 H   0  0  0  0  0  0  0  0  0  0  0  0  # atno 10765 bound_to 10752
  141.0369  133.6796  156.2703 H   0  0  0  0  0  0  0  0  0  0  0  0  # atno 11005 bound_to 11000
  144.7448  139.7349  143.7296 LP  0  0  0  0  0  0  0  0  0  0  0  0  # atno 17320 bound_to 7965
  146.1800  139.4988  142.9873 LP  0  0  0  0  0  0  0  0  0  0  0  0  # atno 17321 bound_to 7965
  140.7814  143.4584  151.0313 LP  0  0  0  0  0  0  0  0  0  0  0  0  # atno 17342 bound_to 10162
  139.8268  143.7745  152.3179 LP  0  0  0  0  0  0  0  0  0  0  0  0  # atno 17343 bound_to 10162
  157.6612  130.8968  149.9834 LP  0  0  0  0  0  0  0  0  0  0  0  0  # atno 17370 bound_to 10713
  156.1174  130.3647  149.9945 LP  0  0  0  0  0  0  0  0  0  0  0  0  # atno 17371 bound_to 10713
  140.6306  134.5268  157.5559 LP  0  0  0  0  0  0  0  0  0  0  0  0  # atno 17394 bound_to 11000
  139.9247  134.8079  156.1104 LP  0  0  0  0  0  0  0  0  0  0  0  0  # atno 17395 bound_to 11000

$$$$
