AV-unprocessed.smi:1156|AV-procd|sdf|4905|dock3
  -GOLD-   22720 3483D 1   1.00000     0.00000
 Structure written by MMmdl.
 31 32  0  0  0  0  0  0  0  0  1 V2000
  154.9426  140.2835  161.1902 C   0  0  0  0  0  0  0  0  0  0  0  0
  154.0294  141.2804  160.6535 N   0  0  0  0  0  0  0  0  0  0  0  0
  153.3376  141.1326  159.5134 C   0  0  0  0  0  0  0  0  0  0  0  0
  153.4034  140.1254  158.8079 O   0  0  0  0  0  0  0  0  0  0  0  0
  152.4256  142.2803  159.1627 C   0  0  0  0  0  0  0  0  0  0  0  0
  152.5773  143.5157  159.8351 C   0  0  0  0  0  0  0  0  0  0  0  0
  151.7625  144.6056  159.4819 C   0  0  0  0  0  0  0  0  0  0  0  0
  150.8214  144.4254  158.4545 C   0  0  0  0  0  0  0  0  0  0  0  0
  150.6623  143.2590  157.7985 N   0  0  0  0  0  0  0  0  0  0  0  0
  151.4407  142.1992  158.1326 C   0  0  0  0  0  0  0  0  0  0  0  0
  151.1969  140.9981  157.4364 N   0  0  0  0  0  0  0  0  0  0  0  0
  149.9845  140.3067  157.8572 C   0  0  0  0  0  0  0  0  0  0  0  0
  149.9518  138.8920  157.2535 C   0  0  0  0  0  0  0  0  0  0  0  0
  150.0771  138.9708  155.8360 O   0  0  0  0  0  0  0  0  0  0  0  0
  151.3036  139.5784  155.4393 C   0  0  0  0  0  0  0  0  0  0  0  0
  151.3674  141.0141  155.9871 C   0  0  0  0  0  0  0  0  0  0  0  0
  155.3916  140.6493  162.1137 H   0  0  0  0  0  0  0  0  0  0  0  0
  155.7446  140.0692  160.4825 H   0  0  0  0  0  0  0  0  0  0  0  0
  154.4154  139.3545  161.4114 H   0  0  0  0  0  0  0  0  0  0  0  0
  153.9084  142.1311  161.1840 H   0  0  0  0  0  0  0  0  0  0  0  0
  153.3190  143.6392  160.6110 H   0  0  0  0  0  0  0  0  0  0  0  0
  151.8624  145.5578  159.9813 H   0  0  0  0  0  0  0  0  0  0  0  0
  150.1789  145.2387  158.1509 H   0  0  0  0  0  0  0  0  0  0  0  0
  149.9300  140.2466  158.9444 H   0  0  0  0  0  0  0  0  0  0  0  0
  149.1155  140.8760  157.5252 H   0  0  0  0  0  0  0  0  0  0  0  0
  150.7528  138.2765  157.6663 H   0  0  0  0  0  0  0  0  0  0  0  0
  149.0117  138.3992  157.5008 H   0  0  0  0  0  0  0  0  0  0  0  0
  152.1477  138.9871  155.7983 H   0  0  0  0  0  0  0  0  0  0  0  0
  151.3610  139.5886  154.3507 H   0  0  0  0  0  0  0  0  0  0  0  0
  150.5823  141.6177  155.5290 H   0  0  0  0  0  0  0  0  0  0  0  0
  152.3238  141.4713  155.7304 H   0  0  0  0  0  0  0  0  0  0  0  0
  1  2  1  0  0  0  0
  1 17  1  0  0  0  0
  1 18  1  0  0  0  0
  1 19  1  0  0  0  0
  2  3  1  0  0  0  0
  2 20  1  0  0  0  0
  3  4  2  0  0  0  0
  3  5  1  0  0  0  0
  5 10  1  0  0  0  0
  5  6  2  0  0  0  0
  6  7  1  0  0  0  0
  6 21  1  0  0  0  0
  7  8  2  0  0  0  0
  7 22  1  0  0  0  0
  8  9  1  0  0  0  0
  8 23  1  0  0  0  0
  9 10  2  0  0  0  0
 10 11  1  0  0  0  0
 11 16  1  0  0  0  0
 11 12  1  0  0  0  0
 12 13  1  0  0  0  0
 12 24  1  0  0  0  0
 12 25  1  0  0  0  0
 13 14  1  0  0  0  0
 13 26  1  0  0  0  0
 13 27  1  0  0  0  0
 14 15  1  0  0  0  0
 15 16  1  0  0  0  0
 15 28  1  0  0  0  0
 15 29  1  0  0  0  0
 16 30  1  0  0  0  0
 16 31  1  0  0  0  0
M  END
> <s_m_source_file>
AV-unprocessed.smi

> <i_m_source_file_index>
1156

> <i_lp_mmshare_version>
43012

> <i_f3d_flags>
0

> <s_epik_input>
W0NIM11bTkhdQyg9TyljMVtjSF1bY0hdW2NIXW5jMU4yW0NIMl1bQ0gyXU9bQ0gyXVtDSDJdMg==

> <s_epik_cmdline>
J2VwaWtfcHl0aG9uJywgJy1waCcsICc3LjAnLCAnLXRuJywgJzgnLCAnLW1hJywgJzIwMCcsICctbWV0YWxfYmluZGluZycsICctaW1hZScsICc8aW5maWxlLm1hZT4nLCAnLW9tYWUnLCAnPG91dGZpbGUubWFlPic=

> <r_lp_tautomer_probability>
1

> <r_epik_Ionization_Penalty>
1.43053e-05

> <r_epik_Ionization_Penalty_Charging>
0

> <r_epik_Ionization_Penalty_Neutral>
1.43053e-05

> <r_epik_State_Penalty>
-0

> <r_epik_Charging_Adjusted_Penalty>
0

> <i_epik_Tot_Q>
0

> <i_epik_Tot_abs_Q>
0

> <r_epik_Metal_State_Penalty>
-0

> <b_epik_Metal_Only>
0

> <s_lp_Force_Field>
OPLS_2005

> <r_lp_Energy>
24.2931

> <b_lp_Chiralities_Consistent>
1

> <s_lp_Variant>
AV-unprocessed.smi:1156-1

> <Gold.Version>
5.8.1

> <Gold.Id.Protein>
6NUR|6NUR_protein|mol2

> <Gold.PLP.Fitness>
35.6609

> <Gold.PLP.PLP>
-29.9922

> <Gold.PLP.part.hbond>
-1.0000

> <Gold.PLP.part.metal>
0.0000

> <Gold.PLP.part.buried>
-4.3989

> <Gold.PLP.part.nonpolar>
-24.9128

> <Gold.PLP.part.repulsive>
0.2106

> <Gold.PLP.ligand.clash>
0.0000

> <Gold.PLP.ligand.torsion>
0.2730

> <Gold.PLP.Chemscore.Hbond>
0.9920

> <Gold.PLP.Chemscore.CHOScore>
1.0025

> <Gold.PLP.Chemscore.Metal>
0.0000

> <Gold.Chemscore.Hbonds>
donor molecule, donor type, donor heavy atom, donor atom, acceptor molecule, acceptor atom, score
      P1  H  7997  8010       L1     4  0.77
      L1  C     8    23       P1  8028  0.05
      L1  C     8    23       P1  8029  0.89

> <Gold.PLP.Chemscore.Internal.Correction>
0.2312

> <Gold.Rescore>
     Score         DG    S(hbond)    S(metal)    S(lipo)     H(rot)  DE(clash)    DE(int)     intcor
     13.00     -14.67       0.92        0.00      74.08       1.00       0.01       1.65       ----

> <Gold.Chemscore.Fitness>
13.0012

> <Gold.Chemscore.DG>
-14.6698

> <Gold.Chemscore.ZeroCoef>
-5.4800

> <Gold.Chemscore.Hbond>
0.9228

> <Gold.Chemscore.Metal>
0.0000

> <Gold.Chemscore.Lipo>
74.0833

> <Gold.Chemscore.Internal_Hbond>
0.0000

> <Gold.Chemscore.DEClash>
0.0149

> <Gold.Chemscore.DEInternal>
1.6537

> <Gold.Chemscore.Rot>
1.0000

> <Gold.Chemscore.Internal.Correction>
   9.000000E+99

> <Gold.Chemscore.Hbonds>
donor molecule, donor type, donor heavy atom, donor atom, acceptor molecule, acceptor atom, score
      P1  H  7997  8010       L1     4  0.70

> <Gold.Chemscore.Hbond.Weighted>
-3.0820

> <Gold.Chemscore.Metal.Weighted>
-0.0000

> <Gold.Chemscore.Lipo.Weighted>
-8.6677

> <Gold.Chemscore.Internal_Hbond.Weighted>
0.0000

> <Gold.Chemscore.DEClash.Weighted>
0.0149

> <Gold.Chemscore.DEInternal.Weighted>
1.6537

> <Gold.Chemscore.Rot.Weighted>
2.5600

> <Gold.Chemscore.Internal.Correction.Weighted>
   9.000000E+99

> <Gold.Protein.RotatedTorsions>
[ 6907 6896 6895 6894 ] final  -28.92 input  -60.11 | X-H torsion
[ 7974 7965 7964 7962 ] final  -43.36 input  175.53 | X-H torsion
[ 8008 7997 7996 7995 ] final   25.26 input   59.86 | X-H torsion
[ 10167 10162 10161 10158 ] final  145.91 input  -65.29 | X-H torsion
[ 10718 10713 10712 10709 ] final  -36.36 input   66.30 | X-H torsion
[ 10763 10752 10751 10750 ] final  -55.41 input  -60.55 | X-H torsion
[ 11005 11000 10999 10996 ] final  117.92 input  -57.11 | X-H torsion

> <Gold.Protein.ActiveResidues>
 VAL166  LYS551  ARG553  GLY616  TRP617  ASP618  TYR619  PRO620  LYS621  CYS622 
 ASP623  PHE694  ASN695  SER759  ASP760  ASP761  ALA762  ILE779  LEU786  VAL792 
 PHE793  MET794  SER795  GLU796  ALA797  LYS798  CYS799  TRP800  GLU811  SER814 

> <Gold.Protein.RotatedAtoms>
  151.1263  135.0106  159.8561 H   0  0  0  0  0  0  0  0  0  0  0  0  # atno 6907 bound_to 6896
  152.5449  134.1663  159.8589 H   0  0  0  0  0  0  0  0  0  0  0  0  # atno 6908 bound_to 6896
  151.1726  133.4730  159.2627 H   0  0  0  0  0  0  0  0  0  0  0  0  # atno 6909 bound_to 6896
  146.0026  140.7056  142.9263 H   0  0  0  0  0  0  0  0  0  0  0  0  # atno 7974 bound_to 7965
  155.0090  140.3134  155.4837 H   0  0  0  0  0  0  0  0  0  0  0  0  # atno 8008 bound_to 7997
  156.2912  140.2218  156.5145 H   0  0  0  0  0  0  0  0  0  0  0  0  # atno 8009 bound_to 7997
  154.7551  140.0463  157.0914 H   0  0  0  0  0  0  0  0  0  0  0  0  # atno 8010 bound_to 7997
  139.4917  144.5868  151.6763 H   0  0  0  0  0  0  0  0  0  0  0  0  # atno 10167 bound_to 10162
  156.3278  130.4275  149.7901 H   0  0  0  0  0  0  0  0  0  0  0  0  # atno 10718 bound_to 10713
  154.1903  135.6428  153.5058 H   0  0  0  0  0  0  0  0  0  0  0  0  # atno 10763 bound_to 10752
  153.0037  135.5427  154.6422 H   0  0  0  0  0  0  0  0  0  0  0  0  # atno 10764 bound_to 10752
  154.5809  135.2925  155.0706 H   0  0  0  0  0  0  0  0  0  0  0  0  # atno 10765 bound_to 10752
  139.9091  134.9615  156.7424 H   0  0  0  0  0  0  0  0  0  0  0  0  # atno 11005 bound_to 11000
  144.6925  140.3260  143.7224 LP  0  0  0  0  0  0  0  0  0  0  0  0  # atno 17320 bound_to 7965
  145.7464  139.1780  143.2347 LP  0  0  0  0  0  0  0  0  0  0  0  0  # atno 17321 bound_to 7965
  140.5485  144.0463  150.6117 LP  0  0  0  0  0  0  0  0  0  0  0  0  # atno 17342 bound_to 10162
  140.3510  143.2963  152.0487 LP  0  0  0  0  0  0  0  0  0  0  0  0  # atno 17343 bound_to 10162
  156.5184  130.8204  151.3195 LP  0  0  0  0  0  0  0  0  0  0  0  0  # atno 17370 bound_to 10713
  157.7424  130.9891  150.2517 LP  0  0  0  0  0  0  0  0  0  0  0  0  # atno 17371 bound_to 10713
  140.6839  133.9450  155.7926 LP  0  0  0  0  0  0  0  0  0  0  0  0  # atno 17394 bound_to 11000
  141.0490  134.0512  157.3807 LP  0  0  0  0  0  0  0  0  0  0  0  0  # atno 17395 bound_to 11000

$$$$
