#       Name:                AV-unprocessed.smi:232
#       Creating user name   scv26
#       Creation time:       Thu Mar 26 20:32:01 2020


#       File generated by GOLD software.
#

@<TRIPOS>MOLECULE
AV-unprocessed.smi:232
    60    63     1
SMALL
NO_CHARGES


@<TRIPOS>ATOM
      1 ****        -3.9471  -1.4647  -3.7482 C.3            1 S1                 0.0000
      2 ****        -3.3181  -0.9009  -2.4683 C.3            1 S1                 0.0000
      3 ****        -3.4944   0.6262  -2.3255 C.3            1 S1                 0.0000
      4 ****        -4.9596   1.0736  -2.2036 C.3            1 S1                 0.0000
      5 ****        -4.9264   2.2942  -1.2759 C.3            1 S1                 0.0000
      6 ****        -3.4419   2.4930  -0.9533 C.3            1 S1                 0.0000
      7 ****        -3.1905   3.0733   0.4478 C.3            1 S1                 0.0000
      8 ****        -2.8456   1.1752  -1.1399 N.3            1 S1                 0.0000
      9 ****        -1.4924   1.1206  -1.1570 C.ar           1 S1                 0.0000
     10 ****        -0.7738   1.9772  -1.9307 N.ar           1 S1                 0.0000
     11 ****         0.5605   1.8992  -1.9507 C.ar           1 S1                 0.0000
     12 ****         1.3581   1.0532  -1.2938 N.ar           1 S1                 0.0000
     13 ****         0.6362   0.1916  -0.5207 C.ar           1 S1                 0.0000
     14 ****        -0.7799   0.1599  -0.3933 C.ar           1 S1                 0.0000
     15 ****        -1.1603  -0.8500   0.4813 N.2            1 S1                 0.0000
     16 ****        -0.0301  -1.3891   0.8496 C.2            1 S1                 0.0000
     17 ****         1.0972  -0.8275   0.2935 N.pl3          1 S1                 0.0000
     18 ****         2.4708  -1.2370   0.5238 C.3            1 S1                 0.0000
     19 ****         3.0249  -0.7114   1.8625 C.3            1 S1                 0.0000
     20 ****         2.9771   0.7027   1.8622 O.3            1 S1                 0.0000
     21 ****         4.4761  -1.1626   2.1098 C.3            1 S1                 0.0000
     22 ****         5.0581  -0.7133   3.4513 C.3            1 S1                 0.0000
     23 ****         6.1522  -1.7333   3.6658 C.3            1 S1                 0.0000
     24 ****         5.4994  -3.0060   3.1349 C.3            1 S1                 0.0000
     25 ****         4.5553  -2.5860   2.1528 O.3            1 S1                 0.0000
     26 ****        -3.7681  -2.5372  -3.8267 H              1 S1                 0.0000
     27 ****        -3.5230  -0.9920  -4.6344 H              1 S1                 0.0000
     28 ****        -5.0257  -1.3086  -3.7663 H              1 S1                 0.0000
     29 ****        -3.7405  -1.4064  -1.5990 H              1 S1                 0.0000
     30 ****        -2.2572  -1.1520  -2.4789 H              1 S1                 0.0000
     31 ****        -3.0586   1.1128  -3.2003 H              1 S1                 0.0000
     32 ****        -5.3863   1.3080  -3.1791 H              1 S1                 0.0000
     33 ****        -5.5731   0.2917  -1.7539 H              1 S1                 0.0000
     34 ****        -5.3599   3.1816  -1.7382 H              1 S1                 0.0000
     35 ****        -5.4962   2.0799  -0.3707 H              1 S1                 0.0000
     36 ****        -3.0293   3.1780  -1.6959 H              1 S1                 0.0000
     37 ****        -3.6868   4.0369   0.5636 H              1 S1                 0.0000
     38 ****        -2.1265   3.2283   0.6289 H              1 S1                 0.0000
     39 ****        -3.5663   2.4072   1.2251 H              1 S1                 0.0000
     40 ****         1.0605   2.6143  -2.5871 H              1 S1                 0.0000
     41 ****         0.0134  -2.2181   1.5409 H              1 S1                 0.0000
     42 ****         2.5033  -2.3267   0.5018 H              1 S1                 0.0000
     43 ****         3.0862  -0.8924  -0.3082 H              1 S1                 0.0000
     44 ****         2.3945  -1.0687   2.6778 H              1 S1                 0.0000
     45 ****         3.4883   1.0197   1.1331 H              1 S1                 0.0000
     46 ****         5.1247  -0.8176   1.3027 H              1 S1                 0.0000
     47 ****         5.4282   0.3123   3.4341 H              1 S1                 0.0000
     48 ****         4.3116  -0.7951   4.2428 H              1 S1                 0.0000
     49 ****         7.0245  -1.4775   3.0626 H              1 S1                 0.0000
     50 ****         6.4668  -1.8165   4.7064 H              1 S1                 0.0000
     51 ****         6.2283  -3.6994   2.7150 H              1 S1                 0.0000
     52 ****         4.9623  -3.5218   3.9316 H              1 S1                 0.0000
     53 ****        -3.0142   0.6110  -0.3317 LP             1 S1                 0.0000
     54 ****        -1.2432   2.6651  -2.4844 LP             1 S1                 0.0000
     55 ****         2.3559   1.0515  -1.3601 LP             1 S1                 0.0000
     56 ****        -2.0853  -1.1048   0.7632 LP             1 S1                 0.0000
     57 ****         3.3569   1.0533   2.7182 LP             1 S1                 0.0000
     58 ****         2.0296   1.0082   1.7680 LP             1 S1                 0.0000
     59 ****         4.8396  -2.9266   1.2566 LP             1 S1                 0.0000
     60 ****         3.6558  -2.9585   2.3810 LP             1 S1                 0.0000
@<TRIPOS>BOND
    1    1    2 1     
    2    1   26 1     
    3    1   27 1     
    4    1   28 1     
    5    2    3 1     
    6    2   29 1     
    7    2   30 1     
    8    3    8 1     
    9    3    4 1     
   10    3   31 1     
   11    4    5 1     
   12    4   32 1     
   13    4   33 1     
   14    5    6 1     
   15    5   34 1     
   16    5   35 1     
   17    6    7 1     
   18    6    8 1     
   19    6   36 1     
   20    7   37 1     
   21    7   38 1     
   22    7   39 1     
   23    8    9 1     
   24    9   14 ar    
   25    9   10 ar    
   26   10   11 ar    
   27   11   12 ar    
   28   11   40 1     
   29   12   13 ar    
   30   13   17 1     
   31   13   14 ar    
   32   14   15 1     
   33   15   16 2     
   34   16   17 1     
   35   16   41 1     
   36   17   18 1     
   37   18   19 1     
   38   18   42 1     
   39   18   43 1     
   40   19   20 1     
   41   19   21 1     
   42   19   44 1     
   43   20   45 1     
   44   21   25 1     
   45   21   22 1     
   46   21   46 1     
   47   22   23 1     
   48   22   47 1     
   49   22   48 1     
   50   23   24 1     
   51   23   49 1     
   52   23   50 1     
   53   24   25 1     
   54   24   51 1     
   55   24   52 1     
   56    8   53 1     
   57   10   54 1     
   58   12   55 1     
   59   15   56 1     
   60   20   57 1     
   61   20   58 1     
   62   25   59 1     
   63   25   60 1     
@<TRIPOS>SUBSTRUCTURE
      1 S1             1
@<TRIPOS>SET
LONE_PAIRS      STATIC     ATOMS    <user>   **** ""
8 53 54 55 56 57 58 59 60
DONOR_HYDROGENS      STATIC     ATOMS    <user>   **** ""
1 45
ATOM$BLUE        STATIC     ATOMS    COLORGROUP SYSTEM
8 53 54 55 56 57 58 59 60
ATOM$RED        STATIC     ATOMS    COLORGROUP SYSTEM
1 45
