#       Name:                AV-unprocessed.smi:2473
#       Creating user name   scv26
#       Creation time:       Fri Mar 27 13:39:07 2020


#       File generated by GOLD software.
#

@<TRIPOS>MOLECULE
AV-unprocessed.smi:2473
    50    51     1
SMALL
NO_CHARGES


@<TRIPOS>ATOM
      1 ****        -2.7115  -1.2914  -1.8512 C.3            1 S1                 0.0000
      2 ****        -2.2173  -0.7379  -0.5071 C.3            1 S1                 0.0000
      3 ****        -0.6840  -0.6197  -0.4841 C.3            1 S1                 0.0000
      4 ****        -0.1795  -0.0559   0.8587 C.3            1 S1                 0.0000
      5 ****         1.3514   0.0457   0.8549 C.2            1 S1                 0.0000
      6 ****         2.0396  -0.9681   0.7345 O.2            1 S1                 0.0000
      7 ****         1.8692   1.2807   0.9559 N.am           1 S1                 0.0000
      8 ****         3.2859   1.6181   0.8412 C.3            1 S1                 0.0000
      9 ****         3.6519   2.1246  -0.5680 C.3            1 S1                 0.0000
     10 ****         3.3165   1.1600  -1.6681 C.2            1 S1                 0.0000
     11 ****         4.0524   0.0899  -1.9525 N.2            1 S1                 0.0000
     12 ****         3.3775  -0.5404  -2.9919 C.2            1 S1                 0.0000
     13 ****         2.2504   0.1792  -3.3062 C.2            1 S1                 0.0000
     14 ****         2.2226   1.2709  -2.4489 N.pl3          1 S1                 0.0000
     15 ****         1.2025   2.3020  -2.4232 C.3            1 S1                 0.0000
     16 ****        -0.6760  -0.9359   2.0276 C.3            1 S1                 0.0000
     17 ****        -2.2151  -1.1126   2.0566 C.3            1 S1                 0.0000
     18 ****        -2.5723  -2.1740   3.1157 C.3            1 S1                 0.0000
     19 ****        -2.9164   0.2044   2.4560 C.3            1 S1                 0.0000
     20 ****        -2.7061  -1.6053   0.6717 C.3            1 S1                 0.0000
     21 ****        -2.3254  -2.2948  -2.0332 H              1 S1                 0.0000
     22 ****        -2.3917  -0.6567  -2.6781 H              1 S1                 0.0000
     23 ****        -3.8002  -1.3430  -1.8781 H              1 S1                 0.0000
     24 ****        -2.6366   0.2629  -0.4022 H              1 S1                 0.0000
     25 ****        -0.2426  -1.6010  -0.6681 H              1 S1                 0.0000
     26 ****        -0.3550   0.0210  -1.3029 H              1 S1                 0.0000
     27 ****        -0.5806   0.9512   0.9792 H              1 S1                 0.0000
     28 ****         1.2268   2.0526   1.0610 H              1 S1                 0.0000
     29 ****         3.5148   2.3890   1.5769 H              1 S1                 0.0000
     30 ****         3.9084   0.7600   1.0999 H              1 S1                 0.0000
     31 ****         3.1616   3.0798  -0.7557 H              1 S1                 0.0000
     32 ****         4.7220   2.3293  -0.6097 H              1 S1                 0.0000
     33 ****         3.7514  -1.4544  -3.4287 H              1 S1                 0.0000
     34 ****         1.4848   0.0077  -4.0483 H              1 S1                 0.0000
     35 ****         0.4037   2.0577  -3.1238 H              1 S1                 0.0000
     36 ****         1.6391   3.2600  -2.7059 H              1 S1                 0.0000
     37 ****         0.7766   2.3816  -1.4234 H              1 S1                 0.0000
     38 ****        -0.2105  -1.9204   1.9514 H              1 S1                 0.0000
     39 ****        -0.3344  -0.5184   2.9761 H              1 S1                 0.0000
     40 ****        -3.6493  -2.3378   3.1673 H              1 S1                 0.0000
     41 ****        -2.2381  -1.8726   4.1091 H              1 S1                 0.0000
     42 ****        -2.1070  -3.1351   2.8933 H              1 S1                 0.0000
     43 ****        -3.9984   0.0760   2.5015 H              1 S1                 0.0000
     44 ****        -2.7198   1.0151   1.7564 H              1 S1                 0.0000
     45 ****        -2.5878   0.5422   3.4393 H              1 S1                 0.0000
     46 ****        -3.7958  -1.6570   0.6630 H              1 S1                 0.0000
     47 ****        -2.3591  -2.6276   0.5132 H              1 S1                 0.0000
     48 ****         1.6011  -1.8617   0.6387 LP             1 S1                 0.0000
     49 ****         3.0372  -0.8980   0.7324 LP             1 S1                 0.0000
     50 ****         4.9042  -0.1984  -1.5150 LP             1 S1                 0.0000
@<TRIPOS>BOND
    1    1    2 1     
    2    1   21 1     
    3    1   22 1     
    4    1   23 1     
    5    2   20 1     
    6    2    3 1     
    7    2   24 1     
    8    3    4 1     
    9    3   25 1     
   10    3   26 1     
   11    4    5 1     
   12    4   16 1     
   13    4   27 1     
   14    5    6 2     
   15    5    7 am    
   16    7    8 1     
   17    7   28 1     
   18    8    9 1     
   19    8   29 1     
   20    8   30 1     
   21    9   10 1     
   22    9   31 1     
   23    9   32 1     
   24   10   14 1     
   25   10   11 2     
   26   11   12 1     
   27   12   13 2     
   28   12   33 1     
   29   13   14 1     
   30   13   34 1     
   31   14   15 1     
   32   15   35 1     
   33   15   36 1     
   34   15   37 1     
   35   16   17 1     
   36   16   38 1     
   37   16   39 1     
   38   17   18 1     
   39   17   19 1     
   40   17   20 1     
   41   18   40 1     
   42   18   41 1     
   43   18   42 1     
   44   19   43 1     
   45   19   44 1     
   46   19   45 1     
   47   20   46 1     
   48   20   47 1     
   49    6   48 1     
   50    6   49 1     
   51   11   50 1     
@<TRIPOS>SUBSTRUCTURE
      1 S1             1
@<TRIPOS>SET
LONE_PAIRS      STATIC     ATOMS    <user>   **** ""
3 48 49 50
DONOR_HYDROGENS      STATIC     ATOMS    <user>   **** ""
1 28
ATOM$BLUE        STATIC     ATOMS    COLORGROUP SYSTEM
3 48 49 50
ATOM$RED        STATIC     ATOMS    COLORGROUP SYSTEM
1 28
