AV-unprocessed.smi:1109|AV-procd|sdf|4789|dock1
  -GOLD-   22720 3333D 1   1.00000     0.00000
 Structure written by MMmdl.
 45 46  0  0  0  0  0  0  0  0  1 V2000
  151.8305  143.6435  159.2858 C   0  0  0  0  0  0  0  0  0  0  0  0
  150.7635  142.7146  159.2212 O   0  0  0  0  0  0  0  0  0  0  0  0
  150.0593  142.7781  157.9910 C   0  0  0  0  0  0  0  0  0  0  0  0
  149.7555  141.3537  157.5008 C   0  0  0  0  0  0  0  0  0  0  0  0
  149.0426  141.3627  156.2191 N   0  0  0  0  0  0  0  0  0  0  0  0
  147.8038  141.9718  156.2763 N   0  0  0  0  0  0  0  0  0  0  0  0
  147.0563  142.0464  155.2259 C   0  0  0  0  0  0  0  0  0  0  0  0
  145.7241  142.7330  155.2265 C   0  0  0  0  0  0  0  0  0  0  0  0
  145.3268  143.2161  154.1645 O   0  0  0  0  0  0  0  0  0  0  0  0
  145.0139  142.8783  156.3906 N   0  0  0  0  0  0  0  0  0  0  0  0
  145.1522  141.9944  157.5714 C   0  0  0  0  0  0  0  0  0  0  0  0
  145.7864  142.6474  158.8142 C   0  0  0  0  0  0  0  0  0  0  0  0
  146.3578  143.8502  158.6926 N   0  0  0  0  0  0  0  0  0  0  0  0
  145.7649  142.0513  159.8879 O   0  0  0  0  0  0  0  0  0  0  0  0
  143.8679  143.8170  156.4967 C   0  0  0  0  0  0  0  0  0  0  0  0
  142.8693  143.7203  155.3209 C   0  0  0  0  0  0  0  0  0  0  0  0
  142.8209  145.1125  154.6839 C   0  0  0  0  0  0  0  0  0  0  0  0
  143.2131  146.0699  155.8068 C   0  0  0  0  0  0  0  0  0  0  0  0
  144.2624  145.3073  156.6166 C   0  0  0  0  0  0  0  0  0  0  0  0
  147.5166  141.5049  153.9573 C   0  0  0  0  0  0  0  0  0  0  0  0
  148.7389  140.9307  153.9071 C   0  0  0  0  0  0  0  0  0  0  0  0
  149.6003  140.8389  155.0871 C   0  0  0  0  0  0  0  0  0  0  0  0
  150.7245  140.3391  155.0640 O   0  0  0  0  0  0  0  0  0  0  0  0
  152.3356  143.5551  160.2477 H   0  0  0  0  0  0  0  0  0  0  0  0
  151.4677  144.6673  159.1886 H   0  0  0  0  0  0  0  0  0  0  0  0
  152.5646  143.4556  158.5014 H   0  0  0  0  0  0  0  0  0  0  0  0
  149.1366  143.3492  158.1056 H   0  0  0  0  0  0  0  0  0  0  0  0
  150.6709  143.2948  157.2501 H   0  0  0  0  0  0  0  0  0  0  0  0
  150.6855  140.7897  157.4120 H   0  0  0  0  0  0  0  0  0  0  0  0
  149.1699  140.8230  158.2540 H   0  0  0  0  0  0  0  0  0  0  0  0
  144.1639  141.6338  157.8603 H   0  0  0  0  0  0  0  0  0  0  0  0
  145.6963  141.0802  157.3318 H   0  0  0  0  0  0  0  0  0  0  0  0
  146.7733  144.2950  159.4981 H   0  0  0  0  0  0  0  0  0  0  0  0
  146.3668  144.3124  157.7950 H   0  0  0  0  0  0  0  0  0  0  0  0
  143.3016  143.5873  157.4012 H   0  0  0  0  0  0  0  0  0  0  0  0
  143.1283  142.9527  154.5909 H   0  0  0  0  0  0  0  0  0  0  0  0
  141.8820  143.4634  155.7070 H   0  0  0  0  0  0  0  0  0  0  0  0
  143.5521  145.1764  153.8774 H   0  0  0  0  0  0  0  0  0  0  0  0
  141.8435  145.3438  154.2600 H   0  0  0  0  0  0  0  0  0  0  0  0
  143.5840  147.0249  155.4338 H   0  0  0  0  0  0  0  0  0  0  0  0
  142.3437  146.2724  156.4335 H   0  0  0  0  0  0  0  0  0  0  0  0
  144.2911  145.6382  157.6552 H   0  0  0  0  0  0  0  0  0  0  0  0
  145.2477  145.5106  156.1985 H   0  0  0  0  0  0  0  0  0  0  0  0
  146.8984  141.5538  153.0723 H   0  0  0  0  0  0  0  0  0  0  0  0
  149.0914  140.5244  152.9704 H   0  0  0  0  0  0  0  0  0  0  0  0
  1  2  1  0  0  0  0
  1 24  1  0  0  0  0
  1 25  1  0  0  0  0
  1 26  1  0  0  0  0
  2  3  1  0  0  0  0
  3  4  1  0  0  0  0
  3 27  1  0  0  0  0
  3 28  1  0  0  0  0
  4  5  1  0  0  0  0
  4 29  1  0  0  0  0
  4 30  1  0  0  0  0
  5 22  1  0  0  0  0
  5  6  1  0  0  0  0
  6  7  2  0  0  0  0
  7  8  1  0  0  0  0
  7 20  1  0  0  0  0
  8  9  2  0  0  0  0
  8 10  1  0  0  0  0
 10 11  1  0  0  0  0
 10 15  1  0  0  0  0
 11 12  1  0  0  0  0
 11 31  1  0  0  0  0
 11 32  1  0  0  0  0
 12 13  1  0  0  0  0
 12 14  2  0  0  0  0
 13 33  1  0  0  0  0
 13 34  1  0  0  0  0
 15 19  1  0  0  0  0
 15 16  1  0  0  0  0
 15 35  1  0  0  0  0
 16 17  1  0  0  0  0
 16 36  1  0  0  0  0
 16 37  1  0  0  0  0
 17 18  1  0  0  0  0
 17 38  1  0  0  0  0
 17 39  1  0  0  0  0
 18 19  1  0  0  0  0
 18 40  1  0  0  0  0
 18 41  1  0  0  0  0
 19 42  1  0  0  0  0
 19 43  1  0  0  0  0
 20 21  2  0  0  0  0
 20 44  1  0  0  0  0
 21 22  1  0  0  0  0
 21 45  1  0  0  0  0
 22 23  2  0  0  0  0
M  END
> <s_m_source_file>
AV-unprocessed.smi

> <i_m_source_file_index>
1109

> <i_lp_mmshare_version>
43012

> <i_f3d_flags>
0

> <s_epik_input>
W0NIM11PW0NIMl1bQ0gyXW4xbmMoW2NIXVtjSF1jMT1PKUMoPU8pTihbQ0gyXUMoPU8pW05IMl0pW0NIXTJbQ0gyXVtDSDJdW0NIMl1bQ0gyXTI=

> <s_epik_cmdline>
J2VwaWtfcHl0aG9uJywgJy1waCcsICc3LjAnLCAnLXRuJywgJzgnLCAnLW1hJywgJzIwMCcsICctbWV0YWxfYmluZGluZycsICctaW1hZScsICc8aW5maWxlLm1hZT4nLCAnLW9tYWUnLCAnPG91dGZpbGUubWFlPic=

> <r_lp_tautomer_probability>
1

> <r_epik_Ionization_Penalty>
6.63696e-08

> <r_epik_Ionization_Penalty_Charging>
1.13312e-09

> <r_epik_Ionization_Penalty_Neutral>
6.52365e-08

> <r_epik_State_Penalty>
-0

> <r_epik_Charging_Adjusted_Penalty>
1.13312e-09

> <i_epik_Tot_Q>
0

> <i_epik_Tot_abs_Q>
0

> <r_epik_Metal_State_Penalty>
-0

> <b_epik_Metal_Only>
0

> <s_lp_Force_Field>
OPLS_2005

> <r_lp_Energy>
53.0262

> <b_lp_Chiralities_Consistent>
1

> <s_lp_Variant>
AV-unprocessed.smi:1109-1

> <Gold.Version>
5.8.1

> <Gold.Id.Protein>
6NUR|6NUR_protein|mol2

> <Gold.PLP.Fitness>
39.7259

> <Gold.PLP.PLP>
-33.7319

> <Gold.PLP.part.hbond>
-3.3251

> <Gold.PLP.part.metal>
0.0000

> <Gold.PLP.part.buried>
-3.8302

> <Gold.PLP.part.nonpolar>
-27.7122

> <Gold.PLP.part.repulsive>
1.7495

> <Gold.PLP.ligand.clash>
0.0000

> <Gold.PLP.ligand.torsion>
1.2043

> <Gold.PLP.Chemscore.Hbond>
2.5676

> <Gold.PLP.Chemscore.CHOScore>
0.0000

> <Gold.PLP.Chemscore.Metal>
0.0000

> <Gold.Chemscore.Hbonds>
donor molecule, donor type, donor heavy atom, donor atom, acceptor molecule, acceptor atom, score
      L1  H    13    34       P1  8029  0.19
      P1  H  6934  6946       L1    14  1.00
      P1  H  7989  7998       L1    23  1.00

> <Gold.PLP.Chemscore.Internal.Correction>
0.6997

> <Gold.Rescore>
     Score         DG    S(hbond)    S(metal)    S(lipo)     H(rot)  DE(clash)    DE(int)     intcor
      9.44     -14.15       2.32        0.00      64.80       2.61       1.43       3.28       ----

> <Gold.Chemscore.Fitness>
9.4408

> <Gold.Chemscore.DG>
-14.1469

> <Gold.Chemscore.ZeroCoef>
-5.4800

> <Gold.Chemscore.Hbond>
2.3221

> <Gold.Chemscore.Metal>
0.0000

> <Gold.Chemscore.Lipo>
64.8030

> <Gold.Chemscore.Internal_Hbond>
0.0000

> <Gold.Chemscore.DEClash>
1.4290

> <Gold.Chemscore.DEInternal>
3.2772

> <Gold.Chemscore.Rot>
2.6057

> <Gold.Chemscore.Internal.Correction>
   9.000000E+99

> <Gold.Chemscore.Hbonds>
donor molecule, donor type, donor heavy atom, donor atom, acceptor molecule, acceptor atom, score
      L1  H    13    34       P1  8029  0.04
      P1  H  6934  6946       L1    14  1.00
      P1  H  7989  7998       L1    23  0.73

> <Gold.Chemscore.Hbond.Weighted>
-7.7557

> <Gold.Chemscore.Metal.Weighted>
-0.0000

> <Gold.Chemscore.Lipo.Weighted>
-7.5819

> <Gold.Chemscore.Internal_Hbond.Weighted>
0.0000

> <Gold.Chemscore.DEClash.Weighted>
1.4290

> <Gold.Chemscore.DEInternal.Weighted>
3.2772

> <Gold.Chemscore.Rot.Weighted>
6.6707

> <Gold.Chemscore.Internal.Correction.Weighted>
   9.000000E+99

> <Gold.Protein.RotatedTorsions>
[ 6907 6896 6895 6894 ] final -178.18 input  -60.11 | X-H torsion
[ 7974 7965 7964 7962 ] final  -73.75 input  175.53 | X-H torsion
[ 8008 7997 7996 7995 ] final   16.48 input   59.86 | X-H torsion
[ 10167 10162 10161 10158 ] final -125.69 input  -65.29 | X-H torsion
[ 10718 10713 10712 10709 ] final   52.31 input   66.30 | X-H torsion
[ 10763 10752 10751 10750 ] final -146.31 input  -60.55 | X-H torsion
[ 11005 11000 10999 10996 ] final  -15.87 input  -57.11 | X-H torsion

> <Gold.Protein.ActiveResidues>
 VAL166  LYS551  ARG553  GLY616  TRP617  ASP618  TYR619  PRO620  LYS621  CYS622 
 ASP623  PHE694  ASN695  SER759  ASP760  ASP761  ALA762  ILE779  LEU786  VAL792 
 PHE793  MET794  SER795  GLU796  ALA797  LYS798  CYS799  TRP800  GLU811  SER814 

> <Gold.Protein.RotatedAtoms>
  151.6331  133.3331  159.3113 H   0  0  0  0  0  0  0  0  0  0  0  0  # atno 6907 bound_to 6896
  150.8046  134.7167  159.6644 H   0  0  0  0  0  0  0  0  0  0  0  0  # atno 6908 bound_to 6896
  152.4141  134.6077  160.0069 H   0  0  0  0  0  0  0  0  0  0  0  0  # atno 6909 bound_to 6896
  145.6481  140.9291  143.1000 H   0  0  0  0  0  0  0  0  0  0  0  0  # atno 7974 bound_to 7965
  154.8775  140.2968  155.5444 H   0  0  0  0  0  0  0  0  0  0  0  0  # atno 8008 bound_to 7997
  156.3022  140.2448  156.3707 H   0  0  0  0  0  0  0  0  0  0  0  0  # atno 8009 bound_to 7997
  154.8752  140.0400  157.1738 H   0  0  0  0  0  0  0  0  0  0  0  0  # atno 8010 bound_to 7997
  139.9794  143.5759  152.2384 H   0  0  0  0  0  0  0  0  0  0  0  0  # atno 10167 bound_to 10162
  157.5063  130.8471  149.8378 H   0  0  0  0  0  0  0  0  0  0  0  0  # atno 10718 bound_to 10713
  154.8342  135.3390  154.6641 H   0  0  0  0  0  0  0  0  0  0  0  0  # atno 10763 bound_to 10752
  153.7257  135.6955  153.5006 H   0  0  0  0  0  0  0  0  0  0  0  0  # atno 10764 bound_to 10752
  153.2348  135.4404  155.0587 H   0  0  0  0  0  0  0  0  0  0  0  0  # atno 10765 bound_to 10752
  140.8010  133.8213  155.9470 H   0  0  0  0  0  0  0  0  0  0  0  0  # atno 11005 bound_to 11000
  144.7133  139.8290  143.7407 LP  0  0  0  0  0  0  0  0  0  0  0  0  # atno 17320 bound_to 7965
  146.1226  139.4247  143.0218 LP  0  0  0  0  0  0  0  0  0  0  0  0  # atno 17321 bound_to 7965
  139.6421  144.7655  151.2318 LP  0  0  0  0  0  0  0  0  0  0  0  0  # atno 17342 bound_to 10162
  140.7494  143.6300  150.8432 LP  0  0  0  0  0  0  0  0  0  0  0  0  # atno 17343 bound_to 10162
  156.0260  130.3779  150.1822 LP  0  0  0  0  0  0  0  0  0  0  0  0  # atno 17370 bound_to 10713
  157.0012  130.9923  151.3390 LP  0  0  0  0  0  0  0  0  0  0  0  0  # atno 17371 bound_to 10713
  140.9294  134.2041  157.4874 LP  0  0  0  0  0  0  0  0  0  0  0  0  # atno 17394 bound_to 11000
  139.8721  134.9826  156.5164 LP  0  0  0  0  0  0  0  0  0  0  0  0  # atno 17395 bound_to 11000

$$$$
