#       Name:                AV-unprocessed.smi:1555
#       Creating user name   scv26
#       Creation time:       Fri Mar 27 06:45:44 2020


#       File generated by GOLD software.
#

@<TRIPOS>MOLECULE
AV-unprocessed.smi:1555
    46    47     1
SMALL
NO_CHARGES


@<TRIPOS>ATOM
      1 ****        -2.4946  -1.1469  -2.2271 C.3            1 S1                 0.0000
      2 ****        -2.5908  -0.4058  -0.8843 C.3            1 S1                 0.0000
      3 ****        -3.3769  -1.2259   0.1563 C.3            1 S1                 0.0000
      4 ****        -3.5488  -0.5103   1.4073 N.pl3          1 S1                 0.0000
      5 ****        -2.8709  -0.7304   2.5995 C.2            1 S1                 0.0000
      6 ****        -3.3605   0.1843   3.5041 C.2            1 S1                 0.0000
      7 ****        -4.3353   0.9708   2.8949 N.2            1 S1                 0.0000
      8 ****        -4.3927   0.5004   1.6556 C.2            1 S1                 0.0000
      9 ****        -1.2534  -0.1110  -0.3756 N.am           1 S1                 0.0000
     10 ****        -0.4974   0.9468  -0.7147 C.2            1 S1                 0.0000
     11 ****        -0.8633   1.7702  -1.5546 O.2            1 S1                 0.0000
     12 ****         0.6898   1.0257  -0.0618 N.am           1 S1                 0.0000
     13 ****         1.2183   0.0586   0.9152 C.3            1 S1                 0.0000
     14 ****         2.3832  -0.7103   0.2673 C.3            1 S1                 0.0000
     15 ****         3.4883   0.2524  -0.2216 C.3            1 S1                 0.0000
     16 ****         4.6057  -0.5110  -0.9556 C.3            1 S1                 0.0000
     17 ****         5.7124   0.3322  -1.1982 O.3            1 S1                 0.0000
     18 ****         2.8808   1.3805  -1.0884 C.3            1 S1                 0.0000
     19 ****         1.6889   2.0521  -0.3820 C.3            1 S1                 0.0000
     20 ****        -3.4860  -1.3631  -2.6262 H              1 S1                 0.0000
     21 ****        -1.9646  -2.0939  -2.1212 H              1 S1                 0.0000
     22 ****        -1.9657  -0.5508  -2.9716 H              1 S1                 0.0000
     23 ****        -3.1244   0.5322  -1.0497 H              1 S1                 0.0000
     24 ****        -4.3670  -1.4735  -0.2288 H              1 S1                 0.0000
     25 ****        -2.8745  -2.1729   0.3596 H              1 S1                 0.0000
     26 ****        -2.1160  -1.4961   2.7019 H              1 S1                 0.0000
     27 ****        -3.0885   0.3355   4.5382 H              1 S1                 0.0000
     28 ****        -5.0617   0.9028   0.9092 H              1 S1                 0.0000
     29 ****        -0.8830  -0.7460   0.3163 H              1 S1                 0.0000
     30 ****         1.5735   0.5976   1.7948 H              1 S1                 0.0000
     31 ****         0.4751  -0.6434   1.2932 H              1 S1                 0.0000
     32 ****         2.7977  -1.4208   0.9832 H              1 S1                 0.0000
     33 ****         2.0057  -1.2988  -0.5703 H              1 S1                 0.0000
     34 ****         3.9252   0.7140   0.6657 H              1 S1                 0.0000
     35 ****         4.9482  -1.3534  -0.3539 H              1 S1                 0.0000
     36 ****         4.2448  -0.9161  -1.9015 H              1 S1                 0.0000
     37 ****         6.3803  -0.1682  -1.6416 H              1 S1                 0.0000
     38 ****         3.6385   2.1305  -1.3166 H              1 S1                 0.0000
     39 ****         2.5507   0.9745  -2.0456 H              1 S1                 0.0000
     40 ****         1.2901   2.8507  -1.0091 H              1 S1                 0.0000
     41 ****         2.0205   2.5366   0.5373 H              1 S1                 0.0000
     42 ****        -4.8674   1.7157   3.2974 LP             1 S1                 0.0000
     43 ****        -1.7483   1.6627  -2.0078 LP             1 S1                 0.0000
     44 ****        -0.2755   2.5462  -1.7833 LP             1 S1                 0.0000
     45 ****         6.0700   0.6771  -0.3304 LP             1 S1                 0.0000
     46 ****         5.4308   1.1013  -1.7719 LP             1 S1                 0.0000
@<TRIPOS>BOND
    1    1    2 1     
    2    1   20 1     
    3    1   21 1     
    4    1   22 1     
    5    2    3 1     
    6    2    9 1     
    7    2   23 1     
    8    3    4 1     
    9    3   24 1     
   10    3   25 1     
   11    4    8 1     
   12    4    5 1     
   13    5    6 2     
   14    5   26 1     
   15    6    7 1     
   16    6   27 1     
   17    7    8 2     
   18    8   28 1     
   19    9   10 am    
   20    9   29 1     
   21   10   11 2     
   22   10   12 am    
   23   12   19 1     
   24   12   13 1     
   25   13   14 1     
   26   13   30 1     
   27   13   31 1     
   28   14   15 1     
   29   14   32 1     
   30   14   33 1     
   31   15   16 1     
   32   15   18 1     
   33   15   34 1     
   34   16   17 1     
   35   16   35 1     
   36   16   36 1     
   37   17   37 1     
   38   18   19 1     
   39   18   38 1     
   40   18   39 1     
   41   19   40 1     
   42   19   41 1     
   43    7   42 1     
   44   11   43 1     
   45   11   44 1     
   46   17   45 1     
   47   17   46 1     
@<TRIPOS>SUBSTRUCTURE
      1 S1             1
@<TRIPOS>SET
LONE_PAIRS      STATIC     ATOMS    <user>   **** ""
5 42 43 44 45 46
DONOR_HYDROGENS      STATIC     ATOMS    <user>   **** ""
2 29 37
ATOM$BLUE        STATIC     ATOMS    COLORGROUP SYSTEM
5 42 43 44 45 46
ATOM$RED        STATIC     ATOMS    COLORGROUP SYSTEM
2 29 37
