AV-unprocessed.smi:109|AV-procd|sdf|1053|dock10
  -GOLD-   2262018113D 1   1.00000     0.00000
 Structure written by MMmdl.
 58 61  0  0  0  0  0  0  0  0  1 V2000
  153.3765  138.6219  155.1689 O   0  0  0  0  0  0  0  0  0  0  0  0
  152.0562  139.0687  155.3894 C   0  0  0  0  0  0  0  0  0  0  0  0
  151.9801  139.8427  156.7168 C   0  0  0  0  0  0  0  0  0  0  0  0
  150.7578  140.7869  156.8350 C   0  0  2  0  0  0  0  0  0  0  0  0
  150.3682  141.2535  155.5026 N   0  0  0  0  0  0  0  0  0  0  0  0
  149.1258  141.7112  155.2292 C   0  0  0  0  0  0  0  0  0  0  0  0
  148.7145  141.9393  153.9545 N   0  0  0  0  0  0  0  0  0  0  0  0
  147.4826  142.4019  153.7200 C   0  0  0  0  0  0  0  0  0  0  0  0
  146.5207  142.6966  154.5977 N   0  0  0  0  0  0  0  0  0  0  0  0
  146.9299  142.4654  155.8783 C   0  0  0  0  0  0  0  0  0  0  0  0
  148.2051  141.9775  156.2748 C   0  0  0  0  0  0  0  0  0  0  0  0
  148.2587  141.8731  157.6589 N   0  0  0  0  0  0  0  0  0  0  0  0
  147.0805  142.2777  158.0523 C   0  0  0  0  0  0  0  0  0  0  0  0
  146.2208  142.6569  157.0426 N   0  0  0  0  0  0  0  0  0  0  0  0
  144.8226  143.1746  157.1335 C   0  0  1  0  0  0  0  0  0  0  0  0
  144.3892  142.9916  158.4492 O   0  0  0  0  0  0  0  0  0  0  0  0
  144.0043  144.2326  159.0301 C   0  0  1  0  0  0  0  0  0  0  0  0
  144.2214  144.2229  160.5537 C   0  0  0  0  0  0  0  0  0  0  0  0
  143.6927  145.3975  161.1311 O   0  0  0  0  0  0  0  0  0  0  0  0
  144.7491  145.3045  158.2221 C   0  0  1  0  0  0  0  0  0  0  0  0
  146.0541  145.5317  158.7224 O   0  0  0  0  0  0  0  0  0  0  0  0
  144.8144  144.6830  156.8347 C   0  0  2  0  0  0  0  0  0  0  0  0
  143.6870  145.0439  156.0627 O   0  0  0  0  0  0  0  0  0  0  0  0
  151.0055  142.0175  157.7542 C   0  0  0  0  0  0  0  0  0  0  0  0
  151.7104  143.1929  157.0317 C   0  0  0  0  0  0  0  0  0  0  0  0
  151.9848  144.3800  157.9695 C   0  0  0  0  0  0  0  0  0  0  0  0
  152.8039  143.9517  159.1927 C   0  0  0  0  0  0  0  0  0  0  0  0
  152.1019  142.8099  159.9368 C   0  0  0  0  0  0  0  0  0  0  0  0
  151.8362  141.6199  159.0017 C   0  0  0  0  0  0  0  0  0  0  0  0
  144.2565  142.5666  156.4263 H   0  0  0  0  0  0  0  0  0  0  0  0
  142.9367  144.3374  158.8277 H   0  0  0  0  0  0  0  0  0  0  0  0
  144.2195  146.2582  158.2292 H   0  0  0  0  0  0  0  0  0  0  0  0
  145.7053  144.9831  156.2798 H   0  0  0  0  0  0  0  0  0  0  0  0
  153.4651  137.7543  155.5327 H   0  0  0  0  0  0  0  0  0  0  0  0
  151.7590  139.6950  154.5482 H   0  0  0  0  0  0  0  0  0  0  0  0
  151.3902  138.2056  155.4085 H   0  0  0  0  0  0  0  0  0  0  0  0
  151.9472  139.0971  157.5096 H   0  0  0  0  0  0  0  0  0  0  0  0
  152.8998  140.4105  156.8649 H   0  0  0  0  0  0  0  0  0  0  0  0
  149.9484  140.2188  157.2932 H   0  0  0  0  0  0  0  0  0  0  0  0
  151.0925  141.2056  154.8003 H   0  0  0  0  0  0  0  0  0  0  0  0
  147.2328  142.5600  152.6811 H   0  0  0  0  0  0  0  0  0  0  0  0
  146.8107  142.3138  159.0977 H   0  0  0  0  0  0  0  0  0  0  0  0
  143.7079  143.3683  160.9945 H   0  0  0  0  0  0  0  0  0  0  0  0
  145.2760  144.1242  160.8110 H   0  0  0  0  0  0  0  0  0  0  0  0
  143.0055  145.7250  160.5710 H   0  0  0  0  0  0  0  0  0  0  0  0
  146.6672  145.4497  158.0081 H   0  0  0  0  0  0  0  0  0  0  0  0
  142.9455  144.5379  156.3584 H   0  0  0  0  0  0  0  0  0  0  0  0
  150.0357  142.3802  158.0990 H   0  0  0  0  0  0  0  0  0  0  0  0
  152.6481  142.8478  156.5942 H   0  0  0  0  0  0  0  0  0  0  0  0
  151.1004  143.5647  156.2101 H   0  0  0  0  0  0  0  0  0  0  0  0
  152.5111  145.1666  157.4279 H   0  0  0  0  0  0  0  0  0  0  0  0
  151.0384  144.8121  158.2975 H   0  0  0  0  0  0  0  0  0  0  0  0
  153.7970  143.6301  158.8764 H   0  0  0  0  0  0  0  0  0  0  0  0
  152.9495  144.8006  159.8612 H   0  0  0  0  0  0  0  0  0  0  0  0
  152.7108  142.4889  160.7824 H   0  0  0  0  0  0  0  0  0  0  0  0
  151.1590  143.1669  160.3524 H   0  0  0  0  0  0  0  0  0  0  0  0
  151.3289  140.8429  159.5738 H   0  0  0  0  0  0  0  0  0  0  0  0
  152.7879  141.1905  158.6851 H   0  0  0  0  0  0  0  0  0  0  0  0
  1  2  1  0  0  0  0
  1 34  1  0  0  0  0
  2  3  1  0  0  0  0
  2 35  1  0  0  0  0
  2 36  1  0  0  0  0
  3  4  1  0  0  0  0
  3 37  1  0  0  0  0
  3 38  1  0  0  0  0
  4  5  1  0  0  0  0
  4 24  1  0  0  0  0
  4 39  1  0  0  0  0
  5  6  1  0  0  0  0
  5 40  1  0  0  0  0
  6 11  1  0  0  0  0
  6  7  2  0  0  0  0
  7  8  1  0  0  0  0
  8  9  2  0  0  0  0
  8 41  1  0  0  0  0
  9 10  1  0  0  0  0
 10 14  1  0  0  0  0
 10 11  2  0  0  0  0
 11 12  1  0  0  0  0
 12 13  2  0  0  0  0
 13 14  1  0  0  0  0
 13 42  1  0  0  0  0
 14 15  1  0  0  0  0
 15 30  1  0  0  0  0
 15 22  1  0  0  0  0
 15 16  1  0  0  0  0
 16 17  1  0  0  0  0
 17 31  1  0  0  0  0
 17 18  1  0  0  0  0
 17 20  1  0  0  0  0
 18 19  1  0  0  0  0
 18 43  1  0  0  0  0
 18 44  1  0  0  0  0
 19 45  1  0  0  0  0
 20 32  1  0  0  0  0
 20 21  1  0  0  0  0
 20 22  1  0  0  0  0
 21 46  1  0  0  0  0
 22 33  1  0  0  0  0
 22 23  1  0  0  0  0
 23 47  1  0  0  0  0
 24 29  1  0  0  0  0
 24 25  1  0  0  0  0
 24 48  1  0  0  0  0
 25 26  1  0  0  0  0
 25 49  1  0  0  0  0
 25 50  1  0  0  0  0
 26 27  1  0  0  0  0
 26 51  1  0  0  0  0
 26 52  1  0  0  0  0
 27 28  1  0  0  0  0
 27 53  1  0  0  0  0
 27 54  1  0  0  0  0
 28 29  1  0  0  0  0
 28 55  1  0  0  0  0
 28 56  1  0  0  0  0
 29 57  1  0  0  0  0
 29 58  1  0  0  0  0
M  END
> <s_m_source_file>
AV-unprocessed.smi

> <i_m_source_file_index>
109

> <i_lp_mmshare_version>
43012

> <i_f3d_flags>
0

> <s_epik_input>
W0NIMl0xW0NIMl1bQ0gyXVtDSDJdW0NIMl1bQ0hdMVtDQEhdKFtDSDJdW0NIMl1bT0hdKVtOSF1jKG5bY0hdbjIpYyhjMjMpbltjSF1uM1tDQEBIXTRPW0NASF0oW0NIMl1bT0hdKVtDQEBIXShbT0hdKVtDQEhdNFtPSF0=

> <s_epik_cmdline>
J2VwaWtfcHl0aG9uJywgJy1waCcsICc3LjAnLCAnLXRuJywgJzgnLCAnLW1hJywgJzIwMCcsICctbWV0YWxfYmluZGluZycsICctaW1hZScsICc8aW5maWxlLm1hZT4nLCAnLW9tYWUnLCAnPG91dGZpbGUubWFlPic=

> <r_lp_tautomer_probability>
1

> <r_epik_Ionization_Penalty>
0.000793976

> <r_epik_Ionization_Penalty_Charging>
0

> <r_epik_Ionization_Penalty_Neutral>
0.000793976

> <r_epik_State_Penalty>
-0

> <r_epik_Charging_Adjusted_Penalty>
0

> <i_epik_Tot_Q>
0

> <i_epik_Tot_abs_Q>
0

> <r_epik_Metal_State_Penalty>
-0

> <b_epik_Metal_Only>
0

> <s_epik_Chemistry_Notes>
This compound contains an acetal/aminal-like group ( X-CH(R)-Y where X, Y are N, S, or O) that may be acid/base labile, releasing an aldehyde.

> <s_lp_Force_Field>
OPLS_2005

> <r_lp_Energy>
46.6527

> <b_lp_Chiralities_Consistent>
1

> <s_lp_Variant>
AV-unprocessed.smi:109-23

> <Gold.Version>
5.8.1

> <Gold.Id.Protein>
6NUR|6NUR_protein|mol2

> <Gold.PLP.Fitness>
47.3018

> <Gold.PLP.PLP>
-43.4112

> <Gold.PLP.part.hbond>
-3.6950

> <Gold.PLP.part.metal>
0.0000

> <Gold.PLP.part.buried>
-6.2124

> <Gold.PLP.part.nonpolar>
-33.7712

> <Gold.PLP.part.repulsive>
0.6073

> <Gold.PLP.ligand.clash>
0.0000

> <Gold.PLP.ligand.torsion>
1.4563

> <Gold.PLP.Chemscore.Hbond>
2.2111

> <Gold.PLP.Chemscore.CHOScore>
0.0000

> <Gold.PLP.Chemscore.Metal>
0.0000

> <Gold.Chemscore.Hbonds>
donor molecule, donor type, donor heavy atom, donor atom, acceptor molecule, acceptor atom, score
      L1  H    21    46       P1  8029  0.84
      P1  H  7997  8009       L1     1  0.87
      P1  H  8011  8017       L1     7  0.45

> <Gold.PLP.Chemscore.Internal.Correction>
0.1698

> <Gold.Rescore>
     Score         DG    S(hbond)    S(metal)    S(lipo)     H(rot)  DE(clash)    DE(int)     intcor
      2.46      -8.46       1.62        0.00      98.82       5.47       1.98       4.03       ----

> <Gold.Chemscore.Fitness>
2.4586

> <Gold.Chemscore.DG>
-8.4646

> <Gold.Chemscore.ZeroCoef>
-5.4800

> <Gold.Chemscore.Hbond>
1.6216

> <Gold.Chemscore.Metal>
0.0000

> <Gold.Chemscore.Lipo>
98.8208

> <Gold.Chemscore.Internal_Hbond>
0.0000

> <Gold.Chemscore.DEClash>
1.9756

> <Gold.Chemscore.DEInternal>
4.0304

> <Gold.Chemscore.Rot>
5.4662

> <Gold.Chemscore.Internal.Correction>
   9.000000E+99

> <Gold.Chemscore.Hbonds>
donor molecule, donor type, donor heavy atom, donor atom, acceptor molecule, acceptor atom, score
      L1  H    21    46       P1  8029  0.76
      P1  H  7997  8009       L1     1  0.36
      P1  H  8011  8017       L1     7  0.22

> <Gold.Chemscore.Hbond.Weighted>
-5.4161

> <Gold.Chemscore.Metal.Weighted>
-0.0000

> <Gold.Chemscore.Lipo.Weighted>
-11.5620

> <Gold.Chemscore.Internal_Hbond.Weighted>
0.0000

> <Gold.Chemscore.DEClash.Weighted>
1.9756

> <Gold.Chemscore.DEInternal.Weighted>
4.0304

> <Gold.Chemscore.Rot.Weighted>
13.9935

> <Gold.Chemscore.Internal.Correction.Weighted>
   9.000000E+99

> <Gold.Protein.RotatedTorsions>
[ 6907 6896 6895 6894 ] final   82.11 input  -60.11 | X-H torsion
[ 7974 7965 7964 7962 ] final  170.28 input  175.53 | X-H torsion
[ 8008 7997 7996 7995 ] final -127.60 input   59.86 | X-H torsion
[ 10167 10162 10161 10158 ] final  -11.13 input  -65.29 | X-H torsion
[ 10718 10713 10712 10709 ] final  -24.38 input   66.30 | X-H torsion
[ 10763 10752 10751 10750 ] final  133.02 input  -60.55 | X-H torsion
[ 11005 11000 10999 10996 ] final  -33.76 input  -57.11 | X-H torsion

> <Gold.Protein.ActiveResidues>
 VAL166  LYS551  ARG553  GLY616  TRP617  ASP618  TYR619  PRO620  LYS621  CYS622 
 ASP623  PHE694  ASN695  SER759  ASP760  ASP761  ALA762  ILE779  LEU786  VAL792 
 PHE793  MET794  SER795  GLU796  ALA797  LYS798  CYS799  TRP800  GLU811  SER814 

> <Gold.Protein.RotatedAtoms>
  152.5289  134.3100  159.9109 H   0  0  0  0  0  0  0  0  0  0  0  0  # atno 6907 bound_to 6896
  151.3050  133.4099  159.2650 H   0  0  0  0  0  0  0  0  0  0  0  0  # atno 6908 bound_to 6896
  151.0087  134.9396  159.8052 H   0  0  0  0  0  0  0  0  0  0  0  0  # atno 6909 bound_to 6896
  144.7328  139.9179  143.6418 H   0  0  0  0  0  0  0  0  0  0  0  0  # atno 7974 bound_to 7965
  155.2489  140.0431  157.2984 H   0  0  0  0  0  0  0  0  0  0  0  0  # atno 8008 bound_to 7997
  154.5781  140.2393  155.8062 H   0  0  0  0  0  0  0  0  0  0  0  0  # atno 8009 bound_to 7997
  156.2173  140.2981  155.9877 H   0  0  0  0  0  0  0  0  0  0  0  0  # atno 8010 bound_to 7997
  140.7131  143.5673  150.9130 H   0  0  0  0  0  0  0  0  0  0  0  0  # atno 10167 bound_to 10162
  156.4784  130.4540  149.6826 H   0  0  0  0  0  0  0  0  0  0  0  0  # atno 10718 bound_to 10713
  153.8002  135.3143  155.3389 H   0  0  0  0  0  0  0  0  0  0  0  0  # atno 10763 bound_to 10752
  154.8092  135.4678  154.0474 H   0  0  0  0  0  0  0  0  0  0  0  0  # atno 10764 bound_to 10752
  153.1820  135.6895  153.8553 H   0  0  0  0  0  0  0  0  0  0  0  0  # atno 10765 bound_to 10752
  140.9661  133.7136  156.1447 H   0  0  0  0  0  0  0  0  0  0  0  0  # atno 11005 bound_to 11000
  146.0952  139.3944  143.0381 LP  0  0  0  0  0  0  0  0  0  0  0  0  # atno 17320 bound_to 7965
  145.7656  140.9918  143.1177 LP  0  0  0  0  0  0  0  0  0  0  0  0  # atno 17321 bound_to 7965
  139.9399  143.6394  152.3056 LP  0  0  0  0  0  0  0  0  0  0  0  0  # atno 17342 bound_to 10162
  139.6875  144.7650  151.1498 LP  0  0  0  0  0  0  0  0  0  0  0  0  # atno 17343 bound_to 10162
  156.3546  130.7450  151.2414 LP  0  0  0  0  0  0  0  0  0  0  0  0  # atno 17370 bound_to 10713
  157.7485  131.0367  150.4423 LP  0  0  0  0  0  0  0  0  0  0  0  0  # atno 17371 bound_to 10713
  140.7397  134.4163  157.5556 LP  0  0  0  0  0  0  0  0  0  0  0  0  # atno 17394 bound_to 11000
  139.8895  134.8829  156.2418 LP  0  0  0  0  0  0  0  0  0  0  0  0  # atno 17395 bound_to 11000

$$$$
