AV-unprocessed.smi:3241|AV-procd|sdf|12389|dock2
  -GOLD-   2272018253D 1   1.00000     0.00000
 Structure written by MMmdl.
 43 44  0  0  0  0  0  0  0  0  1 V2000
  151.4535  144.7564  158.8551 C   0  0  0  0  0  0  0  0  0  0  0  0
  151.6521  143.4164  159.5841 C   0  0  2  0  0  0  0  0  0  0  0  0
  152.8302  143.5026  160.5749 C   0  0  0  0  0  0  0  0  0  0  0  0
  153.0499  142.1741  161.3143 C   0  0  0  0  0  0  0  0  0  0  0  0
  153.2620  141.0201  160.3241 C   0  0  0  0  0  0  0  0  0  0  0  0
  152.0903  140.9179  159.3359 C   0  0  0  0  0  0  0  0  0  0  0  0
  151.8580  142.2496  158.5915 C   0  0  1  0  0  0  0  0  0  0  0  0
  150.6865  142.1603  157.7916 O   0  0  0  0  0  0  0  0  0  0  0  0
  150.9085  142.2251  156.3905 C   0  0  0  0  0  0  0  0  0  0  0  0
  151.1838  140.8015  155.8978 C   0  0  0  0  0  0  0  0  0  0  0  0
  150.2833  140.4631  154.8021 N   0  0  0  0  0  0  0  0  0  0  0  0
  148.8737  140.6907  155.1028 C   0  0  0  0  0  0  0  0  0  0  0  0
  148.1832  141.4816  153.9797 C   0  0  0  0  0  0  0  0  0  0  0  0
  147.0087  142.1938  154.4541 N   0  0  0  0  0  0  0  0  0  0  0  0
  146.1285  142.9713  153.7311 C   0  0  0  0  0  0  0  0  0  0  0  0
  145.1750  143.4206  154.5992 C   0  0  0  0  0  0  0  0  0  0  0  0
  145.5628  142.8590  155.8476 C   0  0  0  0  0  0  0  0  0  0  0  0
  146.6604  142.1256  155.7578 N   0  0  0  0  0  0  0  0  0  0  0  0
  152.3210  145.0093  158.2448 H   0  0  0  0  0  0  0  0  0  0  0  0
  151.2962  145.5698  159.5637 H   0  0  0  0  0  0  0  0  0  0  0  0
  150.5840  144.7258  158.1981 H   0  0  0  0  0  0  0  0  0  0  0  0
  150.7466  143.2160  160.1590 H   0  0  0  0  0  0  0  0  0  0  0  0
  153.7417  143.7752  160.0410 H   0  0  0  0  0  0  0  0  0  0  0  0
  152.6500  144.2967  161.3005 H   0  0  0  0  0  0  0  0  0  0  0  0
  153.9100  142.2563  161.9793 H   0  0  0  0  0  0  0  0  0  0  0  0
  152.1878  141.9603  161.9474 H   0  0  0  0  0  0  0  0  0  0  0  0
  154.1918  141.1742  159.7750 H   0  0  0  0  0  0  0  0  0  0  0  0
  153.3742  140.0808  160.8664 H   0  0  0  0  0  0  0  0  0  0  0  0
  152.2884  140.1134  158.6279 H   0  0  0  0  0  0  0  0  0  0  0  0
  151.1842  140.6385  159.8754 H   0  0  0  0  0  0  0  0  0  0  0  0
  152.7241  142.4778  157.9671 H   0  0  0  0  0  0  0  0  0  0  0  0
  150.0489  142.6480  155.8676 H   0  0  0  0  0  0  0  0  0  0  0  0
  151.7680  142.8617  156.1810 H   0  0  0  0  0  0  0  0  0  0  0  0
  152.2175  140.7208  155.5602 H   0  0  0  0  0  0  0  0  0  0  0  0
  151.0660  140.1004  156.7250 H   0  0  0  0  0  0  0  0  0  0  0  0
  150.5427  140.9925  153.9751 H   0  0  0  0  0  0  0  0  0  0  0  0
  148.3668  139.7354  155.2427 H   0  0  0  0  0  0  0  0  0  0  0  0
  148.7734  141.2371  156.0413 H   0  0  0  0  0  0  0  0  0  0  0  0
  148.8776  142.1895  153.5239 H   0  0  0  0  0  0  0  0  0  0  0  0
  147.8683  140.8003  153.1886 H   0  0  0  0  0  0  0  0  0  0  0  0
  146.2507  143.1343  152.6705 H   0  0  0  0  0  0  0  0  0  0  0  0
  144.3284  144.0529  154.3763 H   0  0  0  0  0  0  0  0  0  0  0  0
  145.0815  142.9590  156.8093 H   0  0  0  0  0  0  0  0  0  0  0  0
  1  2  1  0  0  0  0
  1 19  1  0  0  0  0
  1 20  1  0  0  0  0
  1 21  1  0  0  0  0
  2  7  1  0  0  0  0
  2  3  1  0  0  0  0
  2 22  1  0  0  0  0
  3  4  1  0  0  0  0
  3 23  1  0  0  0  0
  3 24  1  0  0  0  0
  4  5  1  0  0  0  0
  4 25  1  0  0  0  0
  4 26  1  0  0  0  0
  5  6  1  0  0  0  0
  5 27  1  0  0  0  0
  5 28  1  0  0  0  0
  6  7  1  0  0  0  0
  6 29  1  0  0  0  0
  6 30  1  0  0  0  0
  7  8  1  0  0  0  0
  7 31  1  0  0  0  0
  8  9  1  0  0  0  0
  9 10  1  0  0  0  0
  9 32  1  0  0  0  0
  9 33  1  0  0  0  0
 10 11  1  0  0  0  0
 10 34  1  0  0  0  0
 10 35  1  0  0  0  0
 11 12  1  0  0  0  0
 11 36  1  0  0  0  0
 12 13  1  0  0  0  0
 12 37  1  0  0  0  0
 12 38  1  0  0  0  0
 13 14  1  0  0  0  0
 13 39  1  0  0  0  0
 13 40  1  0  0  0  0
 14 18  1  0  0  0  0
 14 15  1  0  0  0  0
 15 16  2  0  0  0  0
 15 41  1  0  0  0  0
 16 17  1  0  0  0  0
 16 42  1  0  0  0  0
 17 18  2  0  0  0  0
 17 43  1  0  0  0  0
M  END
> <s_m_source_file>
AV-unprocessed.smi

> <i_m_source_file_index>
3241

> <i_lp_mmshare_version>
43012

> <i_f3d_flags>
0

> <s_epik_input>
W0NIM11bQ0BASF0xW0NIMl1bQ0gyXVtDSDJdW0NIMl1bQ0BIXTFPW0NIMl1bQ0gyXVtOSF1bQ0gyXVtDSDJdbjJbY0hdW2NIXVtjSF1uMg==

> <s_epik_cmdline>
J2VwaWtfcHl0aG9uJywgJy1waCcsICc3LjAnLCAnLXRuJywgJzgnLCAnLW1hJywgJzIwMCcsICctbWV0YWxfYmluZGluZycsICctaW1hZScsICc8aW5maWxlLm1hZT4nLCAnLW9tYWUnLCAnPG91dGZpbGUubWFlPic=

> <r_lp_tautomer_probability>
1

> <r_epik_Ionization_Penalty>
2.47055

> <r_epik_Ionization_Penalty_Charging>
0

> <r_epik_Ionization_Penalty_Neutral>
2.47055

> <r_epik_State_Penalty>
2.6322

> <r_epik_Charging_Adjusted_Penalty>
2.6322

> <i_epik_Tot_Q>
0

> <i_epik_Tot_abs_Q>
0

> <r_epik_Metal_State_Penalty>
2.63108

> <b_epik_Metal_Only>
0

> <s_lp_Force_Field>
OPLS_2005

> <r_lp_Energy>
15.2111

> <b_lp_Chiralities_Consistent>
1

> <s_lp_Variant>
AV-unprocessed.smi:3241-5

> <Gold.Version>
5.8.1

> <Gold.Id.Protein>
6NUR|6NUR_protein|mol2

> <Gold.PLP.Fitness>
41.8205

> <Gold.PLP.PLP>
-45.0859

> <Gold.PLP.part.hbond>
-1.0000

> <Gold.PLP.part.metal>
0.0000

> <Gold.PLP.part.buried>
-5.9788

> <Gold.PLP.part.nonpolar>
-36.7799

> <Gold.PLP.part.repulsive>
0.2279

> <Gold.PLP.ligand.clash>
0.0000

> <Gold.PLP.ligand.torsion>
1.7569

> <Gold.PLP.Chemscore.Hbond>
0.0000

> <Gold.PLP.Chemscore.CHOScore>
0.0000

> <Gold.PLP.Chemscore.Metal>
0.0000

> <Gold.PLP.Chemscore.Internal.Correction>
0.2485

> <Gold.Rescore>
     Score         DG    S(hbond)    S(metal)    S(lipo)     H(rot)  DE(clash)    DE(int)     intcor
     13.42     -15.15       0.00        0.00     121.84       1.79       0.06       1.67       ----

> <Gold.Chemscore.Fitness>
13.4199

> <Gold.Chemscore.DG>
-15.1531

> <Gold.Chemscore.ZeroCoef>
-5.4800

> <Gold.Chemscore.Hbond>
0.0000

> <Gold.Chemscore.Metal>
0.0000

> <Gold.Chemscore.Lipo>
121.8449

> <Gold.Chemscore.Internal_Hbond>
0.0000

> <Gold.Chemscore.DEClash>
0.0619

> <Gold.Chemscore.DEInternal>
1.6713

> <Gold.Chemscore.Rot>
1.7901

> <Gold.Chemscore.Internal.Correction>
   9.000000E+99

> <Gold.Chemscore.Hbond.Weighted>
-0.0000

> <Gold.Chemscore.Metal.Weighted>
-0.0000

> <Gold.Chemscore.Lipo.Weighted>
-14.2559

> <Gold.Chemscore.Internal_Hbond.Weighted>
0.0000

> <Gold.Chemscore.DEClash.Weighted>
0.0619

> <Gold.Chemscore.DEInternal.Weighted>
1.6713

> <Gold.Chemscore.Rot.Weighted>
4.5827

> <Gold.Chemscore.Internal.Correction.Weighted>
   9.000000E+99

> <Gold.Protein.RotatedTorsions>
[ 6907 6896 6895 6894 ] final  -41.90 input  -60.11 | X-H torsion
[ 7974 7965 7964 7962 ] final   25.00 input  175.53 | X-H torsion
[ 8008 7997 7996 7995 ] final -127.41 input   59.86 | X-H torsion
[ 10167 10162 10161 10158 ] final  -21.26 input  -65.29 | X-H torsion
[ 10718 10713 10712 10709 ] final   68.66 input   66.30 | X-H torsion
[ 10763 10752 10751 10750 ] final   26.24 input  -60.55 | X-H torsion
[ 11005 11000 10999 10996 ] final -164.22 input  -57.11 | X-H torsion

> <Gold.Protein.ActiveResidues>
 VAL166  LYS551  ARG553  GLY616  TRP617  ASP618  TYR619  PRO620  LYS621  CYS622 
 ASP623  PHE694  ASN695  SER759  ASP760  ASP761  ALA762  ILE779  LEU786  VAL792 
 PHE793  MET794  SER795  GLU796  ALA797  LYS798  CYS799  TRP800  GLU811  SER814 

> <Gold.Protein.RotatedAtoms>
  150.9613  134.9001  159.7732 H   0  0  0  0  0  0  0  0  0  0  0  0  # atno 6907 bound_to 6896
  152.5157  134.3668  159.9314 H   0  0  0  0  0  0  0  0  0  0  0  0  # atno 6908 bound_to 6896
  151.3680  133.3824  159.2731 H   0  0  0  0  0  0  0  0  0  0  0  0  # atno 6909 bound_to 6896
  146.1910  139.7527  142.8832 H   0  0  0  0  0  0  0  0  0  0  0  0  # atno 7974 bound_to 7965
  155.2456  140.0430  157.2980 H   0  0  0  0  0  0  0  0  0  0  0  0  # atno 8008 bound_to 7997
  154.5801  140.2398  155.8036 H   0  0  0  0  0  0  0  0  0  0  0  0  # atno 8009 bound_to 7997
  156.2186  140.2977  155.9907 H   0  0  0  0  0  0  0  0  0  0  0  0  # atno 8010 bound_to 7997
  140.7281  143.4645  151.0333 H   0  0  0  0  0  0  0  0  0  0  0  0  # atno 10167 bound_to 10162
  157.6302  130.9385  150.0408 H   0  0  0  0  0  0  0  0  0  0  0  0  # atno 10718 bound_to 10713
  153.0636  135.6564  154.0406 H   0  0  0  0  0  0  0  0  0  0  0  0  # atno 10763 bound_to 10752
  154.0068  135.2932  155.3398 H   0  0  0  0  0  0  0  0  0  0  0  0  # atno 10764 bound_to 10752
  154.6984  135.5254  153.8560 H   0  0  0  0  0  0  0  0  0  0  0  0  # atno 10765 bound_to 10752
  140.5893  134.5061  157.5190 H   0  0  0  0  0  0  0  0  0  0  0  0  # atno 11005 bound_to 11000
  145.3792  141.0355  143.3187 LP  0  0  0  0  0  0  0  0  0  0  0  0  # atno 17320 bound_to 7965
  144.8487  139.5356  143.6866 LP  0  0  0  0  0  0  0  0  0  0  0  0  # atno 17321 bound_to 7965
  139.8332  143.7663  152.3180 LP  0  0  0  0  0  0  0  0  0  0  0  0  # atno 17342 bound_to 10162
  139.7786  144.7452  151.0121 LP  0  0  0  0  0  0  0  0  0  0  0  0  # atno 17343 bound_to 10162
  156.1501  130.3642  149.9452 LP  0  0  0  0  0  0  0  0  0  0  0  0  # atno 17370 bound_to 10713
  156.7473  130.9102  151.3635 LP  0  0  0  0  0  0  0  0  0  0  0  0  # atno 17371 bound_to 10713
  139.9281  134.8016  156.1009 LP  0  0  0  0  0  0  0  0  0  0  0  0  # atno 17394 bound_to 11000
  141.0945  133.6701  156.2615 LP  0  0  0  0  0  0  0  0  0  0  0  0  # atno 17395 bound_to 11000

$$$$
