AV-unprocessed.smi:2251|AV-procd|sdf|9102|dock8
  -GOLD-   2272012303D 1   1.00000     0.00000
 Structure written by MMmdl.
 45 46  0  0  0  0  0  0  0  0  2 V2000
  147.4572  135.6011  162.5378 C   0  0  0  0  0  0  0  0  0  0  0  0
  147.5265  136.1344  161.1111 C   0  0  0  0  0  0  0  0  0  0  0  0
  147.2892  137.3202  160.8821 O   0  0  0  0  0  0  0  0  0  0  0  0
  147.8558  135.2469  160.1596 N   0  0  0  0  0  0  0  0  0  0  0  0
  147.9951  135.5548  158.7389 C   0  0  0  0  0  0  0  0  0  0  0  0
  148.9794  136.7009  158.4796 C   0  0  0  0  0  0  0  0  0  0  0  0
  150.1164  136.6713  158.9516 O   0  0  0  0  0  0  0  0  0  0  0  0
  148.5348  137.6983  157.7031 N   0  0  0  0  0  0  0  0  0  0  0  0
  149.3179  138.8764  157.3434 C   0  0  0  0  0  0  0  0  0  0  0  0
  149.7157  138.8893  155.8391 C   0  0  0  0  0  0  0  0  0  0  0  0
  148.4949  139.3549  155.0124 C   0  0  0  0  0  0  0  0  0  0  0  0
  147.2844  138.6184  155.0709 C   0  0  0  0  0  0  0  0  0  0  0  0
  146.1617  139.0401  154.3314 C   0  0  0  0  0  0  0  0  0  0  0  0
  146.2384  140.1500  153.5692 N   0  3  0  0  0  0  0  0  0  0  0  0
  147.3603  140.8935  153.4801 C   0  0  0  0  0  0  0  0  0  0  0  0
  148.5138  140.5192  154.1990 C   0  0  0  0  0  0  0  0  0  0  0  0
  150.9550  139.8130  155.6161 C   0  0  0  0  0  0  0  0  0  0  0  0
  152.2560  139.2951  156.2554 C   0  0  0  0  0  0  0  0  0  0  0  0
  152.5885  137.8811  155.7657 C   0  0  0  0  0  0  0  0  0  0  0  0
  151.4149  136.9267  156.0123 C   0  0  0  0  0  0  0  0  0  0  0  0
  150.1131  137.4553  155.3812 C   0  0  0  0  0  0  0  0  0  0  0  0
  146.8045  134.7291  162.5898 H   0  0  0  0  0  0  0  0  0  0  0  0
  147.0667  136.3602  163.2164 H   0  0  0  0  0  0  0  0  0  0  0  0
  148.4503  135.3122  162.8830 H   0  0  0  0  0  0  0  0  0  0  0  0
  148.0410  134.2948  160.4407 H   0  0  0  0  0  0  0  0  0  0  0  0
  148.3605  134.6637  158.2283 H   0  0  0  0  0  0  0  0  0  0  0  0
  147.0191  135.7851  158.3073 H   0  0  0  0  0  0  0  0  0  0  0  0
  147.5887  137.6475  157.3544 H   0  0  0  0  0  0  0  0  0  0  0  0
  148.7481  139.7639  157.6163 H   0  0  0  0  0  0  0  0  0  0  0  0
  150.2132  138.8988  157.9667 H   0  0  0  0  0  0  0  0  0  0  0  0
  147.2036  137.7331  155.6839 H   0  0  0  0  0  0  0  0  0  0  0  0
  145.2108  138.5275  154.3300 H   0  0  0  0  0  0  0  0  0  0  0  0
  147.3026  141.7636  152.8422 H   0  0  0  0  0  0  0  0  0  0  0  0
  149.3889  141.1435  154.1085 H   0  0  0  0  0  0  0  0  0  0  0  0
  151.1463  139.9067  154.5461 H   0  0  0  0  0  0  0  0  0  0  0  0
  150.7601  140.8219  155.9814 H   0  0  0  0  0  0  0  0  0  0  0  0
  153.0773  139.9681  156.0070 H   0  0  0  0  0  0  0  0  0  0  0  0
  152.1798  139.3065  157.3424 H   0  0  0  0  0  0  0  0  0  0  0  0
  152.8195  137.9080  154.7000 H   0  0  0  0  0  0  0  0  0  0  0  0
  153.4834  137.5118  156.2675 H   0  0  0  0  0  0  0  0  0  0  0  0
  151.6498  135.9456  155.5983 H   0  0  0  0  0  0  0  0  0  0  0  0
  151.2811  136.7750  157.0835 H   0  0  0  0  0  0  0  0  0  0  0  0
  149.3158  136.7435  155.5946 H   0  0  0  0  0  0  0  0  0  0  0  0
  150.2348  137.4499  154.2969 H   0  0  0  0  0  0  0  0  0  0  0  0
  145.4145  140.4398  153.0413 H   0  0  0  0  0  0  0  0  0  0  0  0
  1  2  1  0  0  0  0
  1 22  1  0  0  0  0
  1 23  1  0  0  0  0
  1 24  1  0  0  0  0
  2  3  2  0  0  0  0
  2  4  1  0  0  0  0
  4  5  1  0  0  0  0
  4 25  1  0  0  0  0
  5  6  1  0  0  0  0
  5 26  1  0  0  0  0
  5 27  1  0  0  0  0
  6  7  2  0  0  0  0
  6  8  1  0  0  0  0
  8  9  1  0  0  0  0
  8 28  1  0  0  0  0
  9 10  1  0  0  0  0
  9 29  1  0  0  0  0
  9 30  1  0  0  0  0
 10 21  1  0  0  0  0
 10 11  1  0  0  0  0
 10 17  1  0  0  0  0
 11 16  1  0  0  0  0
 11 12  2  0  0  0  0
 12 13  1  0  0  0  0
 12 31  1  0  0  0  0
 13 14  2  0  0  0  0
 13 32  1  0  0  0  0
 14 15  1  0  0  0  0
 14 45  1  0  0  0  0
 15 16  2  0  0  0  0
 15 33  1  0  0  0  0
 16 34  1  0  0  0  0
 17 18  1  0  0  0  0
 17 35  1  0  0  0  0
 17 36  1  0  0  0  0
 18 19  1  0  0  0  0
 18 37  1  0  0  0  0
 18 38  1  0  0  0  0
 19 20  1  0  0  0  0
 19 39  1  0  0  0  0
 19 40  1  0  0  0  0
 20 21  1  0  0  0  0
 20 41  1  0  0  0  0
 20 42  1  0  0  0  0
 21 43  1  0  0  0  0
 21 44  1  0  0  0  0
M  CHG  1  14   1
M  END
> <s_m_source_file>
AV-unprocessed.smi

> <i_m_source_file_index>
2251

> <i_lp_mmshare_version>
43012

> <i_f3d_flags>
0

> <s_epik_input>
W0NIM11DKD1PKVtOSF1bQ0gyXUMoPU8pW05IXVtDSDJdQzEoW0NIMl1bQ0gyXVtDSDJdW0NIMl1bQ0gyXTEpYzJbY0hdW2NIXW5bY0hdW2NIXTI=

> <s_epik_cmdline>
J2VwaWtfcHl0aG9uJywgJy1waCcsICc3LjAnLCAnLXRuJywgJzgnLCAnLW1hJywgJzIwMCcsICctbWV0YWxfYmluZGluZycsICctaW1hZScsICc8aW5maWxlLm1hZT4nLCAnLW9tYWUnLCAnPG91dGZpbGUubWFlPic=

> <r_epik_Ionization_Penalty>
1.36815

> <r_epik_Ionization_Penalty_Charging>
1.36815

> <r_epik_Ionization_Penalty_Neutral>
3.04412e-07

> <r_epik_State_Penalty>
1.44763

> <r_epik_Charging_Adjusted_Penalty>
2.81578

> <i_epik_Tot_Q>
1

> <i_epik_Tot_abs_Q>
1

> <r_epik_Metal_State_Penalty>
1.50443

> <b_epik_Metal_Only>
0

> <s_lp_Force_Field>
OPLS_2005

> <r_lp_Energy>
22.2864

> <b_lp_Chiralities_Consistent>
1

> <s_lp_Variant>
AV-unprocessed.smi:2251-2

> <Gold.Version>
5.8.1

> <Gold.Id.Protein>
6NUR|6NUR_protein|mol2

> <Gold.PLP.Fitness>
42.2847

> <Gold.PLP.PLP>
-28.7864

> <Gold.PLP.part.hbond>
-4.0000

> <Gold.PLP.part.metal>
0.0000

> <Gold.PLP.part.buried>
-3.2313

> <Gold.PLP.part.nonpolar>
-22.9134

> <Gold.PLP.part.repulsive>
0.1671

> <Gold.PLP.ligand.clash>
0.0000

> <Gold.PLP.ligand.torsion>
0.4133

> <Gold.PLP.Chemscore.Hbond>
4.7593

> <Gold.PLP.Chemscore.CHOScore>
0.0000

> <Gold.PLP.Chemscore.Metal>
0.0000

> <Gold.Chemscore.Hbonds>
donor molecule, donor type, donor heavy atom, donor atom, acceptor molecule, acceptor atom, score
      L1  H    14    45       P1 10175  2.00
      P1  H  6896  6908       L1     7  0.94
      P1  H  6931  6943       L1     3  0.38
      P1  H  6934  6947       L1     3  1.00

> <Gold.PLP.Chemscore.Internal.Correction>
0.0471

> <Gold.Rescore>
     Score         DG    S(hbond)    S(metal)    S(lipo)     H(rot)  DE(clash)    DE(int)     intcor
     17.33     -17.76       2.93        0.00      67.17       2.10       0.01       0.42       ----

> <Gold.Chemscore.Fitness>
17.3299

> <Gold.Chemscore.DG>
-17.7564

> <Gold.Chemscore.ZeroCoef>
-5.4800

> <Gold.Chemscore.Hbond>
2.9284

> <Gold.Chemscore.Metal>
0.0000

> <Gold.Chemscore.Lipo>
67.1708

> <Gold.Chemscore.Internal_Hbond>
0.0000

> <Gold.Chemscore.DEClash>
0.0056

> <Gold.Chemscore.DEInternal>
0.4209

> <Gold.Chemscore.Rot>
2.0952

> <Gold.Chemscore.Internal.Correction>
   9.000000E+99

> <Gold.Chemscore.Hbonds>
donor molecule, donor type, donor heavy atom, donor atom, acceptor molecule, acceptor atom, score
      L1  H    14    45       P1 10175  0.92
      P1  H  6896  6908       L1     7  0.89
      P1  H  6931  6943       L1     3  0.10
      P1  H  6934  6947       L1     3  0.99

> <Gold.Chemscore.Hbond.Weighted>
-9.7810

> <Gold.Chemscore.Metal.Weighted>
-0.0000

> <Gold.Chemscore.Lipo.Weighted>
-7.8590

> <Gold.Chemscore.Internal_Hbond.Weighted>
0.0000

> <Gold.Chemscore.DEClash.Weighted>
0.0056

> <Gold.Chemscore.DEInternal.Weighted>
0.4209

> <Gold.Chemscore.Rot.Weighted>
5.3636

> <Gold.Chemscore.Internal.Correction.Weighted>
   9.000000E+99

> <Gold.Protein.RotatedTorsions>
[ 6907 6896 6895 6894 ] final -159.66 input  -60.11 | X-H torsion
[ 7974 7965 7964 7962 ] final  177.68 input  175.53 | X-H torsion
[ 8008 7997 7996 7995 ] final  145.03 input   59.86 | X-H torsion
[ 10167 10162 10161 10158 ] final   -2.98 input  -65.29 | X-H torsion
[ 10718 10713 10712 10709 ] final   32.57 input   66.30 | X-H torsion
[ 10763 10752 10751 10750 ] final   14.44 input  -60.55 | X-H torsion
[ 11005 11000 10999 10996 ] final  111.56 input  -57.11 | X-H torsion

> <Gold.Protein.ActiveResidues>
 VAL166  LYS551  ARG553  GLY616  TRP617  ASP618  TYR619  PRO620  LYS621  CYS622 
 ASP623  PHE694  ASN695  SER759  ASP760  ASP761  ALA762  ILE779  LEU786  VAL792 
 PHE793  MET794  SER795  GLU796  ALA797  LYS798  CYS799  TRP800  GLU811  SER814 

> <Gold.Protein.RotatedAtoms>
  151.3371  133.3977  159.2667 H   0  0  0  0  0  0  0  0  0  0  0  0  # atno 6907 bound_to 6896
  150.9908  134.9244  159.7909 H   0  0  0  0  0  0  0  0  0  0  0  0  # atno 6908 bound_to 6896
  152.5246  134.3336  159.9244 H   0  0  0  0  0  0  0  0  0  0  0  0  # atno 6909 bound_to 6896
  144.7166  140.0283  143.6439 H   0  0  0  0  0  0  0  0  0  0  0  0  # atno 7974 bound_to 7965
  156.2893  140.2220  156.5149 H   0  0  0  0  0  0  0  0  0  0  0  0  # atno 8008 bound_to 7997
  154.7577  140.0475  157.0969 H   0  0  0  0  0  0  0  0  0  0  0  0  # atno 8009 bound_to 7997
  155.0029  140.3104  155.4863 H   0  0  0  0  0  0  0  0  0  0  0  0  # atno 8010 bound_to 7997
  140.6872  143.6593  150.8281 H   0  0  0  0  0  0  0  0  0  0  0  0  # atno 10167 bound_to 10162
  157.2869  130.7283  149.6588 H   0  0  0  0  0  0  0  0  0  0  0  0  # atno 10718 bound_to 10713
  153.1622  135.6798  153.8727 H   0  0  0  0  0  0  0  0  0  0  0  0  # atno 10763 bound_to 10752
  153.8118  135.3142  155.3402 H   0  0  0  0  0  0  0  0  0  0  0  0  # atno 10764 bound_to 10752
  154.7940  135.4818  154.0207 H   0  0  0  0  0  0  0  0  0  0  0  0  # atno 10765 bound_to 10752
  139.8906  134.9510  156.6451 H   0  0  0  0  0  0  0  0  0  0  0  0  # atno 11005 bound_to 11000
  146.0123  139.3180  143.0863 LP  0  0  0  0  0  0  0  0  0  0  0  0  # atno 17320 bound_to 7965
  145.8667  140.9444  143.0672 LP  0  0  0  0  0  0  0  0  0  0  0  0  # atno 17321 bound_to 7965
  140.0301  143.5452  152.2763 LP  0  0  0  0  0  0  0  0  0  0  0  0  # atno 17342 bound_to 10162
  139.6242  144.7634  151.2675 LP  0  0  0  0  0  0  0  0  0  0  0  0  # atno 17343 bound_to 10162
  155.9666  130.4321  150.4948 LP  0  0  0  0  0  0  0  0  0  0  0  0  # atno 17370 bound_to 10713
  157.2903  131.0625  151.2138 LP  0  0  0  0  0  0  0  0  0  0  0  0  # atno 17371 bound_to 10713
  140.7564  133.8854  155.8385 LP  0  0  0  0  0  0  0  0  0  0  0  0  # atno 17394 bound_to 11000
  140.9958  134.1217  157.4364 LP  0  0  0  0  0  0  0  0  0  0  0  0  # atno 17395 bound_to 11000

$$$$
