AV-unprocessed.smi:2923|AV-procd|sdf|11215|dock3
  -GOLD-   2272016103D 1   1.00000     0.00000
 Structure written by MMmdl.
 46 48  0  0  0  0  0  0  0  0  1 V2000
  143.8002  132.4357  149.6030 C   0  0  0  0  0  0  0  0  0  0  0  0
  144.5557  132.7291  150.8149 N   0  0  0  0  0  0  0  0  0  0  0  0
  145.2163  131.6479  151.5389 C   0  0  0  0  0  0  0  0  0  0  0  0
  144.7146  134.0654  151.2481 C   0  0  0  0  0  0  0  0  0  0  0  0
  144.2617  135.1560  150.4645 C   0  0  0  0  0  0  0  0  0  0  0  0
  144.4455  136.4697  150.9364 C   0  0  0  0  0  0  0  0  0  0  0  0
  145.0717  136.6677  152.1884 C   0  0  0  0  0  0  0  0  0  0  0  0
  145.3371  137.9411  152.7606 N   0  0  0  0  0  0  0  0  0  0  0  0
  146.3521  138.3034  153.5632 C   0  0  0  0  0  0  0  0  0  0  0  0
  147.2931  137.5821  153.8935 O   0  0  0  0  0  0  0  0  0  0  0  0
  146.2248  139.5765  153.9597 N   0  0  0  0  0  0  0  0  0  0  0  0
  147.1668  140.2638  154.8376 C   0  0  1  0  0  0  0  0  0  0  0  0
  148.4859  140.6099  154.1298 C   0  0  2  0  0  0  0  0  0  0  0  0
  149.7680  139.9610  154.5754 C   0  0  0  0  0  0  0  0  0  0  0  0
  150.3559  140.9944  155.5405 C   0  0  0  0  0  0  0  0  0  0  0  0
  149.2377  141.7750  155.9569 O   0  0  0  0  0  0  0  0  0  0  0  0
  148.4000  141.9634  154.8189 C   0  0  2  0  0  0  0  0  0  0  0  0
  146.8837  141.7753  155.0358 C   0  0  0  0  0  0  0  0  0  0  0  0
  146.0076  142.4775  153.9883 C   0  0  0  0  0  0  0  0  0  0  0  0
  146.3461  142.1868  156.4071 C   0  0  0  0  0  0  0  0  0  0  0  0
  145.4977  135.5243  152.8914 C   0  0  0  0  0  0  0  0  0  0  0  0
  145.3235  134.2638  152.4429 N   0  0  0  0  0  0  0  0  0  0  0  0
  144.2478  132.9331  148.7421 H   0  0  0  0  0  0  0  0  0  0  0  0
  142.7682  132.7720  149.7049 H   0  0  0  0  0  0  0  0  0  0  0  0
  143.7814  131.3657  149.3957 H   0  0  0  0  0  0  0  0  0  0  0  0
  146.2972  131.7921  151.5388 H   0  0  0  0  0  0  0  0  0  0  0  0
  145.0085  130.6791  151.0845 H   0  0  0  0  0  0  0  0  0  0  0  0
  144.8713  131.6121  152.5728 H   0  0  0  0  0  0  0  0  0  0  0  0
  143.7823  135.0136  149.5079 H   0  0  0  0  0  0  0  0  0  0  0  0
  144.1168  137.2930  150.3218 H   0  0  0  0  0  0  0  0  0  0  0  0
  144.6909  138.6728  152.5036 H   0  0  0  0  0  0  0  0  0  0  0  0
  145.4256  140.1035  153.6398 H   0  0  0  0  0  0  0  0  0  0  0  0
  147.3405  139.7481  155.7849 H   0  0  0  0  0  0  0  0  0  0  0  0
  148.3734  140.7044  153.0481 H   0  0  0  0  0  0  0  0  0  0  0  0
  149.5701  139.0191  155.0880 H   0  0  0  0  0  0  0  0  0  0  0  0
  150.4453  139.7558  153.7460 H   0  0  0  0  0  0  0  0  0  0  0  0
  150.8661  140.5371  156.3886 H   0  0  0  0  0  0  0  0  0  0  0  0
  151.0658  141.6412  155.0229 H   0  0  0  0  0  0  0  0  0  0  0  0
  148.6978  142.8040  154.1900 H   0  0  0  0  0  0  0  0  0  0  0  0
  146.0583  143.5619  154.0905 H   0  0  0  0  0  0  0  0  0  0  0  0
  144.9594  142.1903  154.0804 H   0  0  0  0  0  0  0  0  0  0  0  0
  146.3213  142.2387  152.9717 H   0  0  0  0  0  0  0  0  0  0  0  0
  146.4276  143.2628  156.5629 H   0  0  0  0  0  0  0  0  0  0  0  0
  146.8931  141.7013  157.2158 H   0  0  0  0  0  0  0  0  0  0  0  0
  145.2969  141.9136  156.5233 H   0  0  0  0  0  0  0  0  0  0  0  0
  145.9933  135.6204  153.8466 H   0  0  0  0  0  0  0  0  0  0  0  0
  1  2  1  0  0  0  0
  1 23  1  0  0  0  0
  1 24  1  0  0  0  0
  1 25  1  0  0  0  0
  2  3  1  0  0  0  0
  2  4  1  0  0  0  0
  3 26  1  0  0  0  0
  3 27  1  0  0  0  0
  3 28  1  0  0  0  0
  4 22  1  0  0  0  0
  4  5  2  0  0  0  0
  5  6  1  0  0  0  0
  5 29  1  0  0  0  0
  6  7  2  0  0  0  0
  6 30  1  0  0  0  0
  7  8  1  0  0  0  0
  7 21  1  0  0  0  0
  8  9  1  0  0  0  0
  8 31  1  0  0  0  0
  9 10  2  0  0  0  0
  9 11  1  0  0  0  0
 11 12  1  0  0  0  0
 11 32  1  0  0  0  0
 12 18  1  0  0  0  0
 12 13  1  0  0  0  0
 12 33  1  0  0  0  0
 13 17  1  0  0  0  0
 13 14  1  0  0  0  0
 13 34  1  0  0  0  0
 14 15  1  0  0  0  0
 14 35  1  0  0  0  0
 14 36  1  0  0  0  0
 15 16  1  0  0  0  0
 15 37  1  0  0  0  0
 15 38  1  0  0  0  0
 16 17  1  0  0  0  0
 17 18  1  0  0  0  0
 17 39  1  0  0  0  0
 18 19  1  0  0  0  0
 18 20  1  0  0  0  0
 19 40  1  0  0  0  0
 19 41  1  0  0  0  0
 19 42  1  0  0  0  0
 20 43  1  0  0  0  0
 20 44  1  0  0  0  0
 20 45  1  0  0  0  0
 21 22  2  0  0  0  0
 21 46  1  0  0  0  0
M  END
> <s_m_source_file>
AV-unprocessed.smi

> <i_m_source_file_index>
2923

> <i_lp_mmshare_version>
43012

> <i_f3d_flags>
0

> <s_epik_input>
W0NIM11OKFtDSDNdKWMxW2NIXVtjSF1jKFtjSF1uMSlbTkhdQyg9TylbTkhdW0NASF0yQyhbQ0gzXSkoW0NIM10pW0NAQEhdKFtDQEhdMjMpT1tDSDJdW0NIMl0z

> <s_epik_cmdline>
J2VwaWtfcHl0aG9uJywgJy1waCcsICc3LjAnLCAnLXRuJywgJzgnLCAnLW1hJywgJzIwMCcsICctbWV0YWxfYmluZGluZycsICctaW1hZScsICc8aW5maWxlLm1hZT4nLCAnLW9tYWUnLCAnPG91dGZpbGUubWFlPic=

> <r_lp_tautomer_probability>
1

> <r_epik_Ionization_Penalty>
0.628785

> <r_epik_Ionization_Penalty_Charging>
0

> <r_epik_Ionization_Penalty_Neutral>
0.628785

> <r_epik_State_Penalty>
0.644286

> <r_epik_Charging_Adjusted_Penalty>
0.644286

> <i_epik_Tot_Q>
0

> <i_epik_Tot_abs_Q>
0

> <r_epik_Metal_State_Penalty>
0.308404

> <b_epik_Metal_Only>
0

> <s_lp_Force_Field>
OPLS_2005

> <r_lp_Energy>
39.1675

> <b_lp_Chiralities_Consistent>
1

> <s_lp_Variant>
AV-unprocessed.smi:2923-14

> <Gold.Version>
5.8.1

> <Gold.Id.Protein>
6NUR|6NUR_protein|mol2

> <Gold.PLP.Fitness>
39.3105

> <Gold.PLP.PLP>
-33.8892

> <Gold.PLP.part.hbond>
-2.4861

> <Gold.PLP.part.metal>
0.0000

> <Gold.PLP.part.buried>
1.6945

> <Gold.PLP.part.nonpolar>
-35.1177

> <Gold.PLP.part.repulsive>
2.4003

> <Gold.PLP.ligand.clash>
0.0000

> <Gold.PLP.ligand.torsion>
0.3172

> <Gold.PLP.Chemscore.Hbond>
1.9588

> <Gold.PLP.Chemscore.CHOScore>
0.0000

> <Gold.PLP.Chemscore.Metal>
0.0000

> <Gold.Chemscore.Hbonds>
donor molecule, donor type, donor heavy atom, donor atom, acceptor molecule, acceptor atom, score
      L1  H     8    31       P1 10175  0.96
      L1  H    11    32       P1 10175  0.75

> <Gold.PLP.Chemscore.Internal.Correction>
0.1795

> <Gold.Rescore>
     Score         DG    S(hbond)    S(metal)    S(lipo)     H(rot)  DE(clash)    DE(int)     intcor
     15.95     -19.53       1.92        0.00      87.19       1.00       1.99       1.59       ----

> <Gold.Chemscore.Fitness>
15.9547

> <Gold.Chemscore.DG>
-19.5326

> <Gold.Chemscore.ZeroCoef>
-5.4800

> <Gold.Chemscore.Hbond>
1.9195

> <Gold.Chemscore.Metal>
0.0000

> <Gold.Chemscore.Lipo>
87.1920

> <Gold.Chemscore.Internal_Hbond>
0.0000

> <Gold.Chemscore.DEClash>
1.9877

> <Gold.Chemscore.DEInternal>
1.5902

> <Gold.Chemscore.Rot>
1.0000

> <Gold.Chemscore.Internal.Correction>
   9.000000E+99

> <Gold.Chemscore.Hbonds>
donor molecule, donor type, donor heavy atom, donor atom, acceptor molecule, acceptor atom, score
      L1  H     8    31       P1 10175  0.91
      L1  H    11    32       P1 10175  0.74

> <Gold.Chemscore.Hbond.Weighted>
-6.4111

> <Gold.Chemscore.Metal.Weighted>
-0.0000

> <Gold.Chemscore.Lipo.Weighted>
-10.2015

> <Gold.Chemscore.Internal_Hbond.Weighted>
0.0000

> <Gold.Chemscore.DEClash.Weighted>
1.9877

> <Gold.Chemscore.DEInternal.Weighted>
1.5902

> <Gold.Chemscore.Rot.Weighted>
2.5600

> <Gold.Chemscore.Internal.Correction.Weighted>
   9.000000E+99

> <Gold.Protein.RotatedTorsions>
[ 6907 6896 6895 6894 ] final  157.48 input  -60.11 | X-H torsion
[ 7974 7965 7964 7962 ] final  -12.79 input  175.53 | X-H torsion
[ 8008 7997 7996 7995 ] final   66.08 input   59.86 | X-H torsion
[ 10167 10162 10161 10158 ] final  124.24 input  -65.29 | X-H torsion
[ 10718 10713 10712 10709 ] final  -93.96 input   66.30 | X-H torsion
[ 10763 10752 10751 10750 ] final    3.96 input  -60.55 | X-H torsion
[ 11005 11000 10999 10996 ] final  107.43 input  -57.11 | X-H torsion

> <Gold.Protein.ActiveResidues>
 VAL166  LYS551  ARG553  GLY616  TRP617  ASP618  TYR619  PRO620  LYS621  CYS622 
 ASP623  PHE694  ASN695  SER759  ASP760  ASP761  ALA762  ILE779  LEU786  VAL792 
 PHE793  MET794  SER795  GLU796  ALA797  LYS798  CYS799  TRP800  GLU811  SER814 

> <Gold.Protein.RotatedAtoms>
  152.0145  133.3874  159.4232 H   0  0  0  0  0  0  0  0  0  0  0  0  # atno 6907 bound_to 6896
  150.6896  134.3694  159.4994 H   0  0  0  0  0  0  0  0  0  0  0  0  # atno 6908 bound_to 6896
  152.1459  134.9026  160.0601 H   0  0  0  0  0  0  0  0  0  0  0  0  # atno 6909 bound_to 6896
  146.2139  140.3108  142.8382 H   0  0  0  0  0  0  0  0  0  0  0  0  # atno 7974 bound_to 7965
  155.6718  140.3497  155.4821 H   0  0  0  0  0  0  0  0  0  0  0  0  # atno 8008 bound_to 7997
  155.9681  140.1150  157.0859 H   0  0  0  0  0  0  0  0  0  0  0  0  # atno 8009 bound_to 7997
  154.4159  140.1162  156.5256 H   0  0  0  0  0  0  0  0  0  0  0  0  # atno 8010 bound_to 7997
  139.5753  144.6960  151.3670 H   0  0  0  0  0  0  0  0  0  0  0  0  # atno 10167 bound_to 10162
  156.0020  130.5048  150.5854 H   0  0  0  0  0  0  0  0  0  0  0  0  # atno 10718 bound_to 10713
  153.2770  135.6937  153.7423 H   0  0  0  0  0  0  0  0  0  0  0  0  # atno 10763 bound_to 10752
  153.6425  135.3391  155.3076 H   0  0  0  0  0  0  0  0  0  0  0  0  # atno 10764 bound_to 10752
  154.8483  135.4435  154.1811 H   0  0  0  0  0  0  0  0  0  0  0  0  # atno 10765 bound_to 10752
  139.8828  134.9400  156.5818 H   0  0  0  0  0  0  0  0  0  0  0  0  # atno 11005 bound_to 11000
  144.8989  140.7618  143.5879 LP  0  0  0  0  0  0  0  0  0  0  0  0  # atno 17320 bound_to 7965
  145.3033  139.1843  143.4677 LP  0  0  0  0  0  0  0  0  0  0  0  0  # atno 17321 bound_to 7965
  140.7036  143.7570  150.7444 LP  0  0  0  0  0  0  0  0  0  0  0  0  # atno 17342 bound_to 10162
  140.1088  143.4718  152.2382 LP  0  0  0  0  0  0  0  0  0  0  0  0  # atno 17343 bound_to 10162
  157.3727  131.0768  151.1544 LP  0  0  0  0  0  0  0  0  0  0  0  0  # atno 17370 bound_to 10713
  157.2292  130.6517  149.5842 LP  0  0  0  0  0  0  0  0  0  0  0  0  # atno 17371 bound_to 10713
  140.8021  133.8497  155.8736 LP  0  0  0  0  0  0  0  0  0  0  0  0  # atno 17394 bound_to 11000
  140.9583  134.1689  157.4674 LP  0  0  0  0  0  0  0  0  0  0  0  0  # atno 17395 bound_to 11000

$$$$
