AV-unprocessed.smi:527|AV-procd|sdf|2817|dock10
  -GOLD-   2262023293D 1   1.00000     0.00000
 Structure written by MMmdl.
 42 43  0  0  0  0  0  0  0  0  1 V2000
  153.0753  142.1555  161.4613 C   0  0  0  0  0  0  0  0  0  0  0  0
  152.8825  142.4568  159.9634 C   0  0  2  0  0  0  0  0  0  0  0  0
  152.1029  143.7767  159.8007 C   0  0  0  0  0  0  0  0  0  0  0  0
  151.9168  144.1488  158.3263 C   0  0  0  0  0  0  0  0  0  0  0  0
  151.1928  143.0269  157.5770 C   0  0  0  0  0  0  0  0  0  0  0  0
  151.9436  141.6880  157.7067 C   0  0  2  0  0  0  0  0  0  0  0  0
  151.1763  140.6484  157.0216 N   0  0  0  0  0  0  0  0  0  0  0  0
  151.6912  139.6761  156.2541 C   0  0  0  0  0  0  0  0  0  0  0  0
  152.8450  139.6942  155.8195 O   0  0  0  0  0  0  0  0  0  0  0  0
  150.7829  138.7065  156.0311 N   0  0  0  0  0  0  0  0  0  0  0  0
  150.8883  137.6590  155.1882 C   0  0  0  0  0  0  0  0  0  0  0  0
  151.8746  137.4136  154.4884 O   0  0  0  0  0  0  0  0  0  0  0  0
  149.6584  136.7423  155.1478 C   0  0  0  0  0  0  0  0  0  0  0  0
  150.0028  135.3307  155.1291 N   0  0  0  0  0  0  0  0  0  0  0  0
  149.5604  134.3709  154.2273 C   0  0  0  0  0  0  0  0  0  0  0  0
  150.1493  133.1829  154.5974 C   0  0  0  0  0  0  0  0  0  0  0  0
  150.9530  133.3865  155.7167 N   0  0  0  0  0  0  0  0  0  0  0  0
  150.8180  134.6815  155.9722 C   0  0  0  0  0  0  0  0  0  0  0  0
  152.1898  141.2984  159.1899 C   0  0  1  0  0  0  0  0  0  0  0  0
  152.9881  139.9798  159.2888 C   0  0  0  0  0  0  0  0  0  0  0  0
  152.1281  141.9075  161.9415 H   0  0  0  0  0  0  0  0  0  0  0  0
  153.4938  143.0174  161.9820 H   0  0  0  0  0  0  0  0  0  0  0  0
  153.7644  141.3279  161.6255 H   0  0  0  0  0  0  0  0  0  0  0  0
  153.8729  142.6062  159.5307 H   0  0  0  0  0  0  0  0  0  0  0  0
  151.1265  143.6900  160.2796 H   0  0  0  0  0  0  0  0  0  0  0  0
  152.6258  144.5858  160.3120 H   0  0  0  0  0  0  0  0  0  0  0  0
  151.3499  145.0767  158.2445 H   0  0  0  0  0  0  0  0  0  0  0  0
  152.8877  144.3351  157.8654 H   0  0  0  0  0  0  0  0  0  0  0  0
  150.1801  142.9248  157.9702 H   0  0  0  0  0  0  0  0  0  0  0  0
  151.0901  143.2994  156.5258 H   0  0  0  0  0  0  0  0  0  0  0  0
  152.9188  141.7964  157.2274 H   0  0  0  0  0  0  0  0  0  0  0  0
  150.1743  140.6780  157.1406 H   0  0  0  0  0  0  0  0  0  0  0  0
  149.9212  138.7732  156.5520 H   0  0  0  0  0  0  0  0  0  0  0  0
  149.0301  136.9398  156.0174 H   0  0  0  0  0  0  0  0  0  0  0  0
  149.0633  136.9653  154.2610 H   0  0  0  0  0  0  0  0  0  0  0  0
  148.8845  134.6068  153.4184 H   0  0  0  0  0  0  0  0  0  0  0  0
  150.0576  132.2055  154.1471 H   0  0  0  0  0  0  0  0  0  0  0  0
  151.3244  135.1699  156.7919 H   0  0  0  0  0  0  0  0  0  0  0  0
  151.2169  141.1272  159.6535 H   0  0  0  0  0  0  0  0  0  0  0  0
  153.9956  140.0982  158.8891 H   0  0  0  0  0  0  0  0  0  0  0  0
  152.5091  139.1709  158.7375 H   0  0  0  0  0  0  0  0  0  0  0  0
  153.0754  139.6346  160.3181 H   0  0  0  0  0  0  0  0  0  0  0  0
  1  2  1  0  0  0  0
  1 21  1  0  0  0  0
  1 22  1  0  0  0  0
  1 23  1  0  0  0  0
  2 19  1  0  0  0  0
  2  3  1  0  0  0  0
  2 24  1  0  0  0  0
  3  4  1  0  0  0  0
  3 25  1  0  0  0  0
  3 26  1  0  0  0  0
  4  5  1  0  0  0  0
  4 27  1  0  0  0  0
  4 28  1  0  0  0  0
  5  6  1  0  0  0  0
  5 29  1  0  0  0  0
  5 30  1  0  0  0  0
  6  7  1  0  0  0  0
  6 19  1  0  0  0  0
  6 31  1  0  0  0  0
  7  8  1  0  0  0  0
  7 32  1  0  0  0  0
  8  9  2  0  0  0  0
  8 10  1  0  0  0  0
 10 11  1  0  0  0  0
 10 33  1  0  0  0  0
 11 12  2  0  0  0  0
 11 13  1  0  0  0  0
 13 14  1  0  0  0  0
 13 34  1  0  0  0  0
 13 35  1  0  0  0  0
 14 18  1  0  0  0  0
 14 15  1  0  0  0  0
 15 16  2  0  0  0  0
 15 36  1  0  0  0  0
 16 17  1  0  0  0  0
 16 37  1  0  0  0  0
 17 18  2  0  0  0  0
 18 38  1  0  0  0  0
 19 20  1  0  0  0  0
 19 39  1  0  0  0  0
 20 40  1  0  0  0  0
 20 41  1  0  0  0  0
 20 42  1  0  0  0  0
M  END
> <s_m_source_file>
AV-unprocessed.smi

> <i_m_source_file_index>
527

> <i_lp_mmshare_version>
43012

> <i_f3d_flags>
0

> <s_epik_input>
W0NIM11bQ0BASF0xW0NIMl1bQ0gyXVtDSDJdW0NASF0oW0NASF0xW0NIM10pW05IXUMoPU8pW05IXUMoPU8pW0NIMl1uMltjSF1bY0hdbltjSF0y

> <s_epik_cmdline>
J2VwaWtfcHl0aG9uJywgJy1waCcsICc3LjAnLCAnLXRuJywgJzgnLCAnLW1hJywgJzIwMCcsICctbWV0YWxfYmluZGluZycsICctaW1hZScsICc8aW5maWxlLm1hZT4nLCAnLW9tYWUnLCAnPG91dGZpbGUubWFlPic=

> <r_lp_tautomer_probability>
1

> <r_epik_Ionization_Penalty>
0.172132

> <r_epik_Ionization_Penalty_Charging>
0.172105

> <r_epik_Ionization_Penalty_Neutral>
2.71747e-05

> <r_epik_State_Penalty>
0.161503

> <r_epik_Charging_Adjusted_Penalty>
0.333607

> <i_epik_Tot_Q>
0

> <i_epik_Tot_abs_Q>
0

> <r_epik_Metal_State_Penalty>
0.124763

> <b_epik_Metal_Only>
0

> <s_lp_Force_Field>
OPLS_2005

> <r_lp_Energy>
15.8984

> <b_lp_Chiralities_Consistent>
1

> <s_lp_Variant>
AV-unprocessed.smi:527-3

> <Gold.Version>
5.8.1

> <Gold.Id.Protein>
6NUR|6NUR_protein|mol2

> <Gold.PLP.Fitness>
47.4820

> <Gold.PLP.PLP>
-39.8567

> <Gold.PLP.part.hbond>
-2.0000

> <Gold.PLP.part.metal>
0.0000

> <Gold.PLP.part.buried>
-6.3728

> <Gold.PLP.part.nonpolar>
-32.1498

> <Gold.PLP.part.repulsive>
0.2175

> <Gold.PLP.ligand.clash>
0.0000

> <Gold.PLP.ligand.torsion>
0.6606

> <Gold.PLP.Chemscore.Hbond>
1.9760

> <Gold.PLP.Chemscore.CHOScore>
1.0000

> <Gold.PLP.Chemscore.Metal>
0.0000

> <Gold.Chemscore.Hbonds>
donor molecule, donor type, donor heavy atom, donor atom, acceptor molecule, acceptor atom, score
      P1  H  7997  8009       L1     9  1.00
      P1  H 10752 10763       L1    12  0.84
      L1  C    15    36       P1  7948  0.92

> <Gold.PLP.Chemscore.Internal.Correction>
0.0185

> <Gold.Rescore>
     Score         DG    S(hbond)    S(metal)    S(lipo)     H(rot)  DE(clash)    DE(int)     intcor
     19.73     -21.35       2.76        0.00      93.24       1.66       0.01       1.61       ----

> <Gold.Chemscore.Fitness>
19.7304

> <Gold.Chemscore.DG>
-21.3495

> <Gold.Chemscore.ZeroCoef>
-5.4800

> <Gold.Chemscore.Hbond>
2.7597

> <Gold.Chemscore.Metal>
0.0000

> <Gold.Chemscore.Lipo>
93.2383

> <Gold.Chemscore.Internal_Hbond>
0.0000

> <Gold.Chemscore.DEClash>
0.0082

> <Gold.Chemscore.DEInternal>
1.6108

> <Gold.Chemscore.Rot>
1.6629

> <Gold.Chemscore.Internal.Correction>
   9.000000E+99

> <Gold.Chemscore.Hbonds>
donor molecule, donor type, donor heavy atom, donor atom, acceptor molecule, acceptor atom, score
      P1  H  7997  8009       L1     9  0.99
      P1  H 10752 10763       L1    12  0.79

> <Gold.Chemscore.Hbond.Weighted>
-9.2175

> <Gold.Chemscore.Metal.Weighted>
-0.0000

> <Gold.Chemscore.Lipo.Weighted>
-10.9089

> <Gold.Chemscore.Internal_Hbond.Weighted>
0.0000

> <Gold.Chemscore.DEClash.Weighted>
0.0082

> <Gold.Chemscore.DEInternal.Weighted>
1.6108

> <Gold.Chemscore.Rot.Weighted>
4.2569

> <Gold.Chemscore.Internal.Correction.Weighted>
   9.000000E+99

> <Gold.Protein.RotatedTorsions>
[ 6907 6896 6895 6894 ] final -140.99 input  -60.11 | X-H torsion
[ 7974 7965 7964 7962 ] final -135.40 input  175.53 | X-H torsion
[ 8008 7997 7996 7995 ] final -152.97 input   59.86 | X-H torsion
[ 10167 10162 10161 10158 ] final  117.09 input  -65.29 | X-H torsion
[ 10718 10713 10712 10709 ] final   51.50 input   66.30 | X-H torsion
[ 10763 10752 10751 10750 ] final   49.82 input  -60.55 | X-H torsion
[ 11005 11000 10999 10996 ] final -151.77 input  -57.11 | X-H torsion

> <Gold.Protein.ActiveResidues>
 VAL166  LYS551  ARG553  GLY616  TRP617  ASP618  TYR619  PRO620  LYS621  CYS622 
 ASP623  PHE694  ASN695  SER759  ASP760  ASP761  ALA762  ILE779  LEU786  VAL792 
 PHE793  MET794  SER795  GLU796  ALA797  LYS798  CYS799  TRP800  GLU811  SER814 

> <Gold.Protein.RotatedAtoms>
  151.0680  133.5490  159.2629 H   0  0  0  0  0  0  0  0  0  0  0  0  # atno 6907 bound_to 6896
  151.2440  135.0598  159.9046 H   0  0  0  0  0  0  0  0  0  0  0  0  # atno 6908 bound_to 6896
  152.5407  134.0450  159.8138 H   0  0  0  0  0  0  0  0  0  0  0  0  # atno 6909 bound_to 6896
  144.9017  140.6780  143.5080 H   0  0  0  0  0  0  0  0  0  0  0  0  # atno 7974 bound_to 7965
  155.6635  140.0725  157.2545 H   0  0  0  0  0  0  0  0  0  0  0  0  # atno 8008 bound_to 7997
  154.4137  140.1712  156.1853 H   0  0  0  0  0  0  0  0  0  0  0  0  # atno 8009 bound_to 7997
  155.9677  140.3364  155.6550 H   0  0  0  0  0  0  0  0  0  0  0  0  # atno 8010 bound_to 7997
  139.6202  144.7099  151.2651 H   0  0  0  0  0  0  0  0  0  0  0  0  # atno 10167 bound_to 10162
  157.4986  130.8423  149.8289 H   0  0  0  0  0  0  0  0  0  0  0  0  # atno 10718 bound_to 10713
  152.9786  135.5899  154.4152 H   0  0  0  0  0  0  0  0  0  0  0  0  # atno 10763 bound_to 10752
  154.3783  135.2767  155.2228 H   0  0  0  0  0  0  0  0  0  0  0  0  # atno 10764 bound_to 10752
  154.4153  135.6072  153.6032 H   0  0  0  0  0  0  0  0  0  0  0  0  # atno 10765 bound_to 10752
  140.7260  134.3674  157.5175 H   0  0  0  0  0  0  0  0  0  0  0  0  # atno 11005 bound_to 11000
  145.3604  139.1683  143.4386 LP  0  0  0  0  0  0  0  0  0  0  0  0  # atno 17320 bound_to 7965
  146.3112  140.3666  142.8670 LP  0  0  0  0  0  0  0  0  0  0  0  0  # atno 17321 bound_to 7965
  140.7377  143.6670  150.8114 LP  0  0  0  0  0  0  0  0  0  0  0  0  # atno 17342 bound_to 10162
  140.0279  143.5474  152.2772 LP  0  0  0  0  0  0  0  0  0  0  0  0  # atno 17343 bound_to 10162
  156.0215  130.3794  150.1947 LP  0  0  0  0  0  0  0  0  0  0  0  0  # atno 17370 bound_to 10713
  157.0136  130.9958  151.3359 LP  0  0  0  0  0  0  0  0  0  0  0  0  # atno 17371 bound_to 10713
  139.8837  134.8986  156.2749 LP  0  0  0  0  0  0  0  0  0  0  0  0  # atno 17394 bound_to 11000
  140.9962  133.7178  156.0890 LP  0  0  0  0  0  0  0  0  0  0  0  0  # atno 17395 bound_to 11000

$$$$
