AV-unprocessed.smi:54|AV-procd|sdf|550|dock9
  -GOLD-   2262016453D 1   1.00000     0.00000
 Structure written by MMmdl.
 43 45  0  0  0  0  0  0  0  0  2 V2000
  152.0624  144.6553  159.5721 C   0  0  0  0  0  0  0  0  0  0  0  0
  152.1204  143.1353  159.7980 C   0  0  0  0  0  0  0  0  0  0  0  0
  153.4910  142.7052  160.3461 C   0  0  0  0  0  0  0  0  0  0  0  0
  151.7907  142.3804  158.5024 C   0  0  0  0  0  0  0  0  0  0  0  0
  151.0671  142.9192  157.6611 O   0  0  0  0  0  0  0  0  0  0  0  0
  152.3368  141.1482  158.3952 N   0  0  0  0  0  0  0  0  0  0  0  0
  152.2197  140.2184  157.3552 C   0  0  0  0  0  0  0  0  0  0  0  0
  151.2363  140.3121  156.4878 N   0  0  0  0  0  0  0  0  0  0  0  0
  151.2769  139.3123  155.5365 C   0  0  0  0  0  0  0  0  0  0  0  0
  152.1891  138.3006  155.4203 C   0  0  0  0  0  0  0  0  0  0  0  0
  151.8998  137.4800  154.3367 N   0  0  0  0  0  0  0  0  0  0  0  0
  150.8011  138.0487  153.8409 C   0  0  0  0  0  0  0  0  0  0  0  0
  150.3645  139.1408  154.5031 N   0  0  0  0  0  0  0  0  0  0  0  0
  149.1762  140.0071  154.2047 C   0  0  1  0  0  0  0  0  0  0  0  0
  148.5903  139.5697  153.0146 O   0  0  0  0  0  0  0  0  0  0  0  0
  147.4322  138.7961  153.3066 C   0  0  2  0  0  0  0  0  0  0  0  0
  146.5068  138.6871  152.0823 C   0  0  0  0  0  0  0  0  0  0  0  0
  147.1366  137.9407  151.0629 O   0  0  0  0  0  0  0  0  0  0  0  0
  146.8466  139.5370  154.5150 C   0  0  2  0  0  0  0  0  0  0  0  0
  146.1369  140.6904  154.1018 O   0  0  0  0  0  0  0  0  0  0  0  0
  148.0888  139.9315  155.3054 C   0  0  1  0  0  0  0  0  0  0  0  0
  148.3430  138.9642  156.3097 O   0  0  0  0  0  0  0  0  0  0  0  0
  153.2741  138.2613  156.4295 C   0  0  0  0  0  0  0  0  0  0  0  0
  154.1200  137.3713  156.3652 O   0  0  0  0  0  0  0  0  0  0  0  0
  153.2364  139.2506  157.3731 N   0  5  0  0  0  0  0  0  0  0  0  0
  149.5958  141.0050  154.0723 H   0  0  0  0  0  0  0  0  0  0  0  0
  147.7388  137.8006  153.6333 H   0  0  0  0  0  0  0  0  0  0  0  0
  146.1638  138.9071  155.0871 H   0  0  0  0  0  0  0  0  0  0  0  0
  147.9832  140.9055  155.7852 H   0  0  0  0  0  0  0  0  0  0  0  0
  151.0971  144.9593  159.1650 H   0  0  0  0  0  0  0  0  0  0  0  0
  152.8360  144.9884  158.8793 H   0  0  0  0  0  0  0  0  0  0  0  0
  152.2052  145.1934  160.5094 H   0  0  0  0  0  0  0  0  0  0  0  0
  151.3675  142.8806  160.5460 H   0  0  0  0  0  0  0  0  0  0  0  0
  153.5355  141.6264  160.5008 H   0  0  0  0  0  0  0  0  0  0  0  0
  153.6918  143.1805  161.3064 H   0  0  0  0  0  0  0  0  0  0  0  0
  154.2998  142.9788  159.6674 H   0  0  0  0  0  0  0  0  0  0  0  0
  152.8915  140.8566  159.1864 H   0  0  0  0  0  0  0  0  0  0  0  0
  150.3025  137.6552  152.9676 H   0  0  0  0  0  0  0  0  0  0  0  0
  145.5893  138.1628  152.3513 H   0  0  0  0  0  0  0  0  0  0  0  0
  146.2225  139.6710  151.7080 H   0  0  0  0  0  0  0  0  0  0  0  0
  147.4266  137.1188  151.4280 H   0  0  0  0  0  0  0  0  0  0  0  0
  145.3465  140.4101  153.6658 H   0  0  0  0  0  0  0  0  0  0  0  0
  147.5602  138.4471  156.4305 H   0  0  0  0  0  0  0  0  0  0  0  0
  1  2  1  0  0  0  0
  1 30  1  0  0  0  0
  1 31  1  0  0  0  0
  1 32  1  0  0  0  0
  2  3  1  0  0  0  0
  2  4  1  0  0  0  0
  2 33  1  0  0  0  0
  3 34  1  0  0  0  0
  3 35  1  0  0  0  0
  3 36  1  0  0  0  0
  4  5  2  0  0  0  0
  4  6  1  0  0  0  0
  6 37  1  0  0  0  0
  6  7  1  0  0  0  0
  7 25  1  0  0  0  0
  7  8  2  0  0  0  0
  8  9  1  0  0  0  0
  9 13  1  0  0  0  0
  9 10  2  0  0  0  0
 10 11  1  0  0  0  0
 10 23  1  0  0  0  0
 11 12  2  0  0  0  0
 12 13  1  0  0  0  0
 12 38  1  0  0  0  0
 13 14  1  0  0  0  0
 14 26  1  0  0  0  0
 14 21  1  0  0  0  0
 14 15  1  0  0  0  0
 15 16  1  0  0  0  0
 16 27  1  0  0  0  0
 16 17  1  0  0  0  0
 16 19  1  0  0  0  0
 17 18  1  0  0  0  0
 17 39  1  0  0  0  0
 17 40  1  0  0  0  0
 18 41  1  0  0  0  0
 19 28  1  0  0  0  0
 19 20  1  0  0  0  0
 19 21  1  0  0  0  0
 20 42  1  0  0  0  0
 21 29  1  0  0  0  0
 21 22  1  0  0  0  0
 22 43  1  0  0  0  0
 23 24  2  0  0  0  0
 23 25  1  0  0  0  0
M  CHG  1  25  -1
M  END
> <s_m_source_file>
AV-unprocessed.smi

> <i_m_source_file_index>
54

> <i_lp_mmshare_version>
43012

> <i_f3d_flags>
0

> <s_epik_input>
W0NIM11bQ0hdKFtDSDNdKUMoPU8pW05IXWMobjEpW25IXWMoPU8pYyhjMTIpbltjSF1uMltDQEBIXTNPW0NASF0oW0NIMl1bT0hdKVtDQEBIXShbT0hdKVtDQEhdM1tPSF0=

> <s_epik_cmdline>
J2VwaWtfcHl0aG9uJywgJy1waCcsICc3LjAnLCAnLXRuJywgJzgnLCAnLW1hJywgJzIwMCcsICctbWV0YWxfYmluZGluZycsICctaW1hZScsICc8aW5maWxlLm1hZT4nLCAnLW9tYWUnLCAnPG91dGZpbGUubWFlPic=

> <r_lp_tautomer_probability>
0.85571

> <r_epik_Ionization_Penalty>
1.75936

> <r_epik_Ionization_Penalty_Charging>
4.55893e-11

> <r_epik_Ionization_Penalty_Neutral>
1.75936

> <r_epik_State_Penalty>
1.72072

> <r_epik_Charging_Adjusted_Penalty>
1.72072

> <i_epik_Tot_Q>
-1

> <i_epik_Tot_abs_Q>
1

> <r_epik_Metal_State_Penalty>
0.400338

> <b_epik_Metal_Only>
1

> <s_epik_Chemistry_Notes>
This compound contains an acetal/aminal-like group ( X-CH(R)-Y where X, Y are N, S, or O) that may be acid/base labile, releasing an aldehyde.

> <s_lp_Force_Field>
OPLS_2005

> <r_lp_Energy>
59.3573

> <b_lp_Chiralities_Consistent>
1

> <s_lp_Variant>
AV-unprocessed.smi:54-22

> <Gold.Version>
5.8.1

> <Gold.Id.Protein>
6NUR|6NUR_protein|mol2

> <Gold.PLP.Fitness>
55.2260

> <Gold.PLP.PLP>
-36.6389

> <Gold.PLP.part.hbond>
-6.2432

> <Gold.PLP.part.metal>
0.0000

> <Gold.PLP.part.buried>
-5.3274

> <Gold.PLP.part.nonpolar>
-32.5018

> <Gold.PLP.part.repulsive>
6.2930

> <Gold.PLP.ligand.clash>
0.0000

> <Gold.PLP.ligand.torsion>
0.8987

> <Gold.PLP.Chemscore.Hbond>
5.8637

> <Gold.PLP.Chemscore.CHOScore>
0.9027

> <Gold.PLP.Chemscore.Metal>
0.0000

> <Gold.Chemscore.Hbonds>
donor molecule, donor type, donor heavy atom, donor atom, acceptor molecule, acceptor atom, score
      L1  H    18    41       P1  7948  0.80
      L1  H    20    42       P1 10175  0.96
      P1  H  7954  7966       L1    18  0.65
      P1  H  7997  8009       L1    25  2.00
      P1  H 10752 10763       L1    24  0.18
      P1  H 10752 10765       L1    11  0.80
      L1  C    12    38       P1  7948  0.64
      L1  C    12    38       P1  7949  0.20

> <Gold.PLP.Chemscore.Internal.Correction>
0.0853

> <Gold.Rescore>
     Score         DG    S(hbond)    S(metal)    S(lipo)     H(rot)  DE(clash)    DE(int)     intcor
     10.60     -15.22       3.70        0.00      65.56       4.02       2.29       2.34       ----

> <Gold.Chemscore.Fitness>
10.5973

> <Gold.Chemscore.DG>
-15.2228

> <Gold.Chemscore.ZeroCoef>
-5.4800

> <Gold.Chemscore.Hbond>
3.7009

> <Gold.Chemscore.Metal>
0.0000

> <Gold.Chemscore.Lipo>
65.5636

> <Gold.Chemscore.Internal_Hbond>
0.0000

> <Gold.Chemscore.DEClash>
2.2891

> <Gold.Chemscore.DEInternal>
2.3364

> <Gold.Chemscore.Rot>
4.0192

> <Gold.Chemscore.Internal.Correction>
   9.000000E+99

> <Gold.Chemscore.Hbonds>
donor molecule, donor type, donor heavy atom, donor atom, acceptor molecule, acceptor atom, score
      L1  H    18    41       P1  7948  0.80
      L1  H    20    42       P1 10175  0.90
      P1  H  7954  7966       L1    18  0.05
      P1  H  7997  8009       L1    25  0.14
      P1  H 10752 10763       L1    24  0.17
      P1  H 10752 10765       L1    11  0.72

> <Gold.Chemscore.Hbond.Weighted>
-12.3611

> <Gold.Chemscore.Metal.Weighted>
-0.0000

> <Gold.Chemscore.Lipo.Weighted>
-7.6709

> <Gold.Chemscore.Internal_Hbond.Weighted>
0.0000

> <Gold.Chemscore.DEClash.Weighted>
2.2891

> <Gold.Chemscore.DEInternal.Weighted>
2.3364

> <Gold.Chemscore.Rot.Weighted>
10.2893

> <Gold.Chemscore.Internal.Correction.Weighted>
   9.000000E+99

> <Gold.Protein.RotatedTorsions>
[ 6907 6896 6895 6894 ] final  -96.35 input  -60.11 | X-H torsion
[ 7974 7965 7964 7962 ] final   81.73 input  175.53 | X-H torsion
[ 8008 7997 7996 7995 ] final  153.33 input   59.86 | X-H torsion
[ 10167 10162 10161 10158 ] final    3.76 input  -65.29 | X-H torsion
[ 10718 10713 10712 10709 ] final  -84.85 input   66.30 | X-H torsion
[ 10763 10752 10751 10750 ] final  154.12 input  -60.55 | X-H torsion
[ 11005 11000 10999 10996 ] final  -34.80 input  -57.11 | X-H torsion

> <Gold.Protein.ActiveResidues>
 VAL166  LYS551  ARG553  GLY616  TRP617  ASP618  TYR619  PRO620  LYS621  CYS622 
 ASP623  PHE694  ASN695  SER759  ASP760  ASP761  ALA762  ILE779  LEU786  VAL792 
 PHE793  MET794  SER795  GLU796  ALA797  LYS798  CYS799  TRP800  GLU811  SER814 

> <Gold.Protein.RotatedAtoms>
  150.6986  134.1516  159.4142 H   0  0  0  0  0  0  0  0  0  0  0  0  # atno 6907 bound_to 6896
  151.9499  135.0172  160.0550 H   0  0  0  0  0  0  0  0  0  0  0  0  # atno 6908 bound_to 6896
  152.2020  133.4813  159.5100 H   0  0  0  0  0  0  0  0  0  0  0  0  # atno 6909 bound_to 6896
  145.6343  139.2411  143.2067 H   0  0  0  0  0  0  0  0  0  0  0  0  # atno 7974 bound_to 7965
  156.2587  140.1996  156.6473 H   0  0  0  0  0  0  0  0  0  0  0  0  # atno 8008 bound_to 7997
  154.6564  140.0566  157.0038 H   0  0  0  0  0  0  0  0  0  0  0  0  # atno 8009 bound_to 7997
  155.1342  140.3236  155.4470 H   0  0  0  0  0  0  0  0  0  0  0  0  # atno 8010 bound_to 7997
  140.6569  143.7404  150.7670 H   0  0  0  0  0  0  0  0  0  0  0  0  # atno 10167 bound_to 10162
  156.0002  130.4711  150.4473 H   0  0  0  0  0  0  0  0  0  0  0  0  # atno 10718 bound_to 10713
  154.1472  135.2817  155.3145 H   0  0  0  0  0  0  0  0  0  0  0  0  # atno 10763 bound_to 10752
  154.6243  135.5456  153.7613 H   0  0  0  0  0  0  0  0  0  0  0  0  # atno 10764 bound_to 10752
  153.0232  135.6447  154.1618 H   0  0  0  0  0  0  0  0  0  0  0  0  # atno 10765 bound_to 10752
  140.9745  133.7091  156.1579 H   0  0  0  0  0  0  0  0  0  0  0  0  # atno 11005 bound_to 11000
  146.1331  140.7158  142.9402 LP  0  0  0  0  0  0  0  0  0  0  0  0  # atno 17320 bound_to 7965
  144.7181  140.4281  143.7029 LP  0  0  0  0  0  0  0  0  0  0  0  0  # atno 17321 bound_to 7965
  140.1065  143.4739  152.2395 LP  0  0  0  0  0  0  0  0  0  0  0  0  # atno 17342 bound_to 10162
  139.5794  144.7503  151.3680 LP  0  0  0  0  0  0  0  0  0  0  0  0  # atno 17343 bound_to 10162
  157.2509  131.0546  151.2380 LP  0  0  0  0  0  0  0  0  0  0  0  0  # atno 17370 bound_to 10713
  157.3529  130.7091  149.6452 LP  0  0  0  0  0  0  0  0  0  0  0  0  # atno 17371 bound_to 10713
  140.7280  134.4286  157.5569 LP  0  0  0  0  0  0  0  0  0  0  0  0  # atno 17394 bound_to 11000
  139.8925  134.8753  156.2268 LP  0  0  0  0  0  0  0  0  0  0  0  0  # atno 17395 bound_to 11000

$$$$
