AV-unprocessed.smi:2845|AV-procd|sdf|10949|dock4
  -GOLD-   2272015403D 1   1.00000     0.00000
 Structure written by MMmdl.
 43 45  0  0  0  0  0  0  0  0  2 V2000
  150.8531  145.4197  160.0904 C   0  0  0  0  0  0  0  0  0  0  0  0
  151.7312  144.1930  160.2695 C   0  0  0  0  0  0  0  0  0  0  0  0
  152.2479  143.9152  161.5552 C   0  0  0  0  0  0  0  0  0  0  0  0
  153.0493  142.7872  161.6867 C   0  0  0  0  0  0  0  0  0  0  0  0
  153.7012  142.2539  162.8005 N   0  3  0  0  0  0  0  0  0  0  0  0
  154.3746  141.1275  162.4370 C   0  0  0  0  0  0  0  0  0  0  0  0
  154.1611  140.9321  161.1076 N   0  0  0  0  0  0  0  0  0  0  0  0
  154.6545  139.8651  160.2247 C   0  0  0  0  0  0  0  0  0  0  0  0
  154.0752  138.4799  160.5720 C   0  0  2  0  0  0  0  0  0  0  0  0
  154.4235  138.1283  161.8980 O   0  0  0  0  0  0  0  0  0  0  0  0
  154.5686  137.3937  159.5968 C   0  0  0  0  0  0  0  0  0  0  0  0
  153.7587  137.3146  158.3943 N   0  0  0  0  0  0  0  0  0  0  0  0
  153.1292  136.2747  157.8391 C   0  0  0  0  0  0  0  0  0  0  0  0
  152.4834  136.5706  156.7187 N   0  0  0  0  0  0  0  0  0  0  0  0
  152.7792  137.9007  156.6479 C   0  0  0  0  0  0  0  0  0  0  0  0
  152.1783  138.9350  155.2760 S   0  0  2  0  0  0  0  0  0  0  0  0
  151.3497  137.5523  154.3589 C   0  0  0  0  0  0  0  0  0  0  0  0
  153.4180  139.3267  154.4694 O   0  0  0  0  0  0  0  0  0  0  0  0
  153.5382  138.4031  157.6198 N   0  0  0  0  0  0  0  0  0  0  0  0
  153.3405  141.9451  160.5961 C   0  0  0  0  0  0  0  0  0  0  0  0
  152.8398  142.2054  159.3224 C   0  0  0  0  0  0  0  0  0  0  0  0
  152.0250  143.3495  159.1670 C   0  0  0  0  0  0  0  0  0  0  0  0
  151.4691  143.6603  157.7877 C   0  0  0  0  0  0  0  0  0  0  0  0
  150.7054  145.9462  161.0338 H   0  0  0  0  0  0  0  0  0  0  0  0
  149.8713  145.1363  159.7108 H   0  0  0  0  0  0  0  0  0  0  0  0
  151.3091  146.1171  159.3872 H   0  0  0  0  0  0  0  0  0  0  0  0
  152.0302  144.5538  162.3988 H   0  0  0  0  0  0  0  0  0  0  0  0
  154.9696  140.5018  163.0866 H   0  0  0  0  0  0  0  0  0  0  0  0
  154.3731  140.1382  159.2069 H   0  0  0  0  0  0  0  0  0  0  0  0
  155.7446  139.8562  160.2457 H   0  0  0  0  0  0  0  0  0  0  0  0
  152.9868  138.5310  160.5213 H   0  0  0  0  0  0  0  0  0  0  0  0
  154.1174  137.2496  162.0656 H   0  0  0  0  0  0  0  0  0  0  0  0
  155.5967  137.5999  159.2966 H   0  0  0  0  0  0  0  0  0  0  0  0
  154.5762  136.4165  160.0825 H   0  0  0  0  0  0  0  0  0  0  0  0
  153.1477  135.2806  158.2613 H   0  0  0  0  0  0  0  0  0  0  0  0
  150.9598  136.8042  155.0494 H   0  0  0  0  0  0  0  0  0  0  0  0
  152.0579  137.0685  153.6865 H   0  0  0  0  0  0  0  0  0  0  0  0
  150.5201  137.9399  153.7682 H   0  0  0  0  0  0  0  0  0  0  0  0
  153.0679  141.5676  158.4813 H   0  0  0  0  0  0  0  0  0  0  0  0
  151.8028  142.9309  157.0488 H   0  0  0  0  0  0  0  0  0  0  0  0
  151.7984  144.6448  157.4548 H   0  0  0  0  0  0  0  0  0  0  0  0
  150.3791  143.6453  157.8021 H   0  0  0  0  0  0  0  0  0  0  0  0
  153.6898  142.6296  163.7402 H   0  0  0  0  0  0  0  0  0  0  0  0
  1  2  1  0  0  0  0
  1 24  1  0  0  0  0
  1 25  1  0  0  0  0
  1 26  1  0  0  0  0
  2 22  1  0  0  0  0
  2  3  2  0  0  0  0
  3  4  1  0  0  0  0
  3 27  1  0  0  0  0
  4 20  2  0  0  0  0
  4  5  1  0  0  0  0
  5  6  2  0  0  0  0
  5 43  1  0  0  0  0
  6  7  1  0  0  0  0
  6 28  1  0  0  0  0
  7  8  1  0  0  0  0
  7 20  1  0  0  0  0
  8  9  1  0  0  0  0
  8 29  1  0  0  0  0
  8 30  1  0  0  0  0
  9 10  1  0  0  0  0
  9 11  1  0  0  0  0
  9 31  1  0  0  0  0
 10 32  1  0  0  0  0
 11 12  1  0  0  0  0
 11 33  1  0  0  0  0
 11 34  1  0  0  0  0
 12 19  1  0  0  0  0
 12 13  1  0  0  0  0
 13 14  2  0  0  0  0
 13 35  1  0  0  0  0
 14 15  1  0  0  0  0
 15 16  1  0  0  0  0
 15 19  2  0  0  0  0
 16 17  1  0  0  0  0
 16 18  2  0  0  0  0
 17 36  1  0  0  0  0
 17 37  1  0  0  0  0
 17 38  1  0  0  0  0
 20 21  1  0  0  0  0
 21 22  2  0  0  0  0
 21 39  1  0  0  0  0
 22 23  1  0  0  0  0
 23 40  1  0  0  0  0
 23 41  1  0  0  0  0
 23 42  1  0  0  0  0
M  CHG  1   5   1
M  END
> <s_m_source_file>
AV-unprocessed.smi

> <i_m_source_file_index>
2845

> <i_lp_mmshare_version>
43012

> <i_f3d_flags>
0

> <s_epik_input>
W0NIM11jKFtjSF0xKWMoW0NIM10pW2NIXWMoYzEyKW4oW2NIXW4yKVtDSDJdW0NASF0oW09IXSlbQ0gyXW4zW2NIXW5jKG4zKVtTQF0oPU8pW0NIM10=

> <s_epik_cmdline>
J2VwaWtfcHl0aG9uJywgJy1waCcsICc3LjAnLCAnLXRuJywgJzgnLCAnLW1hJywgJzIwMCcsICctbWV0YWxfYmluZGluZycsICctaW1hZScsICc8aW5maWxlLm1hZT4nLCAnLW9tYWUnLCAnPG91dGZpbGUubWFlPic=

> <r_lp_tautomer_probability>
1

> <r_epik_Ionization_Penalty>
1.12076

> <r_epik_Ionization_Penalty_Charging>
1.12075

> <r_epik_Ionization_Penalty_Neutral>
1.54566e-06

> <r_epik_State_Penalty>
1.17957

> <r_epik_Charging_Adjusted_Penalty>
2.30033

> <i_epik_Tot_Q>
1

> <i_epik_Tot_abs_Q>
1

> <r_epik_Metal_State_Penalty>
1.26402

> <b_epik_Metal_Only>
0

> <s_lp_Force_Field>
OPLS_2005

> <r_lp_Energy>
14.9183

> <b_lp_Chiralities_Consistent>
1

> <s_lp_Variant>
AV-unprocessed.smi:2845-7

> <Gold.Version>
5.8.1

> <Gold.Id.Protein>
6NUR|6NUR_protein|mol2

> <Gold.PLP.Fitness>
58.9282

> <Gold.PLP.PLP>
-51.2071

> <Gold.PLP.part.hbond>
-4.0738

> <Gold.PLP.part.metal>
0.0000

> <Gold.PLP.part.buried>
-2.7044

> <Gold.PLP.part.nonpolar>
-42.7630

> <Gold.PLP.part.repulsive>
0.0955

> <Gold.PLP.ligand.clash>
0.0000

> <Gold.PLP.ligand.torsion>
1.0276

> <Gold.PLP.Chemscore.Hbond>
2.9193

> <Gold.PLP.Chemscore.CHOScore>
0.0000

> <Gold.PLP.Chemscore.Metal>
0.0000

> <Gold.Chemscore.Hbonds>
donor molecule, donor type, donor heavy atom, donor atom, acceptor molecule, acceptor atom, score
      P1  H  7997  8009       L1    19  0.99
      P1  H  7997  8010       L1    18  0.70
      P1  H 10752 10764       L1    14  0.86

> <Gold.PLP.Chemscore.Internal.Correction>
1.0183

> <Gold.Rescore>
     Score         DG    S(hbond)    S(metal)    S(lipo)     H(rot)  DE(clash)    DE(int)     intcor
     19.33     -20.52       2.57        0.00     115.73       2.77       0.11       1.08       ----

> <Gold.Chemscore.Fitness>
19.3306

> <Gold.Chemscore.DG>
-20.5227

> <Gold.Chemscore.ZeroCoef>
-5.4800

> <Gold.Chemscore.Hbond>
2.5716

> <Gold.Chemscore.Metal>
0.0000

> <Gold.Chemscore.Lipo>
115.7257

> <Gold.Chemscore.Internal_Hbond>
0.0000

> <Gold.Chemscore.DEClash>
0.1106

> <Gold.Chemscore.DEInternal>
1.0814

> <Gold.Chemscore.Rot>
2.7681

> <Gold.Chemscore.Internal.Correction>
   9.000000E+99

> <Gold.Chemscore.Hbonds>
donor molecule, donor type, donor heavy atom, donor atom, acceptor molecule, acceptor atom, score
      P1  H  7997  8009       L1    19  0.80
      P1  H  7997  8010       L1    18  0.66
      P1  H 10752 10764       L1    14  0.60

> <Gold.Chemscore.Hbond.Weighted>
-8.5890

> <Gold.Chemscore.Metal.Weighted>
-0.0000

> <Gold.Chemscore.Lipo.Weighted>
-13.5399

> <Gold.Chemscore.Internal_Hbond.Weighted>
0.0000

> <Gold.Chemscore.DEClash.Weighted>
0.1106

> <Gold.Chemscore.DEInternal.Weighted>
1.0814

> <Gold.Chemscore.Rot.Weighted>
7.0863

> <Gold.Chemscore.Internal.Correction.Weighted>
   9.000000E+99

> <Gold.Protein.RotatedTorsions>
[ 6907 6896 6895 6894 ] final   70.69 input  -60.11 | X-H torsion
[ 7974 7965 7964 7962 ] final  125.52 input  175.53 | X-H torsion
[ 8008 7997 7996 7995 ] final  146.92 input   59.86 | X-H torsion
[ 10167 10162 10161 10158 ] final -133.29 input  -65.29 | X-H torsion
[ 10718 10713 10712 10709 ] final   47.71 input   66.30 | X-H torsion
[ 10763 10752 10751 10750 ] final  -29.01 input  -60.55 | X-H torsion
[ 11005 11000 10999 10996 ] final  156.18 input  -57.11 | X-H torsion

> <Gold.Protein.ActiveResidues>
 VAL166  LYS551  ARG553  GLY616  TRP617  ASP618  TYR619  PRO620  LYS621  CYS622 
 ASP623  PHE694  ASN695  SER759  ASP760  ASP761  ALA762  ILE779  LEU786  VAL792 
 PHE793  MET794  SER795  GLU796  ALA797  LYS798  CYS799  TRP800  GLU811  SER814 

> <Gold.Protein.RotatedAtoms>
  152.4765  134.4831  159.9671 H   0  0  0  0  0  0  0  0  0  0  0  0  # atno 6907 bound_to 6896
  151.4846  133.3533  159.2851 H   0  0  0  0  0  0  0  0  0  0  0  0  # atno 6908 bound_to 6896
  150.8807  134.8224  159.7284 H   0  0  0  0  0  0  0  0  0  0  0  0  # atno 6909 bound_to 6896
  145.0721  139.3722  143.4952 H   0  0  0  0  0  0  0  0  0  0  0  0  # atno 7974 bound_to 7965
  156.2841  140.2169  156.5455 H   0  0  0  0  0  0  0  0  0  0  0  0  # atno 8008 bound_to 7997
  154.7334  140.0493  157.0769 H   0  0  0  0  0  0  0  0  0  0  0  0  # atno 8009 bound_to 7997
  155.0324  140.3136  155.4757 H   0  0  0  0  0  0  0  0  0  0  0  0  # atno 8010 bound_to 7997
  139.8997  143.6622  152.2597 H   0  0  0  0  0  0  0  0  0  0  0  0  # atno 10167 bound_to 10162
  157.4612  130.8197  149.7888 H   0  0  0  0  0  0  0  0  0  0  0  0  # atno 10718 bound_to 10713
  153.7577  135.6921  153.4932 H   0  0  0  0  0  0  0  0  0  0  0  0  # atno 10763 bound_to 10752
  153.1960  135.4454  155.0206 H   0  0  0  0  0  0  0  0  0  0  0  0  # atno 10764 bound_to 10752
  154.8164  135.3401  154.7094 H   0  0  0  0  0  0  0  0  0  0  0  0  # atno 10765 bound_to 10752
  140.1650  134.8583  157.2621 H   0  0  0  0  0  0  0  0  0  0  0  0  # atno 11005 bound_to 11000
  146.3529  140.0471  142.8638 LP  0  0  0  0  0  0  0  0  0  0  0  0  # atno 17320 bound_to 7965
  145.1280  140.9501  143.4561 LP  0  0  0  0  0  0  0  0  0  0  0  0  # atno 17321 bound_to 7965
  139.7036  144.7631  151.1231 LP  0  0  0  0  0  0  0  0  0  0  0  0  # atno 17342 bound_to 10162
  140.7709  143.5425  150.9296 LP  0  0  0  0  0  0  0  0  0  0  0  0  # atno 17343 bound_to 10162
  156.0029  130.3870  150.2536 LP  0  0  0  0  0  0  0  0  0  0  0  0  # atno 17370 bound_to 10713
  157.0714  131.0118  151.3189 LP  0  0  0  0  0  0  0  0  0  0  0  0  # atno 17371 bound_to 10713
  140.2444  134.3757  155.7467 LP  0  0  0  0  0  0  0  0  0  0  0  0  # atno 17394 bound_to 11000
  141.2213  133.7282  156.8839 LP  0  0  0  0  0  0  0  0  0  0  0  0  # atno 17395 bound_to 11000

$$$$
