AV-unprocessed.smi:2067|AV-procd|sdf|8425|dock4
  -GOLD-   2272011123D 1   1.00000     0.00000
 Structure written by MMmdl.
 47 48  0  0  0  0  0  0  0  0  1 V2000
  153.9934  140.6442  161.3259 C   0  0  0  0  0  0  0  0  0  0  0  0
  153.6078  142.0803  160.9426 C   0  0  2  0  0  0  0  0  0  0  0  0
  152.4699  142.6306  161.8252 C   0  0  0  0  0  0  0  0  0  0  0  0
  152.1360  144.0870  161.4627 C   0  0  0  0  0  0  0  0  0  0  0  0
  151.7998  144.2313  159.9699 C   0  0  0  0  0  0  0  0  0  0  0  0
  152.9261  143.6702  159.0843 C   0  0  0  0  0  0  0  0  0  0  0  0
  153.2562  142.2066  159.4441 C   0  0  2  0  0  0  0  0  0  0  0  0
  152.1261  141.3881  159.1643 O   0  0  0  0  0  0  0  0  0  0  0  0
  151.6801  141.4423  157.8180 C   0  0  0  0  0  0  0  0  0  0  0  0
  150.5023  140.4782  157.6532 C   0  0  0  0  0  0  0  0  0  0  0  0
  149.2263  141.1615  157.7992 N   0  0  0  0  0  0  0  0  0  0  0  0
  148.3947  141.5717  156.7614 C   0  0  0  0  0  0  0  0  0  0  0  0
  148.7193  141.3474  155.4563 C   0  0  0  0  0  0  0  0  0  0  0  0
  149.8938  140.6412  155.0490 C   0  0  0  0  0  0  0  0  0  0  0  0
  150.8508  140.0853  154.7080 N   0  0  0  0  0  0  0  0  0  0  0  0
  147.8626  141.7830  154.3542 C   0  0  0  0  0  0  0  0  0  0  0  0
  148.1296  141.5831  153.1674 O   0  0  0  0  0  0  0  0  0  0  0  0
  146.6873  142.4549  154.7552 N   0  0  0  0  0  0  0  0  0  0  0  0
  145.7677  142.9356  153.7430 C   0  0  0  0  0  0  0  0  0  0  0  0
  146.3204  142.6819  156.0955 C   0  0  0  0  0  0  0  0  0  0  0  0
  145.2664  143.2610  156.3783 O   0  0  0  0  0  0  0  0  0  0  0  0
  147.2021  142.2168  157.1003 N   0  0  0  0  0  0  0  0  0  0  0  0
  146.7580  142.4752  158.4538 C   0  0  0  0  0  0  0  0  0  0  0  0
  153.1609  139.9579  161.1801 H   0  0  0  0  0  0  0  0  0  0  0  0
  154.2939  140.5843  162.3722 H   0  0  0  0  0  0  0  0  0  0  0  0
  154.8277  140.2870  160.7218 H   0  0  0  0  0  0  0  0  0  0  0  0
  154.4879  142.6993  161.1238 H   0  0  0  0  0  0  0  0  0  0  0  0
  151.5787  142.0112  161.7129 H   0  0  0  0  0  0  0  0  0  0  0  0
  152.7523  142.5731  162.8769 H   0  0  0  0  0  0  0  0  0  0  0  0
  151.2997  144.4382  162.0676 H   0  0  0  0  0  0  0  0  0  0  0  0
  152.9843  144.7272  161.7079 H   0  0  0  0  0  0  0  0  0  0  0  0
  150.8678  143.7074  159.7539 H   0  0  0  0  0  0  0  0  0  0  0  0
  151.6255  145.2802  159.7288 H   0  0  0  0  0  0  0  0  0  0  0  0
  152.6480  143.7556  158.0340 H   0  0  0  0  0  0  0  0  0  0  0  0
  153.8204  144.2817  159.2102 H   0  0  0  0  0  0  0  0  0  0  0  0
  154.1157  141.8711  158.8602 H   0  0  0  0  0  0  0  0  0  0  0  0
  151.3493  142.4500  157.5653 H   0  0  0  0  0  0  0  0  0  0  0  0
  152.4955  141.1867  157.1398 H   0  0  0  0  0  0  0  0  0  0  0  0
  150.5720  139.9996  156.6766 H   0  0  0  0  0  0  0  0  0  0  0  0
  150.5583  139.6895  158.4037 H   0  0  0  0  0  0  0  0  0  0  0  0
  149.2066  141.7642  158.6095 H   0  0  0  0  0  0  0  0  0  0  0  0
  145.5711  143.9894  153.9481 H   0  0  0  0  0  0  0  0  0  0  0  0
  144.8591  142.3371  153.8267 H   0  0  0  0  0  0  0  0  0  0  0  0
  146.1921  142.8450  152.7436 H   0  0  0  0  0  0  0  0  0  0  0  0
  146.6926  143.5580  158.5738 H   0  0  0  0  0  0  0  0  0  0  0  0
  147.4599  142.0620  159.1744 H   0  0  0  0  0  0  0  0  0  0  0  0
  145.7849  141.9961  158.5785 H   0  0  0  0  0  0  0  0  0  0  0  0
  1  2  1  0  0  0  0
  1 24  1  0  0  0  0
  1 25  1  0  0  0  0
  1 26  1  0  0  0  0
  2  7  1  0  0  0  0
  2  3  1  0  0  0  0
  2 27  1  0  0  0  0
  3  4  1  0  0  0  0
  3 28  1  0  0  0  0
  3 29  1  0  0  0  0
  4  5  1  0  0  0  0
  4 30  1  0  0  0  0
  4 31  1  0  0  0  0
  5  6  1  0  0  0  0
  5 32  1  0  0  0  0
  5 33  1  0  0  0  0
  6  7  1  0  0  0  0
  6 34  1  0  0  0  0
  6 35  1  0  0  0  0
  7  8  1  0  0  0  0
  7 36  1  0  0  0  0
  8  9  1  0  0  0  0
  9 10  1  0  0  0  0
  9 37  1  0  0  0  0
  9 38  1  0  0  0  0
 10 11  1  0  0  0  0
 10 39  1  0  0  0  0
 10 40  1  0  0  0  0
 11 12  1  0  0  0  0
 11 41  1  0  0  0  0
 12 22  1  0  0  0  0
 12 13  2  0  0  0  0
 13 14  1  0  0  0  0
 13 16  1  0  0  0  0
 14 15  3  0  0  0  0
 16 17  2  0  0  0  0
 16 18  1  0  0  0  0
 18 19  1  0  0  0  0
 18 20  1  0  0  0  0
 19 42  1  0  0  0  0
 19 43  1  0  0  0  0
 19 44  1  0  0  0  0
 20 21  2  0  0  0  0
 20 22  1  0  0  0  0
 22 23  1  0  0  0  0
 23 45  1  0  0  0  0
 23 46  1  0  0  0  0
 23 47  1  0  0  0  0
M  END
> <s_m_source_file>
AV-unprocessed.smi

> <i_m_source_file_index>
2067

> <i_lp_mmshare_version>
43012

> <i_f3d_flags>
0

> <s_epik_input>
W0NIM11bQ0BASF0xW0NIMl1bQ0gyXVtDSDJdW0NIMl1bQ0BIXTFPW0NIMl1bQ0gyXVtOSF1jMmMoQyNOKWMoPU8pbihbQ0gzXSljKD1PKW4yW0NIM10=

> <s_epik_cmdline>
J2VwaWtfcHl0aG9uJywgJy1waCcsICc3LjAnLCAnLXRuJywgJzgnLCAnLW1hJywgJzIwMCcsICctbWV0YWxfYmluZGluZycsICctaW1hZScsICc8aW5maWxlLm1hZT4nLCAnLW9tYWUnLCAnPG91dGZpbGUubWFlPic=

> <r_epik_Ionization_Penalty>
0.00056529

> <r_epik_Ionization_Penalty_Charging>
3.94678e-10

> <r_epik_Ionization_Penalty_Neutral>
0.000565289

> <r_epik_State_Penalty>
0.000354611

> <r_epik_Charging_Adjusted_Penalty>
0.000354611

> <i_epik_Tot_Q>
0

> <i_epik_Tot_abs_Q>
0

> <r_epik_Metal_State_Penalty>
-0

> <b_epik_Metal_Only>
0

> <s_lp_Force_Field>
OPLS_2005

> <r_lp_Energy>
32.9241

> <b_lp_Chiralities_Consistent>
1

> <s_lp_Variant>
AV-unprocessed.smi:2067-3

> <Gold.Version>
5.8.1

> <Gold.Id.Protein>
6NUR|6NUR_protein|mol2

> <Gold.PLP.Fitness>
51.6624

> <Gold.PLP.PLP>
-47.6556

> <Gold.PLP.part.hbond>
-2.0000

> <Gold.PLP.part.metal>
0.0000

> <Gold.PLP.part.buried>
-2.0316

> <Gold.PLP.part.nonpolar>
-43.3153

> <Gold.PLP.part.repulsive>
1.3914

> <Gold.PLP.ligand.clash>
10.1185

> <Gold.PLP.ligand.torsion>
0.3787

> <Gold.PLP.Chemscore.Hbond>
1.5868

> <Gold.PLP.Chemscore.CHOScore>
0.0000

> <Gold.PLP.Chemscore.Metal>
0.0000

> <Gold.Chemscore.Hbonds>
donor molecule, donor type, donor heavy atom, donor atom, acceptor molecule, acceptor atom, score
      P1  H  7989  7998       L1    15  1.00
      P1  H  8011  8017       L1    17  0.64

> <Gold.PLP.Chemscore.Internal.Correction>
10.1223

> <Gold.Rescore>
     Score         DG    S(hbond)    S(metal)    S(lipo)     H(rot)  DE(clash)    DE(int)     intcor
     13.93     -16.91       0.99        0.00     107.94       1.76       0.04       2.94       ----

> <Gold.Chemscore.Fitness>
13.9346

> <Gold.Chemscore.DG>
-16.9074

> <Gold.Chemscore.ZeroCoef>
-5.4800

> <Gold.Chemscore.Hbond>
0.9878

> <Gold.Chemscore.Metal>
0.0000

> <Gold.Chemscore.Lipo>
107.9449

> <Gold.Chemscore.Internal_Hbond>
0.0000

> <Gold.Chemscore.DEClash>
0.0374

> <Gold.Chemscore.DEInternal>
2.9355

> <Gold.Chemscore.Rot>
1.7583

> <Gold.Chemscore.Internal.Correction>
   9.000000E+99

> <Gold.Chemscore.Hbonds>
donor molecule, donor type, donor heavy atom, donor atom, acceptor molecule, acceptor atom, score
      P1  H  7989  7998       L1    15  0.82
      P1  H  8011  8017       L1    17  0.59

> <Gold.Chemscore.Hbond.Weighted>
-3.2991

> <Gold.Chemscore.Metal.Weighted>
-0.0000

> <Gold.Chemscore.Lipo.Weighted>
-12.6296

> <Gold.Chemscore.Internal_Hbond.Weighted>
0.0000

> <Gold.Chemscore.DEClash.Weighted>
0.0374

> <Gold.Chemscore.DEInternal.Weighted>
2.9355

> <Gold.Chemscore.Rot.Weighted>
4.5012

> <Gold.Chemscore.Internal.Correction.Weighted>
   9.000000E+99

> <Gold.Protein.RotatedTorsions>
[ 6907 6896 6895 6894 ] final    6.80 input  -60.11 | X-H torsion
[ 7974 7965 7964 7962 ] final   75.38 input  175.53 | X-H torsion
[ 8008 7997 7996 7995 ] final  133.29 input   59.86 | X-H torsion
[ 10167 10162 10161 10158 ] final    6.31 input  -65.29 | X-H torsion
[ 10718 10713 10712 10709 ] final   64.60 input   66.30 | X-H torsion
[ 10763 10752 10751 10750 ] final   88.45 input  -60.55 | X-H torsion
[ 11005 11000 10999 10996 ] final  -86.40 input  -57.11 | X-H torsion

> <Gold.Protein.ActiveResidues>
 VAL166  LYS551  ARG553  GLY616  TRP617  ASP618  TYR619  PRO620  LYS621  CYS622 
 ASP623  PHE694  ASN695  SER759  ASP760  ASP761  ALA762  ILE779  LEU786  VAL792 
 PHE793  MET794  SER795  GLU796  ALA797  LYS798  CYS799  TRP800  GLU811  SER814 

> <Gold.Protein.RotatedAtoms>
  151.6795  135.0964  160.0213 H   0  0  0  0  0  0  0  0  0  0  0  0  # atno 6907 bound_to 6896
  152.3844  133.6586  159.6195 H   0  0  0  0  0  0  0  0  0  0  0  0  # atno 6908 bound_to 6896
  150.7773  133.8977  159.3373 H   0  0  0  0  0  0  0  0  0  0  0  0  # atno 6909 bound_to 6896
  145.7163  139.2632  143.1621 H   0  0  0  0  0  0  0  0  0  0  0  0  # atno 7974 bound_to 7965
  156.2991  140.2525  156.3230 H   0  0  0  0  0  0  0  0  0  0  0  0  # atno 8008 bound_to 7997
  154.9217  140.0400  157.2020 H   0  0  0  0  0  0  0  0  0  0  0  0  # atno 8009 bound_to 7997
  154.8304  140.2874  155.5730 H   0  0  0  0  0  0  0  0  0  0  0  0  # atno 8010 bound_to 7997
  140.6434  143.7719  150.7463 H   0  0  0  0  0  0  0  0  0  0  0  0  # atno 10167 bound_to 10162
  157.6050  130.9168  149.9866 H   0  0  0  0  0  0  0  0  0  0  0  0  # atno 10718 bound_to 10713
  153.1770  135.4506  154.9978 H   0  0  0  0  0  0  0  0  0  0  0  0  # atno 10763 bound_to 10752
  154.8005  135.3254  154.7565 H   0  0  0  0  0  0  0  0  0  0  0  0  # atno 10764 bound_to 10752
  153.8034  135.6960  153.4907 H   0  0  0  0  0  0  0  0  0  0  0  0  # atno 10765 bound_to 10752
  141.1630  133.7452  156.9155 H   0  0  0  0  0  0  0  0  0  0  0  0  # atno 11005 bound_to 11000
  146.0666  140.7914  142.9708 LP  0  0  0  0  0  0  0  0  0  0  0  0  # atno 17320 bound_to 7965
  144.6928  140.3278  143.7221 LP  0  0  0  0  0  0  0  0  0  0  0  0  # atno 17321 bound_to 7965
  140.1355  143.4488  152.2227 LP  0  0  0  0  0  0  0  0  0  0  0  0  # atno 17342 bound_to 10162
  139.5644  144.7426  151.4063 LP  0  0  0  0  0  0  0  0  0  0  0  0  # atno 17343 bound_to 10162
  156.1134  130.3649  150.0010 LP  0  0  0  0  0  0  0  0  0  0  0  0  # atno 17370 bound_to 10713
  156.8104  130.9323  151.3644 LP  0  0  0  0  0  0  0  0  0  0  0  0  # atno 17371 bound_to 10713
  140.1487  134.9245  157.2564 LP  0  0  0  0  0  0  0  0  0  0  0  0  # atno 17394 bound_to 11000
  140.2749  134.3417  155.7361 LP  0  0  0  0  0  0  0  0  0  0  0  0  # atno 17395 bound_to 11000

$$$$
