#       Name:                AV-unprocessed.smi:3251
#       Creating user name   scv26
#       Creation time:       Fri Mar 27 18:32:44 2020


#       File generated by GOLD software.
#

@<TRIPOS>MOLECULE
AV-unprocessed.smi:3251
    44    45     1
SMALL
NO_CHARGES


@<TRIPOS>ATOM
      1 ****        -1.3808   3.9083   3.7996 C.3            1 S1                 0.0000
      2 ****        -0.9854   3.6785   2.3693 C.2            1 S1                 0.0000
      3 ****         0.2764   3.9333   1.7610 C.2            1 S1                 0.0000
      4 ****         0.3000   3.6196   0.4758 N.2            1 S1                 0.0000
      5 ****        -0.9414   3.1557   0.2188 N.pl3          1 S1                 0.0000
      6 ****        -1.2812   2.7036  -1.1182 C.3            1 S1                 0.0000
      7 ****        -0.9127   1.2288  -1.3414 C.3            1 S1                 0.0000
      8 ****         0.5530   1.0265  -1.3179 N.4            1 S1                 1.0000
      9 ****         0.9999  -0.3790  -1.4490 C.3            1 S1                 0.0000
     10 ****         2.4896  -0.4057  -1.8272 C.3            1 S1                 0.0000
     11 ****         0.7739  -1.1704  -0.1446 C.2            1 S1                 0.0000
     12 ****         0.8733  -0.5807   0.9329 O.2            1 S1                 0.0000
     13 ****         0.4850  -2.4879  -0.2127 N.am           1 S1                 0.0000
     14 ****         0.2531  -3.3180   0.9686 C.3            1 S1                 0.0000
     15 ****        -0.2930  -4.6460   0.4441 C.3            1 S1                 0.0000
     16 ****         0.2578  -4.7395  -0.9712 C.3            1 S1                 0.0000
     17 ****         0.3498  -3.2850  -1.4324 C.3            1 S1                 0.0000
     18 ****        -1.7375   3.1786   1.3441 C.2            1 S1                 0.0000
     19 ****        -0.8991   4.7941   4.2143 H              1 S1                 0.0000
     20 ****        -1.1033   3.0655   4.4327 H              1 S1                 0.0000
     21 ****        -2.4566   4.0502   3.9054 H              1 S1                 0.0000
     22 ****         1.1710   4.3355   2.2135 H              1 S1                 0.0000
     23 ****        -2.3539   2.8411  -1.2600 H              1 S1                 0.0000
     24 ****        -0.7855   3.3433  -1.8503 H              1 S1                 0.0000
     25 ****        -1.3926   0.6119  -0.5806 H              1 S1                 0.0000
     26 ****        -1.2968   0.8981  -2.3067 H              1 S1                 0.0000
     27 ****         0.9478   1.5565  -2.0813 H              1 S1                 0.0000
     28 ****         0.4300  -0.8198  -2.2670 H              1 S1                 0.0000
     29 ****         2.8569  -1.4257  -1.9461 H              1 S1                 0.0000
     30 ****         3.1041   0.0798  -1.0676 H              1 S1                 0.0000
     31 ****         2.6615   0.1124  -2.7711 H              1 S1                 0.0000
     32 ****         1.2017  -3.4716   1.4856 H              1 S1                 0.0000
     33 ****        -0.4434  -2.8538   1.6688 H              1 S1                 0.0000
     34 ****        -0.0098  -5.4957   1.0660 H              1 S1                 0.0000
     35 ****        -1.3825  -4.6054   0.4099 H              1 S1                 0.0000
     36 ****         1.2559  -5.1791  -0.9454 H              1 S1                 0.0000
     37 ****        -0.3606  -5.3535  -1.6266 H              1 S1                 0.0000
     38 ****        -0.5669  -2.9943  -1.9477 H              1 S1                 0.0000
     39 ****         1.1861  -3.1476  -2.1183 H              1 S1                 0.0000
     40 ****        -2.7633   2.8405   1.3234 H              1 S1                 0.0000
     41 ****         0.9178   1.3959  -0.4506 H              1 S1                 0.0000
     42 ****         1.0655   3.7066  -0.1618 LP             1 S1                 0.0000
     43 ****         1.0970   0.3938   0.9508 LP             1 S1                 0.0000
     44 ****         0.7304  -1.0767   1.7894 LP             1 S1                 0.0000
@<TRIPOS>BOND
    1    1    2 1     
    2    1   19 1     
    3    1   20 1     
    4    1   21 1     
    5    2   18 2     
    6    2    3 1     
    7    3    4 2     
    8    3   22 1     
    9    4    5 1     
   10    5    6 1     
   11    5   18 1     
   12    6    7 1     
   13    6   23 1     
   14    6   24 1     
   15    7    8 1     
   16    7   25 1     
   17    7   26 1     
   18    8    9 1     
   19    8   27 1     
   20    8   41 1     
   21    9   10 1     
   22    9   11 1     
   23    9   28 1     
   24   10   29 1     
   25   10   30 1     
   26   10   31 1     
   27   11   12 2     
   28   11   13 am    
   29   13   17 1     
   30   13   14 1     
   31   14   15 1     
   32   14   32 1     
   33   14   33 1     
   34   15   16 1     
   35   15   34 1     
   36   15   35 1     
   37   16   17 1     
   38   16   36 1     
   39   16   37 1     
   40   17   38 1     
   41   17   39 1     
   42   18   40 1     
   43    4   42 1     
   44   12   43 1     
   45   12   44 1     
@<TRIPOS>SUBSTRUCTURE
      1 S1             1
@<TRIPOS>SET
LONE_PAIRS      STATIC     ATOMS    <user>   **** ""
3 42 43 44
DONOR_HYDROGENS      STATIC     ATOMS    <user>   **** ""
2 27 41
ATOM$BLUE        STATIC     ATOMS    COLORGROUP SYSTEM
3 42 43 44
ATOM$RED        STATIC     ATOMS    COLORGROUP SYSTEM
2 27 41
