AV-unprocessed.smi:2591|AV-procd|sdf|10158|dock5
  -GOLD-   2272014173D 1   1.00000     0.00000
 Structure written by MMmdl.
 34 35  0  0  0  0  0  0  0  0  1 V2000
  147.9564  139.3817  154.4110 C   0  0  0  0  0  0  0  0  0  0  0  0
  149.0636  138.8039  155.1575 N   0  0  0  0  0  0  0  0  0  0  0  0
  149.9418  138.0203  154.2997 C   0  0  0  0  0  0  0  0  0  0  0  0
  151.1082  137.4084  155.0934 C   0  0  0  0  0  0  0  0  0  0  0  0
  150.5970  136.6218  156.1655 O   0  0  0  0  0  0  0  0  0  0  0  0
  149.7639  137.3614  157.0600 C   0  0  2  0  0  0  0  0  0  0  0  0
  149.2961  136.4298  158.1875 C   0  0  0  0  0  0  0  0  0  0  0  0
  149.5422  135.2238  158.1347 O   0  0  0  0  0  0  0  0  0  0  0  0
  148.6051  137.0203  159.1815 N   0  0  0  0  0  0  0  0  0  0  0  0
  148.0409  136.4236  160.3400 C   0  0  0  0  0  0  0  0  0  0  0  0
  147.7194  135.0540  160.2112 C   0  0  0  0  0  0  0  0  0  0  0  0
  147.1617  134.3596  161.3066 C   0  0  0  0  0  0  0  0  0  0  0  0
  146.8025  132.8860  161.1955 C   0  0  0  0  0  0  0  0  0  0  0  0
  147.7369  132.1254  161.7666 F   0  0  0  0  0  0  0  0  0  0  0  0
  145.6392  132.6700  161.8081 F   0  0  0  0  0  0  0  0  0  0  0  0
  146.6899  132.5209  159.9178 F   0  0  0  0  0  0  0  0  0  0  0  0
  146.9300  135.0721  162.5007 C   0  0  0  0  0  0  0  0  0  0  0  0
  147.2756  136.4347  162.5435 C   0  0  0  0  0  0  0  0  0  0  0  0
  147.8164  137.0927  161.4976 N   0  0  0  0  0  0  0  0  0  0  0  0
  148.5921  137.9776  156.2614 C   0  0  0  0  0  0  0  0  0  0  0  0
  148.3237  140.0227  153.6090 H   0  0  0  0  0  0  0  0  0  0  0  0
  147.3290  139.9912  155.0621 H   0  0  0  0  0  0  0  0  0  0  0  0
  147.3320  138.6050  153.9675 H   0  0  0  0  0  0  0  0  0  0  0  0
  149.3743  137.2217  153.8192 H   0  0  0  0  0  0  0  0  0  0  0  0
  150.3360  138.6484  153.5002 H   0  0  0  0  0  0  0  0  0  0  0  0
  151.7175  136.7772  154.4467 H   0  0  0  0  0  0  0  0  0  0  0  0
  151.7605  138.1899  155.4858 H   0  0  0  0  0  0  0  0  0  0  0  0
  150.3544  138.1585  157.5157 H   0  0  0  0  0  0  0  0  0  0  0  0
  148.4707  138.0171  159.0949 H   0  0  0  0  0  0  0  0  0  0  0  0
  147.9006  134.5389  159.2788 H   0  0  0  0  0  0  0  0  0  0  0  0
  146.4961  134.5910  163.3650 H   0  0  0  0  0  0  0  0  0  0  0  0
  147.1121  137.0128  163.4409 H   0  0  0  0  0  0  0  0  0  0  0  0
  147.9728  138.5816  156.9261 H   0  0  0  0  0  0  0  0  0  0  0  0
  147.9522  137.1812  155.8770 H   0  0  0  0  0  0  0  0  0  0  0  0
  1  2  1  0  0  0  0
  1 21  1  0  0  0  0
  1 22  1  0  0  0  0
  1 23  1  0  0  0  0
  2 20  1  0  0  0  0
  2  3  1  0  0  0  0
  3  4  1  0  0  0  0
  3 24  1  0  0  0  0
  3 25  1  0  0  0  0
  4  5  1  0  0  0  0
  4 26  1  0  0  0  0
  4 27  1  0  0  0  0
  5  6  1  0  0  0  0
  6  7  1  0  0  0  0
  6 20  1  0  0  0  0
  6 28  1  0  0  0  0
  7  8  2  0  0  0  0
  7  9  1  0  0  0  0
  9 10  1  0  0  0  0
  9 29  1  0  0  0  0
 10 19  1  0  0  0  0
 10 11  2  0  0  0  0
 11 12  1  0  0  0  0
 11 30  1  0  0  0  0
 12 13  1  0  0  0  0
 12 17  2  0  0  0  0
 13 14  1  0  0  0  0
 13 15  1  0  0  0  0
 13 16  1  0  0  0  0
 17 18  1  0  0  0  0
 17 31  1  0  0  0  0
 18 19  2  0  0  0  0
 18 32  1  0  0  0  0
 20 33  1  0  0  0  0
 20 34  1  0  0  0  0
M  END
> <s_m_source_file>
AV-unprocessed.smi

> <i_m_source_file_index>
2591

> <i_lp_mmshare_version>
43012

> <i_f3d_flags>
0

> <s_epik_input>
W0NIM11OMVtDSDJdW0NIMl1PW0NASF0oW0NIMl0xKUMoPU8pW05IXWMyW2NIXWMoQyhGKShGKUYpW2NIXVtjSF1uMg==

> <s_epik_cmdline>
J2VwaWtfcHl0aG9uJywgJy1waCcsICc3LjAnLCAnLXRuJywgJzgnLCAnLW1hJywgJzIwMCcsICctbWV0YWxfYmluZGluZycsICctaW1hZScsICc8aW5maWxlLm1hZT4nLCAnLW9tYWUnLCAnPG91dGZpbGUubWFlPic=

> <r_epik_Ionization_Penalty>
0.526245

> <r_epik_Ionization_Penalty_Charging>
0

> <r_epik_Ionization_Penalty_Neutral>
0.526245

> <r_epik_State_Penalty>
0.534659

> <r_epik_Charging_Adjusted_Penalty>
0.534659

> <i_epik_Tot_Q>
0

> <i_epik_Tot_abs_Q>
0

> <r_epik_Metal_State_Penalty>
0.534657

> <b_epik_Metal_Only>
0

> <s_lp_Force_Field>
OPLS_2005

> <r_lp_Energy>
21.9247

> <b_lp_Chiralities_Consistent>
1

> <s_lp_Variant>
AV-unprocessed.smi:2591-6

> <Gold.Version>
5.8.1

> <Gold.Id.Protein>
6NUR|6NUR_protein|mol2

> <Gold.PLP.Fitness>
38.9735

> <Gold.PLP.PLP>
-31.7592

> <Gold.PLP.part.hbond>
-3.0000

> <Gold.PLP.part.metal>
0.0000

> <Gold.PLP.part.buried>
-4.3666

> <Gold.PLP.part.nonpolar>
-24.2910

> <Gold.PLP.part.repulsive>
0.2741

> <Gold.PLP.ligand.clash>
0.0000

> <Gold.PLP.ligand.torsion>
1.0417

> <Gold.PLP.Chemscore.Hbond>
2.7360

> <Gold.PLP.Chemscore.CHOScore>
0.0000

> <Gold.PLP.Chemscore.Metal>
0.0000

> <Gold.Chemscore.Hbonds>
donor molecule, donor type, donor heavy atom, donor atom, acceptor molecule, acceptor atom, score
      P1  H  6896  6909       L1     8  1.00
      P1  H  6931  6943       L1    19  1.00
      P1  H  6934  6947       L1    19  0.61

> <Gold.PLP.Chemscore.Internal.Correction>
1.0897

> <Gold.Rescore>
     Score         DG    S(hbond)    S(metal)    S(lipo)     H(rot)  DE(clash)    DE(int)     intcor
     14.89     -16.86       2.15        0.00      57.93       1.00       0.31       1.67       ----

> <Gold.Chemscore.Fitness>
14.8872

> <Gold.Chemscore.DG>
-16.8632

> <Gold.Chemscore.ZeroCoef>
-5.4800

> <Gold.Chemscore.Hbond>
2.1455

> <Gold.Chemscore.Metal>
0.0000

> <Gold.Chemscore.Lipo>
57.9251

> <Gold.Chemscore.Internal_Hbond>
0.0000

> <Gold.Chemscore.DEClash>
0.3094

> <Gold.Chemscore.DEInternal>
1.6665

> <Gold.Chemscore.Rot>
1.0000

> <Gold.Chemscore.Internal.Correction>
   9.000000E+99

> <Gold.Chemscore.Hbonds>
donor molecule, donor type, donor heavy atom, donor atom, acceptor molecule, acceptor atom, score
      P1  H  6896  6909       L1     8  0.86
      P1  H  6931  6943       L1    19  0.81
      P1  H  6934  6947       L1    19  0.32

> <Gold.Chemscore.Hbond.Weighted>
-7.1659

> <Gold.Chemscore.Metal.Weighted>
-0.0000

> <Gold.Chemscore.Lipo.Weighted>
-6.7772

> <Gold.Chemscore.Internal_Hbond.Weighted>
0.0000

> <Gold.Chemscore.DEClash.Weighted>
0.3094

> <Gold.Chemscore.DEInternal.Weighted>
1.6665

> <Gold.Chemscore.Rot.Weighted>
2.5600

> <Gold.Chemscore.Internal.Correction.Weighted>
   9.000000E+99

> <Gold.Protein.RotatedTorsions>
[ 6907 6896 6895 6894 ] final   51.98 input  -60.11 | X-H torsion
[ 7974 7965 7964 7962 ] final -164.64 input  175.53 | X-H torsion
[ 8008 7997 7996 7995 ] final   31.35 input   59.86 | X-H torsion
[ 10167 10162 10161 10158 ] final   -5.87 input  -65.29 | X-H torsion
[ 10718 10713 10712 10709 ] final   29.39 input   66.30 | X-H torsion
[ 10763 10752 10751 10750 ] final  -47.50 input  -60.55 | X-H torsion
[ 11005 11000 10999 10996 ] final  -95.40 input  -57.11 | X-H torsion

> <Gold.Protein.ActiveResidues>
 VAL166  LYS551  ARG553  GLY616  TRP617  ASP618  TYR619  PRO620  LYS621  CYS622 
 ASP623  PHE694  ASN695  SER759  ASP760  ASP761  ALA762  ILE779  LEU786  VAL792 
 PHE793  MET794  SER795  GLU796  ALA797  LYS798  CYS799  TRP800  GLU811  SER814 

> <Gold.Protein.RotatedAtoms>
  152.3184  134.7410  160.0319 H   0  0  0  0  0  0  0  0  0  0  0  0  # atno 6907 bound_to 6896
  151.7867  133.3350  159.3495 H   0  0  0  0  0  0  0  0  0  0  0  0  # atno 6908 bound_to 6896
  150.7357  134.5811  159.5984 H   0  0  0  0  0  0  0  0  0  0  0  0  # atno 6909 bound_to 6896
  144.7291  140.2932  143.6217 H   0  0  0  0  0  0  0  0  0  0  0  0  # atno 7974 bound_to 7965
  155.1050  140.3233  155.4537 H   0  0  0  0  0  0  0  0  0  0  0  0  # atno 8008 bound_to 7997
  156.2706  140.2054  156.6122 H   0  0  0  0  0  0  0  0  0  0  0  0  # atno 8009 bound_to 7997
  154.6800  140.0527  157.0243 H   0  0  0  0  0  0  0  0  0  0  0  0  # atno 8010 bound_to 7997
  140.6978  143.6258  150.8569 H   0  0  0  0  0  0  0  0  0  0  0  0  # atno 10167 bound_to 10162
  157.2459  130.7092  149.6381 H   0  0  0  0  0  0  0  0  0  0  0  0  # atno 10718 bound_to 10713
  154.0625  135.6616  153.4813 H   0  0  0  0  0  0  0  0  0  0  0  0  # atno 10763 bound_to 10752
  153.0421  135.5138  154.7645 H   0  0  0  0  0  0  0  0  0  0  0  0  # atno 10764 bound_to 10752
  154.6686  135.3026  154.9739 H   0  0  0  0  0  0  0  0  0  0  0  0  # atno 10765 bound_to 10752
  141.1443  133.8024  157.0430 H   0  0  0  0  0  0  0  0  0  0  0  0  # atno 11005 bound_to 11000
  145.7835  139.1900  143.2144 LP  0  0  0  0  0  0  0  0  0  0  0  0  # atno 17320 bound_to 7965
  146.0815  140.7759  142.9639 LP  0  0  0  0  0  0  0  0  0  0  0  0  # atno 17321 bound_to 7965
  139.9978  143.5777  152.2887 LP  0  0  0  0  0  0  0  0  0  0  0  0  # atno 17342 bound_to 10162
  139.6455  144.7658  151.2251 LP  0  0  0  0  0  0  0  0  0  0  0  0  # atno 17343 bound_to 10162
  155.9668  130.4443  150.5455 LP  0  0  0  0  0  0  0  0  0  0  0  0  # atno 17370 bound_to 10713
  157.3329  131.0703  151.1847 LP  0  0  0  0  0  0  0  0  0  0  0  0  # atno 17371 bound_to 10713
  140.0680  134.9718  157.1419 LP  0  0  0  0  0  0  0  0  0  0  0  0  # atno 17394 bound_to 11000
  140.3751  134.2347  155.7175 LP  0  0  0  0  0  0  0  0  0  0  0  0  # atno 17395 bound_to 11000

$$$$
