AV-unprocessed.smi:104|AV-procd|sdf|999|dock7
  -GOLD-   2262017583D 1   1.00000     0.00000
 Structure written by MMmdl.
 47 49  0  0  0  0  0  0  0  0  1 V2000
  147.1944  134.7335  162.1122 C   0  0  0  0  0  0  0  0  0  0  0  0
  147.5192  135.8968  161.1844 C   0  0  0  0  0  0  0  0  0  0  0  0
  147.4106  137.0658  161.5553 O   0  0  0  0  0  0  0  0  0  0  0  0
  147.9189  135.4873  159.9714 O   0  0  0  0  0  0  0  0  0  0  0  0
  148.5940  136.3931  159.1148 C   0  0  0  0  0  0  0  0  0  0  0  0
  147.5932  137.4160  158.5665 C   0  0  2  0  0  0  0  0  0  0  0  0
  146.3209  136.8074  158.4096 O   0  0  0  0  0  0  0  0  0  0  0  0
  145.5900  137.4949  157.4447 C   0  0  2  0  0  0  0  0  0  0  0  0
  144.8317  136.4790  156.6451 N   0  0  0  0  0  0  0  0  0  0  0  0
  144.8241  135.1080  156.7645 C   0  0  0  0  0  0  0  0  0  0  0  0
  145.8468  134.1940  158.0853 Br  0  0  0  0  0  0  0  0  0  0  0  0
  144.0678  134.4423  155.9370 N   0  0  0  0  0  0  0  0  0  0  0  0
  143.4885  135.4489  155.1743 C   0  0  0  0  0  0  0  0  0  0  0  0
  142.5640  135.4625  154.0997 C   0  0  0  0  0  0  0  0  0  0  0  0
  142.0364  134.3479  153.5745 N   0  0  0  0  0  0  0  0  0  0  0  0
  142.1947  136.6564  153.5792 N   0  0  0  0  0  0  0  0  0  0  0  0
  142.7057  137.7835  154.0857 C   0  0  0  0  0  0  0  0  0  0  0  0
  143.5795  137.9298  155.0851 N   0  0  0  0  0  0  0  0  0  0  0  0
  143.9538  136.7249  155.6078 C   0  0  0  0  0  0  0  0  0  0  0  0
  146.5825  138.3107  156.5887 C   0  0  2  0  0  0  0  0  0  0  0  0
  146.4929  137.9991  155.2011 O   0  0  0  0  0  0  0  0  0  0  0  0
  147.4105  138.4638  154.3387 C   0  0  0  0  0  0  0  0  0  0  0  0
  146.8368  138.6784  152.9448 C   0  0  0  0  0  0  0  0  0  0  0  0
  148.5911  138.7016  154.5930 O   0  0  0  0  0  0  0  0  0  0  0  0
  147.9345  137.9028  157.1584 C   0  0  1  0  0  0  0  0  0  0  0  0
  148.7872  139.0402  157.2021 O   0  0  0  0  0  0  0  0  0  0  0  0
  150.0608  138.9232  157.6130 C   0  0  0  0  0  0  0  0  0  0  0  0
  150.7876  140.2610  157.6280 C   0  0  0  0  0  0  0  0  0  0  0  0
  150.6238  137.8822  157.9512 O   0  0  0  0  0  0  0  0  0  0  0  0
  148.1100  134.2261  162.4166 H   0  0  0  0  0  0  0  0  0  0  0  0
  146.5496  134.0135  161.6080 H   0  0  0  0  0  0  0  0  0  0  0  0
  146.6811  135.0880  163.0061 H   0  0  0  0  0  0  0  0  0  0  0  0
  149.3699  136.9025  159.6878 H   0  0  0  0  0  0  0  0  0  0  0  0
  149.0845  135.8628  158.2972 H   0  0  0  0  0  0  0  0  0  0  0  0
  147.4937  138.2697  159.2398 H   0  0  0  0  0  0  0  0  0  0  0  0
  144.8329  138.1165  157.9215 H   0  0  0  0  0  0  0  0  0  0  0  0
  142.2951  133.4449  153.9457 H   0  0  0  0  0  0  0  0  0  0  0  0
  141.3855  134.4120  152.8053 H   0  0  0  0  0  0  0  0  0  0  0  0
  142.3669  138.6992  153.6240 H   0  0  0  0  0  0  0  0  0  0  0  0
  146.3776  139.3656  156.7789 H   0  0  0  0  0  0  0  0  0  0  0  0
  146.0997  139.4814  152.9589 H   0  0  0  0  0  0  0  0  0  0  0  0
  146.3521  137.7686  152.5905 H   0  0  0  0  0  0  0  0  0  0  0  0
  147.6267  138.9447  152.2422 H   0  0  0  0  0  0  0  0  0  0  0  0
  148.3428  137.0812  156.5667 H   0  0  0  0  0  0  0  0  0  0  0  0
  150.3480  140.9216  158.3752 H   0  0  0  0  0  0  0  0  0  0  0  0
  150.7154  140.7425  156.6527 H   0  0  0  0  0  0  0  0  0  0  0  0
  151.8421  140.1215  157.8669 H   0  0  0  0  0  0  0  0  0  0  0  0
  1  2  1  0  0  0  0
  1 30  1  0  0  0  0
  1 31  1  0  0  0  0
  1 32  1  0  0  0  0
  2  3  2  0  0  0  0
  2  4  1  0  0  0  0
  4  5  1  0  0  0  0
  5  6  1  0  0  0  0
  5 33  1  0  0  0  0
  5 34  1  0  0  0  0
  6 25  1  0  0  0  0
  6  7  1  0  0  0  0
  6 35  1  0  0  0  0
  7  8  1  0  0  0  0
  8  9  1  0  0  0  0
  8 20  1  0  0  0  0
  8 36  1  0  0  0  0
  9 19  1  0  0  0  0
  9 10  1  0  0  0  0
 10 11  1  0  0  0  0
 10 12  2  0  0  0  0
 12 13  1  0  0  0  0
 13 19  2  0  0  0  0
 13 14  1  0  0  0  0
 14 15  1  0  0  0  0
 14 16  2  0  0  0  0
 15 37  1  0  0  0  0
 15 38  1  0  0  0  0
 16 17  1  0  0  0  0
 17 18  2  0  0  0  0
 17 39  1  0  0  0  0
 18 19  1  0  0  0  0
 20 21  1  0  0  0  0
 20 25  1  0  0  0  0
 20 40  1  0  0  0  0
 21 22  1  0  0  0  0
 22 23  1  0  0  0  0
 22 24  2  0  0  0  0
 23 41  1  0  0  0  0
 23 42  1  0  0  0  0
 23 43  1  0  0  0  0
 25 26  1  0  0  0  0
 25 44  1  0  0  0  0
 26 27  1  0  0  0  0
 27 28  1  0  0  0  0
 27 29  2  0  0  0  0
 28 45  1  0  0  0  0
 28 46  1  0  0  0  0
 28 47  1  0  0  0  0
M  END
> <s_m_source_file>
AV-unprocessed.smi

> <i_m_source_file_index>
104

> <i_lp_mmshare_version>
43012

> <i_f3d_flags>
0

> <s_epik_input>
W0NIM11DKD1PKU9bQ0gyXVtDQEBIXTFPW0NASF0oW0NAQEhdKE9DKD1PKVtDSDNdKVtDQEhdMU9DKD1PKVtDSDNdKW4oYyhCciluMiljKGMyMyluW2NIXW5jM1tOSDJd

> <s_epik_cmdline>
J2VwaWtfcHl0aG9uJywgJy1waCcsICc3LjAnLCAnLXRuJywgJzgnLCAnLW1hJywgJzIwMCcsICctbWV0YWxfYmluZGluZycsICctaW1hZScsICc8aW5maWxlLm1hZT4nLCAnLW9tYWUnLCAnPG91dGZpbGUubWFlPic=

> <r_lp_tautomer_probability>
1

> <r_epik_Ionization_Penalty>
7.36622e-05

> <r_epik_Ionization_Penalty_Charging>
0

> <r_epik_Ionization_Penalty_Neutral>
7.36622e-05

> <r_epik_State_Penalty>
-0

> <r_epik_Charging_Adjusted_Penalty>
0

> <i_epik_Tot_Q>
0

> <i_epik_Tot_abs_Q>
0

> <r_epik_Metal_State_Penalty>
-0

> <b_epik_Metal_Only>
0

> <s_epik_Chemistry_Notes>
This compound has an ester and may undergo hydrolysis at high or low pH. This compound contains an acetal/aminal-like group ( X-CH(R)-Y where X, Y are N, S, or O) that may be acid/base labile, releasing an aldehyde.

> <s_lp_Force_Field>
OPLS_2005

> <r_lp_Energy>
16.6292

> <b_lp_Chiralities_Consistent>
1

> <s_lp_Variant>
AV-unprocessed.smi:104-7

> <Gold.Version>
5.8.1

> <Gold.Id.Protein>
6NUR|6NUR_protein|mol2

> <Gold.PLP.Fitness>
33.1468

> <Gold.PLP.PLP>
-23.8544

> <Gold.PLP.part.hbond>
-3.0000

> <Gold.PLP.part.metal>
0.0000

> <Gold.PLP.part.buried>
-5.5100

> <Gold.PLP.part.nonpolar>
-14.9377

> <Gold.PLP.part.repulsive>
0.5026

> <Gold.PLP.ligand.clash>
0.0000

> <Gold.PLP.ligand.torsion>
1.0776

> <Gold.PLP.Chemscore.Hbond>
2.7920

> <Gold.PLP.Chemscore.CHOScore>
1.0000

> <Gold.PLP.Chemscore.Metal>
0.0000

> <Gold.Chemscore.Hbonds>
donor molecule, donor type, donor heavy atom, donor atom, acceptor molecule, acceptor atom, score
      L1  H    15    37       P1 10957  1.00
      P1  H  6931  6943       L1     3  0.97
      P1  H  6934  6947       L1     3  0.83
      L1  C    17    39       P1 10175  1.00

> <Gold.PLP.Chemscore.Internal.Correction>
0.0715

> <Gold.Rescore>
     Score         DG    S(hbond)    S(metal)    S(lipo)     H(rot)  DE(clash)    DE(int)     intcor
     -2.51      -6.93       2.72        0.00      28.88       4.31       0.01       9.43       ----

> <Gold.Chemscore.Fitness>
-2.5117

> <Gold.Chemscore.DG>
-6.9301

> <Gold.Chemscore.ZeroCoef>
-5.4800

> <Gold.Chemscore.Hbond>
2.7238

> <Gold.Chemscore.Metal>
0.0000

> <Gold.Chemscore.Lipo>
28.8755

> <Gold.Chemscore.Internal_Hbond>
0.0000

> <Gold.Chemscore.DEClash>
0.0121

> <Gold.Chemscore.DEInternal>
9.4297

> <Gold.Chemscore.Rot>
4.3070

> <Gold.Chemscore.Internal.Correction>
   9.000000E+99

> <Gold.Chemscore.Hbonds>
donor molecule, donor type, donor heavy atom, donor atom, acceptor molecule, acceptor atom, score
      L1  H    15    37       P1 10957  1.00
      P1  H  6931  6943       L1     3  0.86
      P1  H  6934  6947       L1     3  0.78

> <Gold.Chemscore.Hbond.Weighted>
-9.0976

> <Gold.Chemscore.Metal.Weighted>
-0.0000

> <Gold.Chemscore.Lipo.Weighted>
-3.3784

> <Gold.Chemscore.Internal_Hbond.Weighted>
0.0000

> <Gold.Chemscore.DEClash.Weighted>
0.0121

> <Gold.Chemscore.DEInternal.Weighted>
9.4297

> <Gold.Chemscore.Rot.Weighted>
11.0259

> <Gold.Chemscore.Internal.Correction.Weighted>
   9.000000E+99

> <Gold.Protein.RotatedTorsions>
[ 6907 6896 6895 6894 ] final   40.49 input  -60.11 | X-H torsion
[ 7974 7965 7964 7962 ] final   59.24 input  175.53 | X-H torsion
[ 8008 7997 7996 7995 ] final  -87.74 input   59.86 | X-H torsion
[ 10167 10162 10161 10158 ] final   30.71 input  -65.29 | X-H torsion
[ 10718 10713 10712 10709 ] final  146.60 input   66.30 | X-H torsion
[ 10763 10752 10751 10750 ] final  -58.89 input  -60.55 | X-H torsion
[ 11005 11000 10999 10996 ] final -151.61 input  -57.11 | X-H torsion

> <Gold.Protein.ActiveResidues>
 VAL166  LYS551  ARG553  GLY616  TRP617  ASP618  TYR619  PRO620  LYS621  CYS622 
 ASP623  PHE694  ASN695  SER759  ASP760  ASP761  ALA762  ILE779  LEU786  VAL792 
 PHE793  MET794  SER795  GLU796  ALA797  LYS798  CYS799  TRP800  GLU811  SER814 

> <Gold.Protein.RotatedAtoms>
  152.1832  134.8736  160.0524 H   0  0  0  0  0  0  0  0  0  0  0  0  # atno 6907 bound_to 6896
  151.9653  133.3703  159.4058 H   0  0  0  0  0  0  0  0  0  0  0  0  # atno 6908 bound_to 6896
  150.6921  134.4121  159.5210 H   0  0  0  0  0  0  0  0  0  0  0  0  # atno 6909 bound_to 6896
  145.9093  139.3641  143.0545 H   0  0  0  0  0  0  0  0  0  0  0  0  # atno 7974 bound_to 7965
  154.6667  140.0562  157.0122 H   0  0  0  0  0  0  0  0  0  0  0  0  # atno 8008 bound_to 7997
  155.1148  140.3242  155.4493 H   0  0  0  0  0  0  0  0  0  0  0  0  # atno 8009 bound_to 7997
  156.2641  140.2008  156.6272 H   0  0  0  0  0  0  0  0  0  0  0  0  # atno 8010 bound_to 7997
  140.4653  144.0844  150.6223 H   0  0  0  0  0  0  0  0  0  0  0  0  # atno 10167 bound_to 10162
  157.3312  131.0920  151.1160 H   0  0  0  0  0  0  0  0  0  0  0  0  # atno 10718 bound_to 10713
  154.2452  135.6336  153.5221 H   0  0  0  0  0  0  0  0  0  0  0  0  # atno 10763 bound_to 10752
  152.9922  135.5551  154.5867 H   0  0  0  0  0  0  0  0  0  0  0  0  # atno 10764 bound_to 10752
  154.5382  135.2893  155.1094 H   0  0  0  0  0  0  0  0  0  0  0  0  # atno 10765 bound_to 10752
  140.7278  134.3655  157.5172 H   0  0  0  0  0  0  0  0  0  0  0  0  # atno 11005 bound_to 11000
  145.8692  140.9430  143.0659 LP  0  0  0  0  0  0  0  0  0  0  0  0  # atno 17320 bound_to 7965
  144.6742  140.0632  143.7475 LP  0  0  0  0  0  0  0  0  0  0  0  0  # atno 17321 bound_to 7965
  140.4043  143.2688  151.9910 LP  0  0  0  0  0  0  0  0  0  0  0  0  # atno 17342 bound_to 10162
  139.4811  144.5970  151.7672 LP  0  0  0  0  0  0  0  0  0  0  0  0  # atno 17343 bound_to 10162
  157.2408  130.6568  149.5889 LP  0  0  0  0  0  0  0  0  0  0  0  0  # atno 17370 bound_to 10713
  155.9696  130.4569  150.5942 LP  0  0  0  0  0  0  0  0  0  0  0  0  # atno 17371 bound_to 10713
  139.8833  134.8998  156.2774 LP  0  0  0  0  0  0  0  0  0  0  0  0  # atno 17394 bound_to 11000
  140.9948  133.7187  156.0869 LP  0  0  0  0  0  0  0  0  0  0  0  0  # atno 17395 bound_to 11000

$$$$
