AV-unprocessed.smi:35|AV-procd|sdf|260|dock7
  -GOLD-   2262016 23D 1   1.00000     0.00000
 Structure written by MMmdl.
 29 30  0  0  0  0  0  0  0  0  1 V2000
  152.1741  136.0307  156.4053 O   0  0  0  0  0  0  0  0  0  0  0  0
  151.4052  136.8449  155.8990 C   0  0  0  0  0  0  0  0  0  0  0  0
  151.8244  138.1566  155.6575 N   0  0  0  0  0  0  0  0  0  0  0  0
  151.0454  139.1651  155.0866 C   0  0  0  0  0  0  0  0  0  0  0  0
  151.5115  140.2945  154.9405 O   0  0  0  0  0  0  0  0  0  0  0  0
  149.7274  138.8258  154.7073 N   0  0  0  0  0  0  0  0  0  0  0  0
  148.8409  139.8852  154.0941 C   0  0  1  0  0  0  0  0  0  0  0  0
  147.5258  139.4120  154.0659 O   0  0  0  0  0  0  0  0  0  0  0  0
  146.6463  140.3643  154.6551 C   0  0  1  0  0  0  0  0  0  0  0  0
  145.4359  139.6298  155.2528 C   0  0  0  0  0  0  0  0  0  0  0  0
  144.7101  138.9628  154.2427 O   0  0  0  0  0  0  0  0  0  0  0  0
  147.5335  141.0870  155.6717 C   0  0  2  0  0  0  0  0  0  0  0  0
  147.0431  142.3581  156.0543 O   0  0  0  0  0  0  0  0  0  0  0  0
  148.8726  141.1634  154.9480 C   0  0  2  0  0  0  0  0  0  0  0  0
  148.9894  142.3150  154.1307 O   0  0  0  0  0  0  0  0  0  0  0  0
  149.2592  137.5406  154.9484 C   0  0  0  0  0  0  0  0  0  0  0  0
  150.0258  136.5755  155.5078 C   0  0  0  0  0  0  0  0  0  0  0  0
  149.1714  134.8075  155.7699 Br  0  0  0  0  0  0  0  0  0  0  0  0
  152.7686  138.3961  155.9238 H   0  0  0  0  0  0  0  0  0  0  0  0
  149.1824  140.0233  153.0662 H   0  0  0  0  0  0  0  0  0  0  0  0
  146.3315  141.0512  153.8671 H   0  0  0  0  0  0  0  0  0  0  0  0
  145.7719  138.8848  155.9742 H   0  0  0  0  0  0  0  0  0  0  0  0
  144.7803  140.3196  155.7851 H   0  0  0  0  0  0  0  0  0  0  0  0
  144.5232  139.5778  153.5498 H   0  0  0  0  0  0  0  0  0  0  0  0
  147.6450  140.4698  156.5643 H   0  0  0  0  0  0  0  0  0  0  0  0
  147.7371  142.9902  155.9424 H   0  0  0  0  0  0  0  0  0  0  0  0
  149.7109  141.1528  155.6462 H   0  0  0  0  0  0  0  0  0  0  0  0
  148.9632  143.0796  154.6858 H   0  0  0  0  0  0  0  0  0  0  0  0
  148.2417  137.2872  154.6902 H   0  0  0  0  0  0  0  0  0  0  0  0
  1  2  2  0  0  0  0
  2 17  1  0  0  0  0
  2  3  1  0  0  0  0
  3 19  1  0  0  0  0
  3  4  1  0  0  0  0
  4  5  2  0  0  0  0
  4  6  1  0  0  0  0
  6  7  1  0  0  0  0
  6 16  1  0  0  0  0
  7 14  1  0  0  0  0
  7  8  1  0  0  0  0
  7 20  1  0  0  0  0
  8  9  1  0  0  0  0
  9 10  1  0  0  0  0
  9 12  1  0  0  0  0
  9 21  1  0  0  0  0
 10 11  1  0  0  0  0
 10 22  1  0  0  0  0
 10 23  1  0  0  0  0
 11 24  1  0  0  0  0
 12 13  1  0  0  0  0
 12 14  1  0  0  0  0
 12 25  1  0  0  0  0
 13 26  1  0  0  0  0
 14 15  1  0  0  0  0
 14 27  1  0  0  0  0
 15 28  1  0  0  0  0
 16 17  2  0  0  0  0
 16 29  1  0  0  0  0
 17 18  1  0  0  0  0
M  END
> <s_m_source_file>
AV-unprocessed.smi

> <i_m_source_file_index>
35

> <i_lp_mmshare_version>
43012

> <i_f3d_flags>
0

> <s_epik_input>
Tz1jMVtuSF1jKD1PKW4oW2NIXWMxQnIpW0NAQEhdMk9bQ0BASF0oW0NIMl1bT0hdKVtDQEBIXShbT0hdKVtDQEhdMltPSF0=

> <s_epik_cmdline>
J2VwaWtfcHl0aG9uJywgJy1waCcsICc3LjAnLCAnLXRuJywgJzgnLCAnLW1hJywgJzIwMCcsICctbWV0YWxfYmluZGluZycsICctaW1hZScsICc8aW5maWxlLm1hZT4nLCAnLW9tYWUnLCAnPG91dGZpbGUubWFlPic=

> <r_lp_tautomer_probability>
0.999537

> <r_epik_Ionization_Penalty>
0.10812

> <r_epik_Ionization_Penalty_Charging>
0.108119

> <r_epik_Ionization_Penalty_Neutral>
4.93006e-07

> <r_epik_State_Penalty>
0.0979238

> <r_epik_Charging_Adjusted_Penalty>
0.206043

> <i_epik_Tot_Q>
0

> <i_epik_Tot_abs_Q>
0

> <r_epik_Metal_State_Penalty>
3.07911

> <b_epik_Metal_Only>
0

> <s_epik_Chemistry_Notes>
This compound contains an acetal/aminal-like group ( X-CH(R)-Y where X, Y are N, S, or O) that may be acid/base labile, releasing an aldehyde.

> <s_lp_Force_Field>
OPLS_2005

> <r_lp_Energy>
30.2872

> <b_lp_Chiralities_Consistent>
1

> <s_lp_Variant>
AV-unprocessed.smi:35-14

> <Gold.Version>
5.8.1

> <Gold.Id.Protein>
6NUR|6NUR_protein|mol2

> <Gold.PLP.Fitness>
36.3805

> <Gold.PLP.PLP>
-21.0685

> <Gold.PLP.part.hbond>
-5.7390

> <Gold.PLP.part.metal>
0.0000

> <Gold.PLP.part.buried>
-1.5619

> <Gold.PLP.part.nonpolar>
-14.0776

> <Gold.PLP.part.repulsive>
0.3378

> <Gold.PLP.ligand.clash>
0.0000

> <Gold.PLP.ligand.torsion>
0.2103

> <Gold.PLP.Chemscore.Hbond>
5.2400

> <Gold.PLP.Chemscore.CHOScore>
0.0000

> <Gold.PLP.Chemscore.Metal>
0.0000

> <Gold.Chemscore.Hbonds>
donor molecule, donor type, donor heavy atom, donor atom, acceptor molecule, acceptor atom, score
      L1  H    11    24       P1 10175  1.00
      L1  H    13    26       P1  8028  0.91
      L1  H    15    28       P1  8028  1.00
      P1  H  7989  7998       L1     5  1.00
      P1  H  8011  8017       L1    15  0.22
      P1  H 10752 10763       L1     1  1.00

> <Gold.PLP.Chemscore.Internal.Correction>
0.0125

> <Gold.Rescore>
     Score         DG    S(hbond)    S(metal)    S(lipo)     H(rot)  DE(clash)    DE(int)     intcor
     12.44     -14.15       4.55        0.00      24.68       3.67       0.04       1.67       ----

> <Gold.Chemscore.Fitness>
12.4395

> <Gold.Chemscore.DG>
-14.1529

> <Gold.Chemscore.ZeroCoef>
-5.4800

> <Gold.Chemscore.Hbond>
4.5451

> <Gold.Chemscore.Metal>
0.0000

> <Gold.Chemscore.Lipo>
24.6813

> <Gold.Chemscore.Internal_Hbond>
0.0000

> <Gold.Chemscore.DEClash>
0.0387

> <Gold.Chemscore.DEInternal>
1.6747

> <Gold.Chemscore.Rot>
3.6701

> <Gold.Chemscore.Internal.Correction>
   9.000000E+99

> <Gold.Chemscore.Hbonds>
donor molecule, donor type, donor heavy atom, donor atom, acceptor molecule, acceptor atom, score
      L1  H    11    24       P1 10175  0.99
      L1  H    13    26       P1  8028  0.30
      L1  H    15    28       P1  8028  1.00
      P1  H  7989  7998       L1     5  0.87
      P1  H  8011  8017       L1    15  0.21
      P1  H 10752 10763       L1     1  0.65

> <Gold.Chemscore.Hbond.Weighted>
-15.1807

> <Gold.Chemscore.Metal.Weighted>
-0.0000

> <Gold.Chemscore.Lipo.Weighted>
-2.8877

> <Gold.Chemscore.Internal_Hbond.Weighted>
0.0000

> <Gold.Chemscore.DEClash.Weighted>
0.0387

> <Gold.Chemscore.DEInternal.Weighted>
1.6747

> <Gold.Chemscore.Rot.Weighted>
9.3955

> <Gold.Chemscore.Internal.Correction.Weighted>
   9.000000E+99

> <Gold.Protein.RotatedTorsions>
[ 6907 6896 6895 6894 ] final -144.29 input  -60.11 | X-H torsion
[ 7974 7965 7964 7962 ] final   -4.10 input  175.53 | X-H torsion
[ 8008 7997 7996 7995 ] final   52.66 input   59.86 | X-H torsion
[ 10167 10162 10161 10158 ] final  -93.99 input  -65.29 | X-H torsion
[ 10718 10713 10712 10709 ] final    9.66 input   66.30 | X-H torsion
[ 10763 10752 10751 10750 ] final   97.73 input  -60.55 | X-H torsion
[ 11005 11000 10999 10996 ] final  -25.49 input  -57.11 | X-H torsion

> <Gold.Protein.ActiveResidues>
 VAL166  LYS551  ARG553  GLY616  TRP617  ASP618  TYR619  PRO620  LYS621  CYS622 
 ASP623  PHE694  ASN695  SER759  ASP760  ASP761  ALA762  ILE779  LEU786  VAL792 
 PHE793  MET794  SER795  GLU796  ALA797  LYS798  CYS799  TRP800  GLU811  SER814 

> <Gold.Protein.RotatedAtoms>
  151.1120  133.5166  159.2605 H   0  0  0  0  0  0  0  0  0  0  0  0  # atno 6907 bound_to 6896
  151.1957  135.0421  159.8861 H   0  0  0  0  0  0  0  0  0  0  0  0  # atno 6908 bound_to 6896
  152.5450  134.0954  159.8348 H   0  0  0  0  0  0  0  0  0  0  0  0  # atno 6909 bound_to 6896
  146.2378  140.1821  142.8332 H   0  0  0  0  0  0  0  0  0  0  0  0  # atno 7974 bound_to 7965
  155.4555  140.3460  155.4306 H   0  0  0  0  0  0  0  0  0  0  0  0  # atno 8008 bound_to 7997
  156.1193  140.1483  156.9257 H   0  0  0  0  0  0  0  0  0  0  0  0  # atno 8009 bound_to 7997
  154.4812  140.0869  156.7360 H   0  0  0  0  0  0  0  0  0  0  0  0  # atno 8010 bound_to 7997
  140.3190  143.3060  152.0067 H   0  0  0  0  0  0  0  0  0  0  0  0  # atno 10167 bound_to 10162
  156.9695  130.5964  149.5668 H   0  0  0  0  0  0  0  0  0  0  0  0  # atno 10718 bound_to 10713
  153.2804  135.4173  155.1073 H   0  0  0  0  0  0  0  0  0  0  0  0  # atno 10763 bound_to 10752
  154.8487  135.3494  154.6120 H   0  0  0  0  0  0  0  0  0  0  0  0  # atno 10764 bound_to 10752
  153.6540  135.7051  153.5257 H   0  0  0  0  0  0  0  0  0  0  0  0  # atno 10765 bound_to 10752
  140.8942  133.7567  156.0460 H   0  0  0  0  0  0  0  0  0  0  0  0  # atno 11005 bound_to 11000
  144.9926  140.8560  143.5330 LP  0  0  0  0  0  0  0  0  0  0  0  0  # atno 17320 bound_to 7965
  145.1829  139.2342  143.5283 LP  0  0  0  0  0  0  0  0  0  0  0  0  # atno 17321 bound_to 7965
  139.4878  144.6326  151.7040 LP  0  0  0  0  0  0  0  0  0  0  0  0  # atno 17342 bound_to 10162
  140.5500  144.0440  150.6123 LP  0  0  0  0  0  0  0  0  0  0  0  0  # atno 17343 bound_to 10162
  156.0288  130.5381  150.8480 LP  0  0  0  0  0  0  0  0  0  0  0  0  # atno 17370 bound_to 10713
  157.5602  131.0945  150.9570 LP  0  0  0  0  0  0  0  0  0  0  0  0  # atno 17371 bound_to 10713
  140.8309  134.3179  157.5349 LP  0  0  0  0  0  0  0  0  0  0  0  0  # atno 17394 bound_to 11000
  139.8733  134.9363  156.3656 LP  0  0  0  0  0  0  0  0  0  0  0  0  # atno 17395 bound_to 11000

$$$$
