AV-unprocessed.smi:440|AV-procd|sdf|2581|dock2
  -GOLD-   2262022563D 1   1.00000     0.00000
 Structure written by MMmdl.
 41 42  0  0  0  0  0  0  0  0  1 V2000
  152.6450  138.8678  154.8466 C   0  0  0  0  0  0  0  0  0  0  0  0
  151.9879  139.7495  155.8700 C   0  0  0  0  0  0  0  0  0  0  0  0
  152.4519  139.7619  157.1075 N   0  0  0  0  0  0  0  0  0  0  0  0
  151.6621  140.6349  157.7665 N   0  0  0  0  0  0  0  0  0  0  0  0
  151.9049  140.8810  159.1802 C   0  0  0  0  0  0  0  0  0  0  0  0
  152.9365  142.0011  159.4368 C   0  0  0  0  0  0  0  0  0  0  0  0
  153.3077  142.0643  160.9256 C   0  0  0  0  0  0  0  0  0  0  0  0
  152.4698  143.3772  158.9304 C   0  0  0  0  0  0  0  0  0  0  0  0
  150.7020  141.1840  156.9357 C   0  0  0  0  0  0  0  0  0  0  0  0
  149.7044  142.1909  157.4122 C   0  0  0  0  0  0  0  0  0  0  0  0
  150.8803  140.6302  155.6958 C   0  0  0  0  0  0  0  0  0  0  0  0
  150.1004  140.8842  154.4305 C   0  0  0  0  0  0  0  0  0  0  0  0
  148.6932  140.3023  154.5664 C   0  0  0  0  0  0  0  0  0  0  0  0
  148.3046  139.8808  155.6556 O   0  0  0  0  0  0  0  0  0  0  0  0
  147.9443  140.2917  153.4536 N   0  0  0  0  0  0  0  0  0  0  0  0
  146.5998  139.8246  153.3606 C   0  0  0  0  0  0  0  0  0  0  0  0
  146.3567  138.3405  153.5287 C   0  0  0  0  0  0  0  0  0  0  0  0
  146.2410  138.9671  152.1664 C   0  0  0  0  0  0  0  0  0  0  0  0
  151.9091  138.2438  154.3392 H   0  0  0  0  0  0  0  0  0  0  0  0
  153.3835  138.2042  155.2983 H   0  0  0  0  0  0  0  0  0  0  0  0
  153.1550  139.4635  154.0897 H   0  0  0  0  0  0  0  0  0  0  0  0
  150.9568  141.1312  159.6594 H   0  0  0  0  0  0  0  0  0  0  0  0
  152.2373  139.9491  159.6383 H   0  0  0  0  0  0  0  0  0  0  0  0
  153.8460  141.7490  158.8910 H   0  0  0  0  0  0  0  0  0  0  0  0
  152.4421  142.3159  161.5391 H   0  0  0  0  0  0  0  0  0  0  0  0
  154.0756  142.8163  161.1089 H   0  0  0  0  0  0  0  0  0  0  0  0
  153.6965  141.1072  161.2747 H   0  0  0  0  0  0  0  0  0  0  0  0
  151.5311  143.6728  159.3998 H   0  0  0  0  0  0  0  0  0  0  0  0
  152.3185  143.3790  157.8509 H   0  0  0  0  0  0  0  0  0  0  0  0
  153.2091  144.1474  159.1517 H   0  0  0  0  0  0  0  0  0  0  0  0
  149.1412  142.6124  156.5796 H   0  0  0  0  0  0  0  0  0  0  0  0
  150.1959  143.0166  157.9265 H   0  0  0  0  0  0  0  0  0  0  0  0
  148.9915  141.7363  158.0995 H   0  0  0  0  0  0  0  0  0  0  0  0
  150.0266  141.9503  154.2127 H   0  0  0  0  0  0  0  0  0  0  0  0
  150.5897  140.4366  153.5648 H   0  0  0  0  0  0  0  0  0  0  0  0
  148.3537  140.6627  152.6086 H   0  0  0  0  0  0  0  0  0  0  0  0
  145.8142  140.4838  153.7277 H   0  0  0  0  0  0  0  0  0  0  0  0
  147.2176  137.7014  153.7164 H   0  0  0  0  0  0  0  0  0  0  0  0
  145.4353  138.0363  154.0211 H   0  0  0  0  0  0  0  0  0  0  0  0
  145.2425  139.0817  151.7491 H   0  0  0  0  0  0  0  0  0  0  0  0
  147.0249  138.7452  151.4441 H   0  0  0  0  0  0  0  0  0  0  0  0
  1  2  1  0  0  0  0
  1 19  1  0  0  0  0
  1 20  1  0  0  0  0
  1 21  1  0  0  0  0
  2 11  1  0  0  0  0
  2  3  2  0  0  0  0
  3  4  1  0  0  0  0
  4  5  1  0  0  0  0
  4  9  1  0  0  0  0
  5  6  1  0  0  0  0
  5 22  1  0  0  0  0
  5 23  1  0  0  0  0
  6  7  1  0  0  0  0
  6  8  1  0  0  0  0
  6 24  1  0  0  0  0
  7 25  1  0  0  0  0
  7 26  1  0  0  0  0
  7 27  1  0  0  0  0
  8 28  1  0  0  0  0
  8 29  1  0  0  0  0
  8 30  1  0  0  0  0
  9 10  1  0  0  0  0
  9 11  2  0  0  0  0
 10 31  1  0  0  0  0
 10 32  1  0  0  0  0
 10 33  1  0  0  0  0
 11 12  1  0  0  0  0
 12 13  1  0  0  0  0
 12 34  1  0  0  0  0
 12 35  1  0  0  0  0
 13 14  2  0  0  0  0
 13 15  1  0  0  0  0
 15 16  1  0  0  0  0
 15 36  1  0  0  0  0
 16 18  1  0  0  0  0
 16 17  1  0  0  0  0
 16 37  1  0  0  0  0
 17 18  1  0  0  0  0
 17 38  1  0  0  0  0
 17 39  1  0  0  0  0
 18 40  1  0  0  0  0
 18 41  1  0  0  0  0
M  END
> <s_m_source_file>
AV-unprocessed.smi

> <i_m_source_file_index>
440

> <i_lp_mmshare_version>
43012

> <i_f3d_flags>
0

> <s_epik_input>
W0NIM11jMW5uKFtDSDJdW0NIXShbQ0gzXSlbQ0gzXSljKFtDSDNdKWMxW0NIMl1DKD1PKVtOSF1bQ0hdMltDSDJdW0NIMl0y

> <s_epik_cmdline>
J2VwaWtfcHl0aG9uJywgJy1waCcsICc3LjAnLCAnLXRuJywgJzgnLCAnLW1hJywgJzIwMCcsICctbWV0YWxfYmluZGluZycsICctaW1hZScsICc8aW5maWxlLm1hZT4nLCAnLW9tYWUnLCAnPG91dGZpbGUubWFlPic=

> <r_lp_tautomer_probability>
1

> <r_epik_Ionization_Penalty>
0.00313774

> <r_epik_Ionization_Penalty_Charging>
0

> <r_epik_Ionization_Penalty_Neutral>
0.00313774

> <r_epik_State_Penalty>
0.00220979

> <r_epik_Charging_Adjusted_Penalty>
0.00220979

> <i_epik_Tot_Q>
0

> <i_epik_Tot_abs_Q>
0

> <r_epik_Metal_State_Penalty>
-0

> <b_epik_Metal_Only>
0

> <s_lp_Force_Field>
OPLS_2005

> <r_lp_Energy>
13.2521

> <b_lp_Chiralities_Consistent>
1

> <s_lp_Variant>
AV-unprocessed.smi:440-1

> <Gold.Version>
5.8.1

> <Gold.Id.Protein>
6NUR|6NUR_protein|mol2

> <Gold.PLP.Fitness>
42.7645

> <Gold.PLP.PLP>
-38.1618

> <Gold.PLP.part.hbond>
-2.0000

> <Gold.PLP.part.metal>
0.0000

> <Gold.PLP.part.buried>
0.3914

> <Gold.PLP.part.nonpolar>
-37.3421

> <Gold.PLP.part.repulsive>
0.1200

> <Gold.PLP.ligand.clash>
0.0000

> <Gold.PLP.ligand.torsion>
0.6948

> <Gold.PLP.Chemscore.Hbond>
1.9760

> <Gold.PLP.Chemscore.CHOScore>
0.0000

> <Gold.PLP.Chemscore.Metal>
0.0000

> <Gold.Chemscore.Hbonds>
donor molecule, donor type, donor heavy atom, donor atom, acceptor molecule, acceptor atom, score
      L1  H    15    36       P1  7957  0.77
      P1  H  7997  8010       L1     3  0.80

> <Gold.PLP.Chemscore.Internal.Correction>
0.0644

> <Gold.Rescore>
     Score         DG    S(hbond)    S(metal)    S(lipo)     H(rot)  DE(clash)    DE(int)     intcor
     15.33     -18.36       1.39        0.00     103.81       1.53       1.66       1.37       ----

> <Gold.Chemscore.Fitness>
15.3261

> <Gold.Chemscore.DG>
-18.3558

> <Gold.Chemscore.ZeroCoef>
-5.4800

> <Gold.Chemscore.Hbond>
1.3945

> <Gold.Chemscore.Metal>
0.0000

> <Gold.Chemscore.Lipo>
103.8087

> <Gold.Chemscore.Internal_Hbond>
0.0000

> <Gold.Chemscore.DEClash>
1.6600

> <Gold.Chemscore.DEInternal>
1.3696

> <Gold.Chemscore.Rot>
1.5342

> <Gold.Chemscore.Internal.Correction>
   9.000000E+99

> <Gold.Chemscore.Hbonds>
donor molecule, donor type, donor heavy atom, donor atom, acceptor molecule, acceptor atom, score
      L1  H    15    36       P1  7957  0.75
      P1  H  7997  8010       L1     3  0.38

> <Gold.Chemscore.Hbond.Weighted>
-4.6578

> <Gold.Chemscore.Metal.Weighted>
-0.0000

> <Gold.Chemscore.Lipo.Weighted>
-12.1456

> <Gold.Chemscore.Internal_Hbond.Weighted>
0.0000

> <Gold.Chemscore.DEClash.Weighted>
1.6600

> <Gold.Chemscore.DEInternal.Weighted>
1.3696

> <Gold.Chemscore.Rot.Weighted>
3.9276

> <Gold.Chemscore.Internal.Correction.Weighted>
   9.000000E+99

> <Gold.Protein.RotatedTorsions>
[ 6907 6896 6895 6894 ] final    9.87 input  -60.11 | X-H torsion
[ 7974 7965 7964 7962 ] final  -23.37 input  175.53 | X-H torsion
[ 8008 7997 7996 7995 ] final   40.54 input   59.86 | X-H torsion
[ 10167 10162 10161 10158 ] final   16.79 input  -65.29 | X-H torsion
[ 10718 10713 10712 10709 ] final   42.96 input   66.30 | X-H torsion
[ 10763 10752 10751 10750 ] final   93.76 input  -60.55 | X-H torsion
[ 11005 11000 10999 10996 ] final  154.21 input  -57.11 | X-H torsion

> <Gold.Protein.ActiveResidues>
 VAL166  LYS551  ARG553  GLY616  TRP617  ASP618  TYR619  PRO620  LYS621  CYS622 
 ASP623  PHE694  ASN695  SER759  ASP760  ASP761  ALA762  ILE779  LEU786  VAL792 
 PHE793  MET794  SER795  GLU796  ALA797  LYS798  CYS799  TRP800  GLU811  SER814 

> <Gold.Protein.RotatedAtoms>
  151.7292  135.0878  160.0296 H   0  0  0  0  0  0  0  0  0  0  0  0  # atno 6907 bound_to 6896
  152.3552  133.6224  159.5983 H   0  0  0  0  0  0  0  0  0  0  0  0  # atno 6908 bound_to 6896
  150.7566  133.9427  159.3503 H   0  0  0  0  0  0  0  0  0  0  0  0  # atno 6909 bound_to 6896
  146.1620  140.4607  142.8567 H   0  0  0  0  0  0  0  0  0  0  0  0  # atno 7974 bound_to 7965
  155.2549  140.3355  155.4278 H   0  0  0  0  0  0  0  0  0  0  0  0  # atno 8008 bound_to 7997
  156.2200  140.1805  156.7543 H   0  0  0  0  0  0  0  0  0  0  0  0  # atno 8009 bound_to 7997
  154.5810  140.0653  156.9089 H   0  0  0  0  0  0  0  0  0  0  0  0  # atno 8010 bound_to 7997
  140.5772  143.9050  150.6760 H   0  0  0  0  0  0  0  0  0  0  0  0  # atno 10167 bound_to 10162
  157.4107  130.7912  149.7428 H   0  0  0  0  0  0  0  0  0  0  0  0  # atno 10718 bound_to 10713
  153.2339  135.4314  155.0625 H   0  0  0  0  0  0  0  0  0  0  0  0  # atno 10763 bound_to 10752
  154.8309  135.3386  154.6747 H   0  0  0  0  0  0  0  0  0  0  0  0  # atno 10764 bound_to 10752
  153.7173  135.7019  153.5078 H   0  0  0  0  0  0  0  0  0  0  0  0  # atno 10765 bound_to 10752
  140.1468  134.8701  157.2403 H   0  0  0  0  0  0  0  0  0  0  0  0  # atno 11005 bound_to 11000
  144.8040  140.6265  143.6459 LP  0  0  0  0  0  0  0  0  0  0  0  0  # atno 17320 bound_to 7965
  145.4564  139.1517  143.3890 LP  0  0  0  0  0  0  0  0  0  0  0  0  # atno 17321 bound_to 7965
  140.2540  143.3572  152.1381 LP  0  0  0  0  0  0  0  0  0  0  0  0  # atno 17342 bound_to 10162
  139.5149  144.6955  151.5642 LP  0  0  0  0  0  0  0  0  0  0  0  0  # atno 17343 bound_to 10162
  155.9850  130.3987  150.3285 LP  0  0  0  0  0  0  0  0  0  0  0  0  # atno 17370 bound_to 10713
  157.1423  131.0299  151.2922 LP  0  0  0  0  0  0  0  0  0  0  0  0  # atno 17371 bound_to 10713
  140.2653  134.3523  155.7392 LP  0  0  0  0  0  0  0  0  0  0  0  0  # atno 17394 bound_to 11000
  141.2194  133.7392  156.9142 LP  0  0  0  0  0  0  0  0  0  0  0  0  # atno 17395 bound_to 11000

$$$$
