AV-unprocessed.smi:247|AV-procd|sdf|1892|dock1
  -GOLD-   2262020553D 1   1.00000     0.00000
 Structure written by MMmdl.
 61 65  0  0  0  0  0  0  0  0  1 V2000
  146.7314  142.5453  155.8418 O   0  0  0  0  0  0  0  0  0  0  0  0
  147.3943  141.4598  155.2238 C   0  0  0  0  0  0  0  0  0  0  0  0
  148.2194  140.5920  156.2152 C   0  0  0  0  0  0  0  0  0  0  0  0
  148.6755  139.2916  155.4791 C   0  0  0  0  0  0  0  0  0  0  0  0
  147.6276  138.6038  154.7388 N   0  0  0  0  0  0  0  0  0  0  0  0
  147.1947  138.8913  153.4633 C   0  0  0  0  0  0  0  0  0  0  0  0
  146.2288  138.1356  153.0183 N   0  0  0  0  0  0  0  0  0  0  0  0
  145.9920  137.2451  154.0582 C   0  0  0  0  0  0  0  0  0  0  0  0
  145.0739  136.1767  154.2624 C   0  0  0  0  0  0  0  0  0  0  0  0
  144.1272  135.7952  153.3780 N   0  0  0  0  0  0  0  0  0  0  0  0
  142.7652  136.1623  153.7585 C   0  0  0  0  0  0  0  0  0  0  0  0
  141.8840  134.9434  153.4699 C   0  0  0  0  0  0  0  0  0  0  0  0
  142.7164  134.1318  152.4847 C   0  0  0  0  0  0  0  0  0  0  0  0
  144.1421  134.3831  152.9931 C   0  0  1  0  0  0  0  0  0  0  0  0
  145.3396  134.0079  152.0537 C   0  0  2  0  0  0  0  0  0  0  0  0
  145.3600  134.7528  150.6972 C   0  0  0  0  0  0  0  0  0  0  0  0
  144.2649  134.3454  149.8805 O   0  0  0  0  0  0  0  0  0  0  0  0
  144.3164  132.9691  149.5190 C   0  0  0  0  0  0  0  0  0  0  0  0
  144.2911  132.0848  150.7758 C   0  0  0  0  0  0  0  0  0  0  0  0
  145.4224  132.4960  151.7290 C   0  0  2  0  0  0  0  0  0  0  0  0
  145.4159  131.6821  152.8836 O   0  0  0  0  0  0  0  0  0  0  0  0
  145.1321  135.5011  155.4355 N   0  0  0  0  0  0  0  0  0  0  0  0
  146.0289  135.8516  156.3625 C   0  0  0  0  0  0  0  0  0  0  0  0
  146.9348  136.8312  156.3203 N   0  0  0  0  0  0  0  0  0  0  0  0
  146.8761  137.5124  155.1398 C   0  0  0  0  0  0  0  0  0  0  0  0
  149.4232  141.4108  156.7495 C   0  0  0  0  0  0  0  0  0  0  0  0
  150.1483  140.6988  157.9051 C   0  0  0  0  0  0  0  0  0  0  0  0
  149.2314  140.4342  158.9598 O   0  0  0  0  0  0  0  0  0  0  0  0
  148.1728  139.5651  158.5749 C   0  0  0  0  0  0  0  0  0  0  0  0
  147.3492  140.1990  157.4369 C   0  0  0  0  0  0  0  0  0  0  0  0
  147.3821  143.1447  156.1738 H   0  0  0  0  0  0  0  0  0  0  0  0
  146.6437  140.8502  154.7197 H   0  0  0  0  0  0  0  0  0  0  0  0
  148.0359  141.8779  154.4482 H   0  0  0  0  0  0  0  0  0  0  0  0
  149.4823  139.4935  154.7765 H   0  0  0  0  0  0  0  0  0  0  0  0
  149.0925  138.5868  156.1996 H   0  0  0  0  0  0  0  0  0  0  0  0
  147.6117  139.6939  152.8727 H   0  0  0  0  0  0  0  0  0  0  0  0
  142.6743  136.4803  154.7980 H   0  0  0  0  0  0  0  0  0  0  0  0
  142.4583  137.0014  153.1340 H   0  0  0  0  0  0  0  0  0  0  0  0
  141.7377  134.3699  154.3862 H   0  0  0  0  0  0  0  0  0  0  0  0
  140.9023  135.2128  153.0796 H   0  0  0  0  0  0  0  0  0  0  0  0
  142.4444  133.0761  152.4756 H   0  0  0  0  0  0  0  0  0  0  0  0
  142.5665  134.5392  151.4848 H   0  0  0  0  0  0  0  0  0  0  0  0
  144.2329  133.7964  153.9069 H   0  0  0  0  0  0  0  0  0  0  0  0
  146.2635  134.2827  152.5652 H   0  0  0  0  0  0  0  0  0  0  0  0
  145.3354  135.8328  150.8350 H   0  0  0  0  0  0  0  0  0  0  0  0
  146.2938  134.5504  150.1697 H   0  0  0  0  0  0  0  0  0  0  0  0
  143.4626  132.7396  148.8815 H   0  0  0  0  0  0  0  0  0  0  0  0
  145.2136  132.7756  148.9290 H   0  0  0  0  0  0  0  0  0  0  0  0
  143.3229  132.1788  151.2686 H   0  0  0  0  0  0  0  0  0  0  0  0
  144.3952  131.0366  150.4931 H   0  0  0  0  0  0  0  0  0  0  0  0
  146.3735  132.3045  151.2302 H   0  0  0  0  0  0  0  0  0  0  0  0
  144.6229  131.8545  153.3680 H   0  0  0  0  0  0  0  0  0  0  0  0
  146.0145  135.2672  157.2705 H   0  0  0  0  0  0  0  0  0  0  0  0
  150.1242  141.6511  155.9510 H   0  0  0  0  0  0  0  0  0  0  0  0
  149.0762  142.3730  157.1279 H   0  0  0  0  0  0  0  0  0  0  0  0
  150.6226  139.7742  157.5755 H   0  0  0  0  0  0  0  0  0  0  0  0
  150.9440  141.3366  158.2901 H   0  0  0  0  0  0  0  0  0  0  0  0
  148.5696  138.5898  158.2933 H   0  0  0  0  0  0  0  0  0  0  0  0
  147.5336  139.3967  159.4415 H   0  0  0  0  0  0  0  0  0  0  0  0
  146.8555  141.0799  157.8475 H   0  0  0  0  0  0  0  0  0  0  0  0
  146.5495  139.5225  157.1336 H   0  0  0  0  0  0  0  0  0  0  0  0
  1  2  1  0  0  0  0
  1 31  1  0  0  0  0
  2  3  1  0  0  0  0
  2 32  1  0  0  0  0
  2 33  1  0  0  0  0
  3 30  1  0  0  0  0
  3  4  1  0  0  0  0
  3 26  1  0  0  0  0
  4  5  1  0  0  0  0
  4 34  1  0  0  0  0
  4 35  1  0  0  0  0
  5 25  1  0  0  0  0
  5  6  1  0  0  0  0
  6  7  2  0  0  0  0
  6 36  1  0  0  0  0
  7  8  1  0  0  0  0
  8 25  2  0  0  0  0
  8  9  1  0  0  0  0
  9 10  1  0  0  0  0
  9 22  2  0  0  0  0
 10 14  1  0  0  0  0
 10 11  1  0  0  0  0
 11 12  1  0  0  0  0
 11 37  1  0  0  0  0
 11 38  1  0  0  0  0
 12 13  1  0  0  0  0
 12 39  1  0  0  0  0
 12 40  1  0  0  0  0
 13 14  1  0  0  0  0
 13 41  1  0  0  0  0
 13 42  1  0  0  0  0
 14 15  1  0  0  0  0
 14 43  1  0  0  0  0
 15 20  1  0  0  0  0
 15 16  1  0  0  0  0
 15 44  1  0  0  0  0
 16 17  1  0  0  0  0
 16 45  1  0  0  0  0
 16 46  1  0  0  0  0
 17 18  1  0  0  0  0
 18 19  1  0  0  0  0
 18 47  1  0  0  0  0
 18 48  1  0  0  0  0
 19 20  1  0  0  0  0
 19 49  1  0  0  0  0
 19 50  1  0  0  0  0
 20 21  1  0  0  0  0
 20 51  1  0  0  0  0
 21 52  1  0  0  0  0
 22 23  1  0  0  0  0
 23 24  2  0  0  0  0
 23 53  1  0  0  0  0
 24 25  1  0  0  0  0
 26 27  1  0  0  0  0
 26 54  1  0  0  0  0
 26 55  1  0  0  0  0
 27 28  1  0  0  0  0
 27 56  1  0  0  0  0
 27 57  1  0  0  0  0
 28 29  1  0  0  0  0
 29 30  1  0  0  0  0
 29 58  1  0  0  0  0
 29 59  1  0  0  0  0
 30 60  1  0  0  0  0
 30 61  1  0  0  0  0
M  END
> <s_m_source_file>
AV-unprocessed.smi

> <i_m_source_file_index>
247

> <i_lp_mmshare_version>
43012

> <i_f3d_flags>
0

> <s_epik_input>
W0NIMl0xW0NIMl1PW0NIMl1bQ0gyXUMxKFtDSDJdW09IXSlbQ0gyXW4oW2NIXW4yKWMoYzIzKW5bY0hdbmMzTjRbQ0gyXVtDSDJdW0NIMl1bQ0BIXTRbQ0BASF01W0NIMl1PW0NIMl1bQ0gyXVtDQEhdNVtPSF0=

> <s_epik_cmdline>
J2VwaWtfcHl0aG9uJywgJy1waCcsICc3LjAnLCAnLXRuJywgJzgnLCAnLW1hJywgJzIwMCcsICctbWV0YWxfYmluZGluZycsICctaW1hZScsICc8aW5maWxlLm1hZT4nLCAnLW9tYWUnLCAnPG91dGZpbGUubWFlPic=

> <r_lp_tautomer_probability>
1

> <r_epik_Ionization_Penalty>
0.00362597

> <r_epik_Ionization_Penalty_Charging>
0

> <r_epik_Ionization_Penalty_Neutral>
0.00362597

> <r_epik_State_Penalty>
0.00241433

> <r_epik_Charging_Adjusted_Penalty>
0.00241433

> <i_epik_Tot_Q>
0

> <i_epik_Tot_abs_Q>
0

> <r_epik_Metal_State_Penalty>
-0

> <b_epik_Metal_Only>
0

> <s_lp_Force_Field>
OPLS_2005

> <r_lp_Energy>
63.5358

> <b_lp_Chiralities_Consistent>
1

> <s_lp_Variant>
AV-unprocessed.smi:247-5

> <Gold.Version>
5.8.1

> <Gold.Id.Protein>
6NUR|6NUR_protein|mol2

> <Gold.PLP.Fitness>
43.2865

> <Gold.PLP.PLP>
-36.9411

> <Gold.PLP.part.hbond>
-2.5619

> <Gold.PLP.part.metal>
0.0000

> <Gold.PLP.part.buried>
-3.2162

> <Gold.PLP.part.nonpolar>
-33.9678

> <Gold.PLP.part.repulsive>
0.6995

> <Gold.PLP.ligand.clash>
0.0000

> <Gold.PLP.ligand.torsion>
0.6713

> <Gold.PLP.Chemscore.Hbond>
1.4664

> <Gold.PLP.Chemscore.CHOScore>
1.0000

> <Gold.PLP.Chemscore.Metal>
0.0000

> <Gold.Chemscore.Hbonds>
donor molecule, donor type, donor heavy atom, donor atom, acceptor molecule, acceptor atom, score
      L1  H     1    31       P1  8028  0.29
      L1  H    21    52       P1 10957  0.03
      L1  C     6    36       P1  7957  0.73

> <Gold.PLP.Chemscore.Internal.Correction>
0.2890

> <Gold.Rescore>
     Score         DG    S(hbond)    S(metal)    S(lipo)     H(rot)  DE(clash)    DE(int)     intcor
      7.70     -11.20       0.91        0.00      93.66       3.23       1.98       1.53       ----

> <Gold.Chemscore.Fitness>
7.6960

> <Gold.Chemscore.DG>
-11.2040

> <Gold.Chemscore.ZeroCoef>
-5.4800

> <Gold.Chemscore.Hbond>
0.9069

> <Gold.Chemscore.Metal>
0.0000

> <Gold.Chemscore.Lipo>
93.6601

> <Gold.Chemscore.Internal_Hbond>
0.0000

> <Gold.Chemscore.DEClash>
1.9806

> <Gold.Chemscore.DEInternal>
1.5274

> <Gold.Chemscore.Rot>
3.2278

> <Gold.Chemscore.Internal.Correction>
   9.000000E+99

> <Gold.Chemscore.Hbonds>
donor molecule, donor type, donor heavy atom, donor atom, acceptor molecule, acceptor atom, score
      L1  H     1    31       P1  8028  0.02

> <Gold.Chemscore.Hbond.Weighted>
-3.0290

> <Gold.Chemscore.Metal.Weighted>
-0.0000

> <Gold.Chemscore.Lipo.Weighted>
-10.9582

> <Gold.Chemscore.Internal_Hbond.Weighted>
0.0000

> <Gold.Chemscore.DEClash.Weighted>
1.9806

> <Gold.Chemscore.DEInternal.Weighted>
1.5274

> <Gold.Chemscore.Rot.Weighted>
8.2633

> <Gold.Chemscore.Internal.Correction.Weighted>
   9.000000E+99

> <Gold.Protein.RotatedTorsions>
[ 6907 6896 6895 6894 ] final -167.79 input  -60.11 | X-H torsion
[ 7974 7965 7964 7962 ] final  -93.12 input  175.53 | X-H torsion
[ 8008 7997 7996 7995 ] final  -12.68 input   59.86 | X-H torsion
[ 10167 10162 10161 10158 ] final  -38.96 input  -65.29 | X-H torsion
[ 10718 10713 10712 10709 ] final  -32.30 input   66.30 | X-H torsion
[ 10763 10752 10751 10750 ] final -158.73 input  -60.55 | X-H torsion
[ 11005 11000 10999 10996 ] final    7.06 input  -57.11 | X-H torsion

> <Gold.Protein.ActiveResidues>
 VAL166  LYS551  ARG553  GLY616  TRP617  ASP618  TYR619  PRO620  LYS621  CYS622 
 ASP623  PHE694  ASN695  SER759  ASP760  ASP761  ALA762  ILE779  LEU786  VAL792 
 PHE793  MET794  SER795  GLU796  ALA797  LYS798  CYS799  TRP800  GLU811  SER814 

> <Gold.Protein.RotatedAtoms>
  151.4652  133.3583  159.2814 H   0  0  0  0  0  0  0  0  0  0  0  0  # atno 6907 bound_to 6896
  150.8998  134.8411  159.7363 H   0  0  0  0  0  0  0  0  0  0  0  0  # atno 6908 bound_to 6896
  152.4873  134.4571  159.9645 H   0  0  0  0  0  0  0  0  0  0  0  0  # atno 6909 bound_to 6896
  145.3907  140.9528  143.2342 H   0  0  0  0  0  0  0  0  0  0  0  0  # atno 7974 bound_to 7965
  154.5356  140.2269  155.8728 H   0  0  0  0  0  0  0  0  0  0  0  0  # atno 8008 bound_to 7997
  156.1808  140.3100  155.9108 H   0  0  0  0  0  0  0  0  0  0  0  0  # atno 8009 bound_to 7997
  155.3361  140.0448  157.3034 H   0  0  0  0  0  0  0  0  0  0  0  0  # atno 8010 bound_to 7997
  140.7077  143.3244  151.2715 H   0  0  0  0  0  0  0  0  0  0  0  0  # atno 10167 bound_to 10162
  156.3766  130.4349  149.7502 H   0  0  0  0  0  0  0  0  0  0  0  0  # atno 10718 bound_to 10713
  154.7533  135.3098  154.8517 H   0  0  0  0  0  0  0  0  0  0  0  0  # atno 10763 bound_to 10752
  153.9298  135.6786  153.4750 H   0  0  0  0  0  0  0  0  0  0  0  0  # atno 10764 bound_to 10752
  153.1130  135.4858  154.8996 H   0  0  0  0  0  0  0  0  0  0  0  0  # atno 10765 bound_to 10752
  140.5524  134.0270  155.7942 H   0  0  0  0  0  0  0  0  0  0  0  0  # atno 11005 bound_to 11000
  144.8442  139.5423  143.6886 LP  0  0  0  0  0  0  0  0  0  0  0  0  # atno 17320 bound_to 7965
  146.2799  139.6849  142.9237 LP  0  0  0  0  0  0  0  0  0  0  0  0  # atno 17321 bound_to 7965
  139.6708  144.0024  152.2751 LP  0  0  0  0  0  0  0  0  0  0  0  0  # atno 17342 bound_to 10162
  139.9622  144.6550  150.8069 LP  0  0  0  0  0  0  0  0  0  0  0  0  # atno 17343 bound_to 10162
  156.4609  130.7951  151.2971 LP  0  0  0  0  0  0  0  0  0  0  0  0  # atno 17370 bound_to 10713
  157.7489  131.0066  150.3158 LP  0  0  0  0  0  0  0  0  0  0  0  0  # atno 17371 bound_to 10713
  141.1163  133.9534  157.2815 LP  0  0  0  0  0  0  0  0  0  0  0  0  # atno 17394 bound_to 11000
  139.9448  135.0186  156.8819 LP  0  0  0  0  0  0  0  0  0  0  0  0  # atno 17395 bound_to 11000

$$$$
