AV-unprocessed.smi:372|AV-procd|sdf|2444|dock1
  -GOLD-   2262022383D 1   1.00000     0.00000
 Structure written by MMmdl.
 23 24  0  0  0  0  0  0  0  0  1 V2000
  145.8040  135.1026  153.8127 C   0  0  0  0  0  0  0  0  0  0  0  0
  145.4489  135.5877  152.3941 C   0  0  2  0  0  0  0  0  0  0  0  0
  145.1438  134.4134  151.4475 C   0  0  0  0  0  0  0  0  0  0  0  0
  146.1640  133.5537  150.9698 C   0  0  0  0  0  0  0  0  0  0  0  0
  145.8147  132.4926  150.1126 C   0  0  0  0  0  0  0  0  0  0  0  0
  144.4639  132.3186  149.7606 C   0  0  0  0  0  0  0  0  0  0  0  0
  143.5170  133.2167  150.2877 C   0  0  0  0  0  0  0  0  0  0  0  0
  143.8424  134.2352  151.1113 N   0  0  0  0  0  0  0  0  0  0  0  0
  146.5009  136.4668  151.8972 N   0  0  0  0  0  0  0  0  0  0  0  0
  146.0655  137.6981  151.6017 C   0  0  0  0  0  0  0  0  0  0  0  0
  146.7425  138.6117  151.1365 O   0  0  0  0  0  0  0  0  0  0  0  0
  144.7693  137.7596  151.9156 N   0  0  0  0  0  0  0  0  0  0  0  0
  144.3112  136.6108  152.4101 C   0  0  0  0  0  0  0  0  0  0  0  0
  143.1736  136.4014  152.8293 O   0  0  0  0  0  0  0  0  0  0  0  0
  145.0020  134.5017  154.2433 H   0  0  0  0  0  0  0  0  0  0  0  0
  145.9860  135.9378  154.4906 H   0  0  0  0  0  0  0  0  0  0  0  0
  146.7044  134.4875  153.8006 H   0  0  0  0  0  0  0  0  0  0  0  0
  147.1991  133.6887  151.2452 H   0  0  0  0  0  0  0  0  0  0  0  0
  146.5714  131.8221  149.7325 H   0  0  0  0  0  0  0  0  0  0  0  0
  144.1609  131.5156  149.1051 H   0  0  0  0  0  0  0  0  0  0  0  0
  142.4702  133.1140  150.0431 H   0  0  0  0  0  0  0  0  0  0  0  0
  147.4496  136.1521  151.7559 H   0  0  0  0  0  0  0  0  0  0  0  0
  144.2048  138.5900  151.8101 H   0  0  0  0  0  0  0  0  0  0  0  0
  1  2  1  0  0  0  0
  1 15  1  0  0  0  0
  1 16  1  0  0  0  0
  1 17  1  0  0  0  0
  2 13  1  0  0  0  0
  2  3  1  0  0  0  0
  2  9  1  0  0  0  0
  3  8  1  0  0  0  0
  3  4  2  0  0  0  0
  4  5  1  0  0  0  0
  4 18  1  0  0  0  0
  5  6  2  0  0  0  0
  5 19  1  0  0  0  0
  6  7  1  0  0  0  0
  6 20  1  0  0  0  0
  7  8  2  0  0  0  0
  7 21  1  0  0  0  0
  9 10  1  0  0  0  0
  9 22  1  0  0  0  0
 10 11  2  0  0  0  0
 10 12  1  0  0  0  0
 12 13  1  0  0  0  0
 12 23  1  0  0  0  0
 13 14  2  0  0  0  0
M  END
> <s_m_source_file>
AV-unprocessed.smi

> <i_m_source_file_index>
372

> <i_lp_mmshare_version>
43012

> <i_f3d_flags>
0

> <s_epik_input>
Tz1DMVtOSF1DKD1PKVtOSF1bQ0BAXTEoW0NIM10pYzJbY0hdW2NIXVtjSF1bY0hdbjI=

> <s_epik_cmdline>
J2VwaWtfcHl0aG9uJywgJy1waCcsICc3LjAnLCAnLXRuJywgJzgnLCAnLW1hJywgJzIwMCcsICctbWV0YWxfYmluZGluZycsICctaW1hZScsICc8aW5maWxlLm1hZT4nLCAnLW9tYWUnLCAnPG91dGZpbGUubWFlPic=

> <r_lp_tautomer_probability>
1

> <r_epik_Ionization_Penalty>
0.0293563

> <r_epik_Ionization_Penalty_Charging>
0

> <r_epik_Ionization_Penalty_Neutral>
0.0293563

> <r_epik_State_Penalty>
0.034944

> <r_epik_Charging_Adjusted_Penalty>
0.034944

> <i_epik_Tot_Q>
0

> <i_epik_Tot_abs_Q>
0

> <r_epik_Metal_State_Penalty>
0.534399

> <b_epik_Metal_Only>
0

> <s_lp_Force_Field>
OPLS_2005

> <r_lp_Energy>
17.2904

> <b_lp_Chiralities_Consistent>
1

> <s_lp_Variant>
AV-unprocessed.smi:372-2

> <Gold.Version>
5.8.1

> <Gold.Id.Protein>
6NUR|6NUR_protein|mol2

> <Gold.PLP.Fitness>
33.0166

> <Gold.PLP.PLP>
-22.1893

> <Gold.PLP.part.hbond>
-3.4205

> <Gold.PLP.part.metal>
0.0000

> <Gold.PLP.part.buried>
-1.7596

> <Gold.PLP.part.nonpolar>
-18.8610

> <Gold.PLP.part.repulsive>
0.7946

> <Gold.PLP.ligand.clash>
0.0000

> <Gold.PLP.ligand.torsion>
0.4612

> <Gold.PLP.Chemscore.Hbond>
2.8775

> <Gold.PLP.Chemscore.CHOScore>
1.0000

> <Gold.PLP.Chemscore.Metal>
0.0000

> <Gold.Chemscore.Hbonds>
donor molecule, donor type, donor heavy atom, donor atom, acceptor molecule, acceptor atom, score
      L1  H     9    22       P1  7948  0.88
      L1  H    12    23       P1 10175  1.00
      P1  H  7954  7966       L1    11  1.00
      L1  C     7    21       P1 10186  0.97

> <Gold.PLP.Chemscore.Internal.Correction>
0.1172

> <Gold.Rescore>
     Score         DG    S(hbond)    S(metal)    S(lipo)     H(rot)  DE(clash)    DE(int)     intcor
     14.29     -16.64       2.58        0.00      43.70       1.00       0.46       1.90       ----

> <Gold.Chemscore.Fitness>
14.2853

> <Gold.Chemscore.DG>
-16.6446

> <Gold.Chemscore.ZeroCoef>
-5.4800

> <Gold.Chemscore.Hbond>
2.5785

> <Gold.Chemscore.Metal>
0.0000

> <Gold.Chemscore.Lipo>
43.6961

> <Gold.Chemscore.Internal_Hbond>
0.0000

> <Gold.Chemscore.DEClash>
0.4620

> <Gold.Chemscore.DEInternal>
1.8973

> <Gold.Chemscore.Rot>
1.0000

> <Gold.Chemscore.Internal.Correction>
   9.000000E+99

> <Gold.Chemscore.Hbonds>
donor molecule, donor type, donor heavy atom, donor atom, acceptor molecule, acceptor atom, score
      L1  H     9    22       P1  7948  0.85
      L1  H    12    23       P1 10175  0.89
      P1  H  7954  7966       L1    11  0.70

> <Gold.Chemscore.Hbond.Weighted>
-8.6122

> <Gold.Chemscore.Metal.Weighted>
-0.0000

> <Gold.Chemscore.Lipo.Weighted>
-5.1124

> <Gold.Chemscore.Internal_Hbond.Weighted>
0.0000

> <Gold.Chemscore.DEClash.Weighted>
0.4620

> <Gold.Chemscore.DEInternal.Weighted>
1.8973

> <Gold.Chemscore.Rot.Weighted>
2.5600

> <Gold.Chemscore.Internal.Correction.Weighted>
   9.000000E+99

> <Gold.Protein.RotatedTorsions>
[ 6907 6896 6895 6894 ] final -146.58 input  -60.11 | X-H torsion
[ 7974 7965 7964 7962 ] final  173.37 input  175.53 | X-H torsion
[ 8008 7997 7996 7995 ] final   85.56 input   59.86 | X-H torsion
[ 10167 10162 10161 10158 ] final  135.66 input  -65.29 | X-H torsion
[ 10718 10713 10712 10709 ] final -106.99 input   66.30 | X-H torsion
[ 10763 10752 10751 10750 ] final  123.87 input  -60.55 | X-H torsion
[ 11005 11000 10999 10996 ] final -123.30 input  -57.11 | X-H torsion

> <Gold.Protein.ActiveResidues>
 VAL166  LYS551  ARG553  GLY616  TRP617  ASP618  TYR619  PRO620  LYS621  CYS622 
 ASP623  PHE694  ASN695  SER759  ASP760  ASP761  ALA762  ILE779  LEU786  VAL792 
 PHE793  MET794  SER795  GLU796  ALA797  LYS798  CYS799  TRP800  GLU811  SER814 

> <Gold.Protein.RotatedAtoms>
  151.1437  133.4954  159.2596 H   0  0  0  0  0  0  0  0  0  0  0  0  # atno 6907 bound_to 6896
  151.1628  135.0281  159.8727 H   0  0  0  0  0  0  0  0  0  0  0  0  # atno 6908 bound_to 6896
  152.5462  134.1309  159.8491 H   0  0  0  0  0  0  0  0  0  0  0  0  # atno 6909 bound_to 6896
  144.7245  139.9638  143.6435 H   0  0  0  0  0  0  0  0  0  0  0  0  # atno 7974 bound_to 7965
  155.9516  140.3400  155.6412 H   0  0  0  0  0  0  0  0  0  0  0  0  # atno 8008 bound_to 7997
  155.6913  140.0749  157.2465 H   0  0  0  0  0  0  0  0  0  0  0  0  # atno 8009 bound_to 7997
  154.4123  140.1656  156.2077 H   0  0  0  0  0  0  0  0  0  0  0  0  # atno 8010 bound_to 7997
  139.5208  144.6505  151.5316 H   0  0  0  0  0  0  0  0  0  0  0  0  # atno 10167 bound_to 10162
  156.0416  130.5640  150.7759 H   0  0  0  0  0  0  0  0  0  0  0  0  # atno 10718 bound_to 10713
  153.6523  135.3360  155.3103 H   0  0  0  0  0  0  0  0  0  0  0  0  # atno 10763 bound_to 10752
  154.8534  135.4344  154.1891 H   0  0  0  0  0  0  0  0  0  0  0  0  # atno 10764 bound_to 10752
  153.2837  135.7011  153.7435 H   0  0  0  0  0  0  0  0  0  0  0  0  # atno 10765 bound_to 10752
  140.9929  134.0513  157.3632 H   0  0  0  0  0  0  0  0  0  0  0  0  # atno 11005 bound_to 11000
  146.0617  139.3610  143.0577 LP  0  0  0  0  0  0  0  0  0  0  0  0  # atno 17320 bound_to 7965
  145.8084  140.9737  143.0962 LP  0  0  0  0  0  0  0  0  0  0  0  0  # atno 17321 bound_to 7965
  140.6308  143.9080  150.6604 LP  0  0  0  0  0  0  0  0  0  0  0  0  # atno 17342 bound_to 10162
  140.2383  143.3683  152.1508 LP  0  0  0  0  0  0  0  0  0  0  0  0  # atno 17343 bound_to 10162
  157.5240  131.0933  151.0042 LP  0  0  0  0  0  0  0  0  0  0  0  0  # atno 17370 bound_to 10713
  157.0365  130.5732  149.5350 LP  0  0  0  0  0  0  0  0  0  0  0  0  # atno 17371 bound_to 10713
  139.9001  135.0161  156.7226 LP  0  0  0  0  0  0  0  0  0  0  0  0  # atno 17394 bound_to 11000
  140.7011  133.9305  155.8025 LP  0  0  0  0  0  0  0  0  0  0  0  0  # atno 17395 bound_to 11000

$$$$
