AV-unprocessed.smi:2247|AV-procd|sdf|9089|dock4
  -GOLD-   2272012293D 1   1.00000     0.00000
 Structure written by MMmdl.
 34 35  0  0  0  0  0  0  0  0  1 V2000
  152.6851  142.9518  161.6250 C   0  0  0  0  0  0  0  0  0  0  0  0
  152.5194  141.9540  160.4670 C   0  0  0  0  0  0  0  0  0  0  0  0
  153.7069  140.9895  160.3283 C   0  0  0  0  0  0  0  0  0  0  0  0
  152.2419  142.6278  159.1914 N   0  0  0  0  0  0  0  0  0  0  0  0
  152.3475  144.0712  159.0442 C   0  0  0  0  0  0  0  0  0  0  0  0
  151.7216  144.3675  157.6781 C   0  0  0  0  0  0  0  0  0  0  0  0
  151.7395  143.0405  156.9031 C   0  0  2  0  0  0  0  0  0  0  0  0
  150.4709  142.8523  156.2007 N   0  0  0  0  0  0  0  0  0  0  0  0
  150.1286  141.7732  155.4806 C   0  0  0  0  0  0  0  0  0  0  0  0
  150.9048  140.8262  155.3190 O   0  0  0  0  0  0  0  0  0  0  0  0
  148.8510  141.9245  154.9658 N   0  0  0  0  0  0  0  0  0  0  0  0
  148.3213  140.9382  154.3116 C   0  0  0  0  0  0  0  0  0  0  0  0
  147.0565  140.8753  153.7493 N   0  0  0  0  0  0  0  0  0  0  0  0
  146.9190  139.6550  153.1477 C   0  0  0  0  0  0  0  0  0  0  0  0
  148.0508  138.9782  153.3203 C   0  0  0  0  0  0  0  0  0  0  0  0
  148.9320  139.7377  154.0291 O   0  0  0  0  0  0  0  0  0  0  0  0
  151.8976  142.0311  158.0412 C   0  0  0  0  0  0  0  0  0  0  0  0
  151.7483  140.8200  157.8775 O   0  0  0  0  0  0  0  0  0  0  0  0
  152.7378  142.4292  162.5804 H   0  0  0  0  0  0  0  0  0  0  0  0
  151.8422  143.6419  161.6744 H   0  0  0  0  0  0  0  0  0  0  0  0
  153.5978  143.5396  161.5266 H   0  0  0  0  0  0  0  0  0  0  0  0
  151.6526  141.3430  160.7242 H   0  0  0  0  0  0  0  0  0  0  0  0
  153.8663  140.4323  161.2517 H   0  0  0  0  0  0  0  0  0  0  0  0
  154.6303  141.5229  160.1003 H   0  0  0  0  0  0  0  0  0  0  0  0
  153.5342  140.2650  159.5319 H   0  0  0  0  0  0  0  0  0  0  0  0
  151.8338  144.6157  159.8361 H   0  0  0  0  0  0  0  0  0  0  0  0
  153.4000  144.3576  159.0583 H   0  0  0  0  0  0  0  0  0  0  0  0
  150.6979  144.7171  157.8259 H   0  0  0  0  0  0  0  0  0  0  0  0
  152.2564  145.1562  157.1480 H   0  0  0  0  0  0  0  0  0  0  0  0
  152.6028  142.9854  156.2377 H   0  0  0  0  0  0  0  0  0  0  0  0
  149.7914  143.5942  156.2855 H   0  0  0  0  0  0  0  0  0  0  0  0
  146.3302  141.5768  153.7637 H   0  0  0  0  0  0  0  0  0  0  0  0
  145.9986  139.3933  152.6467 H   0  0  0  0  0  0  0  0  0  0  0  0
  148.3706  137.9927  153.0159 H   0  0  0  0  0  0  0  0  0  0  0  0
  1  2  1  0  0  0  0
  1 19  1  0  0  0  0
  1 20  1  0  0  0  0
  1 21  1  0  0  0  0
  2  3  1  0  0  0  0
  2  4  1  0  0  0  0
  2 22  1  0  0  0  0
  3 23  1  0  0  0  0
  3 24  1  0  0  0  0
  3 25  1  0  0  0  0
  4 17  1  0  0  0  0
  4  5  1  0  0  0  0
  5  6  1  0  0  0  0
  5 26  1  0  0  0  0
  5 27  1  0  0  0  0
  6  7  1  0  0  0  0
  6 28  1  0  0  0  0
  6 29  1  0  0  0  0
  7  8  1  0  0  0  0
  7 17  1  0  0  0  0
  7 30  1  0  0  0  0
  8 31  1  0  0  0  0
  8  9  1  0  0  0  0
  9 11  1  0  0  0  0
  9 10  2  0  0  0  0
 11 12  2  0  0  0  0
 12 16  1  0  0  0  0
 12 13  1  0  0  0  0
 13 32  1  0  0  0  0
 13 14  1  0  0  0  0
 14 33  1  0  0  0  0
 14 15  2  0  0  0  0
 15 34  1  0  0  0  0
 15 16  1  0  0  0  0
 17 18  2  0  0  0  0
M  END
> <s_m_source_file>
AV-unprocessed.smi

> <i_m_source_file_index>
2247

> <i_lp_mmshare_version>
43012

> <i_f3d_flags>
0

> <s_epik_input>
W0NIM11bQ0hdKFtDSDNdKU4xW0NIMl1bQ0gyXVtDQEhdKEMxPU8pW05IXUMoPU8pW05IXWMybltjSF1bY0hdbzI=

> <s_epik_cmdline>
J2VwaWtfcHl0aG9uJywgJy1waCcsICc3LjAnLCAnLXRuJywgJzgnLCAnLW1hJywgJzIwMCcsICctbWV0YWxfYmluZGluZycsICctaW1hZScsICc8aW5maWxlLm1hZT4nLCAnLW9tYWUnLCAnPG91dGZpbGUubWFlPic=

> <r_lp_tautomer_probability>
0.107061

> <r_epik_Ionization_Penalty>
0.180736

> <r_epik_Ionization_Penalty_Charging>
0.180388

> <r_epik_Ionization_Penalty_Neutral>
0.000348501

> <r_epik_State_Penalty>
2.44396

> <r_epik_Charging_Adjusted_Penalty>
2.62435

> <i_epik_Tot_Q>
0

> <i_epik_Tot_abs_Q>
0

> <r_epik_Metal_State_Penalty>
4.38331

> <b_epik_Metal_Only>
0

> <s_lp_Force_Field>
OPLS_2005

> <r_lp_Energy>
45.2886

> <b_lp_Chiralities_Consistent>
1

> <s_lp_Variant>
AV-unprocessed.smi:2247-4

> <Gold.Version>
5.8.1

> <Gold.Id.Protein>
6NUR|6NUR_protein|mol2

> <Gold.PLP.Fitness>
47.0013

> <Gold.PLP.PLP>
-35.8152

> <Gold.PLP.part.hbond>
-1.9745

> <Gold.PLP.part.metal>
0.0000

> <Gold.PLP.part.buried>
-4.8453

> <Gold.PLP.part.nonpolar>
-29.7202

> <Gold.PLP.part.repulsive>
1.8528

> <Gold.PLP.ligand.clash>
0.0000

> <Gold.PLP.ligand.torsion>
0.1070

> <Gold.PLP.Chemscore.Hbond>
1.7762

> <Gold.PLP.Chemscore.CHOScore>
1.9921

> <Gold.PLP.Chemscore.Metal>
0.0000

> <Gold.Chemscore.Hbonds>
donor molecule, donor type, donor heavy atom, donor atom, acceptor molecule, acceptor atom, score
      L1  H     8    31       P1  8028  1.00
      P1  H  7989  7998       L1    10  0.80
      L1  C    14    33       P1 10175  0.93
      L1  C    15    34       P1  7948  1.00

> <Gold.PLP.Chemscore.Internal.Correction>
0.0953

> <Gold.Rescore>
     Score         DG    S(hbond)    S(metal)    S(lipo)     H(rot)  DE(clash)    DE(int)     intcor
     10.58     -16.11       1.38        0.00      80.64       1.33       1.27       4.26       ----

> <Gold.Chemscore.Fitness>
10.5825

> <Gold.Chemscore.DG>
-16.1115

> <Gold.Chemscore.ZeroCoef>
-5.4800

> <Gold.Chemscore.Hbond>
1.3807

> <Gold.Chemscore.Metal>
0.0000

> <Gold.Chemscore.Lipo>
80.6377

> <Gold.Chemscore.Internal_Hbond>
0.0000

> <Gold.Chemscore.DEClash>
1.2709

> <Gold.Chemscore.DEInternal>
4.2581

> <Gold.Chemscore.Rot>
1.3338

> <Gold.Chemscore.Internal.Correction>
   9.000000E+99

> <Gold.Chemscore.Hbonds>
donor molecule, donor type, donor heavy atom, donor atom, acceptor molecule, acceptor atom, score
      L1  H     8    31       P1  8028  0.93
      P1  H  7989  7998       L1    10  0.55

> <Gold.Chemscore.Hbond.Weighted>
-4.6114

> <Gold.Chemscore.Metal.Weighted>
-0.0000

> <Gold.Chemscore.Lipo.Weighted>
-9.4346

> <Gold.Chemscore.Internal_Hbond.Weighted>
0.0000

> <Gold.Chemscore.DEClash.Weighted>
1.2709

> <Gold.Chemscore.DEInternal.Weighted>
4.2581

> <Gold.Chemscore.Rot.Weighted>
3.4145

> <Gold.Chemscore.Internal.Correction.Weighted>
   9.000000E+99

> <Gold.Protein.RotatedTorsions>
[ 6907 6896 6895 6894 ] final   57.78 input  -60.11 | X-H torsion
[ 7974 7965 7964 7962 ] final -164.60 input  175.53 | X-H torsion
[ 8008 7997 7996 7995 ] final  -52.58 input   59.86 | X-H torsion
[ 10167 10162 10161 10158 ] final  -72.28 input  -65.29 | X-H torsion
[ 10718 10713 10712 10709 ] final   92.64 input   66.30 | X-H torsion
[ 10763 10752 10751 10750 ] final -116.74 input  -60.55 | X-H torsion
[ 11005 11000 10999 10996 ] final   -6.22 input  -57.11 | X-H torsion

> <Gold.Protein.ActiveResidues>
 VAL166  LYS551  ARG553  GLY616  TRP617  ASP618  TYR619  PRO620  LYS621  CYS622 
 ASP623  PHE694  ASN695  SER759  ASP760  ASP761  ALA762  ILE779  LEU786  VAL792 
 PHE793  MET794  SER795  GLU796  ALA797  LYS798  CYS799  TRP800  GLU811  SER814 

> <Gold.Protein.RotatedAtoms>
  152.3763  134.6658  160.0158 H   0  0  0  0  0  0  0  0  0  0  0  0  # atno 6907 bound_to 6896
  151.6936  133.3305  159.3257 H   0  0  0  0  0  0  0  0  0  0  0  0  # atno 6908 bound_to 6896
  150.7712  134.6613  159.6385 H   0  0  0  0  0  0  0  0  0  0  0  0  # atno 6909 bound_to 6896
  144.7292  140.2937  143.6216 H   0  0  0  0  0  0  0  0  0  0  0  0  # atno 7974 bound_to 7965
  154.4110  140.1220  156.5014 H   0  0  0  0  0  0  0  0  0  0  0  0  # atno 8008 bound_to 7997
  155.6891  140.3495  155.4866 H   0  0  0  0  0  0  0  0  0  0  0  0  # atno 8009 bound_to 7997
  155.9485  140.1100  157.0987 H   0  0  0  0  0  0  0  0  0  0  0  0  # atno 8010 bound_to 7997
  140.5205  143.2332  151.7438 H   0  0  0  0  0  0  0  0  0  0  0  0  # atno 10167 bound_to 10162
  157.6958  131.0450  150.3913 H   0  0  0  0  0  0  0  0  0  0  0  0  # atno 10718 bound_to 10713
  154.8530  135.4334  154.1869 H   0  0  0  0  0  0  0  0  0  0  0  0  # atno 10763 bound_to 10752
  153.2946  135.6964  153.7266 H   0  0  0  0  0  0  0  0  0  0  0  0  # atno 10764 bound_to 10752
  153.6419  135.3466  155.3048 H   0  0  0  0  0  0  0  0  0  0  0  0  # atno 10765 bound_to 10752
  140.6997  133.9000  155.8674 H   0  0  0  0  0  0  0  0  0  0  0  0  # atno 11005 bound_to 11000
  145.7830  139.1898  143.2147 LP  0  0  0  0  0  0  0  0  0  0  0  0  # atno 17320 bound_to 7965
  146.0818  140.7755  142.9638 LP  0  0  0  0  0  0  0  0  0  0  0  0  # atno 17321 bound_to 7965
  139.4922  144.4262  151.9923 LP  0  0  0  0  0  0  0  0  0  0  0  0  # atno 17342 bound_to 10162
  140.3358  144.3262  150.5977 LP  0  0  0  0  0  0  0  0  0  0  0  0  # atno 17343 bound_to 10162
  156.4316  130.3973  149.6756 LP  0  0  0  0  0  0  0  0  0  0  0  0  # atno 17370 bound_to 10713
  156.3971  130.7656  151.2662 LP  0  0  0  0  0  0  0  0  0  0  0  0  # atno 17371 bound_to 10713
  141.0174  134.0936  157.4157 LP  0  0  0  0  0  0  0  0  0  0  0  0  # atno 17394 bound_to 11000
  139.8900  135.0109  156.6712 LP  0  0  0  0  0  0  0  0  0  0  0  0  # atno 17395 bound_to 11000

$$$$
