AV-unprocessed.smi:101|AV-procd|sdf|930|dock2
  -GOLD-   2262017443D 1   1.00000     0.00000
 Structure written by MMmdl.
 43 45  0  0  0  0  0  0  0  0  2 V2000
  144.2600  143.7607  154.4195 C   0  0  0  0  0  0  0  0  0  0  0  0
  145.3719  142.9139  155.0134 C   0  0  0  0  0  0  0  0  0  0  0  0
  146.2851  142.2806  154.2445 C   0  0  0  0  0  0  0  0  0  0  0  0
  147.2988  141.5128  154.7897 N   0  0  0  0  0  0  0  0  0  0  0  0
  148.3053  140.8263  153.8897 C   0  0  1  0  0  0  0  0  0  0  0  0
  149.5745  140.9663  154.4556 O   0  0  0  0  0  0  0  0  0  0  0  0
  150.2818  139.7366  154.3520 C   0  0  1  0  0  0  0  0  0  0  0  0
  151.4067  139.6574  155.3938 C   0  0  0  0  0  0  0  0  0  0  0  0
  151.2831  140.7447  156.2955 O   0  0  0  0  0  0  0  0  0  0  0  0
  152.0392  140.7859  157.4092 C   0  0  0  0  0  0  0  0  0  0  0  0
  152.7809  139.8674  157.7643 O   0  0  0  0  0  0  0  0  0  0  0  0
  151.8864  142.0614  158.1672 C   0  0  0  0  0  0  0  0  0  0  0  0
  151.0713  143.0889  157.6376 C   0  0  0  0  0  0  0  0  0  0  0  0
  150.9089  144.3046  158.3302 C   0  0  0  0  0  0  0  0  0  0  0  0
  151.5602  144.5079  159.5607 C   0  0  0  0  0  0  0  0  0  0  0  0
  152.3743  143.4940  160.0981 C   0  0  0  0  0  0  0  0  0  0  0  0
  152.5377  142.2775  159.4069 C   0  0  0  0  0  0  0  0  0  0  0  0
  149.1857  138.6713  154.4751 C   0  0  1  0  0  0  0  0  0  0  0  0
  148.8748  138.4198  155.8365 O   0  0  0  0  0  0  0  0  0  0  0  0
  148.0298  139.3164  153.7168 C   0  0  1  0  0  0  0  0  0  0  0  0
  146.7584  138.8623  154.1482 O   0  0  0  0  0  0  0  0  0  0  0  0
  147.4039  141.3869  156.1998 C   0  0  0  0  0  0  0  0  0  0  0  0
  148.3311  140.7191  156.6582 O   0  0  0  0  0  0  0  0  0  0  0  0
  146.4826  142.0170  156.9833 N   0  5  0  0  0  0  0  0  0  0  0  0
  145.4705  142.7750  156.4712 C   0  0  0  0  0  0  0  0  0  0  0  0
  144.6475  143.3394  157.1913 O   0  0  0  0  0  0  0  0  0  0  0  0
  144.2878  143.7434  153.3296 H   0  0  0  0  0  0  0  0  0  0  0  0
  144.3572  144.7968  154.7447 H   0  0  0  0  0  0  0  0  0  0  0  0
  143.2854  143.3891  154.7379 H   0  0  0  0  0  0  0  0  0  0  0  0
  146.2203  142.3813  153.1714 H   0  0  0  0  0  0  0  0  0  0  0  0
  148.3030  141.3664  152.9423 H   0  0  0  0  0  0  0  0  0  0  0  0
  150.7062  139.6758  153.3480 H   0  0  0  0  0  0  0  0  0  0  0  0
  151.3685  138.7082  155.9305 H   0  0  0  0  0  0  0  0  0  0  0  0
  152.3762  139.7197  154.8979 H   0  0  0  0  0  0  0  0  0  0  0  0
  150.5612  142.9557  156.6942 H   0  0  0  0  0  0  0  0  0  0  0  0
  150.2834  145.0816  157.9161 H   0  0  0  0  0  0  0  0  0  0  0  0
  151.4354  145.4400  160.0917 H   0  0  0  0  0  0  0  0  0  0  0  0
  152.8753  143.6489  161.0424 H   0  0  0  0  0  0  0  0  0  0  0  0
  153.1710  141.5209  159.8467 H   0  0  0  0  0  0  0  0  0  0  0  0
  149.4878  137.7283  154.0183 H   0  0  0  0  0  0  0  0  0  0  0  0
  148.1437  137.8226  155.8734 H   0  0  0  0  0  0  0  0  0  0  0  0
  148.1329  139.0925  152.6543 H   0  0  0  0  0  0  0  0  0  0  0  0
  146.6586  137.9632  153.8741 H   0  0  0  0  0  0  0  0  0  0  0  0
  1  2  1  0  0  0  0
  1 27  1  0  0  0  0
  1 28  1  0  0  0  0
  1 29  1  0  0  0  0
  2 25  1  0  0  0  0
  2  3  2  0  0  0  0
  3  4  1  0  0  0  0
  3 30  1  0  0  0  0
  4  5  1  0  0  0  0
  4 22  1  0  0  0  0
  5 20  1  0  0  0  0
  5  6  1  0  0  0  0
  5 31  1  0  0  0  0
  6  7  1  0  0  0  0
  7  8  1  0  0  0  0
  7 18  1  0  0  0  0
  7 32  1  0  0  0  0
  8  9  1  0  0  0  0
  8 33  1  0  0  0  0
  8 34  1  0  0  0  0
  9 10  1  0  0  0  0
 10 11  2  0  0  0  0
 10 12  1  0  0  0  0
 12 17  1  0  0  0  0
 12 13  2  0  0  0  0
 13 14  1  0  0  0  0
 13 35  1  0  0  0  0
 14 15  2  0  0  0  0
 14 36  1  0  0  0  0
 15 16  1  0  0  0  0
 15 37  1  0  0  0  0
 16 17  2  0  0  0  0
 16 38  1  0  0  0  0
 17 39  1  0  0  0  0
 18 19  1  0  0  0  0
 18 20  1  0  0  0  0
 18 40  1  0  0  0  0
 19 41  1  0  0  0  0
 20 21  1  0  0  0  0
 20 42  1  0  0  0  0
 21 43  1  0  0  0  0
 22 23  2  0  0  0  0
 22 24  1  0  0  0  0
 24 25  1  0  0  0  0
 25 26  2  0  0  0  0
M  CHG  1  24  -1
M  END
> <s_m_source_file>
AV-unprocessed.smi

> <i_m_source_file_index>
101

> <i_lp_mmshare_version>
43012

> <i_f3d_flags>
0

> <s_epik_input>
Tz1jMVtuSF1jKD1PKW4oW2NIXWMxW0NIM10pW0NAQEhdMk9bQ0BIXShbQ0BASF0oW09IXSlbQ0BIXTJbT0hdKVtDSDJdT0MoPU8pYzNbY0hdW2NIXVtjSF1bY0hdW2NIXTM=

> <s_epik_cmdline>
J2VwaWtfcHl0aG9uJywgJy1waCcsICc3LjAnLCAnLXRuJywgJzgnLCAnLW1hJywgJzIwMCcsICctbWV0YWxfYmluZGluZycsICctaW1hZScsICc8aW5maWxlLm1hZT4nLCAnLW9tYWUnLCAnPG91dGZpbGUubWFlPic=

> <r_lp_tautomer_probability>
0.999537

> <r_epik_Ionization_Penalty>
3.21006

> <r_epik_Ionization_Penalty_Charging>
5.75142e-08

> <r_epik_Ionization_Penalty_Neutral>
3.21006

> <r_epik_State_Penalty>
3.20925

> <r_epik_Charging_Adjusted_Penalty>
3.20925

> <i_epik_Tot_Q>
-1

> <i_epik_Tot_abs_Q>
1

> <r_epik_Metal_State_Penalty>
0.119957

> <b_epik_Metal_Only>
1

> <s_epik_Chemistry_Notes>
This compound has an ester and may undergo hydrolysis at high or low pH. This compound contains an acetal/aminal-like group ( X-CH(R)-Y where X, Y are N, S, or O) that may be acid/base labile, releasing an aldehyde.

> <s_lp_Force_Field>
OPLS_2005

> <r_lp_Energy>
50.5402

> <b_lp_Chiralities_Consistent>
1

> <s_lp_Variant>
AV-unprocessed.smi:101-18

> <Gold.Version>
5.8.1

> <Gold.Id.Protein>
6NUR|6NUR_protein|mol2

> <Gold.PLP.Fitness>
48.2451

> <Gold.PLP.PLP>
-47.7375

> <Gold.PLP.part.hbond>
-2.0000

> <Gold.PLP.part.metal>
0.0000

> <Gold.PLP.part.buried>
-4.1547

> <Gold.PLP.part.nonpolar>
-41.7222

> <Gold.PLP.part.repulsive>
0.4811

> <Gold.PLP.ligand.clash>
0.0000

> <Gold.PLP.ligand.torsion>
1.2676

> <Gold.PLP.Chemscore.Hbond>
1.0000

> <Gold.PLP.Chemscore.CHOScore>
0.0000

> <Gold.PLP.Chemscore.Metal>
0.0000

> <Gold.Chemscore.Hbonds>
donor molecule, donor type, donor heavy atom, donor atom, acceptor molecule, acceptor atom, score
      P1  H  7997  8009       L1    11  1.00

> <Gold.PLP.Chemscore.Internal.Correction>
0.0428

> <Gold.Rescore>
     Score         DG    S(hbond)    S(metal)    S(lipo)     H(rot)  DE(clash)    DE(int)     intcor
      7.09     -12.76       0.90        0.00     108.02       3.27       0.21       5.46       ----

> <Gold.Chemscore.Fitness>
7.0854

> <Gold.Chemscore.DG>
-12.7577

> <Gold.Chemscore.ZeroCoef>
-5.4800

> <Gold.Chemscore.Hbond>
0.8979

> <Gold.Chemscore.Metal>
0.0000

> <Gold.Chemscore.Lipo>
108.0222

> <Gold.Chemscore.Internal_Hbond>
0.0000

> <Gold.Chemscore.DEClash>
0.2074

> <Gold.Chemscore.DEInternal>
5.4648

> <Gold.Chemscore.Rot>
3.2656

> <Gold.Chemscore.Internal.Correction>
   9.000000E+99

> <Gold.Chemscore.Hbonds>
donor molecule, donor type, donor heavy atom, donor atom, acceptor molecule, acceptor atom, score
      P1  H  7997  8009       L1    11  0.73

> <Gold.Chemscore.Hbond.Weighted>
-2.9989

> <Gold.Chemscore.Metal.Weighted>
-0.0000

> <Gold.Chemscore.Lipo.Weighted>
-12.6386

> <Gold.Chemscore.Internal_Hbond.Weighted>
0.0000

> <Gold.Chemscore.DEClash.Weighted>
0.2074

> <Gold.Chemscore.DEInternal.Weighted>
5.4648

> <Gold.Chemscore.Rot.Weighted>
8.3598

> <Gold.Chemscore.Internal.Correction.Weighted>
   9.000000E+99

> <Gold.Protein.RotatedTorsions>
[ 6907 6896 6895 6894 ] final  -23.13 input  -60.11 | X-H torsion
[ 7974 7965 7964 7962 ] final -109.29 input  175.53 | X-H torsion
[ 8008 7997 7996 7995 ] final  161.38 input   59.86 | X-H torsion
[ 10167 10162 10161 10158 ] final   26.01 input  -65.29 | X-H torsion
[ 10718 10713 10712 10709 ] final   59.93 input   66.30 | X-H torsion
[ 10763 10752 10751 10750 ] final  -22.55 input  -60.55 | X-H torsion
[ 11005 11000 10999 10996 ] final -159.26 input  -57.11 | X-H torsion

> <Gold.Protein.ActiveResidues>
 VAL166  LYS551  ARG553  GLY616  TRP617  ASP618  TYR619  PRO620  LYS621  CYS622 
 ASP623  PHE694  ASN695  SER759  ASP760  ASP761  ALA762  ILE779  LEU786  VAL792 
 PHE793  MET794  SER795  GLU796  ALA797  LYS798  CYS799  TRP800  GLU811  SER814 

> <Gold.Protein.RotatedAtoms>
  151.2085  135.0471  159.8901 H   0  0  0  0  0  0  0  0  0  0  0  0  # atno 6907 bound_to 6896
  152.5427  134.0771  159.8229 H   0  0  0  0  0  0  0  0  0  0  0  0  # atno 6908 bound_to 6896
  151.0921  133.5260  159.2646 H   0  0  0  0  0  0  0  0  0  0  0  0  # atno 6909 bound_to 6896
  145.1823  140.8977  143.3472 H   0  0  0  0  0  0  0  0  0  0  0  0  # atno 7974 bound_to 7965
  156.2107  140.1779  156.7701 H   0  0  0  0  0  0  0  0  0  0  0  0  # atno 8008 bound_to 7997
  154.5718  140.0681  156.9006 H   0  0  0  0  0  0  0  0  0  0  0  0  # atno 8009 bound_to 7997
  155.2659  140.3339  155.4271 H   0  0  0  0  0  0  0  0  0  0  0  0  # atno 8010 bound_to 7997
  140.5058  144.0241  150.6351 H   0  0  0  0  0  0  0  0  0  0  0  0  # atno 10167 bound_to 10162
  157.5714  130.8910  149.9273 H   0  0  0  0  0  0  0  0  0  0  0  0  # atno 10718 bound_to 10713
  153.6538  135.6979  153.5200 H   0  0  0  0  0  0  0  0  0  0  0  0  # atno 10763 bound_to 10752
  153.2686  135.4222  155.0964 H   0  0  0  0  0  0  0  0  0  0  0  0  # atno 10764 bound_to 10752
  154.8470  135.3572  154.6082 H   0  0  0  0  0  0  0  0  0  0  0  0  # atno 10765 bound_to 10752
  140.6446  134.4515  157.5234 H   0  0  0  0  0  0  0  0  0  0  0  0  # atno 11005 bound_to 11000
  145.0123  139.3498  143.6113 LP  0  0  0  0  0  0  0  0  0  0  0  0  # atno 17320 bound_to 7965
  146.3451  139.9391  142.8743 LP  0  0  0  0  0  0  0  0  0  0  0  0  # atno 17321 bound_to 7965
  140.3549  143.2941  152.0446 LP  0  0  0  0  0  0  0  0  0  0  0  0  # atno 17342 bound_to 10162
  139.4883  144.6346  151.7001 LP  0  0  0  0  0  0  0  0  0  0  0  0  # atno 17343 bound_to 10162
  156.0759  130.3679  150.0679 LP  0  0  0  0  0  0  0  0  0  0  0  0  # atno 17370 bound_to 10713
  156.8831  130.9563  151.3597 LP  0  0  0  0  0  0  0  0  0  0  0  0  # atno 17371 bound_to 10713
  139.9068  134.8432  156.1677 LP  0  0  0  0  0  0  0  0  0  0  0  0  # atno 17394 bound_to 11000
  141.0582  133.6855  156.1901 LP  0  0  0  0  0  0  0  0  0  0  0  0  # atno 17395 bound_to 11000

$$$$
