AV-unprocessed.smi:426|AV-procd|sdf|2541|dock2
  -GOLD-   2262022503D 1   1.00000     0.00000
 Structure written by MMmdl.
 37 38  0  0  0  0  0  0  0  0  1 V2000
  153.0879  142.5071  161.4193 C   0  0  0  0  0  0  0  0  0  0  0  0
  153.7322  142.3469  160.0320 C   0  0  0  0  0  0  0  0  0  0  0  0
  153.1554  143.3610  159.0301 C   0  0  0  0  0  0  0  0  0  0  0  0
  153.5586  140.9136  159.5106 C   0  0  0  0  0  0  0  0  0  0  0  0
  154.5519  140.2102  159.3274 O   0  0  0  0  0  0  0  0  0  0  0  0
  152.2915  140.5283  159.2680 N   0  0  0  0  0  0  0  0  0  0  0  0
  151.8077  139.2724  158.8092 C   0  0  0  0  0  0  0  0  0  0  0  0
  150.7725  139.1070  157.8596 C   0  0  0  0  0  0  0  0  0  0  0  0
  150.4021  137.8046  157.4734 C   0  0  0  0  0  0  0  0  0  0  0  0
  151.0787  136.6952  158.0331 C   0  0  0  0  0  0  0  0  0  0  0  0
  150.7277  135.3811  157.6525 N   0  0  0  0  0  0  0  0  0  0  0  0
  151.1051  134.9311  156.3136 C   0  0  0  0  0  0  0  0  0  0  0  0
  150.9040  133.4120  156.1807 C   0  0  0  0  0  0  0  0  0  0  0  0
  149.5623  133.0745  156.5157 O   0  0  0  0  0  0  0  0  0  0  0  0
  149.2510  133.4199  157.8612 C   0  0  0  0  0  0  0  0  0  0  0  0
  149.3950  134.9392  158.0567 C   0  0  0  0  0  0  0  0  0  0  0  0
  152.0726  136.8583  158.9407 N   0  0  0  0  0  0  0  0  0  0  0  0
  152.4240  138.1080  159.3086 C   0  0  0  0  0  0  0  0  0  0  0  0
  153.4901  141.7838  162.1299 H   0  0  0  0  0  0  0  0  0  0  0  0
  152.0064  142.3692  161.3792 H   0  0  0  0  0  0  0  0  0  0  0  0
  153.2771  143.5016  161.8238 H   0  0  0  0  0  0  0  0  0  0  0  0
  154.7998  142.5492  160.1349 H   0  0  0  0  0  0  0  0  0  0  0  0
  153.6060  143.2441  158.0435 H   0  0  0  0  0  0  0  0  0  0  0  0
  153.3470  144.3832  159.3573 H   0  0  0  0  0  0  0  0  0  0  0  0
  152.0762  143.2471  158.9191 H   0  0  0  0  0  0  0  0  0  0  0  0
  151.5863  141.2401  159.3935 H   0  0  0  0  0  0  0  0  0  0  0  0
  150.2615  139.9437  157.4104 H   0  0  0  0  0  0  0  0  0  0  0  0
  149.6003  137.6750  156.7621 H   0  0  0  0  0  0  0  0  0  0  0  0
  150.4987  135.4540  155.5726 H   0  0  0  0  0  0  0  0  0  0  0  0
  152.1490  135.1751  156.1130 H   0  0  0  0  0  0  0  0  0  0  0  0
  151.1050  133.0950  155.1573 H   0  0  0  0  0  0  0  0  0  0  0  0
  151.5985  132.8694  156.8242 H   0  0  0  0  0  0  0  0  0  0  0  0
  148.2294  133.1090  158.0797 H   0  0  0  0  0  0  0  0  0  0  0  0
  149.9022  132.8768  158.5480 H   0  0  0  0  0  0  0  0  0  0  0  0
  149.1860  135.1814  159.0975 H   0  0  0  0  0  0  0  0  0  0  0  0
  148.6533  135.4646  157.4539 H   0  0  0  0  0  0  0  0  0  0  0  0
  153.2257  138.1779  160.0296 H   0  0  0  0  0  0  0  0  0  0  0  0
  1  2  1  0  0  0  0
  1 19  1  0  0  0  0
  1 20  1  0  0  0  0
  1 21  1  0  0  0  0
  2  3  1  0  0  0  0
  2  4  1  0  0  0  0
  2 22  1  0  0  0  0
  3 23  1  0  0  0  0
  3 24  1  0  0  0  0
  3 25  1  0  0  0  0
  4  5  2  0  0  0  0
  4  6  1  0  0  0  0
  6  7  1  0  0  0  0
  6 26  1  0  0  0  0
  7 18  1  0  0  0  0
  7  8  2  0  0  0  0
  8  9  1  0  0  0  0
  8 27  1  0  0  0  0
  9 10  2  0  0  0  0
  9 28  1  0  0  0  0
 10 11  1  0  0  0  0
 10 17  1  0  0  0  0
 11 16  1  0  0  0  0
 11 12  1  0  0  0  0
 12 13  1  0  0  0  0
 12 29  1  0  0  0  0
 12 30  1  0  0  0  0
 13 14  1  0  0  0  0
 13 31  1  0  0  0  0
 13 32  1  0  0  0  0
 14 15  1  0  0  0  0
 15 16  1  0  0  0  0
 15 33  1  0  0  0  0
 15 34  1  0  0  0  0
 16 35  1  0  0  0  0
 16 36  1  0  0  0  0
 17 18  2  0  0  0  0
 18 37  1  0  0  0  0
M  END
> <s_m_source_file>
AV-unprocessed.smi

> <i_m_source_file_index>
426

> <i_lp_mmshare_version>
43012

> <i_f3d_flags>
0

> <s_epik_input>
W0NIM11bQ0hdKFtDSDNdKUMoPU8pW05IXWMxW2NIXVtjSF1jKG5bY0hdMSlOMltDSDJdW0NIMl1PW0NIMl1bQ0gyXTI=

> <s_epik_cmdline>
J2VwaWtfcHl0aG9uJywgJy1waCcsICc3LjAnLCAnLXRuJywgJzgnLCAnLW1hJywgJzIwMCcsICctbWV0YWxfYmluZGluZycsICctaW1hZScsICc8aW5maWxlLm1hZT4nLCAnLW9tYWUnLCAnPG91dGZpbGUubWFlPic=

> <r_lp_tautomer_probability>
1

> <r_epik_Ionization_Penalty>
0.000693659

> <r_epik_Ionization_Penalty_Charging>
0

> <r_epik_Ionization_Penalty_Neutral>
0.000693659

> <r_epik_State_Penalty>
0.000430321

> <r_epik_Charging_Adjusted_Penalty>
0.000430321

> <i_epik_Tot_Q>
0

> <i_epik_Tot_abs_Q>
0

> <r_epik_Metal_State_Penalty>
-0

> <b_epik_Metal_Only>
0

> <s_lp_Force_Field>
OPLS_2005

> <r_lp_Energy>
23.904

> <b_lp_Chiralities_Consistent>
1

> <s_lp_Variant>
AV-unprocessed.smi:426-1

> <Gold.Version>
5.8.1

> <Gold.Id.Protein>
6NUR|6NUR_protein|mol2

> <Gold.PLP.Fitness>
32.7805

> <Gold.PLP.PLP>
-27.5358

> <Gold.PLP.part.hbond>
-3.0000

> <Gold.PLP.part.metal>
0.0000

> <Gold.PLP.part.buried>
-3.9654

> <Gold.PLP.part.nonpolar>
-20.8978

> <Gold.PLP.part.repulsive>
0.1565

> <Gold.PLP.ligand.clash>
0.0000

> <Gold.PLP.ligand.torsion>
0.5047

> <Gold.PLP.Chemscore.Hbond>
1.9673

> <Gold.PLP.Chemscore.CHOScore>
0.0000

> <Gold.PLP.Chemscore.Metal>
0.0000

> <Gold.Chemscore.Hbonds>
donor molecule, donor type, donor heavy atom, donor atom, acceptor molecule, acceptor atom, score
      P1  H  6896  6908       L1    17  0.38
      P1  H  7997  8009       L1     5  0.77

> <Gold.PLP.Chemscore.Internal.Correction>
0.3522

> <Gold.Rescore>
     Score         DG    S(hbond)    S(metal)    S(lipo)     H(rot)  DE(clash)    DE(int)     intcor
     13.68     -15.24       1.79        0.00      58.13       1.18       0.00       1.56       ----

> <Gold.Chemscore.Fitness>
13.6759

> <Gold.Chemscore.DG>
-15.2370

> <Gold.Chemscore.ZeroCoef>
-5.4800

> <Gold.Chemscore.Hbond>
1.7854

> <Gold.Chemscore.Metal>
0.0000

> <Gold.Chemscore.Lipo>
58.1348

> <Gold.Chemscore.Internal_Hbond>
0.0000

> <Gold.Chemscore.DEClash>
0.0000

> <Gold.Chemscore.DEInternal>
1.5611

> <Gold.Chemscore.Rot>
1.1750

> <Gold.Chemscore.Internal.Correction>
   9.000000E+99

> <Gold.Chemscore.Hbonds>
donor molecule, donor type, donor heavy atom, donor atom, acceptor molecule, acceptor atom, score
      P1  H  6896  6908       L1    17  0.02
      P1  H  7997  8009       L1     5  0.55

> <Gold.Chemscore.Hbond.Weighted>
-5.9633

> <Gold.Chemscore.Metal.Weighted>
-0.0000

> <Gold.Chemscore.Lipo.Weighted>
-6.8018

> <Gold.Chemscore.Internal_Hbond.Weighted>
0.0000

> <Gold.Chemscore.DEClash.Weighted>
0.0000

> <Gold.Chemscore.DEInternal.Weighted>
1.5611

> <Gold.Chemscore.Rot.Weighted>
3.0080

> <Gold.Chemscore.Internal.Correction.Weighted>
   9.000000E+99

> <Gold.Protein.RotatedTorsions>
[ 6907 6896 6895 6894 ] final -129.95 input  -60.11 | X-H torsion
[ 7974 7965 7964 7962 ] final  179.23 input  175.53 | X-H torsion
[ 8008 7997 7996 7995 ] final  130.38 input   59.86 | X-H torsion
[ 10167 10162 10161 10158 ] final   31.29 input  -65.29 | X-H torsion
[ 10718 10713 10712 10709 ] final -118.87 input   66.30 | X-H torsion
[ 10763 10752 10751 10750 ] final  -97.27 input  -60.55 | X-H torsion
[ 11005 11000 10999 10996 ] final  -96.03 input  -57.11 | X-H torsion

> <Gold.Protein.ActiveResidues>
 VAL166  LYS551  ARG553  GLY616  TRP617  ASP618  TYR619  PRO620  LYS621  CYS622 
 ASP623  PHE694  ASN695  SER759  ASP760  ASP761  ALA762  ILE779  LEU786  VAL792 
 PHE793  MET794  SER795  GLU796  ALA797  LYS798  CYS799  TRP800  GLU811  SER814 

> <Gold.Protein.RotatedAtoms>
  150.9343  133.6730  159.2803 H   0  0  0  0  0  0  0  0  0  0  0  0  # atno 6907 bound_to 6896
  151.4141  135.0988  159.9604 H   0  0  0  0  0  0  0  0  0  0  0  0  # atno 6908 bound_to 6896
  152.5040  133.8809  159.7401 H   0  0  0  0  0  0  0  0  0  0  0  0  # atno 6909 bound_to 6896
  144.7147  140.0517  143.6435 H   0  0  0  0  0  0  0  0  0  0  0  0  # atno 7974 bound_to 7965
  156.2953  140.2597  156.2753 H   0  0  0  0  0  0  0  0  0  0  0  0  # atno 8008 bound_to 7997
  154.9655  140.0392  157.2229 H   0  0  0  0  0  0  0  0  0  0  0  0  # atno 8009 bound_to 7997
  154.7907  140.2811  155.5998 H   0  0  0  0  0  0  0  0  0  0  0  0  # atno 8010 bound_to 7997
  140.4601  144.0919  150.6211 H   0  0  0  0  0  0  0  0  0  0  0  0  # atno 10167 bound_to 10162
  156.1139  130.6270  150.9346 H   0  0  0  0  0  0  0  0  0  0  0  0  # atno 10718 bound_to 10713
  154.7313  135.5053  153.8968 H   0  0  0  0  0  0  0  0  0  0  0  0  # atno 10763 bound_to 10752
  153.0952  135.6670  153.9785 H   0  0  0  0  0  0  0  0  0  0  0  0  # atno 10764 bound_to 10752
  153.9585  135.3050  155.3414 H   0  0  0  0  0  0  0  0  0  0  0  0  # atno 10765 bound_to 10752
  141.1424  133.8069  157.0516 H   0  0  0  0  0  0  0  0  0  0  0  0  # atno 11005 bound_to 11000
  145.9938  139.3036  143.0969 LP  0  0  0  0  0  0  0  0  0  0  0  0  # atno 17320 bound_to 7965
  145.8872  140.9326  143.0571 LP  0  0  0  0  0  0  0  0  0  0  0  0  # atno 17321 bound_to 7965
  140.4103  143.2660  151.9841 LP  0  0  0  0  0  0  0  0  0  0  0  0  # atno 17342 bound_to 10162
  139.4805  144.5921  151.7754 LP  0  0  0  0  0  0  0  0  0  0  0  0  # atno 17343 bound_to 10162
  157.6321  131.0920  150.8420 LP  0  0  0  0  0  0  0  0  0  0  0  0  # atno 17370 bound_to 10713
  156.8527  130.5086  149.5310 LP  0  0  0  0  0  0  0  0  0  0  0  0  # atno 17371 bound_to 10713
  140.0628  134.9745  157.1334 LP  0  0  0  0  0  0  0  0  0  0  0  0  # atno 17394 bound_to 11000
  140.3823  134.2273  155.7170 LP  0  0  0  0  0  0  0  0  0  0  0  0  # atno 17395 bound_to 11000

$$$$
