AV-unprocessed.smi:2520|AV-procd|sdf|9912|dock10
  -GOLD-   2272013553D 1   1.00000     0.00000
 Structure written by MMmdl.
 41 44  0  0  0  0  0  0  0  0  1 V2000
  151.0993  142.3140  157.3713 O   0  0  0  0  0  0  0  0  0  0  0  0
  151.5405  141.1813  157.5574 C   0  0  0  0  0  0  0  0  0  0  0  0
  152.0641  140.8239  158.7496 N   0  0  0  0  0  0  0  0  0  0  0  0
  152.2347  141.5565  159.9617 C   0  0  0  0  0  0  0  0  0  0  0  0
  153.3489  141.1676  160.7357 C   0  0  0  0  0  0  0  0  0  0  0  0
  153.5887  141.8359  161.9486 C   0  0  0  0  0  0  0  0  0  0  0  0
  152.6909  142.8541  162.3110 C   0  0  0  0  0  0  0  0  0  0  0  0
  151.6339  143.1940  161.5426 N   0  0  0  0  0  0  0  0  0  0  0  0
  151.4145  142.5531  160.3901 N   0  0  0  0  0  0  0  0  0  0  0  0
  151.5316  140.2318  156.6105 N   0  0  0  0  0  0  0  0  0  0  0  0
  151.0269  140.3767  155.2459 C   0  0  1  0  0  0  0  0  0  0  0  0
  150.8818  139.0202  154.5181 C   0  0  1  0  0  0  0  0  0  0  0  0
  151.4896  137.7431  155.0460 C   0  0  0  0  0  0  0  0  0  0  0  0
  150.3235  137.0961  155.7997 C   0  0  0  0  0  0  0  0  0  0  0  0
  149.4123  138.1630  156.0566 O   0  0  0  0  0  0  0  0  0  0  0  0
  149.4160  139.0267  154.9222 C   0  0  1  0  0  0  0  0  0  0  0  0
  149.4891  140.5406  155.2128 C   0  0  0  0  0  0  0  0  0  0  0  0
  148.9179  141.4397  154.1177 C   0  0  0  0  0  0  0  0  0  0  0  0
  147.4539  141.7171  154.4742 C   0  0  0  0  0  0  0  0  0  0  0  0
  147.3302  141.4339  155.9743 C   0  0  0  0  0  0  0  0  0  0  0  0
  148.7404  141.0650  156.4389 C   0  0  0  0  0  0  0  0  0  0  0  0
  152.3788  139.8658  158.7954 H   0  0  0  0  0  0  0  0  0  0  0  0
  154.0076  140.3757  160.4098 H   0  0  0  0  0  0  0  0  0  0  0  0
  154.4283  141.5778  162.5765 H   0  0  0  0  0  0  0  0  0  0  0  0
  152.8201  143.4044  163.2311 H   0  0  0  0  0  0  0  0  0  0  0  0
  151.9137  139.3278  156.8520 H   0  0  0  0  0  0  0  0  0  0  0  0
  151.5498  141.1223  154.6444 H   0  0  0  0  0  0  0  0  0  0  0  0
  150.9909  139.1468  153.4396 H   0  0  0  0  0  0  0  0  0  0  0  0
  151.8463  137.0951  154.2453 H   0  0  0  0  0  0  0  0  0  0  0  0
  152.3335  137.9326  155.7090 H   0  0  0  0  0  0  0  0  0  0  0  0
  149.8298  136.3522  155.1731 H   0  0  0  0  0  0  0  0  0  0  0  0
  150.6387  136.6103  156.7234 H   0  0  0  0  0  0  0  0  0  0  0  0
  148.7314  138.7158  154.1319 H   0  0  0  0  0  0  0  0  0  0  0  0
  149.4653  142.3830  154.0905 H   0  0  0  0  0  0  0  0  0  0  0  0
  149.0075  140.9982  153.1245 H   0  0  0  0  0  0  0  0  0  0  0  0
  147.1737  142.7419  154.2283 H   0  0  0  0  0  0  0  0  0  0  0  0
  146.7934  141.0532  153.9154 H   0  0  0  0  0  0  0  0  0  0  0  0
  146.9346  142.2877  156.5250 H   0  0  0  0  0  0  0  0  0  0  0  0
  146.6525  140.5946  156.1356 H   0  0  0  0  0  0  0  0  0  0  0  0
  148.7112  140.3460  157.2581 H   0  0  0  0  0  0  0  0  0  0  0  0
  149.2377  141.9567  156.8230 H   0  0  0  0  0  0  0  0  0  0  0  0
  1  2  2  0  0  0  0
  2  3  1  0  0  0  0
  2 10  1  0  0  0  0
  3  4  1  0  0  0  0
  3 22  1  0  0  0  0
  4  9  1  0  0  0  0
  4  5  2  0  0  0  0
  5  6  1  0  0  0  0
  5 23  1  0  0  0  0
  6  7  2  0  0  0  0
  6 24  1  0  0  0  0
  7  8  1  0  0  0  0
  7 25  1  0  0  0  0
  8  9  2  0  0  0  0
 10 11  1  0  0  0  0
 10 26  1  0  0  0  0
 11 17  1  0  0  0  0
 11 12  1  0  0  0  0
 11 27  1  0  0  0  0
 12 16  1  0  0  0  0
 12 13  1  0  0  0  0
 12 28  1  0  0  0  0
 13 14  1  0  0  0  0
 13 29  1  0  0  0  0
 13 30  1  0  0  0  0
 14 15  1  0  0  0  0
 14 31  1  0  0  0  0
 14 32  1  0  0  0  0
 15 16  1  0  0  0  0
 16 17  1  0  0  0  0
 16 33  1  0  0  0  0
 17 21  1  0  0  0  0
 17 18  1  0  0  0  0
 18 19  1  0  0  0  0
 18 34  1  0  0  0  0
 18 35  1  0  0  0  0
 19 20  1  0  0  0  0
 19 36  1  0  0  0  0
 19 37  1  0  0  0  0
 20 21  1  0  0  0  0
 20 38  1  0  0  0  0
 20 39  1  0  0  0  0
 21 40  1  0  0  0  0
 21 41  1  0  0  0  0
M  END
> <s_m_source_file>
AV-unprocessed.smi

> <i_m_source_file_index>
2520

> <i_lp_mmshare_version>
43012

> <i_f3d_flags>
0

> <s_epik_input>
bjFuW2NIXVtjSF1bY0hdYzFbTkhdQyg9TylbTkhdW0NAQEhdMltDQEBIXShbQ0gyXVtDSDJdTzMpW0NASF0zQzI0W0NIMl1bQ0gyXVtDSDJdW0NIMl00

> <s_epik_cmdline>
J2VwaWtfcHl0aG9uJywgJy1waCcsICc3LjAnLCAnLXRuJywgJzgnLCAnLW1hJywgJzIwMCcsICctbWV0YWxfYmluZGluZycsICctaW1hZScsICc8aW5maWxlLm1hZT4nLCAnLW9tYWUnLCAnPG91dGZpbGUubWFlPic=

> <r_lp_tautomer_probability>
1

> <r_epik_Ionization_Penalty>
0.00552561

> <r_epik_Ionization_Penalty_Charging>
0

> <r_epik_Ionization_Penalty_Neutral>
0.00552561

> <r_epik_State_Penalty>
-0

> <r_epik_Charging_Adjusted_Penalty>
0

> <i_epik_Tot_Q>
0

> <i_epik_Tot_abs_Q>
0

> <r_epik_Metal_State_Penalty>
-0

> <b_epik_Metal_Only>
0

> <s_lp_Force_Field>
OPLS_2005

> <r_lp_Energy>
62.4045

> <b_lp_Chiralities_Consistent>
1

> <s_lp_Variant>
AV-unprocessed.smi:2520-6

> <Gold.Version>
5.8.1

> <Gold.Id.Protein>
6NUR|6NUR_protein|mol2

> <Gold.PLP.Fitness>
38.3400

> <Gold.PLP.PLP>
-38.7338

> <Gold.PLP.part.hbond>
-1.6983

> <Gold.PLP.part.metal>
0.0000

> <Gold.PLP.part.buried>
-2.8547

> <Gold.PLP.part.nonpolar>
-34.0689

> <Gold.PLP.part.repulsive>
0.5085

> <Gold.PLP.ligand.clash>
0.0000

> <Gold.PLP.ligand.torsion>
0.3010

> <Gold.PLP.Chemscore.Hbond>
0.0009

> <Gold.PLP.Chemscore.CHOScore>
0.0000

> <Gold.PLP.Chemscore.Metal>
0.0000

> <Gold.Chemscore.Hbonds>
donor molecule, donor type, donor heavy atom, donor atom, acceptor molecule, acceptor atom, score
      P1  H  6933  6945       L1     8  0.01

> <Gold.PLP.Chemscore.Internal.Correction>
0.2056

> <Gold.Rescore>
     Score         DG    S(hbond)    S(metal)    S(lipo)     H(rot)  DE(clash)    DE(int)     intcor
     11.79     -13.09       0.00        0.00      86.94       1.00       0.10       1.20       ----

> <Gold.Chemscore.Fitness>
11.7887

> <Gold.Chemscore.DG>
-13.0918

> <Gold.Chemscore.ZeroCoef>
-5.4800

> <Gold.Chemscore.Hbond>
0.0000

> <Gold.Chemscore.Metal>
0.0000

> <Gold.Chemscore.Lipo>
86.9385

> <Gold.Chemscore.Internal_Hbond>
0.0000

> <Gold.Chemscore.DEClash>
0.1008

> <Gold.Chemscore.DEInternal>
1.2023

> <Gold.Chemscore.Rot>
1.0000

> <Gold.Chemscore.Internal.Correction>
   9.000000E+99

> <Gold.Chemscore.Hbond.Weighted>
-0.0000

> <Gold.Chemscore.Metal.Weighted>
-0.0000

> <Gold.Chemscore.Lipo.Weighted>
-10.1718

> <Gold.Chemscore.Internal_Hbond.Weighted>
0.0000

> <Gold.Chemscore.DEClash.Weighted>
0.1008

> <Gold.Chemscore.DEInternal.Weighted>
1.2023

> <Gold.Chemscore.Rot.Weighted>
2.5600

> <Gold.Chemscore.Internal.Correction.Weighted>
   9.000000E+99

> <Gold.Protein.RotatedTorsions>
[ 6907 6896 6895 6894 ] final  -14.50 input  -60.11 | X-H torsion
[ 7974 7965 7964 7962 ] final  -37.77 input  175.53 | X-H torsion
[ 8008 7997 7996 7995 ] final   13.74 input   59.86 | X-H torsion
[ 10167 10162 10161 10158 ] final  143.27 input  -65.29 | X-H torsion
[ 10718 10713 10712 10709 ] final  -37.70 input   66.30 | X-H torsion
[ 10763 10752 10751 10750 ] final  -74.28 input  -60.55 | X-H torsion
[ 11005 11000 10999 10996 ] final  -90.88 input  -57.11 | X-H torsion

> <Gold.Protein.ActiveResidues>
 VAL166  LYS551  ARG553  GLY616  TRP617  ASP618  TYR619  PRO620  LYS621  CYS622 
 ASP623  PHE694  ASN695  SER759  ASP760  ASP761  ALA762  ILE779  LEU786  VAL792 
 PHE793  MET794  SER795  GLU796  ALA797  LYS798  CYS799  TRP800  GLU811  SER814 

> <Gold.Protein.RotatedAtoms>
  151.3385  135.0858  159.9362 H   0  0  0  0  0  0  0  0  0  0  0  0  # atno 6907 bound_to 6896
  152.5217  133.9471  159.7664 H   0  0  0  0  0  0  0  0  0  0  0  0  # atno 6908 bound_to 6896
  150.9823  133.6179  159.2750 H   0  0  0  0  0  0  0  0  0  0  0  0  # atno 6909 bound_to 6896
  146.0546  140.6434  142.9026 H   0  0  0  0  0  0  0  0  0  0  0  0  # atno 7974 bound_to 7965
  154.8387  140.2911  155.5674 H   0  0  0  0  0  0  0  0  0  0  0  0  # atno 8008 bound_to 7997
  156.3010  140.2518  156.3257 H   0  0  0  0  0  0  0  0  0  0  0  0  # atno 8009 bound_to 7997
  154.9150  140.0387  157.1956 H   0  0  0  0  0  0  0  0  0  0  0  0  # atno 8010 bound_to 7997
  139.4974  144.6052  151.6395 H   0  0  0  0  0  0  0  0  0  0  0  0  # atno 10167 bound_to 10162
  156.3122  130.4254  149.8039 H   0  0  0  0  0  0  0  0  0  0  0  0  # atno 10718 bound_to 10713
  154.4710  135.5869  153.6322 H   0  0  0  0  0  0  0  0  0  0  0  0  # atno 10763 bound_to 10752
  152.9834  135.6067  154.3366 H   0  0  0  0  0  0  0  0  0  0  0  0  # atno 10764 bound_to 10752
  154.3248  135.2843  155.2480 H   0  0  0  0  0  0  0  0  0  0  0  0  # atno 10765 bound_to 10752
  141.1556  133.7720  156.9800 H   0  0  0  0  0  0  0  0  0  0  0  0  # atno 11005 bound_to 11000
  144.7141  140.4145  143.7058 LP  0  0  0  0  0  0  0  0  0  0  0  0  # atno 17320 bound_to 7965
  145.6666  139.1591  143.2778 LP  0  0  0  0  0  0  0  0  0  0  0  0  # atno 17321 bound_to 7965
  140.5711  144.0106  150.6217 LP  0  0  0  0  0  0  0  0  0  0  0  0  # atno 17342 bound_to 10162
  140.3224  143.3128  152.0770 LP  0  0  0  0  0  0  0  0  0  0  0  0  # atno 17343 bound_to 10162
  156.5378  130.8286  151.3259 LP  0  0  0  0  0  0  0  0  0  0  0  0  # atno 17370 bound_to 10713
  157.7393  130.9830  150.2309 LP  0  0  0  0  0  0  0  0  0  0  0  0  # atno 17371 bound_to 10713
  140.1072  134.9499  157.2011 LP  0  0  0  0  0  0  0  0  0  0  0  0  # atno 17394 bound_to 11000
  140.3241  134.2883  155.7240 LP  0  0  0  0  0  0  0  0  0  0  0  0  # atno 17395 bound_to 11000

$$$$
