#       Name:                AV-unprocessed.smi:3061
#       Creating user name   scv26
#       Creation time:       Fri Mar 27 17:08:35 2020


#       File generated by GOLD software.
#

@<TRIPOS>MOLECULE
AV-unprocessed.smi:3061
    41    42     1
SMALL
NO_CHARGES


@<TRIPOS>ATOM
      1 ****        -2.8986  -1.5039  -1.0266 C.3            1 S1                 0.0000
      2 ****        -2.2577  -0.7534   0.1504 C.3            1 S1                 0.0000
      3 ****        -2.6935  -1.3439   1.5051 C.3            1 S1                 0.0000
      4 ****        -2.2135  -0.5567   2.6269 N.pl3          1 S1                 0.0000
      5 ****        -2.7019   0.5561   3.1764 C.2            1 S1                 0.0000
      6 ****        -1.9829   1.0112   4.1930 N.2            1 S1                 0.0000
      7 ****        -0.9976   0.0649   4.2173 C.2            1 S1                 0.0000
      8 ****        -1.0895  -0.8983   3.3003 N.2            1 S1                 0.0000
      9 ****        -0.8019  -0.7959   0.0310 N.am           1 S1                 0.0000
     10 ****        -0.0435   0.1139  -0.5987 C.2            1 S1                 0.0000
     11 ****        -0.5071   1.0904  -1.1888 O.2            1 S1                 0.0000
     12 ****         1.4752  -0.1143  -0.5517 C.3            1 S1                 0.0000
     13 ****         2.1995   1.0521   0.1516 C.3            1 S1                 0.0000
     14 ****         3.0098   1.7039  -0.9563 C.2            1 S1                 0.0000
     15 ****         3.6562   2.7374  -0.7920 O.2            1 S1                 0.0000
     16 ****         2.9086   1.0114  -2.0940 N.am           1 S1                 0.0000
     17 ****         3.5456   1.3526  -3.3586 C.3            1 S1                 0.0000
     18 ****         2.1033  -0.1902  -1.9607 C.3            1 S1                 0.0000
     19 ****        -3.9866  -1.4686  -0.9672 H              1 S1                 0.0000
     20 ****        -2.5993  -2.5524  -1.0394 H              1 S1                 0.0000
     21 ****        -2.6088  -1.0625  -1.9808 H              1 S1                 0.0000
     22 ****        -2.5963   0.2840   0.1136 H              1 S1                 0.0000
     23 ****        -3.7820  -1.3798   1.5650 H              1 S1                 0.0000
     24 ****        -2.3418  -2.3716   1.6117 H              1 S1                 0.0000
     25 ****        -3.5979   1.0452   2.8228 H              1 S1                 0.0000
     26 ****        -0.1887   0.0862   4.9326 H              1 S1                 0.0000
     27 ****        -0.3330  -1.5635   0.4900 H              1 S1                 0.0000
     28 ****         1.6778  -1.0441  -0.0169 H              1 S1                 0.0000
     29 ****         1.5243   1.7783   0.6075 H              1 S1                 0.0000
     30 ****         2.8729   0.6865   0.9274 H              1 S1                 0.0000
     31 ****         3.1641   2.3034  -3.7329 H              1 S1                 0.0000
     32 ****         3.3534   0.5896  -4.1136 H              1 S1                 0.0000
     33 ****         4.6258   1.4394  -3.2335 H              1 S1                 0.0000
     34 ****         2.7452  -1.0673  -2.0519 H              1 S1                 0.0000
     35 ****         1.3605  -0.2418  -2.7587 H              1 S1                 0.0000
     36 ****        -2.1214   1.8138   4.7733 LP             1 S1                 0.0000
     37 ****        -0.4813  -1.6773   3.1480 LP             1 S1                 0.0000
     38 ****        -1.4961   1.2357  -1.2148 LP             1 S1                 0.0000
     39 ****         0.1055   1.7381  -1.6419 LP             1 S1                 0.0000
     40 ****         3.6634   3.1859   0.1017 LP             1 S1                 0.0000
     41 ****         4.1745   3.1292  -1.5522 LP             1 S1                 0.0000
@<TRIPOS>BOND
    1    1    2 1     
    2    1   19 1     
    3    1   20 1     
    4    1   21 1     
    5    2    3 1     
    6    2    9 1     
    7    2   22 1     
    8    3    4 1     
    9    3   23 1     
   10    3   24 1     
   11    4    8 1     
   12    4    5 1     
   13    5    6 2     
   14    5   25 1     
   15    6    7 1     
   16    7    8 2     
   17    7   26 1     
   18    9   10 am    
   19    9   27 1     
   20   10   11 2     
   21   10   12 1     
   22   12   18 1     
   23   12   13 1     
   24   12   28 1     
   25   13   14 1     
   26   13   29 1     
   27   13   30 1     
   28   14   15 2     
   29   14   16 am    
   30   16   17 1     
   31   16   18 1     
   32   17   31 1     
   33   17   32 1     
   34   17   33 1     
   35   18   34 1     
   36   18   35 1     
   37    6   36 1     
   38    8   37 1     
   39   11   38 1     
   40   11   39 1     
   41   15   40 1     
   42   15   41 1     
@<TRIPOS>SUBSTRUCTURE
      1 S1             1
@<TRIPOS>SET
LONE_PAIRS      STATIC     ATOMS    <user>   **** ""
6 36 37 38 39 40 41
DONOR_HYDROGENS      STATIC     ATOMS    <user>   **** ""
1 27
ATOM$BLUE        STATIC     ATOMS    COLORGROUP SYSTEM
6 36 37 38 39 40 41
ATOM$RED        STATIC     ATOMS    COLORGROUP SYSTEM
1 27
