AV-unprocessed.smi:1952|AV-procd|sdf|7885|dock3
  -GOLD-   2272010 33D 1   1.00000     0.00000
 Structure written by MMmdl.
 40 41  0  0  0  0  0  0  0  0  2 V2000
  153.4489  142.7360  161.0776 C   0  0  0  0  0  0  0  0  0  0  0  0
  152.3930  143.0606  160.0772 C   0  0  0  0  0  0  0  0  0  0  0  0
  151.9295  142.4081  158.9694 C   0  0  0  0  0  0  0  0  0  0  0  0
  150.9168  143.2787  158.4867 C   0  0  0  0  0  0  0  0  0  0  0  0
  150.1750  142.9570  157.3213 N   0  0  0  0  0  0  0  0  0  0  0  0
  149.6704  141.7600  156.9780 C   0  0  0  0  0  0  0  0  0  0  0  0
  149.7927  140.7247  157.6329 O   0  0  0  0  0  0  0  0  0  0  0  0
  148.9960  141.8277  155.8202 N   0  0  0  0  0  0  0  0  0  0  0  0
  148.3524  140.7078  155.1313 C   0  0  2  0  0  0  0  0  0  0  0  0
  149.4182  139.9273  154.3497 C   0  0  0  0  0  0  0  0  0  0  0  0
  147.2174  141.1904  154.1976 C   0  0  0  0  0  0  0  0  0  0  0  0
  146.3323  140.0916  153.7343 N   0  3  0  0  0  0  0  0  0  0  0  0
  146.9860  139.1934  152.7542 C   0  0  0  0  0  0  0  0  0  0  0  0
  145.9914  138.1281  152.2616 C   0  0  0  0  0  0  0  0  0  0  0  0
  145.4755  137.4029  153.3712 O   0  0  0  0  0  0  0  0  0  0  0  0
  144.7753  138.2443  154.2795 C   0  0  0  0  0  0  0  0  0  0  0  0
  145.7369  139.3041  154.8414 C   0  0  0  0  0  0  0  0  0  0  0  0
  150.7780  144.3667  159.2287 N   0  0  0  0  0  0  0  0  0  0  0  0
  151.7222  144.2315  160.2533 O   0  0  0  0  0  0  0  0  0  0  0  0
  154.0634  141.9021  160.7383 H   0  0  0  0  0  0  0  0  0  0  0  0
  153.0031  142.4608  162.0335 H   0  0  0  0  0  0  0  0  0  0  0  0
  154.1033  143.5920  161.2426 H   0  0  0  0  0  0  0  0  0  0  0  0
  152.2624  141.4603  158.5730 H   0  0  0  0  0  0  0  0  0  0  0  0
  150.0111  143.7215  156.6828 H   0  0  0  0  0  0  0  0  0  0  0  0
  148.9501  142.7238  155.3567 H   0  0  0  0  0  0  0  0  0  0  0  0
  147.9435  140.0217  155.8740 H   0  0  0  0  0  0  0  0  0  0  0  0
  148.9821  139.0624  153.8487 H   0  0  0  0  0  0  0  0  0  0  0  0
  150.2019  139.5601  155.0131 H   0  0  0  0  0  0  0  0  0  0  0  0
  149.8902  140.5491  153.5881 H   0  0  0  0  0  0  0  0  0  0  0  0
  146.6210  141.9244  154.7419 H   0  0  0  0  0  0  0  0  0  0  0  0
  147.6254  141.7155  153.3325 H   0  0  0  0  0  0  0  0  0  0  0  0
  147.3508  139.7723  151.9049 H   0  0  0  0  0  0  0  0  0  0  0  0
  147.8519  138.7157  153.2153 H   0  0  0  0  0  0  0  0  0  0  0  0
  145.1754  138.5868  151.7007 H   0  0  0  0  0  0  0  0  0  0  0  0
  146.4902  137.4325  151.5865 H   0  0  0  0  0  0  0  0  0  0  0  0
  143.9250  138.7135  153.7814 H   0  0  0  0  0  0  0  0  0  0  0  0
  144.3736  137.6343  155.0887 H   0  0  0  0  0  0  0  0  0  0  0  0
  146.5275  138.8223  155.4188 H   0  0  0  0  0  0  0  0  0  0  0  0
  145.1953  139.9563  155.5257 H   0  0  0  0  0  0  0  0  0  0  0  0
  145.5651  140.5317  153.2455 H   0  0  0  0  0  0  0  0  0  0  0  0
  1  2  1  0  0  0  0
  1 20  1  0  0  0  0
  1 21  1  0  0  0  0
  1 22  1  0  0  0  0
  2 19  1  0  0  0  0
  2  3  2  0  0  0  0
  3  4  1  0  0  0  0
  3 23  1  0  0  0  0
  4  5  1  0  0  0  0
  4 18  2  0  0  0  0
  5  6  1  0  0  0  0
  5 24  1  0  0  0  0
  6  7  2  0  0  0  0
  6  8  1  0  0  0  0
  8  9  1  0  0  0  0
  8 25  1  0  0  0  0
  9 10  1  0  0  0  0
  9 11  1  0  0  0  0
  9 26  1  0  0  0  0
 10 27  1  0  0  0  0
 10 28  1  0  0  0  0
 10 29  1  0  0  0  0
 11 12  1  0  0  0  0
 11 30  1  0  0  0  0
 11 31  1  0  0  0  0
 12 17  1  0  0  0  0
 12 13  1  0  0  0  0
 12 40  1  0  0  0  0
 13 14  1  0  0  0  0
 13 32  1  0  0  0  0
 13 33  1  0  0  0  0
 14 15  1  0  0  0  0
 14 34  1  0  0  0  0
 14 35  1  0  0  0  0
 15 16  1  0  0  0  0
 16 17  1  0  0  0  0
 16 36  1  0  0  0  0
 16 37  1  0  0  0  0
 17 38  1  0  0  0  0
 17 39  1  0  0  0  0
 18 19  1  0  0  0  0
M  CHG  1  12   1
M  END
> <s_m_source_file>
AV-unprocessed.smi

> <i_m_source_file_index>
1952

> <i_lp_mmshare_version>
43012

> <i_f3d_flags>
0

> <s_epik_input>
W0NIM11jMVtjSF1jKG5vMSlbTkhdQyg9TylbTkhdW0NASF0oW0NIM10pW0NIMl1OMltDSDJdW0NIMl1PW0NIMl1bQ0gyXTI=

> <s_epik_cmdline>
J2VwaWtfcHl0aG9uJywgJy1waCcsICc3LjAnLCAnLXRuJywgJzgnLCAnLW1hJywgJzIwMCcsICctbWV0YWxfYmluZGluZycsICctaW1hZScsICc8aW5maWxlLm1hZT4nLCAnLW9tYWUnLCAnPG91dGZpbGUubWFlPic=

> <r_epik_Ionization_Penalty>
0.707079

> <r_epik_Ionization_Penalty_Charging>
0.707039

> <r_epik_Ionization_Penalty_Neutral>
4.01892e-05

> <r_epik_State_Penalty>
0.730276

> <r_epik_Charging_Adjusted_Penalty>
1.43732

> <i_epik_Tot_Q>
1

> <i_epik_Tot_abs_Q>
1

> <r_epik_Metal_State_Penalty>
0.744847

> <b_epik_Metal_Only>
0

> <s_lp_Force_Field>
OPLS_2005

> <r_lp_Energy>
19.2222

> <b_lp_Chiralities_Consistent>
1

> <s_lp_Variant>
AV-unprocessed.smi:1952-3

> <Gold.Version>
5.8.1

> <Gold.Id.Protein>
6NUR|6NUR_protein|mol2

> <Gold.PLP.Fitness>
38.3079

> <Gold.PLP.PLP>
-27.8111

> <Gold.PLP.part.hbond>
-4.0387

> <Gold.PLP.part.metal>
0.0000

> <Gold.PLP.part.buried>
0.5842

> <Gold.PLP.part.nonpolar>
-25.2996

> <Gold.PLP.part.repulsive>
0.5769

> <Gold.PLP.ligand.clash>
0.0008

> <Gold.PLP.ligand.torsion>
0.7718

> <Gold.PLP.Chemscore.Hbond>
4.0000

> <Gold.PLP.Chemscore.CHOScore>
0.0000

> <Gold.PLP.Chemscore.Metal>
0.0000

> <Gold.Chemscore.Hbonds>
donor molecule, donor type, donor heavy atom, donor atom, acceptor molecule, acceptor atom, score
      L1  H     5    24       P1  8028  1.00
      L1  H     8    25       P1  8028  0.90
      L1  H    12    40       P1 10175  2.00

> <Gold.PLP.Chemscore.Internal.Correction>
0.0411

> <Gold.Rescore>
     Score         DG    S(hbond)    S(metal)    S(lipo)     H(rot)  DE(clash)    DE(int)     intcor
     16.45     -19.27       2.85        0.00      71.72       1.61       1.75       1.07       ----

> <Gold.Chemscore.Fitness>
16.4460

> <Gold.Chemscore.DG>
-19.2652

> <Gold.Chemscore.ZeroCoef>
-5.4800

> <Gold.Chemscore.Hbond>
2.8473

> <Gold.Chemscore.Metal>
0.0000

> <Gold.Chemscore.Lipo>
71.7179

> <Gold.Chemscore.Internal_Hbond>
0.0000

> <Gold.Chemscore.DEClash>
1.7519

> <Gold.Chemscore.DEInternal>
1.0672

> <Gold.Chemscore.Rot>
1.6078

> <Gold.Chemscore.Internal.Correction>
   9.000000E+99

> <Gold.Chemscore.Hbonds>
donor molecule, donor type, donor heavy atom, donor atom, acceptor molecule, acceptor atom, score
      L1  H     5    24       P1  8028  0.95
      L1  H     8    25       P1  8028  0.84
      L1  H    12    40       P1 10175  0.83

> <Gold.Chemscore.Hbond.Weighted>
-9.5101

> <Gold.Chemscore.Metal.Weighted>
-0.0000

> <Gold.Chemscore.Lipo.Weighted>
-8.3910

> <Gold.Chemscore.Internal_Hbond.Weighted>
0.0000

> <Gold.Chemscore.DEClash.Weighted>
1.7519

> <Gold.Chemscore.DEInternal.Weighted>
1.0672

> <Gold.Chemscore.Rot.Weighted>
4.1158

> <Gold.Chemscore.Internal.Correction.Weighted>
   9.000000E+99

> <Gold.Protein.RotatedTorsions>
[ 6907 6896 6895 6894 ] final  -93.23 input  -60.11 | X-H torsion
[ 7974 7965 7964 7962 ] final  -62.83 input  175.53 | X-H torsion
[ 8008 7997 7996 7995 ] final  145.00 input   59.86 | X-H torsion
[ 10167 10162 10161 10158 ] final   48.64 input  -65.29 | X-H torsion
[ 10718 10713 10712 10709 ] final   13.71 input   66.30 | X-H torsion
[ 10763 10752 10751 10750 ] final -151.43 input  -60.55 | X-H torsion
[ 11005 11000 10999 10996 ] final   72.54 input  -57.11 | X-H torsion

> <Gold.Protein.ActiveResidues>
 VAL166  LYS551  ARG553  GLY616  TRP617  ASP618  TYR619  PRO620  LYS621  CYS622 
 ASP623  PHE694  ASN695  SER759  ASP760  ASP761  ALA762  ILE779  LEU786  VAL792 
 PHE793  MET794  SER795  GLU796  ALA797  LYS798  CYS799  TRP800  GLU811  SER814 

> <Gold.Protein.RotatedAtoms>
  150.6919  134.1999  159.4317 H   0  0  0  0  0  0  0  0  0  0  0  0  # atno 6907 bound_to 6896
  151.9966  134.9948  160.0573 H   0  0  0  0  0  0  0  0  0  0  0  0  # atno 6908 bound_to 6896
  152.1618  133.4552  159.4901 H   0  0  0  0  0  0  0  0  0  0  0  0  # atno 6909 bound_to 6896
  145.7864  140.8734  143.0303 H   0  0  0  0  0  0  0  0  0  0  0  0  # atno 7974 bound_to 7965
  156.2894  140.2221  156.5144 H   0  0  0  0  0  0  0  0  0  0  0  0  # atno 8008 bound_to 7997
  154.7582  140.0475  157.0972 H   0  0  0  0  0  0  0  0  0  0  0  0  # atno 8009 bound_to 7997
  155.0025  140.3103  155.4865 H   0  0  0  0  0  0  0  0  0  0  0  0  # atno 8010 bound_to 7997
  140.2912  144.3044  150.6240 H   0  0  0  0  0  0  0  0  0  0  0  0  # atno 10167 bound_to 10162
  157.0285  130.6183  149.5732 H   0  0  0  0  0  0  0  0  0  0  0  0  # atno 10718 bound_to 10713
  154.8058  135.3260  154.7435 H   0  0  0  0  0  0  0  0  0  0  0  0  # atno 10763 bound_to 10752
  153.8094  135.6897  153.4847 H   0  0  0  0  0  0  0  0  0  0  0  0  # atno 10764 bound_to 10752
  153.1802  135.4589  154.9963 H   0  0  0  0  0  0  0  0  0  0  0  0  # atno 10765 bound_to 10752
  139.9485  134.7269  156.0919 H   0  0  0  0  0  0  0  0  0  0  0  0  # atno 11005 bound_to 11000
  144.6788  140.0062  143.7484 LP  0  0  0  0  0  0  0  0  0  0  0  0  # atno 17320 bound_to 7965
  146.0021  139.3100  143.0921 LP  0  0  0  0  0  0  0  0  0  0  0  0  # atno 17321 bound_to 7965
  140.5731  143.2179  151.7564 LP  0  0  0  0  0  0  0  0  0  0  0  0  # atno 17342 bound_to 10162
  139.4937  144.4189  152.0000 LP  0  0  0  0  0  0  0  0  0  0  0  0  # atno 17343 bound_to 10162
  156.0077  130.5166  150.7887 LP  0  0  0  0  0  0  0  0  0  0  0  0  # atno 17370 bound_to 10713
  157.5195  131.0930  151.0096 LP  0  0  0  0  0  0  0  0  0  0  0  0  # atno 17371 bound_to 10713
  141.1142  133.6633  156.3054 LP  0  0  0  0  0  0  0  0  0  0  0  0  # atno 17394 bound_to 11000
  140.5775  134.5779  157.5472 LP  0  0  0  0  0  0  0  0  0  0  0  0  # atno 17395 bound_to 11000

$$$$
