AV-unprocessed.smi:163|AV-procd|sdf|1380|dock2
  -GOLD-   2262019103D 1   1.00000     0.00000
 Structure written by MMmdl.
 48 51  0  0  0  0  0  0  0  0  1 V2000
  152.7694  144.3764  158.4662 N   0  0  0  0  0  0  0  0  0  0  0  0
  152.0657  143.4672  158.3328 C   0  0  0  0  0  0  0  0  0  0  0  0
  151.1722  142.3094  158.1608 C   0  0  0  0  0  0  0  0  0  0  0  0
  151.8402  141.1167  157.4640 C   0  0  0  0  0  0  0  0  0  0  0  0
  152.8285  140.5985  157.9853 O   0  0  0  0  0  0  0  0  0  0  0  0
  151.3206  140.6737  156.2952 N   0  0  0  0  0  0  0  0  0  0  0  0
  151.7979  139.5070  155.5442 C   0  0  0  0  0  0  0  0  0  0  0  0
  150.7260  138.4034  155.6058 C   0  0  0  0  0  0  0  0  0  0  0  0
  149.4296  138.9105  155.1490 N   0  0  0  0  0  0  0  0  0  0  0  0
  148.4900  137.9582  154.9166 C   0  0  0  0  0  0  0  0  0  0  0  0
  148.4701  136.8286  155.6744 N   0  0  0  0  0  0  0  0  0  0  0  0
  147.5556  135.8805  155.4513 C   0  0  0  0  0  0  0  0  0  0  0  0
  146.5825  135.8583  154.5393 N   0  0  0  0  0  0  0  0  0  0  0  0
  146.5917  136.9900  153.7785 C   0  0  0  0  0  0  0  0  0  0  0  0
  147.4989  138.0807  153.9011 C   0  0  0  0  0  0  0  0  0  0  0  0
  147.1817  139.0630  152.9699 N   0  0  0  0  0  0  0  0  0  0  0  0
  146.1550  138.5770  152.3282 C   0  0  0  0  0  0  0  0  0  0  0  0
  145.7404  137.3308  152.7414 N   0  0  0  0  0  0  0  0  0  0  0  0
  144.6287  136.5577  152.2075 C   0  0  0  0  0  0  0  0  0  0  0  0
  145.0265  135.6091  151.0502 C   0  0  1  0  0  0  0  0  0  0  0  0
  145.3232  136.3823  149.9019 O   0  0  0  0  0  0  0  0  0  0  0  0
  146.2417  134.7455  151.3963 C   0  0  0  0  0  0  0  0  0  0  0  0
  145.6535  133.3509  151.5725 C   0  0  0  0  0  0  0  0  0  0  0  0
  144.6164  133.3290  150.6086 O   0  0  0  0  0  0  0  0  0  0  0  0
  143.9391  134.5741  150.6971 C   0  0  0  0  0  0  0  0  0  0  0  0
  148.9884  140.1693  155.7582 C   0  0  0  0  0  0  0  0  0  0  0  0
  150.1025  141.2305  155.6956 C   0  0  0  0  0  0  0  0  0  0  0  0
  150.8261  142.0163  159.1523 H   0  0  0  0  0  0  0  0  0  0  0  0
  150.3115  142.6473  157.5824 H   0  0  0  0  0  0  0  0  0  0  0  0
  151.9701  139.7987  154.5070 H   0  0  0  0  0  0  0  0  0  0  0  0
  152.7501  139.1169  155.8996 H   0  0  0  0  0  0  0  0  0  0  0  0
  151.0548  137.5533  155.0100 H   0  0  0  0  0  0  0  0  0  0  0  0
  150.6203  138.0445  156.6307 H   0  0  0  0  0  0  0  0  0  0  0  0
  147.6117  135.0159  156.0962 H   0  0  0  0  0  0  0  0  0  0  0  0
  145.6690  139.1200  151.5309 H   0  0  0  0  0  0  0  0  0  0  0  0
  144.1849  135.9885  153.0255 H   0  0  0  0  0  0  0  0  0  0  0  0
  143.8605  137.2557  151.8720 H   0  0  0  0  0  0  0  0  0  0  0  0
  145.6902  135.8125  149.2432 H   0  0  0  0  0  0  0  0  0  0  0  0
  146.9566  134.7258  150.5718 H   0  0  0  0  0  0  0  0  0  0  0  0
  146.7782  135.0837  152.2835 H   0  0  0  0  0  0  0  0  0  0  0  0
  146.3829  132.5593  151.4001 H   0  0  0  0  0  0  0  0  0  0  0  0
  145.2335  133.2252  152.5719 H   0  0  0  0  0  0  0  0  0  0  0  0
  143.2030  134.4873  151.4967 H   0  0  0  0  0  0  0  0  0  0  0  0
  143.4000  134.8020  149.7766 H   0  0  0  0  0  0  0  0  0  0  0  0
  148.1021  140.5412  155.2424 H   0  0  0  0  0  0  0  0  0  0  0  0
  148.7080  139.9901  156.7973 H   0  0  0  0  0  0  0  0  0  0  0  0
  149.7677  142.1464  156.1838 H   0  0  0  0  0  0  0  0  0  0  0  0
  150.3046  141.5009  154.6582 H   0  0  0  0  0  0  0  0  0  0  0  0
  1  2  3  0  0  0  0
  2  3  1  0  0  0  0
  3  4  1  0  0  0  0
  3 28  1  0  0  0  0
  3 29  1  0  0  0  0
  4  5  2  0  0  0  0
  4  6  1  0  0  0  0
  6 27  1  0  0  0  0
  6  7  1  0  0  0  0
  7  8  1  0  0  0  0
  7 30  1  0  0  0  0
  7 31  1  0  0  0  0
  8  9  1  0  0  0  0
  8 32  1  0  0  0  0
  8 33  1  0  0  0  0
  9 10  1  0  0  0  0
  9 26  1  0  0  0  0
 10 15  1  0  0  0  0
 10 11  2  0  0  0  0
 11 12  1  0  0  0  0
 12 13  2  0  0  0  0
 12 34  1  0  0  0  0
 13 14  1  0  0  0  0
 14 18  1  0  0  0  0
 14 15  2  0  0  0  0
 15 16  1  0  0  0  0
 16 17  2  0  0  0  0
 17 18  1  0  0  0  0
 17 35  1  0  0  0  0
 18 19  1  0  0  0  0
 19 20  1  0  0  0  0
 19 36  1  0  0  0  0
 19 37  1  0  0  0  0
 20 25  1  0  0  0  0
 20 21  1  0  0  0  0
 20 22  1  0  0  0  0
 21 38  1  0  0  0  0
 22 23  1  0  0  0  0
 22 39  1  0  0  0  0
 22 40  1  0  0  0  0
 23 24  1  0  0  0  0
 23 41  1  0  0  0  0
 23 42  1  0  0  0  0
 24 25  1  0  0  0  0
 25 43  1  0  0  0  0
 25 44  1  0  0  0  0
 26 27  1  0  0  0  0
 26 45  1  0  0  0  0
 26 46  1  0  0  0  0
 27 47  1  0  0  0  0
 27 48  1  0  0  0  0
M  END
> <s_m_source_file>
AV-unprocessed.smi

> <i_m_source_file_index>
163

> <i_lp_mmshare_version>
43012

> <i_f3d_flags>
0

> <s_epik_input>
TiNDW0NIMl1DKD1PKU4xW0NIMl1bQ0gyXU4oW0NIMl1bQ0gyXTEpYyhuW2NIXW4yKWMoYzIzKW5bY0hdbjNbQ0gyXVtDQEBdNChbT0hdKVtDSDJdW0NIMl1PW0NIMl00

> <s_epik_cmdline>
J2VwaWtfcHl0aG9uJywgJy1waCcsICc3LjAnLCAnLXRuJywgJzgnLCAnLW1hJywgJzIwMCcsICctbWV0YWxfYmluZGluZycsICctaW1hZScsICc8aW5maWxlLm1hZT4nLCAnLW9tYWUnLCAnPG91dGZpbGUubWFlPic=

> <r_lp_tautomer_probability>
1

> <r_epik_Ionization_Penalty>
0.000981096

> <r_epik_Ionization_Penalty_Charging>
0

> <r_epik_Ionization_Penalty_Neutral>
0.000981096

> <r_epik_State_Penalty>
0.000482875

> <r_epik_Charging_Adjusted_Penalty>
0.000482875

> <i_epik_Tot_Q>
0

> <i_epik_Tot_abs_Q>
0

> <r_epik_Metal_State_Penalty>
-0

> <b_epik_Metal_Only>
0

> <s_lp_Force_Field>
OPLS_2005

> <r_lp_Energy>
52.1528

> <b_lp_Chiralities_Consistent>
1

> <s_lp_Variant>
AV-unprocessed.smi:163-1

> <Gold.Version>
5.8.1

> <Gold.Id.Protein>
6NUR|6NUR_protein|mol2

> <Gold.PLP.Fitness>
42.8802

> <Gold.PLP.PLP>
-34.1544

> <Gold.PLP.part.hbond>
-3.0000

> <Gold.PLP.part.metal>
0.0000

> <Gold.PLP.part.buried>
-1.2199

> <Gold.PLP.part.nonpolar>
-30.3038

> <Gold.PLP.part.repulsive>
0.6147

> <Gold.PLP.ligand.clash>
0.0000

> <Gold.PLP.ligand.torsion>
0.9578

> <Gold.PLP.Chemscore.Hbond>
1.7930

> <Gold.PLP.Chemscore.CHOScore>
1.5926

> <Gold.PLP.Chemscore.Metal>
0.0000

> <Gold.Chemscore.Hbonds>
donor molecule, donor type, donor heavy atom, donor atom, acceptor molecule, acceptor atom, score
      L1  H    21    38       P1  7921  1.00
      P1  H  7997  8008       L1     5  0.74
      L1  C    17    35       P1 10171  1.00
      L1  C    17    35       P1 10175  0.57

> <Gold.PLP.Chemscore.Internal.Correction>
0.4847

> <Gold.Rescore>
     Score         DG    S(hbond)    S(metal)    S(lipo)     H(rot)  DE(clash)    DE(int)     intcor
      9.93     -11.39       1.75        0.00      60.08       2.72       0.55       0.90       ----

> <Gold.Chemscore.Fitness>
9.9320

> <Gold.Chemscore.DG>
-11.3915

> <Gold.Chemscore.ZeroCoef>
-5.4800

> <Gold.Chemscore.Hbond>
1.7522

> <Gold.Chemscore.Metal>
0.0000

> <Gold.Chemscore.Lipo>
60.0848

> <Gold.Chemscore.Internal_Hbond>
0.0000

> <Gold.Chemscore.DEClash>
0.5548

> <Gold.Chemscore.DEInternal>
0.9047

> <Gold.Chemscore.Rot>
2.7230

> <Gold.Chemscore.Internal.Correction>
   9.000000E+99

> <Gold.Chemscore.Hbonds>
donor molecule, donor type, donor heavy atom, donor atom, acceptor molecule, acceptor atom, score
      L1  H    21    38       P1  7921  1.00
      P1  H  7997  8008       L1     5  0.69

> <Gold.Chemscore.Hbond.Weighted>
-5.8525

> <Gold.Chemscore.Metal.Weighted>
-0.0000

> <Gold.Chemscore.Lipo.Weighted>
-7.0299

> <Gold.Chemscore.Internal_Hbond.Weighted>
0.0000

> <Gold.Chemscore.DEClash.Weighted>
0.5548

> <Gold.Chemscore.DEInternal.Weighted>
0.9047

> <Gold.Chemscore.Rot.Weighted>
6.9709

> <Gold.Chemscore.Internal.Correction.Weighted>
   9.000000E+99

> <Gold.Protein.RotatedTorsions>
[ 6907 6896 6895 6894 ] final  -18.04 input  -60.11 | X-H torsion
[ 7974 7965 7964 7962 ] final  174.45 input  175.53 | X-H torsion
[ 8008 7997 7996 7995 ] final  -75.60 input   59.86 | X-H torsion
[ 10167 10162 10161 10158 ] final -179.94 input  -65.29 | X-H torsion
[ 10718 10713 10712 10709 ] final  -52.98 input   66.30 | X-H torsion
[ 10763 10752 10751 10750 ] final   39.88 input  -60.55 | X-H torsion
[ 11005 11000 10999 10996 ] final   59.78 input  -57.11 | X-H torsion

> <Gold.Protein.ActiveResidues>
 VAL166  LYS551  ARG553  GLY616  TRP617  ASP618  TYR619  PRO620  LYS621  CYS622 
 ASP623  PHE694  ASN695  SER759  ASP760  ASP761  ALA762  ILE779  LEU786  VAL792 
 PHE793  MET794  SER795  GLU796  ALA797  LYS798  CYS799  TRP800  GLU811  SER814 

> <Gold.Protein.RotatedAtoms>
  151.2842  135.0723  159.9180 H   0  0  0  0  0  0  0  0  0  0  0  0  # atno 6907 bound_to 6896
  152.5328  133.9999  159.7900 H   0  0  0  0  0  0  0  0  0  0  0  0  # atno 6908 bound_to 6896
  151.0258  133.5784  159.2697 H   0  0  0  0  0  0  0  0  0  0  0  0  # atno 6909 bound_to 6896
  144.7221  139.9798  143.6438 H   0  0  0  0  0  0  0  0  0  0  0  0  # atno 7974 bound_to 7965
  154.5431  140.0741  156.8543 H   0  0  0  0  0  0  0  0  0  0  0  0  # atno 8008 bound_to 7997
  155.3141  140.3392  155.4225 H   0  0  0  0  0  0  0  0  0  0  0  0  # atno 8009 bound_to 7997
  156.1893  140.1680  156.8110 H   0  0  0  0  0  0  0  0  0  0  0  0  # atno 8010 bound_to 7997
  139.5364  144.2486  152.0802 H   0  0  0  0  0  0  0  0  0  0  0  0  # atno 10167 bound_to 10162
  156.1574  130.4150  149.9847 H   0  0  0  0  0  0  0  0  0  0  0  0  # atno 10718 bound_to 10713
  152.9953  135.6208  154.2536 H   0  0  0  0  0  0  0  0  0  0  0  0  # atno 10763 bound_to 10752
  154.2274  135.2793  155.2904 H   0  0  0  0  0  0  0  0  0  0  0  0  # atno 10764 bound_to 10752
  154.5478  135.5742  153.6954 H   0  0  0  0  0  0  0  0  0  0  0  0  # atno 10765 bound_to 10752
  140.0279  134.6056  155.9547 H   0  0  0  0  0  0  0  0  0  0  0  0  # atno 11005 bound_to 11000
  146.0496  139.3499  143.0647 LP  0  0  0  0  0  0  0  0  0  0  0  0  # atno 17320 bound_to 7965
  145.8231  140.9669  143.0888 LP  0  0  0  0  0  0  0  0  0  0  0  0  # atno 17321 bound_to 7965
  140.1958  144.4707  150.6456 LP  0  0  0  0  0  0  0  0  0  0  0  0  # atno 17342 bound_to 10162
  140.6572  143.2241  151.5941 LP  0  0  0  0  0  0  0  0  0  0  0  0  # atno 17343 bound_to 10162
  156.7686  130.9178  151.3643 LP  0  0  0  0  0  0  0  0  0  0  0  0  # atno 17370 bound_to 10713
  157.6706  130.9047  150.0031 LP  0  0  0  0  0  0  0  0  0  0  0  0  # atno 17371 bound_to 10713
  141.1814  133.6547  156.5034 LP  0  0  0  0  0  0  0  0  0  0  0  0  # atno 17394 bound_to 11000
  140.4275  134.7131  157.4924 LP  0  0  0  0  0  0  0  0  0  0  0  0  # atno 17395 bound_to 11000

$$$$
