#       Name:                AV-unprocessed.smi:2589
#       Creating user name   scv26
#       Creation time:       Fri Mar 27 14:16:32 2020


#       File generated by GOLD software.
#

@<TRIPOS>MOLECULE
AV-unprocessed.smi:2589
    49    50     1
SMALL
NO_CHARGES


@<TRIPOS>ATOM
      1 ****        -4.9762   2.2497  -2.5733 C.3            1 S1                 0.0000
      2 ****        -4.3911   0.9534  -2.0246 C.2            1 S1                 0.0000
      3 ****        -4.1788   0.0034  -2.7774 O.2            1 S1                 0.0000
      4 ****        -4.1325   0.9289  -0.7081 N.am           1 S1                 0.0000
      5 ****        -3.5509  -0.2006   0.0125 C.3            1 S1                 0.0000
      6 ****        -2.0235  -0.2551  -0.1078 C.2            1 S1                 0.0000
      7 ****        -1.3684   0.7777  -0.2541 O.2            1 S1                 0.0000
      8 ****        -1.4673  -1.4726  -0.0203 N.am           1 S1                 0.0000
      9 ****        -0.0354  -1.7400  -0.0922 C.3            1 S1                 0.0000
     10 ****         0.6873  -1.5074   1.2330 C.ar           1 S1                 0.0000
     11 ****         0.1847  -2.1036   2.4105 C.ar           1 S1                 0.0000
     12 ****         0.8571  -1.9003   3.6289 C.ar           1 S1                 0.0000
     13 ****         2.0177  -1.1061   3.6244 C.ar           1 S1                 0.0000
     14 ****         2.5142  -0.5316   2.5098 N.ar           1 S1                 0.0000
     15 ****         1.8680  -0.7246   1.3340 C.ar           1 S1                 0.0000
     16 ****         2.4041  -0.0924   0.2011 N.3            1 S1                 0.0000
     17 ****         3.7866  -0.4403  -0.1019 C.3            1 S1                 0.0000
     18 ****         4.1961   0.1843  -1.4468 C.3            1 S1                 0.0000
     19 ****         3.9877   1.5937  -1.4026 O.3            1 S1                 0.0000
     20 ****         2.6218   1.9282  -1.1698 C.3            1 S1                 0.0000
     21 ****         2.1707   1.3454   0.1802 C.3            1 S1                 0.0000
     22 ****        -4.2484   3.0573  -2.4929 H              1 S1                 0.0000
     23 ****        -5.8702   2.5325  -2.0172 H              1 S1                 0.0000
     24 ****        -5.2487   2.1386  -3.6231 H              1 S1                 0.0000
     25 ****        -4.3312   1.7593  -0.1693 H              1 S1                 0.0000
     26 ****        -3.8103  -0.1046   1.0667 H              1 S1                 0.0000
     27 ****        -3.9924  -1.1366  -0.3348 H              1 S1                 0.0000
     28 ****        -2.0770  -2.2683   0.1012 H              1 S1                 0.0000
     29 ****         0.0950  -2.7875  -0.3639 H              1 S1                 0.0000
     30 ****         0.3972  -1.1656  -0.9117 H              1 S1                 0.0000
     31 ****        -0.7064  -2.7136   2.3822 H              1 S1                 0.0000
     32 ****         0.4933  -2.3441   4.5438 H              1 S1                 0.0000
     33 ****         2.5624  -0.9274   4.5396 H              1 S1                 0.0000
     34 ****         4.4436  -0.0767   0.6895 H              1 S1                 0.0000
     35 ****         3.8947  -1.5248  -0.1412 H              1 S1                 0.0000
     36 ****         5.2486  -0.0138  -1.6493 H              1 S1                 0.0000
     37 ****         3.6249  -0.2520  -2.2680 H              1 S1                 0.0000
     38 ****         2.5166   3.0131  -1.1649 H              1 S1                 0.0000
     39 ****         1.9993   1.5505  -1.9827 H              1 S1                 0.0000
     40 ****         1.1139   1.5556   0.3461 H              1 S1                 0.0000
     41 ****         2.7242   1.8179   0.9929 H              1 S1                 0.0000
     42 ****        -4.3902   0.0806  -3.7517 LP             1 S1                 0.0000
     43 ****        -3.7949  -0.8458  -2.4148 LP             1 S1                 0.0000
     44 ****        -1.8325   1.6625  -0.2954 LP             1 S1                 0.0000
     45 ****        -0.3725   0.7313  -0.3315 LP             1 S1                 0.0000
     46 ****         3.3432   0.0261   2.5501 LP             1 S1                 0.0000
     47 ****         1.8776  -0.4783  -0.5564 LP             1 S1                 0.0000
     48 ****         4.2718   1.9890  -2.2761 LP             1 S1                 0.0000
     49 ****         4.5437   1.9787  -0.6659 LP             1 S1                 0.0000
@<TRIPOS>BOND
    1    1    2 1     
    2    1   22 1     
    3    1   23 1     
    4    1   24 1     
    5    2    3 2     
    6    2    4 am    
    7    4    5 1     
    8    4   25 1     
    9    5    6 1     
   10    5   26 1     
   11    5   27 1     
   12    6    7 2     
   13    6    8 am    
   14    8    9 1     
   15    8   28 1     
   16    9   10 1     
   17    9   29 1     
   18    9   30 1     
   19   10   15 ar    
   20   10   11 ar    
   21   11   12 ar    
   22   11   31 1     
   23   12   13 ar    
   24   12   32 1     
   25   13   14 ar    
   26   13   33 1     
   27   14   15 ar    
   28   15   16 1     
   29   16   21 1     
   30   16   17 1     
   31   17   18 1     
   32   17   34 1     
   33   17   35 1     
   34   18   19 1     
   35   18   36 1     
   36   18   37 1     
   37   19   20 1     
   38   20   21 1     
   39   20   38 1     
   40   20   39 1     
   41   21   40 1     
   42   21   41 1     
   43    3   42 1     
   44    3   43 1     
   45    7   44 1     
   46    7   45 1     
   47   14   46 1     
   48   16   47 1     
   49   19   48 1     
   50   19   49 1     
@<TRIPOS>SUBSTRUCTURE
      1 S1             1
@<TRIPOS>SET
LONE_PAIRS      STATIC     ATOMS    <user>   **** ""
8 42 43 44 45 46 47 48 49
DONOR_HYDROGENS      STATIC     ATOMS    <user>   **** ""
2 25 28
ATOM$BLUE        STATIC     ATOMS    COLORGROUP SYSTEM
8 42 43 44 45 46 47 48 49
ATOM$RED        STATIC     ATOMS    COLORGROUP SYSTEM
2 25 28
