AV-unprocessed.smi:1726|AV-procd|sdf|6963|dock6
  -GOLD-   22720 8173D 1   1.00000     0.00000
 Structure written by MMmdl.
 42 43  0  0  0  0  0  0  0  0  3 V2000
  146.1512  130.8416  152.0220 C   0  0  0  0  0  0  0  0  0  0  0  0
  145.2285  131.7073  151.1516 C   0  0  0  0  0  0  0  0  0  0  0  0
  145.4077  133.1576  151.4096 N   0  3  1  0  0  0  0  0  0  0  0  0
  144.9762  133.9980  150.2622 C   0  0  0  0  0  0  0  0  0  0  0  0
  145.3162  135.4810  150.4967 C   0  0  0  0  0  0  0  0  0  0  0  0
  144.7411  135.9885  151.8306 C   0  0  0  0  0  0  0  0  0  0  0  0
  145.1633  135.0744  152.9950 C   0  0  2  0  0  0  0  0  0  0  0  0
  146.6007  135.2071  153.2335 N   0  0  0  0  0  0  0  0  0  0  0  0
  147.3111  134.5041  154.1268 C   0  0  0  0  0  0  0  0  0  0  0  0
  146.8090  133.6678  154.8772 O   0  0  0  0  0  0  0  0  0  0  0  0
  148.6166  134.8168  154.0489 N   0  0  0  0  0  0  0  0  0  0  0  0
  149.7007  134.2954  154.7740 C   0  0  0  0  0  0  0  0  0  0  0  0
  149.9657  132.9687  154.9299 C   0  0  0  0  0  0  0  0  0  0  0  0
  151.1047  132.4872  155.7014 C   0  0  0  0  0  0  0  0  0  0  0  0
  151.3885  131.0178  155.9584 C   0  0  0  0  0  0  0  0  0  0  0  0
  150.5327  130.2636  155.2701 F   0  0  0  0  0  0  0  0  0  0  0  0
  152.6254  130.6951  155.5793 F   0  0  0  0  0  0  0  0  0  0  0  0
  151.2551  130.7238  157.2520 F   0  0  0  0  0  0  0  0  0  0  0  0
  151.8338  133.5191  156.2602 C   0  0  0  0  0  0  0  0  0  0  0  0
  151.6442  134.8522  156.1489 N   0  5  0  0  0  0  0  0  0  0  0  0
  150.5817  135.2916  155.4175 C   0  0  0  0  0  0  0  0  0  0  0  0
  150.3450  136.4927  155.2809 O   0  0  0  0  0  0  0  0  0  0  0  0
  144.7720  133.6149  152.6736 C   0  0  0  0  0  0  0  0  0  0  0  0
  146.0647  129.7908  151.7447 H   0  0  0  0  0  0  0  0  0  0  0  0
  145.9076  130.9159  153.0813 H   0  0  0  0  0  0  0  0  0  0  0  0
  147.1953  131.1305  151.8964 H   0  0  0  0  0  0  0  0  0  0  0  0
  145.4660  131.4967  150.1079 H   0  0  0  0  0  0  0  0  0  0  0  0
  144.1841  131.4257  151.2939 H   0  0  0  0  0  0  0  0  0  0  0  0
  145.4688  133.6603  149.3495 H   0  0  0  0  0  0  0  0  0  0  0  0
  143.9028  133.8777  150.1065 H   0  0  0  0  0  0  0  0  0  0  0  0
  146.3990  135.6113  150.4888 H   0  0  0  0  0  0  0  0  0  0  0  0
  144.9318  136.0844  149.6739 H   0  0  0  0  0  0  0  0  0  0  0  0
  145.0589  137.0156  152.0145 H   0  0  0  0  0  0  0  0  0  0  0  0
  143.6524  136.0121  151.7669 H   0  0  0  0  0  0  0  0  0  0  0  0
  144.6377  135.3963  153.8957 H   0  0  0  0  0  0  0  0  0  0  0  0
  147.0954  135.8790  152.6647 H   0  0  0  0  0  0  0  0  0  0  0  0
  148.8800  135.4789  153.3337 H   0  0  0  0  0  0  0  0  0  0  0  0
  149.3229  132.2218  154.4940 H   0  0  0  0  0  0  0  0  0  0  0  0
  152.6982  133.2294  156.8951 H   0  0  0  0  0  0  0  0  0  0  0  0
  143.6877  133.5298  152.5845 H   0  0  0  0  0  0  0  0  0  0  0  0
  145.0575  132.9675  153.5016 H   0  0  0  0  0  0  0  0  0  0  0  0
  146.4017  133.3061  151.5116 H   0  0  0  0  0  0  0  0  0  0  0  0
  1  2  1  0  0  0  0
  1 24  1  0  0  0  0
  1 25  1  0  0  0  0
  1 26  1  0  0  0  0
  2  3  1  0  0  0  0
  2 27  1  0  0  0  0
  2 28  1  0  0  0  0
  3 23  1  0  0  0  0
  3  4  1  0  0  0  0
  3 42  1  0  0  0  0
  4  5  1  0  0  0  0
  4 29  1  0  0  0  0
  4 30  1  0  0  0  0
  5  6  1  0  0  0  0
  5 31  1  0  0  0  0
  5 32  1  0  0  0  0
  6  7  1  0  0  0  0
  6 33  1  0  0  0  0
  6 34  1  0  0  0  0
  7  8  1  0  0  0  0
  7 23  1  0  0  0  0
  7 35  1  0  0  0  0
  8  9  1  0  0  0  0
  8 36  1  0  0  0  0
  9 10  2  0  0  0  0
  9 11  1  0  0  0  0
 11 12  1  0  0  0  0
 11 37  1  0  0  0  0
 12 21  1  0  0  0  0
 12 13  2  0  0  0  0
 13 14  1  0  0  0  0
 13 38  1  0  0  0  0
 14 15  1  0  0  0  0
 14 19  2  0  0  0  0
 15 16  1  0  0  0  0
 15 17  1  0  0  0  0
 15 18  1  0  0  0  0
 19 20  1  0  0  0  0
 19 39  1  0  0  0  0
 20 21  1  0  0  0  0
 21 22  2  0  0  0  0
 23 40  1  0  0  0  0
 23 41  1  0  0  0  0
M  CHG  1   3   1
M  CHG  1  20  -1
M  END
> <s_m_source_file>
AV-unprocessed.smi

> <i_m_source_file_index>
1726

> <i_lp_mmshare_version>
43012

> <i_f3d_flags>
0

> <s_epik_input>
W0NIM11bQ0gyXU4xW0NIMl1bQ0gyXVtDSDJdW0NASF0oW0NIMl0xKVtOSF1DKD1PKVtOSF1jMltjSF1jKEMoRikoRilGKVtjSF1bbkhdYzI9Tw==

> <s_epik_cmdline>
J2VwaWtfcHl0aG9uJywgJy1waCcsICc3LjAnLCAnLXRuJywgJzgnLCAnLW1hJywgJzIwMCcsICctbWV0YWxfYmluZGluZycsICctaW1hZScsICc8aW5maWxlLm1hZT4nLCAnLW9tYWUnLCAnPG91dGZpbGUubWFlPic=

> <r_lp_tautomer_probability>
1

> <r_epik_Ionization_Penalty>
3.01007

> <r_epik_Ionization_Penalty_Charging>
0.14897

> <r_epik_Ionization_Penalty_Neutral>
2.8611

> <r_epik_State_Penalty>
2.85632

> <r_epik_Charging_Adjusted_Penalty>
3.00529

> <i_epik_Tot_Q>
0

> <i_epik_Tot_abs_Q>
2

> <r_epik_Metal_State_Penalty>
0.443826

> <b_epik_Metal_Only>
1

> <s_lp_Force_Field>
OPLS_2005

> <r_lp_Energy>
34.1377

> <b_lp_Chiralities_Consistent>
1

> <s_lp_Variant>
AV-unprocessed.smi:1726-7

> <Gold.Version>
5.8.1

> <Gold.Id.Protein>
6NUR|6NUR_protein|mol2

> <Gold.PLP.Fitness>
39.4953

> <Gold.PLP.PLP>
-29.7655

> <Gold.PLP.part.hbond>
-3.0000

> <Gold.PLP.part.metal>
0.0000

> <Gold.PLP.part.buried>
0.2129

> <Gold.PLP.part.nonpolar>
-24.8848

> <Gold.PLP.part.repulsive>
0.1901

> <Gold.PLP.ligand.clash>
0.0000

> <Gold.PLP.ligand.torsion>
0.7133

> <Gold.PLP.Chemscore.Hbond>
3.6969

> <Gold.PLP.Chemscore.CHOScore>
0.0000

> <Gold.PLP.Chemscore.Metal>
0.0000

> <Gold.Chemscore.Hbonds>
donor molecule, donor type, donor heavy atom, donor atom, acceptor molecule, acceptor atom, score
      L1  H     8    36       P1  7948  0.80
      L1  H    11    37       P1  7948  1.00
      P1  H 10752 10764       L1    20  1.82

> <Gold.PLP.Chemscore.Internal.Correction>
0.0657

> <Gold.Rescore>
     Score         DG    S(hbond)    S(metal)    S(lipo)     H(rot)  DE(clash)    DE(int)     intcor
     14.34     -15.58       1.65        0.00      67.16       1.28       0.52       0.72       ----

> <Gold.Chemscore.Fitness>
14.3391

> <Gold.Chemscore.DG>
-15.5821

> <Gold.Chemscore.ZeroCoef>
-5.4800

> <Gold.Chemscore.Hbond>
1.6529

> <Gold.Chemscore.Metal>
0.0000

> <Gold.Chemscore.Lipo>
67.1553

> <Gold.Chemscore.Internal_Hbond>
0.0000

> <Gold.Chemscore.DEClash>
0.5191

> <Gold.Chemscore.DEInternal>
0.7239

> <Gold.Chemscore.Rot>
1.2796

> <Gold.Chemscore.Internal.Correction>
   9.000000E+99

> <Gold.Chemscore.Hbonds>
donor molecule, donor type, donor heavy atom, donor atom, acceptor molecule, acceptor atom, score
      L1  H     8    36       P1  7948  0.74
      L1  H    11    37       P1  7948  0.78
      P1  H 10752 10764       L1    20  0.10

> <Gold.Chemscore.Hbond.Weighted>
-5.5208

> <Gold.Chemscore.Metal.Weighted>
-0.0000

> <Gold.Chemscore.Lipo.Weighted>
-7.8572

> <Gold.Chemscore.Internal_Hbond.Weighted>
0.0000

> <Gold.Chemscore.DEClash.Weighted>
0.5191

> <Gold.Chemscore.DEInternal.Weighted>
0.7239

> <Gold.Chemscore.Rot.Weighted>
3.2759

> <Gold.Chemscore.Internal.Correction.Weighted>
   9.000000E+99

> <Gold.Protein.RotatedTorsions>
[ 6907 6896 6895 6894 ] final  133.28 input  -60.11 | X-H torsion
[ 7974 7965 7964 7962 ] final  -42.44 input  175.53 | X-H torsion
[ 8008 7997 7996 7995 ] final  -41.10 input   59.86 | X-H torsion
[ 10167 10162 10161 10158 ] final -107.48 input  -65.29 | X-H torsion
[ 10718 10713 10712 10709 ] final  -73.60 input   66.30 | X-H torsion
[ 10763 10752 10751 10750 ] final  -32.36 input  -60.55 | X-H torsion
[ 11005 11000 10999 10996 ] final   81.02 input  -57.11 | X-H torsion

> <Gold.Protein.ActiveResidues>
 VAL166  LYS551  ARG553  GLY616  TRP617  ASP618  TYR619  PRO620  LYS621  CYS622 
 ASP623  PHE694  ASN695  SER759  ASP760  ASP761  ALA762  ILE779  LEU786  VAL792 
 PHE793  MET794  SER795  GLU796  ALA797  LYS798  CYS799  TRP800  GLU811  SER814 

> <Gold.Protein.RotatedAtoms>
  152.3236  133.5881  159.5761 H   0  0  0  0  0  0  0  0  0  0  0  0  # atno 6907 bound_to 6896
  150.7385  133.9974  159.3635 H   0  0  0  0  0  0  0  0  0  0  0  0  # atno 6908 bound_to 6896
  151.7855  135.0750  160.0431 H   0  0  0  0  0  0  0  0  0  0  0  0  # atno 6909 bound_to 6896
  146.0116  140.6957  142.9221 H   0  0  0  0  0  0  0  0  0  0  0  0  # atno 7974 bound_to 7965
  154.4006  140.1508  156.3135 H   0  0  0  0  0  0  0  0  0  0  0  0  # atno 8008 bound_to 7997
  155.8594  140.3454  155.5724 H   0  0  0  0  0  0  0  0  0  0  0  0  # atno 8009 bound_to 7997
  155.7897  140.0855  157.2006 H   0  0  0  0  0  0  0  0  0  0  0  0  # atno 8010 bound_to 7997
  140.1765  143.4000  152.1314 H   0  0  0  0  0  0  0  0  0  0  0  0  # atno 10167 bound_to 10162
  156.0274  130.4398  150.2766 H   0  0  0  0  0  0  0  0  0  0  0  0  # atno 10718 bound_to 10713
  153.8125  135.6881  153.4839 H   0  0  0  0  0  0  0  0  0  0  0  0  # atno 10763 bound_to 10752
  153.1620  135.4576  154.9783 H   0  0  0  0  0  0  0  0  0  0  0  0  # atno 10764 bound_to 10752
  154.7962  135.3320  154.7604 H   0  0  0  0  0  0  0  0  0  0  0  0  # atno 10765 bound_to 10752
  139.9113  134.7965  156.1986 H   0  0  0  0  0  0  0  0  0  0  0  0  # atno 11005 bound_to 11000
  144.6955  140.3408  143.7199 LP  0  0  0  0  0  0  0  0  0  0  0  0  # atno 17320 bound_to 7965
  145.7333  139.1742  143.2418 LP  0  0  0  0  0  0  0  0  0  0  0  0  # atno 17321 bound_to 7965
  139.5315  144.7163  151.5041 LP  0  0  0  0  0  0  0  0  0  0  0  0  # atno 17342 bound_to 10162
  140.6547  143.8623  150.6823 LP  0  0  0  0  0  0  0  0  0  0  0  0  # atno 17343 bound_to 10162
  157.0869  131.0159  151.3136 LP  0  0  0  0  0  0  0  0  0  0  0  0  # atno 17370 bound_to 10713
  157.4884  130.7807  149.7483 LP  0  0  0  0  0  0  0  0  0  0  0  0  # atno 17371 bound_to 10713
  141.0539  133.6875  156.1823 LP  0  0  0  0  0  0  0  0  0  0  0  0  # atno 17394 bound_to 11000
  140.6768  134.4810  157.5588 LP  0  0  0  0  0  0  0  0  0  0  0  0  # atno 17395 bound_to 11000

$$$$
