#       Name:                AV-unprocessed.smi:1427
#       Creating user name   scv26
#       Creation time:       Fri Mar 27 05:46:22 2020


#       File generated by GOLD software.
#

@<TRIPOS>MOLECULE
AV-unprocessed.smi:1427
    38    39     1
SMALL
NO_CHARGES


@<TRIPOS>ATOM
      1 ****        -0.4264  -2.7464   2.0810 C.3            1 S1                 0.0000
      2 ****        -0.0070  -1.9159   0.8590 C.3            1 S1                 0.0000
      3 ****         1.5256  -1.8667   0.7015 C.3            1 S1                 0.0000
      4 ****         1.9321  -1.1813  -0.5139 N.pl3          1 S1                 0.0000
      5 ****         2.0659  -1.6994  -1.7846 C.2            1 S1                 0.0000
      6 ****         2.4496  -0.6755  -2.6025 C.2            1 S1                 0.0000
      7 ****         2.5240   0.4456  -1.7295 C.2            1 S1                 0.0000
      8 ****         2.2176   0.1390  -0.4795 N.2            1 S1                 0.0000
      9 ****        -0.5318  -0.5584   0.9711 N.am           1 S1                 0.0000
     10 ****        -1.7278  -0.1335   0.5322 C.2            1 S1                 0.0000
     11 ****        -2.5709  -0.8920   0.0540 O.2            1 S1                 0.0000
     12 ****        -2.0361   1.3731   0.6348 C.3            1 S1                 0.0000
     13 ****        -2.3042   2.0500  -0.7239 C.3            1 S1                 0.0000
     14 ****        -0.9927   2.7641  -1.0776 C.3            1 S1                 0.0000
     15 ****        -0.3194   2.9067   0.2779 C.2            1 S1                 0.0000
     16 ****         0.6616   3.6185   0.4787 O.2            1 S1                 0.0000
     17 ****        -0.9432   2.1605   1.1909 N.am           1 S1                 0.0000
     18 ****        -0.0527  -3.7678   2.0060 H              1 S1                 0.0000
     19 ****        -1.5120  -2.8011   2.1679 H              1 S1                 0.0000
     20 ****        -0.0387  -2.3168   3.0053 H              1 S1                 0.0000
     21 ****        -0.4212  -2.3892  -0.0333 H              1 S1                 0.0000
     22 ****         1.9868  -1.3750   1.5601 H              1 S1                 0.0000
     23 ****         1.9318  -2.8783   0.6682 H              1 S1                 0.0000
     24 ****         1.8754  -2.7408  -1.9985 H              1 S1                 0.0000
     25 ****         2.6448  -0.7204  -3.6636 H              1 S1                 0.0000
     26 ****         2.7898   1.4655  -1.9649 H              1 S1                 0.0000
     27 ****         0.0970   0.1359   1.3489 H              1 S1                 0.0000
     28 ****        -2.9088   1.4845   1.2794 H              1 S1                 0.0000
     29 ****        -2.6088   1.3494  -1.5028 H              1 S1                 0.0000
     30 ****        -3.1052   2.7836  -0.6208 H              1 S1                 0.0000
     31 ****        -0.3665   2.1502  -1.7259 H              1 S1                 0.0000
     32 ****        -1.1591   3.7299  -1.5554 H              1 S1                 0.0000
     33 ****        -0.6681   2.1027   2.1607 H              1 S1                 0.0000
     34 ****         2.2010   0.7481   0.3134 LP             1 S1                 0.0000
     35 ****        -2.3783  -1.8705  -0.0205 LP             1 S1                 0.0000
     36 ****        -3.4486  -0.5299  -0.2601 LP             1 S1                 0.0000
     37 ****         1.0600   4.1443  -0.2728 LP             1 S1                 0.0000
     38 ****         1.0616   3.6721   1.3936 LP             1 S1                 0.0000
@<TRIPOS>BOND
    1    1    2 1     
    2    1   18 1     
    3    1   19 1     
    4    1   20 1     
    5    2    3 1     
    6    2    9 1     
    7    2   21 1     
    8    3    4 1     
    9    3   22 1     
   10    3   23 1     
   11    4    8 1     
   12    4    5 1     
   13    5    6 2     
   14    5   24 1     
   15    6    7 1     
   16    6   25 1     
   17    7    8 2     
   18    7   26 1     
   19    9   10 am    
   20    9   27 1     
   21   10   11 2     
   22   10   12 1     
   23   12   17 1     
   24   12   13 1     
   25   12   28 1     
   26   13   14 1     
   27   13   29 1     
   28   13   30 1     
   29   14   15 1     
   30   14   31 1     
   31   14   32 1     
   32   15   16 2     
   33   15   17 am    
   34   17   33 1     
   35    8   34 1     
   36   11   35 1     
   37   11   36 1     
   38   16   37 1     
   39   16   38 1     
@<TRIPOS>SUBSTRUCTURE
      1 S1             1
@<TRIPOS>SET
LONE_PAIRS      STATIC     ATOMS    <user>   **** ""
5 34 35 36 37 38
DONOR_HYDROGENS      STATIC     ATOMS    <user>   **** ""
2 27 33
ATOM$BLUE        STATIC     ATOMS    COLORGROUP SYSTEM
5 34 35 36 37 38
ATOM$RED        STATIC     ATOMS    COLORGROUP SYSTEM
2 27 33
