#       Name:                AV-unprocessed.smi:2666
#       Creating user name   scv26
#       Creation time:       Fri Mar 27 14:35:03 2020


#       File generated by GOLD software.
#

@<TRIPOS>MOLECULE
AV-unprocessed.smi:2666
    48    49     1
SMALL
NO_CHARGES


@<TRIPOS>ATOM
      1 ****        -0.6112  -1.9189  -0.7463 O.2            1 S1                 0.0000
      2 ****        -0.2492  -1.4047   0.3115 C.2            1 S1                 0.0000
      3 ****        -0.5880  -1.8317   1.5399 N.am           1 S1                 0.0000
      4 ****        -1.3646  -2.9650   1.9038 C.ar           1 S1                 0.0000
      5 ****        -1.9058  -3.0029   3.2054 C.ar           1 S1                 0.0000
      6 ****        -2.6628  -4.1214   3.6024 C.ar           1 S1                 0.0000
      7 ****        -2.8435  -5.1690   2.6790 C.ar           1 S1                 0.0000
      8 ****        -2.3215  -5.1564   1.4345 N.ar           1 S1                 0.0000
      9 ****        -1.5973  -4.0796   1.0598 C.ar           1 S1                 0.0000
     10 ****         0.5328  -0.3169   0.3812 N.am           1 S1                 0.0000
     11 ****         1.1048   0.4111  -0.7541 C.3            1 S1                 0.0000
     12 ****         2.6520   0.3218  -0.6960 C.3            1 S1                 0.0000
     13 ****         3.2319  -1.1068  -0.6844 C.3            1 S1                 0.0000
     14 ****         3.2096  -1.6706   0.6111 O.3            1 S1                 0.0000
     15 ****         0.5653   1.8718  -0.7720 C.3            1 S1                 0.0000
     16 ****        -0.9846   1.9239  -0.7366 C.3            1 S1                 0.0000
     17 ****        -1.5269   3.3614  -0.7620 C.3            1 S1                 0.0000
     18 ****        -1.0089   4.1287  -1.9839 C.3            1 S1                 0.0000
     19 ****         0.5240   4.1153  -2.0176 C.3            1 S1                 0.0000
     20 ****         1.0744   2.6798  -1.9917 C.3            1 S1                 0.0000
     21 ****        -0.2805  -1.2544   2.3088 H              1 S1                 0.0000
     22 ****        -1.7472  -2.1849   3.8931 H              1 S1                 0.0000
     23 ****        -3.0939  -4.1759   4.5910 H              1 S1                 0.0000
     24 ****        -3.4182  -6.0427   2.9489 H              1 S1                 0.0000
     25 ****        -1.1856  -4.1419   0.0650 H              1 S1                 0.0000
     26 ****         0.7710   0.0301   1.2986 H              1 S1                 0.0000
     27 ****         0.7902  -0.0624  -1.6858 H              1 S1                 0.0000
     28 ****         3.0608   0.8059  -1.5814 H              1 S1                 0.0000
     29 ****         3.0355   0.8862   0.1552 H              1 S1                 0.0000
     30 ****         2.6927  -1.7521  -1.3788 H              1 S1                 0.0000
     31 ****         4.2712  -1.0843  -1.0132 H              1 S1                 0.0000
     32 ****         3.5735  -2.5417   0.5653 H              1 S1                 0.0000
     33 ****         0.9293   2.3701   0.1280 H              1 S1                 0.0000
     34 ****        -1.3876   1.3688  -1.5848 H              1 S1                 0.0000
     35 ****        -1.3698   1.4359   0.1584 H              1 S1                 0.0000
     36 ****        -2.6171   3.3460  -0.7684 H              1 S1                 0.0000
     37 ****        -1.2302   3.8804   0.1503 H              1 S1                 0.0000
     38 ****        -1.4017   3.6773  -2.8959 H              1 S1                 0.0000
     39 ****        -1.3737   5.1561  -1.9626 H              1 S1                 0.0000
     40 ****         0.8788   4.6324  -2.9096 H              1 S1                 0.0000
     41 ****         0.9133   4.6710  -1.1637 H              1 S1                 0.0000
     42 ****         2.1614   2.7432  -1.9887 H              1 S1                 0.0000
     43 ****         0.7963   2.1678  -2.9141 H              1 S1                 0.0000
     44 ****        -1.2068  -2.7221  -0.7337 LP             1 S1                 0.0000
     45 ****        -0.3097  -1.5336  -1.6184 LP             1 S1                 0.0000
     46 ****        -2.4667  -5.9221   0.8079 LP             1 S1                 0.0000
     47 ****         2.2675  -1.7156   0.9432 LP             1 S1                 0.0000
     48 ****         3.7557  -1.1091   1.2328 LP             1 S1                 0.0000
@<TRIPOS>BOND
    1    1    2 2     
    2    2    3 am    
    3    2   10 am    
    4    3    4 1     
    5    3   21 1     
    6    4    9 ar    
    7    4    5 ar    
    8    5    6 ar    
    9    5   22 1     
   10    6    7 ar    
   11    6   23 1     
   12    7    8 ar    
   13    7   24 1     
   14    8    9 ar    
   15    9   25 1     
   16   10   11 1     
   17   10   26 1     
   18   11   12 1     
   19   11   15 1     
   20   11   27 1     
   21   12   13 1     
   22   12   28 1     
   23   12   29 1     
   24   13   14 1     
   25   13   30 1     
   26   13   31 1     
   27   14   32 1     
   28   15   20 1     
   29   15   16 1     
   30   15   33 1     
   31   16   17 1     
   32   16   34 1     
   33   16   35 1     
   34   17   18 1     
   35   17   36 1     
   36   17   37 1     
   37   18   19 1     
   38   18   38 1     
   39   18   39 1     
   40   19   20 1     
   41   19   40 1     
   42   19   41 1     
   43   20   42 1     
   44   20   43 1     
   45    1   44 1     
   46    1   45 1     
   47    8   46 1     
   48   14   47 1     
   49   14   48 1     
@<TRIPOS>SUBSTRUCTURE
      1 S1             1
@<TRIPOS>SET
LONE_PAIRS      STATIC     ATOMS    <user>   **** ""
5 44 45 46 47 48
DONOR_HYDROGENS      STATIC     ATOMS    <user>   **** ""
3 21 26 32
ATOM$BLUE        STATIC     ATOMS    COLORGROUP SYSTEM
5 44 45 46 47 48
ATOM$RED        STATIC     ATOMS    COLORGROUP SYSTEM
3 21 26 32
