AV-unprocessed.smi:557|AV-procd|sdf|2919|dock1
  -GOLD-   2262023413D 1   1.00000     0.00000
 Structure written by MMmdl.
 47 49  0  0  0  0  0  0  0  0  2 V2000
  148.4389  140.7853  153.5368 C   0  0  0  0  0  0  0  0  0  0  0  0
  149.4569  139.9150  154.0853 N   0  0  0  0  0  0  0  0  0  0  0  0
  149.4913  138.5374  154.1057 C   0  0  0  0  0  0  0  0  0  0  0  0
  150.6454  138.1653  154.7359 C   0  0  0  0  0  0  0  0  0  0  0  0
  151.1526  136.7802  155.0250 C   0  0  0  0  0  0  0  0  0  0  0  0
  150.0521  135.8968  155.6276 C   0  0  0  0  0  0  0  0  0  0  0  0
  149.0465  135.5663  154.6214 N   0  0  0  0  0  0  0  0  0  0  0  0
  147.8046  135.1021  154.8391 C   0  0  0  0  0  0  0  0  0  0  0  0
  147.3722  134.8990  155.9718 O   0  0  0  0  0  0  0  0  0  0  0  0
  147.0871  134.8815  153.7246 N   0  0  0  0  0  0  0  0  0  0  0  0
  145.7313  134.3402  153.6994 C   0  0  1  0  0  0  0  0  0  0  0  0
  144.6868  135.3419  153.1895 C   0  0  0  0  0  0  0  0  0  0  0  0
  143.6182  134.4839  152.4882 C   0  0  0  0  0  0  0  0  0  0  0  0
  144.0918  133.0841  152.5702 N   0  3  1  0  0  0  0  0  0  0  0  0
  143.6042  132.1575  151.5163 C   0  0  0  0  0  0  0  0  0  0  0  0
  144.3661  132.3119  150.1894 C   0  0  0  0  0  0  0  0  0  0  0  0
  145.8759  132.1866  150.4162 C   0  0  0  0  0  0  0  0  0  0  0  0
  146.3301  133.2431  151.4282 C   0  0  0  0  0  0  0  0  0  0  0  0
  145.5581  133.1278  152.7683 C   0  0  1  0  0  0  0  0  0  0  0  0
  151.2578  139.4085  155.0644 C   0  0  0  0  0  0  0  0  0  0  0  0
  150.5441  140.4525  154.6753 N   0  0  0  0  0  0  0  0  0  0  0  0
  147.6842  140.1961  153.0152 H   0  0  0  0  0  0  0  0  0  0  0  0
  148.8898  141.4858  152.8332 H   0  0  0  0  0  0  0  0  0  0  0  0
  147.9598  141.3438  154.3414 H   0  0  0  0  0  0  0  0  0  0  0  0
  148.6988  137.9405  153.6782 H   0  0  0  0  0  0  0  0  0  0  0  0
  151.5291  136.3155  154.1127 H   0  0  0  0  0  0  0  0  0  0  0  0
  152.0010  136.8192  155.7097 H   0  0  0  0  0  0  0  0  0  0  0  0
  150.4854  134.9763  156.0223 H   0  0  0  0  0  0  0  0  0  0  0  0
  149.5778  136.4187  156.4605 H   0  0  0  0  0  0  0  0  0  0  0  0
  149.3064  135.7405  153.6611 H   0  0  0  0  0  0  0  0  0  0  0  0
  147.5187  135.0851  152.8347 H   0  0  0  0  0  0  0  0  0  0  0  0
  145.4456  134.0458  154.7117 H   0  0  0  0  0  0  0  0  0  0  0  0
  144.2697  135.9371  154.0025 H   0  0  0  0  0  0  0  0  0  0  0  0
  145.1291  136.0338  152.4711 H   0  0  0  0  0  0  0  0  0  0  0  0
  142.6432  134.5740  152.9682 H   0  0  0  0  0  0  0  0  0  0  0  0
  143.5087  134.8008  151.4504 H   0  0  0  0  0  0  0  0  0  0  0  0
  143.7314  131.1384  151.8834 H   0  0  0  0  0  0  0  0  0  0  0  0
  142.5334  132.2997  151.3652 H   0  0  0  0  0  0  0  0  0  0  0  0
  144.0332  131.5527  149.4809 H   0  0  0  0  0  0  0  0  0  0  0  0
  144.1393  133.2764  149.7340 H   0  0  0  0  0  0  0  0  0  0  0  0
  146.1189  131.1883  150.7830 H   0  0  0  0  0  0  0  0  0  0  0  0
  146.4101  132.3143  149.4741 H   0  0  0  0  0  0  0  0  0  0  0  0
  147.4017  133.1397  151.6018 H   0  0  0  0  0  0  0  0  0  0  0  0
  146.1859  134.2328  150.9932 H   0  0  0  0  0  0  0  0  0  0  0  0
  145.8705  132.2134  153.2746 H   0  0  0  0  0  0  0  0  0  0  0  0
  152.1938  139.5811  155.5749 H   0  0  0  0  0  0  0  0  0  0  0  0
  143.7162  132.7387  153.4420 H   0  0  0  0  0  0  0  0  0  0  0  0
  1  2  1  0  0  0  0
  1 22  1  0  0  0  0
  1 23  1  0  0  0  0
  1 24  1  0  0  0  0
  2 21  1  0  0  0  0
  2  3  1  0  0  0  0
  3  4  2  0  0  0  0
  3 25  1  0  0  0  0
  4  5  1  0  0  0  0
  4 20  1  0  0  0  0
  5  6  1  0  0  0  0
  5 26  1  0  0  0  0
  5 27  1  0  0  0  0
  6  7  1  0  0  0  0
  6 28  1  0  0  0  0
  6 29  1  0  0  0  0
  7  8  1  0  0  0  0
  7 30  1  0  0  0  0
  8  9  2  0  0  0  0
  8 10  1  0  0  0  0
 10 11  1  0  0  0  0
 10 31  1  0  0  0  0
 11 19  1  0  0  0  0
 11 12  1  0  0  0  0
 11 32  1  0  0  0  0
 12 13  1  0  0  0  0
 12 33  1  0  0  0  0
 12 34  1  0  0  0  0
 13 14  1  0  0  0  0
 13 35  1  0  0  0  0
 13 36  1  0  0  0  0
 14 19  1  0  0  0  0
 14 15  1  0  0  0  0
 14 47  1  0  0  0  0
 15 16  1  0  0  0  0
 15 37  1  0  0  0  0
 15 38  1  0  0  0  0
 16 17  1  0  0  0  0
 16 39  1  0  0  0  0
 16 40  1  0  0  0  0
 17 18  1  0  0  0  0
 17 41  1  0  0  0  0
 17 42  1  0  0  0  0
 18 19  1  0  0  0  0
 18 43  1  0  0  0  0
 18 44  1  0  0  0  0
 19 45  1  0  0  0  0
 20 21  2  0  0  0  0
 20 46  1  0  0  0  0
M  CHG  1  14   1
M  END
> <s_m_source_file>
AV-unprocessed.smi

> <i_m_source_file_index>
557

> <i_lp_mmshare_version>
43012

> <i_f3d_flags>
0

> <s_epik_input>
W0NIM11uMVtjSF1jKFtjSF1uMSlbQ0gyXVtDSDJdW05IXUMoPU8pW05IXVtDQEhdKFtDSDJdW0NIMl0yKVtDQEhdKE4yMylbQ0gyXVtDSDJdW0NIMl1bQ0gyXTM=

> <s_epik_cmdline>
J2VwaWtfcHl0aG9uJywgJy1waCcsICc3LjAnLCAnLXRuJywgJzgnLCAnLW1hJywgJzIwMCcsICctbWV0YWxfYmluZGluZycsICctaW1hZScsICc8aW5maWxlLm1hZT4nLCAnLW9tYWUnLCAnPG91dGZpbGUubWFlPic=

> <r_lp_tautomer_probability>
1

> <r_epik_Ionization_Penalty>
0.000956547

> <r_epik_Ionization_Penalty_Charging>
0.000435796

> <r_epik_Ionization_Penalty_Neutral>
0.000520752

> <r_epik_State_Penalty>
-0

> <r_epik_Charging_Adjusted_Penalty>
0.000435796

> <i_epik_Tot_Q>
1

> <i_epik_Tot_abs_Q>
1

> <r_epik_Metal_State_Penalty>
-0

> <b_epik_Metal_Only>
0

> <s_lp_Force_Field>
OPLS_2005

> <r_lp_Energy>
42.0696

> <b_lp_Chiralities_Consistent>
1

> <s_lp_Variant>
AV-unprocessed.smi:557-6

> <Gold.Version>
5.8.1

> <Gold.Id.Protein>
6NUR|6NUR_protein|mol2

> <Gold.PLP.Fitness>
50.3932

> <Gold.PLP.PLP>
-34.0994

> <Gold.PLP.part.hbond>
-3.9652

> <Gold.PLP.part.metal>
0.0000

> <Gold.PLP.part.buried>
-2.9497

> <Gold.PLP.part.nonpolar>
-29.2042

> <Gold.PLP.part.repulsive>
0.0927

> <Gold.PLP.ligand.clash>
0.0000

> <Gold.PLP.ligand.torsion>
0.3404

> <Gold.PLP.Chemscore.Hbond>
4.8130

> <Gold.PLP.Chemscore.CHOScore>
0.8337

> <Gold.PLP.Chemscore.Metal>
0.0000

> <Gold.Chemscore.Hbonds>
donor molecule, donor type, donor heavy atom, donor atom, acceptor molecule, acceptor atom, score
      L1  H     7    30       P1  7948  1.00
      L1  H    10    31       P1  7948  0.87
      L1  H    14    47       P1 10957  2.00
      P1  H  7989  7998       L1    21  0.70
      L1  C     3    25       P1  7948  0.90

> <Gold.PLP.Chemscore.Internal.Correction>
0.0346

> <Gold.Rescore>
     Score         DG    S(hbond)    S(metal)    S(lipo)     H(rot)  DE(clash)    DE(int)     intcor
     19.17     -19.52       2.51        0.00      83.47       1.60       0.06       0.30       ----

> <Gold.Chemscore.Fitness>
19.1672

> <Gold.Chemscore.DG>
-19.5244

> <Gold.Chemscore.ZeroCoef>
-5.4800

> <Gold.Chemscore.Hbond>
2.5086

> <Gold.Chemscore.Metal>
0.0000

> <Gold.Chemscore.Lipo>
83.4735

> <Gold.Chemscore.Internal_Hbond>
0.0000

> <Gold.Chemscore.DEClash>
0.0562

> <Gold.Chemscore.DEInternal>
0.3010

> <Gold.Chemscore.Rot>
1.6018

> <Gold.Chemscore.Internal.Correction>
   9.000000E+99

> <Gold.Chemscore.Hbonds>
donor molecule, donor type, donor heavy atom, donor atom, acceptor molecule, acceptor atom, score
      L1  H     7    30       P1  7948  0.54
      L1  H    10    31       P1  7948  0.80
      L1  H    14    47       P1 10957  0.55
      P1  H  7989  7998       L1    21  0.05

> <Gold.Chemscore.Hbond.Weighted>
-8.3786

> <Gold.Chemscore.Metal.Weighted>
-0.0000

> <Gold.Chemscore.Lipo.Weighted>
-9.7664

> <Gold.Chemscore.Internal_Hbond.Weighted>
0.0000

> <Gold.Chemscore.DEClash.Weighted>
0.0562

> <Gold.Chemscore.DEInternal.Weighted>
0.3010

> <Gold.Chemscore.Rot.Weighted>
4.1006

> <Gold.Chemscore.Internal.Correction.Weighted>
   9.000000E+99

> <Gold.Protein.RotatedTorsions>
[ 6907 6896 6895 6894 ] final  151.72 input  -60.11 | X-H torsion
[ 7974 7965 7964 7962 ] final -176.17 input  175.53 | X-H torsion
[ 8008 7997 7996 7995 ] final -174.35 input   59.86 | X-H torsion
[ 10167 10162 10161 10158 ] final -154.13 input  -65.29 | X-H torsion
[ 10718 10713 10712 10709 ] final   93.20 input   66.30 | X-H torsion
[ 10763 10752 10751 10750 ] final  -33.63 input  -60.55 | X-H torsion
[ 11005 11000 10999 10996 ] final  -12.79 input  -57.11 | X-H torsion

> <Gold.Protein.ActiveResidues>
 VAL166  LYS551  ARG553  GLY616  TRP617  ASP618  TYR619  PRO620  LYS621  CYS622 
 ASP623  PHE694  ASN695  SER759  ASP760  ASP761  ALA762  ILE779  LEU786  VAL792 
 PHE793  MET794  SER795  GLU796  ALA797  LYS798  CYS799  TRP800  GLU811  SER814 

> <Gold.Protein.RotatedAtoms>
  152.0968  133.4229  159.4568 H   0  0  0  0  0  0  0  0  0  0  0  0  # atno 6907 bound_to 6896
  150.6863  134.2808  159.4635 H   0  0  0  0  0  0  0  0  0  0  0  0  # atno 6908 bound_to 6896
  152.0664  134.9561  160.0625 H   0  0  0  0  0  0  0  0  0  0  0  0  # atno 6909 bound_to 6896
  144.7127  140.1211  143.6405 H   0  0  0  0  0  0  0  0  0  0  0  0  # atno 7974 bound_to 7965
  155.9690  140.1159  157.0829 H   0  0  0  0  0  0  0  0  0  0  0  0  # atno 8008 bound_to 7997
  154.4151  140.1167  156.5347 H   0  0  0  0  0  0  0  0  0  0  0  0  # atno 8009 bound_to 7997
  155.6622  140.3473  155.4789 H   0  0  0  0  0  0  0  0  0  0  0  0  # atno 8010 bound_to 7997
  139.7039  143.9219  152.2440 H   0  0  0  0  0  0  0  0  0  0  0  0  # atno 10167 bound_to 10162
  157.6955  131.0470  150.3997 H   0  0  0  0  0  0  0  0  0  0  0  0  # atno 10718 bound_to 10713
  153.8334  135.6864  153.4811 H   0  0  0  0  0  0  0  0  0  0  0  0  # atno 10763 bound_to 10752
  153.1497  135.4623  154.9616 H   0  0  0  0  0  0  0  0  0  0  0  0  # atno 10764 bound_to 10752
  154.7876  135.3290  154.7795 H   0  0  0  0  0  0  0  0  0  0  0  0  # atno 10765 bound_to 10752
  140.7693  133.8451  155.9193 H   0  0  0  0  0  0  0  0  0  0  0  0  # atno 11005 bound_to 11000
  145.9370  139.2644  143.1291 LP  0  0  0  0  0  0  0  0  0  0  0  0  # atno 17320 bound_to 7965
  145.9463  140.8942  143.0282 LP  0  0  0  0  0  0  0  0  0  0  0  0  # atno 17321 bound_to 7965
  139.9069  144.6879  150.8605 LP  0  0  0  0  0  0  0  0  0  0  0  0  # atno 17342 bound_to 10162
  140.7716  143.3472  151.2087 LP  0  0  0  0  0  0  0  0  0  0  0  0  # atno 17343 bound_to 10162
  156.4392  130.3988  149.6709 LP  0  0  0  0  0  0  0  0  0  0  0  0  # atno 17370 bound_to 10713
  156.3898  130.7621  151.2621 LP  0  0  0  0  0  0  0  0  0  0  0  0  # atno 17371 bound_to 10713
  140.9588  134.1682  157.4670 LP  0  0  0  0  0  0  0  0  0  0  0  0  # atno 17394 bound_to 11000
  139.8758  134.9937  156.5658 LP  0  0  0  0  0  0  0  0  0  0  0  0  # atno 17395 bound_to 11000

$$$$
