AV-unprocessed.smi:760|AV-procd|sdf|3629|dock4
  -GOLD-   22720 1 23D 1   1.00000     0.00000
 Structure written by MMmdl.
 43 44  0  0  0  0  0  0  0  0  1 V2000
  151.7936  141.6786  157.9224 C   0  0  0  0  0  0  0  0  0  0  0  0
  150.9626  141.0727  157.0585 C   0  0  0  0  0  0  0  0  0  0  0  0
  151.4768  140.2180  155.9138 C   0  0  0  0  0  0  0  0  0  0  0  0
  149.4525  141.2307  157.1600 C   0  0  0  0  0  0  0  0  0  0  0  0
  148.7028  140.5442  156.1050 N   0  0  0  0  0  0  0  0  0  0  0  0
  148.8590  141.1736  154.7897 C   0  0  0  0  0  0  0  0  0  0  0  0
  148.0933  140.3838  153.7132 C   0  0  0  0  0  0  0  0  0  0  0  0
  146.6029  140.2624  154.0601 C   0  0  0  0  0  0  0  0  0  0  0  0
  145.9380  139.3998  153.0880 N   0  0  0  0  0  0  0  0  0  0  0  0
  146.0887  138.0707  153.0013 C   0  0  0  0  0  0  0  0  0  0  0  0
  146.8162  137.4166  153.7488 O   0  0  0  0  0  0  0  0  0  0  0  0
  145.3503  137.5614  152.0017 N   0  0  0  0  0  0  0  0  0  0  0  0
  145.2579  136.2036  151.6042 C   0  0  0  0  0  0  0  0  0  0  0  0
  146.0580  135.1525  152.1233 C   0  0  0  0  0  0  0  0  0  0  0  0
  145.7476  133.9928  151.5639 N   0  0  0  0  0  0  0  0  0  0  0  0
  144.7533  134.2808  150.6890 N   0  0  0  0  0  0  0  0  0  0  0  0
  144.1757  133.2155  149.8978 C   0  0  0  0  0  0  0  0  0  0  0  0
  144.4286  135.6228  150.6868 C   0  0  0  0  0  0  0  0  0  0  0  0
  146.4668  139.6948  155.4825 C   0  0  0  0  0  0  0  0  0  0  0  0
  147.2886  140.5207  156.4863 C   0  0  0  0  0  0  0  0  0  0  0  0
  152.8656  141.5723  157.8407 H   0  0  0  0  0  0  0  0  0  0  0  0
  151.4115  142.2906  158.7264 H   0  0  0  0  0  0  0  0  0  0  0  0
  151.1954  140.6650  154.9601 H   0  0  0  0  0  0  0  0  0  0  0  0
  151.0621  139.2115  155.9500 H   0  0  0  0  0  0  0  0  0  0  0  0
  152.5639  140.1352  155.9390 H   0  0  0  0  0  0  0  0  0  0  0  0
  149.1405  140.8272  158.1245 H   0  0  0  0  0  0  0  0  0  0  0  0
  149.2039  142.2932  157.1725 H   0  0  0  0  0  0  0  0  0  0  0  0
  148.5119  142.2073  154.8252 H   0  0  0  0  0  0  0  0  0  0  0  0
  149.9102  141.1924  154.5055 H   0  0  0  0  0  0  0  0  0  0  0  0
  148.2126  140.8721  152.7454 H   0  0  0  0  0  0  0  0  0  0  0  0
  148.5356  139.3910  153.6147 H   0  0  0  0  0  0  0  0  0  0  0  0
  146.1576  141.2588  154.0263 H   0  0  0  0  0  0  0  0  0  0  0  0
  145.3183  139.8512  152.4316 H   0  0  0  0  0  0  0  0  0  0  0  0
  144.7970  138.2143  151.4664 H   0  0  0  0  0  0  0  0  0  0  0  0
  146.8368  135.1908  152.8705 H   0  0  0  0  0  0  0  0  0  0  0  0
  143.3406  133.5970  149.3094 H   0  0  0  0  0  0  0  0  0  0  0  0
  143.8139  132.4221  150.5528 H   0  0  0  0  0  0  0  0  0  0  0  0
  144.9289  132.8082  149.2226 H   0  0  0  0  0  0  0  0  0  0  0  0
  143.6568  136.0262  150.0480 H   0  0  0  0  0  0  0  0  0  0  0  0
  145.4198  139.6871  155.7868 H   0  0  0  0  0  0  0  0  0  0  0  0
  146.8034  138.6570  155.5055 H   0  0  0  0  0  0  0  0  0  0  0  0
  147.1836  140.0804  157.4787 H   0  0  0  0  0  0  0  0  0  0  0  0
  146.8990  141.5383  156.5456 H   0  0  0  0  0  0  0  0  0  0  0  0
  1  2  2  0  0  0  0
  1 21  1  0  0  0  0
  1 22  1  0  0  0  0
  2  3  1  0  0  0  0
  2  4  1  0  0  0  0
  3 23  1  0  0  0  0
  3 24  1  0  0  0  0
  3 25  1  0  0  0  0
  4  5  1  0  0  0  0
  4 26  1  0  0  0  0
  4 27  1  0  0  0  0
  5 20  1  0  0  0  0
  5  6  1  0  0  0  0
  6  7  1  0  0  0  0
  6 28  1  0  0  0  0
  6 29  1  0  0  0  0
  7  8  1  0  0  0  0
  7 30  1  0  0  0  0
  7 31  1  0  0  0  0
  8  9  1  0  0  0  0
  8 19  1  0  0  0  0
  8 32  1  0  0  0  0
  9 10  1  0  0  0  0
  9 33  1  0  0  0  0
 10 11  2  0  0  0  0
 10 12  1  0  0  0  0
 12 13  1  0  0  0  0
 12 34  1  0  0  0  0
 13 18  2  0  0  0  0
 13 14  1  0  0  0  0
 14 15  2  0  0  0  0
 14 35  1  0  0  0  0
 15 16  1  0  0  0  0
 16 17  1  0  0  0  0
 16 18  1  0  0  0  0
 17 36  1  0  0  0  0
 17 37  1  0  0  0  0
 17 38  1  0  0  0  0
 18 39  1  0  0  0  0
 19 20  1  0  0  0  0
 19 40  1  0  0  0  0
 19 41  1  0  0  0  0
 20 42  1  0  0  0  0
 20 43  1  0  0  0  0
M  END
> <s_m_source_file>
AV-unprocessed.smi

> <i_m_source_file_index>
760

> <i_lp_mmshare_version>
43012

> <i_f3d_flags>
0

> <s_epik_input>
W0NIMl09QyhbQ0gzXSlbQ0gyXU4xW0NIMl1bQ0gyXVtDSF0oW0NIMl1bQ0gyXTEpW05IXUMoPU8pW05IXWMyW2NIXW5uKFtDSDNdKVtjSF0y

> <s_epik_cmdline>
J2VwaWtfcHl0aG9uJywgJy1waCcsICc3LjAnLCAnLXRuJywgJzgnLCAnLW1hJywgJzIwMCcsICctbWV0YWxfYmluZGluZycsICctaW1hZScsICc8aW5maWxlLm1hZT4nLCAnLW9tYWUnLCAnPG91dGZpbGUubWFlPic=

> <r_lp_tautomer_probability>
1

> <r_epik_Ionization_Penalty>
2.03709

> <r_epik_Ionization_Penalty_Charging>
0

> <r_epik_Ionization_Penalty_Neutral>
2.03709

> <r_epik_State_Penalty>
2.16834

> <r_epik_Charging_Adjusted_Penalty>
2.16834

> <i_epik_Tot_Q>
0

> <i_epik_Tot_abs_Q>
0

> <r_epik_Metal_State_Penalty>
2.16831

> <b_epik_Metal_Only>
0

> <s_lp_Force_Field>
OPLS_2005

> <r_lp_Energy>
20.5491

> <b_lp_Chiralities_Consistent>
1

> <s_lp_Variant>
AV-unprocessed.smi:760-3

> <Gold.Version>
5.8.1

> <Gold.Id.Protein>
6NUR|6NUR_protein|mol2

> <Gold.PLP.Fitness>
36.8564

> <Gold.PLP.PLP>
-28.4687

> <Gold.PLP.part.hbond>
-2.0000

> <Gold.PLP.part.metal>
0.0000

> <Gold.PLP.part.buried>
-1.9556

> <Gold.PLP.part.nonpolar>
-25.8545

> <Gold.PLP.part.repulsive>
0.6870

> <Gold.PLP.ligand.clash>
0.0000

> <Gold.PLP.ligand.torsion>
0.1994

> <Gold.PLP.Chemscore.Hbond>
1.6960

> <Gold.PLP.Chemscore.CHOScore>
1.2199

> <Gold.PLP.Chemscore.Metal>
0.0000

> <Gold.Chemscore.Hbonds>
donor molecule, donor type, donor heavy atom, donor atom, acceptor molecule, acceptor atom, score
      L1  H     9    33       P1 10175  0.74
      L1  H    12    34       P1 10171  0.96
      L1  C    14    35       P1  7948  0.56
      L1  C    18    39       P1 10171  0.62

> <Gold.PLP.Chemscore.Internal.Correction>
0.0388

> <Gold.Rescore>
     Score         DG    S(hbond)    S(metal)    S(lipo)     H(rot)  DE(clash)    DE(int)     intcor
     12.61     -15.98       1.72        0.00      70.33       1.35       0.47       2.91       ----

> <Gold.Chemscore.Fitness>
12.6083

> <Gold.Chemscore.DG>
-15.9829

> <Gold.Chemscore.ZeroCoef>
-5.4800

> <Gold.Chemscore.Hbond>
1.7151

> <Gold.Chemscore.Metal>
0.0000

> <Gold.Chemscore.Lipo>
70.3266

> <Gold.Chemscore.Internal_Hbond>
0.0000

> <Gold.Chemscore.DEClash>
0.4690

> <Gold.Chemscore.DEInternal>
2.9055

> <Gold.Chemscore.Rot>
1.3491

> <Gold.Chemscore.Internal.Correction>
   9.000000E+99

> <Gold.Chemscore.Hbonds>
donor molecule, donor type, donor heavy atom, donor atom, acceptor molecule, acceptor atom, score
      L1  H     9    33       P1 10175  0.72
      L1  H    12    34       P1 10171  0.92

> <Gold.Chemscore.Hbond.Weighted>
-5.7285

> <Gold.Chemscore.Metal.Weighted>
-0.0000

> <Gold.Chemscore.Lipo.Weighted>
-8.2282

> <Gold.Chemscore.Internal_Hbond.Weighted>
0.0000

> <Gold.Chemscore.DEClash.Weighted>
0.4690

> <Gold.Chemscore.DEInternal.Weighted>
2.9055

> <Gold.Chemscore.Rot.Weighted>
3.4538

> <Gold.Chemscore.Internal.Correction.Weighted>
   9.000000E+99

> <Gold.Protein.RotatedTorsions>
[ 6907 6896 6895 6894 ] final  -47.03 input  -60.11 | X-H torsion
[ 7974 7965 7964 7962 ] final  157.01 input  175.53 | X-H torsion
[ 8008 7997 7996 7995 ] final  -50.30 input   59.86 | X-H torsion
[ 10167 10162 10161 10158 ] final   77.32 input  -65.29 | X-H torsion
[ 10718 10713 10712 10709 ] final  108.84 input   66.30 | X-H torsion
[ 10763 10752 10751 10750 ] final   11.76 input  -60.55 | X-H torsion
[ 11005 11000 10999 10996 ] final -127.99 input  -57.11 | X-H torsion

> <Gold.Protein.ActiveResidues>
 VAL166  LYS551  ARG553  GLY616  TRP617  ASP618  TYR619  PRO620  LYS621  CYS622 
 ASP623  PHE694  ASN695  SER759  ASP760  ASP761  ALA762  ILE779  LEU786  VAL792 
 PHE793  MET794  SER795  GLU796  ALA797  LYS798  CYS799  TRP800  GLU811  SER814 

> <Gold.Protein.RotatedAtoms>
  150.9050  134.8464  159.7386 H   0  0  0  0  0  0  0  0  0  0  0  0  # atno 6907 bound_to 6896
  152.4913  134.4445  159.9564 H   0  0  0  0  0  0  0  0  0  0  0  0  # atno 6908 bound_to 6896
  151.4493  133.3583  159.2828 H   0  0  0  0  0  0  0  0  0  0  0  0  # atno 6909 bound_to 6896
  144.7929  139.7281  143.6214 H   0  0  0  0  0  0  0  0  0  0  0  0  # atno 7974 bound_to 7965
  154.4059  140.1275  156.4644 H   0  0  0  0  0  0  0  0  0  0  0  0  # atno 8008 bound_to 7997
  155.7242  140.3492  155.5010 H   0  0  0  0  0  0  0  0  0  0  0  0  # atno 8009 bound_to 7997
  155.9187  140.1048  157.1214 H   0  0  0  0  0  0  0  0  0  0  0  0  # atno 8010 bound_to 7997
  139.9828  144.5814  150.7886 H   0  0  0  0  0  0  0  0  0  0  0  0  # atno 10167 bound_to 10162
  157.6568  131.0902  150.6366 H   0  0  0  0  0  0  0  0  0  0  0  0  # atno 10718 bound_to 10713
  153.1892  135.6840  153.8375 H   0  0  0  0  0  0  0  0  0  0  0  0  # atno 10763 bound_to 10752
  153.7680  135.3200  155.3348 H   0  0  0  0  0  0  0  0  0  0  0  0  # atno 10764 bound_to 10752
  154.8107  135.4719  154.0607 H   0  0  0  0  0  0  0  0  0  0  0  0  # atno 10765 bound_to 10752
  140.9554  134.1009  157.4021 H   0  0  0  0  0  0  0  0  0  0  0  0  # atno 11005 bound_to 11000
  146.2187  139.5596  142.9633 LP  0  0  0  0  0  0  0  0  0  0  0  0  # atno 17320 bound_to 7965
  145.5748  141.0390  143.2154 LP  0  0  0  0  0  0  0  0  0  0  0  0  # atno 17321 bound_to 7965
  140.7483  143.2920  151.3305 LP  0  0  0  0  0  0  0  0  0  0  0  0  # atno 17342 bound_to 10162
  139.6397  144.0562  152.2545 LP  0  0  0  0  0  0  0  0  0  0  0  0  # atno 17343 bound_to 10162
  156.6671  130.4529  149.5669 LP  0  0  0  0  0  0  0  0  0  0  0  0  # atno 17370 bound_to 10713
  156.2024  130.6628  151.1182 LP  0  0  0  0  0  0  0  0  0  0  0  0  # atno 17371 bound_to 10713
  139.8860  135.0078  156.6473 LP  0  0  0  0  0  0  0  0  0  0  0  0  # atno 17394 bound_to 11000
  140.7544  133.8870  155.8371 LP  0  0  0  0  0  0  0  0  0  0  0  0  # atno 17395 bound_to 11000

$$$$
