AV-unprocessed.smi:1082|AV-procd|sdf|4713|dock8
  -GOLD-   22720 3243D 1   1.00000     0.00000
 Structure written by MMmdl.
 49 51  0  0  0  0  0  0  0  0  3 V2000
  148.8733  133.8317  155.5874 O   0  0  0  0  0  0  0  0  0  0  0  0
  148.7574  134.6259  154.6544 C   0  0  0  0  0  0  0  0  0  0  0  0
  148.6637  134.2497  153.3723 N   0  0  0  0  0  0  0  0  0  0  0  0
  148.6907  132.8660  152.9180 C   0  0  0  0  0  0  0  0  0  0  0  0
  147.2831  132.2519  152.9811 C   0  0  0  0  0  0  0  0  0  0  0  0
  146.7618  131.8960  151.6399 N   0  3  0  0  0  0  0  0  0  0  0  0
  145.5986  130.9756  151.6665 C   0  0  0  0  0  0  0  0  0  0  0  0
  144.5366  131.5697  150.7344 C   0  0  0  0  0  0  0  0  0  0  0  0
  145.3170  132.5282  149.8438 C   0  0  0  0  0  0  0  0  0  0  0  0
  146.4016  133.0473  150.7822 C   0  0  0  0  0  0  0  0  0  0  0  0
  148.7291  135.9638  154.7737 N   0  0  0  0  0  0  0  0  0  0  0  0
  148.8390  136.7425  155.9607 C   0  0  0  0  0  0  0  0  0  0  0  0
  149.0120  136.1617  157.2430 C   0  0  0  0  0  0  0  0  0  0  0  0
  149.0936  136.9905  158.3797 C   0  0  0  0  0  0  0  0  0  0  0  0
  148.9937  138.3851  158.2200 C   0  0  0  0  0  0  0  0  0  0  0  0
  148.8153  138.9062  156.9880 N   0  3  0  0  0  0  0  0  0  0  0  0
  148.7269  138.1529  155.8641 C   0  0  0  0  0  0  0  0  0  0  0  0
  148.5443  138.7999  154.6295 N   0  0  0  0  0  0  0  0  0  0  0  0
  147.2310  139.4109  154.4447 C   0  0  0  0  0  0  0  0  0  0  0  0
  147.4672  140.6890  153.6405 C   0  0  0  0  0  0  0  0  0  0  0  0
  148.8568  141.1160  154.0949 C   0  0  0  0  0  0  0  0  0  0  0  0
  149.5740  139.7805  154.2976 C   0  0  0  0  0  0  0  0  0  0  0  0
  148.5743  134.9655  152.6659 H   0  0  0  0  0  0  0  0  0  0  0  0
  149.0773  132.8386  151.8980 H   0  0  0  0  0  0  0  0  0  0  0  0
  149.3787  132.2919  153.5409 H   0  0  0  0  0  0  0  0  0  0  0  0
  147.3207  131.3462  153.5886 H   0  0  0  0  0  0  0  0  0  0  0  0
  146.5887  132.9336  153.4751 H   0  0  0  0  0  0  0  0  0  0  0  0
  145.9257  130.0001  151.3055 H   0  0  0  0  0  0  0  0  0  0  0  0
  145.1969  130.8365  152.6714 H   0  0  0  0  0  0  0  0  0  0  0  0
  143.9968  130.8097  150.1687 H   0  0  0  0  0  0  0  0  0  0  0  0
  143.8066  132.1298  151.3204 H   0  0  0  0  0  0  0  0  0  0  0  0
  145.7688  131.9822  149.0145 H   0  0  0  0  0  0  0  0  0  0  0  0
  144.6980  133.3242  149.4288 H   0  0  0  0  0  0  0  0  0  0  0  0
  145.9951  133.8550  151.3933 H   0  0  0  0  0  0  0  0  0  0  0  0
  147.2666  133.4352  150.2433 H   0  0  0  0  0  0  0  0  0  0  0  0
  148.7219  136.4878  153.9110 H   0  0  0  0  0  0  0  0  0  0  0  0
  149.0700  135.0921  157.3768 H   0  0  0  0  0  0  0  0  0  0  0  0
  149.2268  136.5605  159.3617 H   0  0  0  0  0  0  0  0  0  0  0  0
  149.0448  139.0939  159.0339 H   0  0  0  0  0  0  0  0  0  0  0  0
  146.5592  138.7308  153.9204 H   0  0  0  0  0  0  0  0  0  0  0  0
  146.7706  139.6540  155.4035 H   0  0  0  0  0  0  0  0  0  0  0  0
  147.4805  140.4617  152.5734 H   0  0  0  0  0  0  0  0  0  0  0  0
  146.7060  141.4497  153.8162 H   0  0  0  0  0  0  0  0  0  0  0  0
  149.3614  141.7651  153.3789 H   0  0  0  0  0  0  0  0  0  0  0  0
  148.7876  141.6480  155.0449 H   0  0  0  0  0  0  0  0  0  0  0  0
  150.3553  139.8563  155.0554 H   0  0  0  0  0  0  0  0  0  0  0  0
  150.0509  139.4655  153.3691 H   0  0  0  0  0  0  0  0  0  0  0  0
  147.4947  131.3964  151.1563 H   0  0  0  0  0  0  0  0  0  0  0  0
  148.7416  139.9198  156.8989 H   0  0  0  0  0  0  0  0  0  0  0  0
  1  2  2  0  0  0  0
  2  3  1  0  0  0  0
  2 11  1  0  0  0  0
  3  4  1  0  0  0  0
  3 23  1  0  0  0  0
  4  5  1  0  0  0  0
  4 24  1  0  0  0  0
  4 25  1  0  0  0  0
  5  6  1  0  0  0  0
  5 26  1  0  0  0  0
  5 27  1  0  0  0  0
  6 10  1  0  0  0  0
  6  7  1  0  0  0  0
  6 48  1  0  0  0  0
  7  8  1  0  0  0  0
  7 28  1  0  0  0  0
  7 29  1  0  0  0  0
  8  9  1  0  0  0  0
  8 30  1  0  0  0  0
  8 31  1  0  0  0  0
  9 10  1  0  0  0  0
  9 32  1  0  0  0  0
  9 33  1  0  0  0  0
 10 34  1  0  0  0  0
 10 35  1  0  0  0  0
 11 12  1  0  0  0  0
 11 36  1  0  0  0  0
 12 17  1  0  0  0  0
 12 13  2  0  0  0  0
 13 14  1  0  0  0  0
 13 37  1  0  0  0  0
 14 15  2  0  0  0  0
 14 38  1  0  0  0  0
 15 16  1  0  0  0  0
 15 39  1  0  0  0  0
 16 17  2  0  0  0  0
 16 49  1  0  0  0  0
 17 18  1  0  0  0  0
 18 22  1  0  0  0  0
 18 19  1  0  0  0  0
 19 20  1  0  0  0  0
 19 40  1  0  0  0  0
 19 41  1  0  0  0  0
 20 21  1  0  0  0  0
 20 42  1  0  0  0  0
 20 43  1  0  0  0  0
 21 22  1  0  0  0  0
 21 44  1  0  0  0  0
 21 45  1  0  0  0  0
 22 46  1  0  0  0  0
 22 47  1  0  0  0  0
M  CHG  1   6   1
M  CHG  1  16   1
M  END
> <s_m_source_file>
AV-unprocessed.smi

> <i_m_source_file_index>
1082

> <i_lp_mmshare_version>
43012

> <i_f3d_flags>
0

> <s_epik_input>
W0NIMl0xW0NIMl1bQ0gyXVtDSDJdTjFbQ0gyXVtDSDJdW05IXUMoPU8pW05IXWMyW2NIXVtjSF1bY0hdbmMyTjNbQ0gyXVtDSDJdW0NIMl1bQ0gyXTM=

> <s_epik_cmdline>
J2VwaWtfcHl0aG9uJywgJy1waCcsICc3LjAnLCAnLXRuJywgJzgnLCAnLW1hJywgJzIwMCcsICctbWV0YWxfYmluZGluZycsICctaW1hZScsICc8aW5maWxlLm1hZT4nLCAnLW9tYWUnLCAnPG91dGZpbGUubWFlPic=

> <r_lp_tautomer_probability>
0.999994

> <r_epik_Ionization_Penalty>
1.21588

> <r_epik_Ionization_Penalty_Charging>
1.21586

> <r_epik_Ionization_Penalty_Neutral>
1.99004e-05

> <r_epik_State_Penalty>
1.28011

> <r_epik_Charging_Adjusted_Penalty>
2.49596

> <i_epik_Tot_Q>
2

> <i_epik_Tot_abs_Q>
2

> <r_epik_Metal_State_Penalty>
1.35385

> <b_epik_Metal_Only>
0

> <s_lp_Force_Field>
OPLS_2005

> <r_lp_Energy>
65.6653

> <b_lp_Chiralities_Consistent>
1

> <s_lp_Variant>
AV-unprocessed.smi:1082-2

> <Gold.Version>
5.8.1

> <Gold.Id.Protein>
6NUR|6NUR_protein|mol2

> <Gold.PLP.Fitness>
38.5648

> <Gold.PLP.PLP>
-31.8535

> <Gold.PLP.part.hbond>
-2.9430

> <Gold.PLP.part.metal>
0.0000

> <Gold.PLP.part.buried>
-1.7995

> <Gold.PLP.part.nonpolar>
-26.6443

> <Gold.PLP.part.repulsive>
0.1864

> <Gold.PLP.ligand.clash>
0.0000

> <Gold.PLP.ligand.torsion>
0.7348

> <Gold.PLP.Chemscore.Hbond>
2.6895

> <Gold.PLP.Chemscore.CHOScore>
0.0000

> <Gold.PLP.Chemscore.Metal>
0.0000

> <Gold.Chemscore.Hbonds>
donor molecule, donor type, donor heavy atom, donor atom, acceptor molecule, acceptor atom, score
      L1  H     3    23       P1  7948  0.93
      L1  H     6    48       P1 10747  1.00
      L1  H    11    36       P1  7948  0.74

> <Gold.PLP.Chemscore.Internal.Correction>
0.1124

> <Gold.Rescore>
     Score         DG    S(hbond)    S(metal)    S(lipo)     H(rot)  DE(clash)    DE(int)     intcor
     15.84     -18.15       2.13        0.00      83.31       1.63       0.11       2.20       ----

> <Gold.Chemscore.Fitness>
15.8363

> <Gold.Chemscore.DG>
-18.1494

> <Gold.Chemscore.ZeroCoef>
-5.4800

> <Gold.Chemscore.Hbond>
2.1261

> <Gold.Chemscore.Metal>
0.0000

> <Gold.Chemscore.Lipo>
83.3065

> <Gold.Chemscore.Internal_Hbond>
0.0000

> <Gold.Chemscore.DEClash>
0.1086

> <Gold.Chemscore.DEInternal>
2.2044

> <Gold.Chemscore.Rot>
1.6323

> <Gold.Chemscore.Internal.Correction>
   9.000000E+99

> <Gold.Chemscore.Hbonds>
donor molecule, donor type, donor heavy atom, donor atom, acceptor molecule, acceptor atom, score
      L1  H     3    23       P1  7948  0.30
      L1  H     6    48       P1 10747  1.00
      L1  H    11    36       P1  7948  0.71

> <Gold.Chemscore.Hbond.Weighted>
-7.1011

> <Gold.Chemscore.Metal.Weighted>
-0.0000

> <Gold.Chemscore.Lipo.Weighted>
-9.7469

> <Gold.Chemscore.Internal_Hbond.Weighted>
0.0000

> <Gold.Chemscore.DEClash.Weighted>
0.1086

> <Gold.Chemscore.DEInternal.Weighted>
2.2044

> <Gold.Chemscore.Rot.Weighted>
4.1786

> <Gold.Chemscore.Internal.Correction.Weighted>
   9.000000E+99

> <Gold.Protein.RotatedTorsions>
[ 6907 6896 6895 6894 ] final   34.83 input  -60.11 | X-H torsion
[ 7974 7965 7964 7962 ] final   -0.99 input  175.53 | X-H torsion
[ 8008 7997 7996 7995 ] final -179.30 input   59.86 | X-H torsion
[ 10167 10162 10161 10158 ] final  -27.46 input  -65.29 | X-H torsion
[ 10718 10713 10712 10709 ] final -118.03 input   66.30 | X-H torsion
[ 10763 10752 10751 10750 ] final  -22.53 input  -60.55 | X-H torsion
[ 11005 11000 10999 10996 ] final  120.65 input  -57.11 | X-H torsion

> <Gold.Protein.ActiveResidues>
 VAL166  LYS551  ARG553  GLY616  TRP617  ASP618  TYR619  PRO620  LYS621  CYS622 
 ASP623  PHE694  ASN695  SER759  ASP760  ASP761  ALA762  ILE779  LEU786  VAL792 
 PHE793  MET794  SER795  GLU796  ALA797  LYS798  CYS799  TRP800  GLU811  SER814 

> <Gold.Protein.RotatedAtoms>
  152.1077  134.9296  160.0567 H   0  0  0  0  0  0  0  0  0  0  0  0  # atno 6907 bound_to 6896
  152.0486  133.4004  159.4375 H   0  0  0  0  0  0  0  0  0  0  0  0  # atno 6908 bound_to 6896
  150.6842  134.3254  159.4848 H   0  0  0  0  0  0  0  0  0  0  0  0  # atno 6909 bound_to 6896
  146.2422  140.1352  142.8337 H   0  0  0  0  0  0  0  0  0  0  0  0  # atno 7974 bound_to 7965
  156.0289  140.1277  157.0279 H   0  0  0  0  0  0  0  0  0  0  0  0  # atno 8008 bound_to 7997
  154.4342  140.1053  156.6142 H   0  0  0  0  0  0  0  0  0  0  0  0  # atno 8009 bound_to 7997
  155.5835  140.3468  155.4549 H   0  0  0  0  0  0  0  0  0  0  0  0  # atno 8010 bound_to 7997
  140.7277  143.4092  151.1134 H   0  0  0  0  0  0  0  0  0  0  0  0  # atno 10167 bound_to 10162
  156.1077  130.6223  150.9240 H   0  0  0  0  0  0  0  0  0  0  0  0  # atno 10718 bound_to 10713
  153.6533  135.6980  153.5201 H   0  0  0  0  0  0  0  0  0  0  0  0  # atno 10763 bound_to 10752
  153.2689  135.4221  155.0967 H   0  0  0  0  0  0  0  0  0  0  0  0  # atno 10764 bound_to 10752
  154.8471  135.3573  154.6078 H   0  0  0  0  0  0  0  0  0  0  0  0  # atno 10765 bound_to 10752
  139.9194  134.9635  156.7839 H   0  0  0  0  0  0  0  0  0  0  0  0  # atno 11005 bound_to 11000
  145.0292  140.8857  143.5119 LP  0  0  0  0  0  0  0  0  0  0  0  0  # atno 17320 bound_to 7965
  145.1414  139.2570  143.5488 LP  0  0  0  0  0  0  0  0  0  0  0  0  # atno 17321 bound_to 7965
  139.7723  143.8477  152.3123 LP  0  0  0  0  0  0  0  0  0  0  0  0  # atno 17342 bound_to 10162
  139.8399  144.7215  150.9344 LP  0  0  0  0  0  0  0  0  0  0  0  0  # atno 17343 bound_to 10162
  157.6255  131.0926  150.8542 LP  0  0  0  0  0  0  0  0  0  0  0  0  # atno 17370 bound_to 10713
  156.8658  130.5129  149.5300 LP  0  0  0  0  0  0  0  0  0  0  0  0  # atno 17371 bound_to 10713
  140.6522  133.9721  155.7761 LP  0  0  0  0  0  0  0  0  0  0  0  0  # atno 17394 bound_to 11000
  141.0700  134.0219  157.3539 LP  0  0  0  0  0  0  0  0  0  0  0  0  # atno 17395 bound_to 11000

$$$$
