AV-unprocessed.smi:203|AV-procd|sdf|1586|dock9
  -GOLD-   2262019483D 1   1.00000     0.00000
 Structure written by MMmdl.
 57 61  0  0  0  0  0  0  0  0  1 V2000
  145.1029  131.8774  157.0478 O   0  0  0  0  0  0  0  0  0  0  0  0
  145.7003  132.7075  156.3666 C   0  0  0  0  0  0  0  0  0  0  0  0
  146.7229  133.6777  156.9321 C   0  0  0  0  0  0  0  0  0  0  0  0
  147.3478  134.3204  155.6765 C   0  0  1  0  0  0  0  0  0  0  0  0
  148.8323  133.9133  155.4115 C   0  0  2  0  0  0  0  0  0  0  0  0
  148.9662  132.4925  154.8011 C   0  0  0  0  0  0  0  0  0  0  0  0
  150.4320  132.1168  154.5486 C   0  0  0  0  0  0  0  0  0  0  0  0
  151.2353  132.2493  155.8467 C   0  0  0  0  0  0  0  0  0  0  0  0
  151.0894  133.6643  156.4218 C   0  0  0  0  0  0  0  0  0  0  0  0
  149.6833  134.0211  156.6103 N   0  0  0  0  0  0  0  0  0  0  0  0
  149.5793  135.1697  157.3156 C   0  0  0  0  0  0  0  0  0  0  0  0
  149.0316  135.0882  158.5527 N   0  0  0  0  0  0  0  0  0  0  0  0
  148.8916  136.1915  159.2937 C   0  0  0  0  0  0  0  0  0  0  0  0
  149.2320  137.4477  158.9952 N   0  0  0  0  0  0  0  0  0  0  0  0
  149.7897  137.5289  157.7530 C   0  0  0  0  0  0  0  0  0  0  0  0
  149.9995  136.4484  156.8515 C   0  0  0  0  0  0  0  0  0  0  0  0
  150.5882  136.9132  155.6814 N   0  0  0  0  0  0  0  0  0  0  0  0
  150.7197  138.1965  155.8806 C   0  0  0  0  0  0  0  0  0  0  0  0
  150.2666  138.6504  157.0982 N   0  0  0  0  0  0  0  0  0  0  0  0
  150.2934  140.0208  157.5773 C   0  0  0  0  0  0  0  0  0  0  0  0
  151.5836  140.3434  158.3608 C   0  0  1  0  0  0  0  0  0  0  0  0
  152.7211  140.1675  157.5401 O   0  0  0  0  0  0  0  0  0  0  0  0
  151.6235  141.7633  158.9626 C   0  0  2  0  0  0  0  0  0  0  0  0
  151.6941  142.8894  157.9235 C   0  0  0  0  0  0  0  0  0  0  0  0
  152.5372  143.9687  158.5903 C   0  0  0  0  0  0  0  0  0  0  0  0
  152.9094  143.3700  159.9453 C   0  0  0  0  0  0  0  0  0  0  0  0
  152.7913  141.9716  159.7442 O   0  0  0  0  0  0  0  0  0  0  0  0
  146.3944  133.9432  154.5222 C   0  0  0  0  0  0  0  0  0  0  0  0
  145.5531  132.8898  155.0559 N   0  0  0  0  0  0  0  0  0  0  0  0
  146.2109  134.4242  157.5402 H   0  0  0  0  0  0  0  0  0  0  0  0
  147.4493  133.1677  157.5651 H   0  0  0  0  0  0  0  0  0  0  0  0
  147.2915  135.4046  155.7785 H   0  0  0  0  0  0  0  0  0  0  0  0
  149.2329  134.6127  154.6766 H   0  0  0  0  0  0  0  0  0  0  0  0
  148.5270  131.7507  155.4684 H   0  0  0  0  0  0  0  0  0  0  0  0
  148.4181  132.4190  153.8625 H   0  0  0  0  0  0  0  0  0  0  0  0
  150.4995  131.0978  154.1666 H   0  0  0  0  0  0  0  0  0  0  0  0
  150.8542  132.7686  153.7830 H   0  0  0  0  0  0  0  0  0  0  0  0
  150.8835  131.5177  156.5755 H   0  0  0  0  0  0  0  0  0  0  0  0
  152.2865  132.0268  155.6626 H   0  0  0  0  0  0  0  0  0  0  0  0
  151.6202  133.7256  157.3733 H   0  0  0  0  0  0  0  0  0  0  0  0
  151.5592  134.3831  155.7489 H   0  0  0  0  0  0  0  0  0  0  0  0
  148.4408  136.0478  160.2646 H   0  0  0  0  0  0  0  0  0  0  0  0
  151.1523  138.8531  155.1397 H   0  0  0  0  0  0  0  0  0  0  0  0
  150.1849  140.6890  156.7221 H   0  0  0  0  0  0  0  0  0  0  0  0
  149.4148  140.1758  158.2032 H   0  0  0  0  0  0  0  0  0  0  0  0
  151.6902  139.6269  159.1764 H   0  0  0  0  0  0  0  0  0  0  0  0
  152.4894  140.4076  156.6557 H   0  0  0  0  0  0  0  0  0  0  0  0
  150.7467  141.9318  159.5917 H   0  0  0  0  0  0  0  0  0  0  0  0
  152.1835  142.5587  157.0073 H   0  0  0  0  0  0  0  0  0  0  0  0
  150.7002  143.2473  157.6529 H   0  0  0  0  0  0  0  0  0  0  0  0
  153.4334  144.1585  157.9986 H   0  0  0  0  0  0  0  0  0  0  0  0
  152.0012  144.9120  158.6992 H   0  0  0  0  0  0  0  0  0  0  0  0
  153.9137  143.6467  160.2668 H   0  0  0  0  0  0  0  0  0  0  0  0
  152.2036  143.6853  160.7155 H   0  0  0  0  0  0  0  0  0  0  0  0
  145.7623  134.7896  154.2501 H   0  0  0  0  0  0  0  0  0  0  0  0
  146.9140  133.6194  153.6202 H   0  0  0  0  0  0  0  0  0  0  0  0
  144.9225  132.3528  154.4783 H   0  0  0  0  0  0  0  0  0  0  0  0
  1  2  2  0  0  0  0
  2 29  1  0  0  0  0
  2  3  1  0  0  0  0
  3  4  1  0  0  0  0
  3 30  1  0  0  0  0
  3 31  1  0  0  0  0
  4  5  1  0  0  0  0
  4 28  1  0  0  0  0
  4 32  1  0  0  0  0
  5 10  1  0  0  0  0
  5  6  1  0  0  0  0
  5 33  1  0  0  0  0
  6  7  1  0  0  0  0
  6 34  1  0  0  0  0
  6 35  1  0  0  0  0
  7  8  1  0  0  0  0
  7 36  1  0  0  0  0
  7 37  1  0  0  0  0
  8  9  1  0  0  0  0
  8 38  1  0  0  0  0
  8 39  1  0  0  0  0
  9 10  1  0  0  0  0
  9 40  1  0  0  0  0
  9 41  1  0  0  0  0
 10 11  1  0  0  0  0
 11 16  1  0  0  0  0
 11 12  2  0  0  0  0
 12 13  1  0  0  0  0
 13 14  2  0  0  0  0
 13 42  1  0  0  0  0
 14 15  1  0  0  0  0
 15 19  1  0  0  0  0
 15 16  2  0  0  0  0
 16 17  1  0  0  0  0
 17 18  2  0  0  0  0
 18 19  1  0  0  0  0
 18 43  1  0  0  0  0
 19 20  1  0  0  0  0
 20 21  1  0  0  0  0
 20 44  1  0  0  0  0
 20 45  1  0  0  0  0
 21 22  1  0  0  0  0
 21 23  1  0  0  0  0
 21 46  1  0  0  0  0
 22 47  1  0  0  0  0
 23 27  1  0  0  0  0
 23 24  1  0  0  0  0
 23 48  1  0  0  0  0
 24 25  1  0  0  0  0
 24 49  1  0  0  0  0
 24 50  1  0  0  0  0
 25 26  1  0  0  0  0
 25 51  1  0  0  0  0
 25 52  1  0  0  0  0
 26 27  1  0  0  0  0
 26 53  1  0  0  0  0
 26 54  1  0  0  0  0
 28 29  1  0  0  0  0
 28 55  1  0  0  0  0
 28 56  1  0  0  0  0
 29 57  1  0  0  0  0
M  END
> <s_m_source_file>
AV-unprocessed.smi

> <i_m_source_file_index>
203

> <i_lp_mmshare_version>
43012

> <i_f3d_flags>
0

> <s_epik_input>
Tz1DMVtDSDJdW0NASF0oW0NIMl1bTkhdMSlbQ0BASF0yW0NIMl1bQ0gyXVtDSDJdW0NIMl1OMmMobltjSF1uMyljKGMzNCluW2NIXW40W0NIMl1bQ0BIXShbT0hdKVtDQEBIXTVbQ0gyXVtDSDJdW0NIMl1PNQ==

> <s_epik_cmdline>
J2VwaWtfcHl0aG9uJywgJy1waCcsICc3LjAnLCAnLXRuJywgJzgnLCAnLW1hJywgJzIwMCcsICctbWV0YWxfYmluZGluZycsICctaW1hZScsICc8aW5maWxlLm1hZT4nLCAnLW9tYWUnLCAnPG91dGZpbGUubWFlPic=

> <r_lp_tautomer_probability>
1

> <r_epik_Ionization_Penalty>
0.00175146

> <r_epik_Ionization_Penalty_Charging>
0

> <r_epik_Ionization_Penalty_Neutral>
0.00175146

> <r_epik_State_Penalty>
0.00109045

> <r_epik_Charging_Adjusted_Penalty>
0.00109045

> <i_epik_Tot_Q>
0

> <i_epik_Tot_abs_Q>
0

> <r_epik_Metal_State_Penalty>
-0

> <b_epik_Metal_Only>
0

> <s_lp_Force_Field>
OPLS_2005

> <r_lp_Energy>
58.3664

> <b_lp_Chiralities_Consistent>
1

> <s_lp_Variant>
AV-unprocessed.smi:203-5

> <Gold.Version>
5.8.1

> <Gold.Id.Protein>
6NUR|6NUR_protein|mol2

> <Gold.PLP.Fitness>
40.2893

> <Gold.PLP.PLP>
-32.9914

> <Gold.PLP.part.hbond>
-3.5726

> <Gold.PLP.part.metal>
0.0000

> <Gold.PLP.part.buried>
-5.0814

> <Gold.PLP.part.nonpolar>
-24.3357

> <Gold.PLP.part.repulsive>
0.1752

> <Gold.PLP.ligand.clash>
0.0000

> <Gold.PLP.ligand.torsion>
0.7041

> <Gold.PLP.Chemscore.Hbond>
2.7924

> <Gold.PLP.Chemscore.CHOScore>
0.0000

> <Gold.PLP.Chemscore.Metal>
0.0000

> <Gold.Chemscore.Hbonds>
donor molecule, donor type, donor heavy atom, donor atom, acceptor molecule, acceptor atom, score
      L1  H    29    57       P1 10957  0.15
      P1  H  6896  6909       L1    12  0.76
      P1  H  7997  8010       L1    22  0.25

> <Gold.PLP.Chemscore.Internal.Correction>
0.3289

> <Gold.Rescore>
     Score         DG    S(hbond)    S(metal)    S(lipo)     H(rot)  DE(clash)    DE(int)     intcor
     13.05     -13.68       1.73        0.00      80.02       2.72       0.03       0.60       ----

> <Gold.Chemscore.Fitness>
13.0472

> <Gold.Chemscore.DG>
-13.6785

> <Gold.Chemscore.ZeroCoef>
-5.4800

> <Gold.Chemscore.Hbond>
1.7340

> <Gold.Chemscore.Metal>
0.0000

> <Gold.Chemscore.Lipo>
80.0220

> <Gold.Chemscore.Internal_Hbond>
0.0000

> <Gold.Chemscore.DEClash>
0.0295

> <Gold.Chemscore.DEInternal>
0.6018

> <Gold.Chemscore.Rot>
2.7171

> <Gold.Chemscore.Internal.Correction>
   9.000000E+99

> <Gold.Chemscore.Hbonds>
donor molecule, donor type, donor heavy atom, donor atom, acceptor molecule, acceptor atom, score
      L1  H    29    57       P1 10957  0.09
      P1  H  6896  6909       L1    12  0.03

> <Gold.Chemscore.Hbond.Weighted>
-5.7917

> <Gold.Chemscore.Metal.Weighted>
-0.0000

> <Gold.Chemscore.Lipo.Weighted>
-9.3626

> <Gold.Chemscore.Internal_Hbond.Weighted>
0.0000

> <Gold.Chemscore.DEClash.Weighted>
0.0295

> <Gold.Chemscore.DEInternal.Weighted>
0.6018

> <Gold.Chemscore.Rot.Weighted>
6.9557

> <Gold.Chemscore.Internal.Correction.Weighted>
   9.000000E+99

> <Gold.Protein.RotatedTorsions>
[ 6907 6896 6895 6894 ] final   35.62 input  -60.11 | X-H torsion
[ 7974 7965 7964 7962 ] final -150.16 input  175.53 | X-H torsion
[ 8008 7997 7996 7995 ] final   45.10 input   59.86 | X-H torsion
[ 10167 10162 10161 10158 ] final   13.14 input  -65.29 | X-H torsion
[ 10718 10713 10712 10709 ] final  157.65 input   66.30 | X-H torsion
[ 10763 10752 10751 10750 ] final  162.59 input  -60.55 | X-H torsion
[ 11005 11000 10999 10996 ] final -122.70 input  -57.11 | X-H torsion

> <Gold.Protein.ActiveResidues>
 VAL166  LYS551  ARG553  GLY616  TRP617  ASP618  TYR619  PRO620  LYS621  CYS622 
 ASP623  PHE694  ASN695  SER759  ASP760  ASP761  ALA762  ILE779  LEU786  VAL792 
 PHE793  MET794  SER795  GLU796  ALA797  LYS798  CYS799  TRP800  GLU811  SER814 

> <Gold.Protein.RotatedAtoms>
  152.1186  134.9222  160.0563 H   0  0  0  0  0  0  0  0  0  0  0  0  # atno 6907 bound_to 6896
  152.0372  133.3957  159.4330 H   0  0  0  0  0  0  0  0  0  0  0  0  # atno 6908 bound_to 6896
  150.6847  134.3376  159.4897 H   0  0  0  0  0  0  0  0  0  0  0  0  # atno 6909 bound_to 6896
  144.7924  140.4968  143.5764 H   0  0  0  0  0  0  0  0  0  0  0  0  # atno 7974 bound_to 7965
  155.3302  140.3402  155.4239 H   0  0  0  0  0  0  0  0  0  0  0  0  # atno 8008 bound_to 7997
  156.1865  140.1682  156.8211 H   0  0  0  0  0  0  0  0  0  0  0  0  # atno 8009 bound_to 7997
  154.5392  140.0728  156.8464 H   0  0  0  0  0  0  0  0  0  0  0  0  # atno 8010 bound_to 7997
  140.6022  143.8581  150.6977 H   0  0  0  0  0  0  0  0  0  0  0  0  # atno 10167 bound_to 10162
  157.1886  131.0649  151.2092 H   0  0  0  0  0  0  0  0  0  0  0  0  # atno 10718 bound_to 10713
  154.2808  135.2763  155.2698 H   0  0  0  0  0  0  0  0  0  0  0  0  # atno 10763 bound_to 10752
  154.5220  135.5753  153.6692 H   0  0  0  0  0  0  0  0  0  0  0  0  # atno 10764 bound_to 10752
  152.9929  135.6206  154.2967 H   0  0  0  0  0  0  0  0  0  0  0  0  # atno 10765 bound_to 10752
  140.9975  134.0450  157.3579 H   0  0  0  0  0  0  0  0  0  0  0  0  # atno 11005 bound_to 11000
  145.5761  139.1486  143.3261 LP  0  0  0  0  0  0  0  0  0  0  0  0  # atno 17320 bound_to 7965
  146.2180  140.5892  142.9030 LP  0  0  0  0  0  0  0  0  0  0  0  0  # atno 17321 bound_to 7965
  140.2130  143.3868  152.1703 LP  0  0  0  0  0  0  0  0  0  0  0  0  # atno 17342 bound_to 10162
  139.5299  144.7147  151.5093 LP  0  0  0  0  0  0  0  0  0  0  0  0  # atno 17343 bound_to 10162
  157.3883  130.7268  149.6679 LP  0  0  0  0  0  0  0  0  0  0  0  0  # atno 17370 bound_to 10713
  155.9714  130.4153  150.4177 LP  0  0  0  0  0  0  0  0  0  0  0  0  # atno 17371 bound_to 10713
  139.9022  135.0168  156.7322 LP  0  0  0  0  0  0  0  0  0  0  0  0  # atno 17394 bound_to 11000
  140.6942  133.9363  155.7984 LP  0  0  0  0  0  0  0  0  0  0  0  0  # atno 17395 bound_to 11000

$$$$
