AV-unprocessed.smi:746|AV-procd|sdf|3578|dock9
  -GOLD-   22720 0573D 1   1.00000     0.00000
 Structure written by MMmdl.
 48 50  0  0  0  0  0  0  0  0  1 V2000
  153.1406  132.4902  165.3439 C   0  0  0  0  0  0  0  0  0  0  0  0
  154.4134  132.9219  164.8954 O   0  0  0  0  0  0  0  0  0  0  0  0
  154.5292  134.3348  164.8718 C   0  0  0  0  0  0  0  0  0  0  0  0
  155.9673  134.7185  164.5117 C   0  0  0  0  0  0  0  0  0  0  0  0
  156.1243  136.1248  164.6772 O   0  0  0  0  0  0  0  0  0  0  0  0
  155.4861  136.9673  163.7902 C   0  0  0  0  0  0  0  0  0  0  0  0
  155.7676  138.3465  163.8496 C   0  0  0  0  0  0  0  0  0  0  0  0
  155.1299  139.2086  162.9380 C   0  0  0  0  0  0  0  0  0  0  0  0
  154.2393  138.6681  161.9891 C   0  0  0  0  0  0  0  0  0  0  0  0
  153.6004  139.5601  161.0869 N   0  0  0  0  0  0  0  0  0  0  0  0
  153.9415  140.8271  160.7731 C   0  0  0  0  0  0  0  0  0  0  0  0
  154.8860  141.4122  161.3057 O   0  0  0  0  0  0  0  0  0  0  0  0
  153.1103  141.4331  159.8789 N   0  0  0  0  0  0  0  0  0  0  0  0
  152.1060  140.6917  159.0772 C   0  0  0  0  0  0  0  0  0  0  0  0
  151.7969  141.3233  157.7145 C   0  0  0  0  0  0  0  0  0  0  0  0
  151.4252  142.7905  157.8702 C   0  0  0  0  0  0  0  0  0  0  0  0
  152.6111  143.5467  158.4727 C   0  0  1  0  0  0  0  0  0  0  0  0
  152.2409  144.9912  158.8601 C   0  0  0  0  0  0  0  0  0  0  0  0
  152.1732  145.0410  160.3956 C   0  0  0  0  0  0  0  0  0  0  0  0
  152.3044  143.5943  160.8753 C   0  0  0  0  0  0  0  0  0  0  0  0
  153.1281  142.9143  159.7788 C   0  0  1  0  0  0  0  0  0  0  0  0
  154.0064  137.2718  162.0230 C   0  0  0  0  0  0  0  0  0  0  0  0
  154.6138  136.4401  162.8959 N   0  0  0  0  0  0  0  0  0  0  0  0
  153.1029  131.4010  165.3458 H   0  0  0  0  0  0  0  0  0  0  0  0
  152.3481  132.8528  164.6879 H   0  0  0  0  0  0  0  0  0  0  0  0
  152.9409  132.8360  166.3589 H   0  0  0  0  0  0  0  0  0  0  0  0
  153.8280  134.7742  164.1605 H   0  0  0  0  0  0  0  0  0  0  0  0
  154.2850  134.7301  165.8589 H   0  0  0  0  0  0  0  0  0  0  0  0
  156.6511  134.1946  165.1815 H   0  0  0  0  0  0  0  0  0  0  0  0
  156.1971  134.4122  163.4896 H   0  0  0  0  0  0  0  0  0  0  0  0
  156.4623  138.7355  164.5794 H   0  0  0  0  0  0  0  0  0  0  0  0
  155.3311  140.2696  162.9639 H   0  0  0  0  0  0  0  0  0  0  0  0
  152.7423  139.2223  160.6763 H   0  0  0  0  0  0  0  0  0  0  0  0
  152.4163  139.6657  158.8743 H   0  0  0  0  0  0  0  0  0  0  0  0
  151.1896  140.6275  159.6656 H   0  0  0  0  0  0  0  0  0  0  0  0
  152.6607  141.2272  157.0554 H   0  0  0  0  0  0  0  0  0  0  0  0
  150.9799  140.7828  157.2355 H   0  0  0  0  0  0  0  0  0  0  0  0
  151.1601  143.2166  156.9022 H   0  0  0  0  0  0  0  0  0  0  0  0
  150.5451  142.8827  158.5077 H   0  0  0  0  0  0  0  0  0  0  0  0
  153.4149  143.5571  157.7348 H   0  0  0  0  0  0  0  0  0  0  0  0
  152.9968  145.6899  158.4995 H   0  0  0  0  0  0  0  0  0  0  0  0
  151.2926  145.2958  158.4152 H   0  0  0  0  0  0  0  0  0  0  0  0
  153.0079  145.6300  160.7778 H   0  0  0  0  0  0  0  0  0  0  0  0
  151.2546  145.5059  160.7542 H   0  0  0  0  0  0  0  0  0  0  0  0
  152.7716  143.5260  161.8583 H   0  0  0  0  0  0  0  0  0  0  0  0
  151.3169  143.1355  160.9435 H   0  0  0  0  0  0  0  0  0  0  0  0
  154.1577  143.2669  159.8762 H   0  0  0  0  0  0  0  0  0  0  0  0
  153.3066  136.7938  161.3554 H   0  0  0  0  0  0  0  0  0  0  0  0
  1  2  1  0  0  0  0
  1 24  1  0  0  0  0
  1 25  1  0  0  0  0
  1 26  1  0  0  0  0
  2  3  1  0  0  0  0
  3  4  1  0  0  0  0
  3 27  1  0  0  0  0
  3 28  1  0  0  0  0
  4  5  1  0  0  0  0
  4 29  1  0  0  0  0
  4 30  1  0  0  0  0
  5  6  1  0  0  0  0
  6 23  1  0  0  0  0
  6  7  2  0  0  0  0
  7  8  1  0  0  0  0
  7 31  1  0  0  0  0
  8  9  2  0  0  0  0
  8 32  1  0  0  0  0
  9 10  1  0  0  0  0
  9 22  1  0  0  0  0
 10 11  1  0  0  0  0
 10 33  1  0  0  0  0
 11 12  2  0  0  0  0
 11 13  1  0  0  0  0
 13 21  1  0  0  0  0
 13 14  1  0  0  0  0
 14 15  1  0  0  0  0
 14 34  1  0  0  0  0
 14 35  1  0  0  0  0
 15 16  1  0  0  0  0
 15 36  1  0  0  0  0
 15 37  1  0  0  0  0
 16 17  1  0  0  0  0
 16 38  1  0  0  0  0
 16 39  1  0  0  0  0
 17 21  1  0  0  0  0
 17 18  1  0  0  0  0
 17 40  1  0  0  0  0
 18 19  1  0  0  0  0
 18 41  1  0  0  0  0
 18 42  1  0  0  0  0
 19 20  1  0  0  0  0
 19 43  1  0  0  0  0
 19 44  1  0  0  0  0
 20 21  1  0  0  0  0
 20 45  1  0  0  0  0
 20 46  1  0  0  0  0
 21 47  1  0  0  0  0
 22 23  2  0  0  0  0
 22 48  1  0  0  0  0
M  END
> <s_m_source_file>
AV-unprocessed.smi

> <i_m_source_file_index>
746

> <i_lp_mmshare_version>
43012

> <i_f3d_flags>
0

> <s_epik_input>
W0NIM11PW0NIMl1bQ0gyXU9jMVtjSF1bY0hdYyhbY0hdbjEpW05IXUMoPU8pTihbQ0gyXVtDSDJdW0NIMl0yKVtDQEhdKFtDQEBIXTIzKVtDSDJdW0NIMl1bQ0gyXTM=

> <s_epik_cmdline>
J2VwaWtfcHl0aG9uJywgJy1waCcsICc3LjAnLCAnLXRuJywgJzgnLCAnLW1hJywgJzIwMCcsICctbWV0YWxfYmluZGluZycsICctaW1hZScsICc8aW5maWxlLm1hZT4nLCAnLW9tYWUnLCAnPG91dGZpbGUubWFlPic=

> <r_lp_tautomer_probability>
1

> <r_epik_Ionization_Penalty>
8.29966e-05

> <r_epik_Ionization_Penalty_Charging>
0

> <r_epik_Ionization_Penalty_Neutral>
8.29966e-05

> <r_epik_State_Penalty>
-0

> <r_epik_Charging_Adjusted_Penalty>
0

> <i_epik_Tot_Q>
0

> <i_epik_Tot_abs_Q>
0

> <r_epik_Metal_State_Penalty>
-0

> <b_epik_Metal_Only>
0

> <s_lp_Force_Field>
OPLS_2005

> <r_lp_Energy>
59.487

> <b_lp_Chiralities_Consistent>
1

> <s_lp_Variant>
AV-unprocessed.smi:746-3

> <Gold.Version>
5.8.1

> <Gold.Id.Protein>
6NUR|6NUR_protein|mol2

> <Gold.PLP.Fitness>
46.8337

> <Gold.PLP.PLP>
-47.2176

> <Gold.PLP.part.hbond>
-1.0000

> <Gold.PLP.part.metal>
0.0000

> <Gold.PLP.part.buried>
-4.0920

> <Gold.PLP.part.nonpolar>
-41.4961

> <Gold.PLP.part.repulsive>
0.1433

> <Gold.PLP.ligand.clash>
0.0639

> <Gold.PLP.ligand.torsion>
0.2626

> <Gold.PLP.Chemscore.Hbond>
0.0000

> <Gold.PLP.Chemscore.CHOScore>
0.0000

> <Gold.PLP.Chemscore.Metal>
0.0000

> <Gold.PLP.Chemscore.Internal.Correction>
0.2052

> <Gold.Rescore>
     Score         DG    S(hbond)    S(metal)    S(lipo)     H(rot)  DE(clash)    DE(int)     intcor
     13.56     -16.54       0.00        0.00     127.77       1.52       0.64       2.34       ----

> <Gold.Chemscore.Fitness>
13.5582

> <Gold.Chemscore.DG>
-16.5444

> <Gold.Chemscore.ZeroCoef>
-5.4800

> <Gold.Chemscore.Hbond>
0.0000

> <Gold.Chemscore.Metal>
0.0000

> <Gold.Chemscore.Lipo>
127.7651

> <Gold.Chemscore.Internal_Hbond>
0.0000

> <Gold.Chemscore.DEClash>
0.6441

> <Gold.Chemscore.DEInternal>
2.3421

> <Gold.Chemscore.Rot>
1.5172

> <Gold.Chemscore.Internal.Correction>
   9.000000E+99

> <Gold.Chemscore.Hbond.Weighted>
-0.0000

> <Gold.Chemscore.Metal.Weighted>
-0.0000

> <Gold.Chemscore.Lipo.Weighted>
-14.9485

> <Gold.Chemscore.Internal_Hbond.Weighted>
0.0000

> <Gold.Chemscore.DEClash.Weighted>
0.6441

> <Gold.Chemscore.DEInternal.Weighted>
2.3421

> <Gold.Chemscore.Rot.Weighted>
3.8841

> <Gold.Chemscore.Internal.Correction.Weighted>
   9.000000E+99

> <Gold.Protein.RotatedTorsions>
[ 6907 6896 6895 6894 ] final   -7.76 input  -60.11 | X-H torsion
[ 7974 7965 7964 7962 ] final   70.04 input  175.53 | X-H torsion
[ 8008 7997 7996 7995 ] final   10.95 input   59.86 | X-H torsion
[ 10167 10162 10161 10158 ] final  102.05 input  -65.29 | X-H torsion
[ 10718 10713 10712 10709 ] final   70.61 input   66.30 | X-H torsion
[ 10763 10752 10751 10750 ] final  -31.31 input  -60.55 | X-H torsion
[ 11005 11000 10999 10996 ] final   25.08 input  -57.11 | X-H torsion

> <Gold.Protein.ActiveResidues>
 VAL166  LYS551  ARG553  GLY616  TRP617  ASP618  TYR619  PRO620  LYS621  CYS622 
 ASP623  PHE694  ASN695  SER759  ASP760  ASP761  ALA762  ILE779  LEU786  VAL792 
 PHE793  MET794  SER795  GLU796  ALA797  LYS798  CYS799  TRP800  GLU811  SER814 

> <Gold.Protein.RotatedAtoms>
  151.4444  135.1023  159.9679 H   0  0  0  0  0  0  0  0  0  0  0  0  # atno 6907 bound_to 6896
  152.4911  133.8498  159.7206 H   0  0  0  0  0  0  0  0  0  0  0  0  # atno 6908 bound_to 6896
  150.9065  133.6992  159.2893 H   0  0  0  0  0  0  0  0  0  0  0  0  # atno 6909 bound_to 6896
  145.7831  139.2897  143.1254 H   0  0  0  0  0  0  0  0  0  0  0  0  # atno 7974 bound_to 7965
  154.8002  140.2851  155.5927 H   0  0  0  0  0  0  0  0  0  0  0  0  # atno 8008 bound_to 7997
  156.2976  140.2588  156.2798 H   0  0  0  0  0  0  0  0  0  0  0  0  # atno 8009 bound_to 7997
  154.9566  140.0378  157.2159 H   0  0  0  0  0  0  0  0  0  0  0  0  # atno 8010 bound_to 7997
  139.7383  144.7018  151.0614 H   0  0  0  0  0  0  0  0  0  0  0  0  # atno 10167 bound_to 10162
  157.6409  130.9486  150.0675 H   0  0  0  0  0  0  0  0  0  0  0  0  # atno 10718 bound_to 10713
  153.7953  135.6894  153.4864 H   0  0  0  0  0  0  0  0  0  0  0  0  # atno 10763 bound_to 10752
  153.1723  135.4538  154.9918 H   0  0  0  0  0  0  0  0  0  0  0  0  # atno 10764 bound_to 10752
  154.8028  135.3344  154.7446 H   0  0  0  0  0  0  0  0  0  0  0  0  # atno 10765 bound_to 10752
  140.3517  134.2221  155.7679 H   0  0  0  0  0  0  0  0  0  0  0  0  # atno 11005 bound_to 11000
  146.0054  140.8483  142.9997 LP  0  0  0  0  0  0  0  0  0  0  0  0  # atno 17320 bound_to 7965
  144.6793  140.2413  143.7343 LP  0  0  0  0  0  0  0  0  0  0  0  0  # atno 17321 bound_to 7965
  140.7782  143.4956  150.9837 LP  0  0  0  0  0  0  0  0  0  0  0  0  # atno 17342 bound_to 10162
  139.8644  143.7273  152.3171 LP  0  0  0  0  0  0  0  0  0  0  0  0  # atno 17343 bound_to 10162
  156.1689  130.3646  149.9193 LP  0  0  0  0  0  0  0  0  0  0  0  0  # atno 17370 bound_to 10713
  156.7173  130.8993  151.3615 LP  0  0  0  0  0  0  0  0  0  0  0  0  # atno 17371 bound_to 10713
  141.2010  133.7973  157.0462 LP  0  0  0  0  0  0  0  0  0  0  0  0  # atno 17394 bound_to 11000
  140.0697  134.9709  157.1447 LP  0  0  0  0  0  0  0  0  0  0  0  0  # atno 17395 bound_to 11000

$$$$
