AV-unprocessed.smi:3343|AV-procd|sdf|12892|dock3
  -GOLD-   2272019303D 1   1.00000     0.00000
 Structure written by MMmdl.
 42 43  0  0  0  0  0  0  0  0  2 V2000
  150.0418  135.2494  156.2920 C   0  0  0  0  0  0  0  0  0  0  0  0
  149.5110  136.2338  155.2337 C   0  0  1  0  0  0  0  0  0  0  0  0
  147.9911  136.4310  155.3226 C   0  0  0  0  0  0  0  0  0  0  0  0
  147.4687  136.8177  156.3693 O   0  0  0  0  0  0  0  0  0  0  0  0
  147.2944  136.1898  154.2012 N   0  0  0  0  0  0  0  0  0  0  0  0
  145.8618  136.4062  154.0481 C   0  0  0  0  0  0  0  0  0  0  0  0
  145.1812  135.1437  153.4869 C   0  0  0  0  0  0  0  0  0  0  0  0
  143.9514  135.4506  152.7530 N   0  0  0  0  0  0  0  0  0  0  0  0
  144.1514  136.1245  151.4644 C   0  0  0  0  0  0  0  0  0  0  0  0
  144.8045  135.1998  150.4151 C   0  0  0  0  0  0  0  0  0  0  0  0
  143.9884  133.9785  150.2221 N   0  3  0  0  0  0  0  0  0  0  0  0
  144.5406  133.0802  149.1859 C   0  0  0  0  0  0  0  0  0  0  0  0
  143.7620  133.2906  151.5144 C   0  0  0  0  0  0  0  0  0  0  0  0
  143.1274  134.2578  152.5373 C   0  0  0  0  0  0  0  0  0  0  0  0
  150.1780  137.5248  155.3305 N   0  0  0  0  0  0  0  0  0  0  0  0
  150.2238  138.5529  154.4782 C   0  0  0  0  0  0  0  0  0  0  0  0
  150.9714  139.5646  154.8961 N   0  0  0  0  0  0  0  0  0  0  0  0
  151.3878  139.0597  156.0952 C   0  0  0  0  0  0  0  0  0  0  0  0
  150.9471  137.8391  156.4005 N   0  0  0  0  0  0  0  0  0  0  0  0
  149.5445  134.2819  156.2151 H   0  0  0  0  0  0  0  0  0  0  0  0
  149.8918  135.6202  157.3066 H   0  0  0  0  0  0  0  0  0  0  0  0
  151.1105  135.0784  156.1594 H   0  0  0  0  0  0  0  0  0  0  0  0
  149.7361  135.8099  154.2529 H   0  0  0  0  0  0  0  0  0  0  0  0
  147.8000  135.8736  153.3859 H   0  0  0  0  0  0  0  0  0  0  0  0
  145.4466  136.6525  155.0259 H   0  0  0  0  0  0  0  0  0  0  0  0
  145.6975  137.2745  153.4096 H   0  0  0  0  0  0  0  0  0  0  0  0
  145.8789  134.5795  152.8694 H   0  0  0  0  0  0  0  0  0  0  0  0
  144.9271  134.4968  154.3278 H   0  0  0  0  0  0  0  0  0  0  0  0
  143.1785  136.4542  151.0972 H   0  0  0  0  0  0  0  0  0  0  0  0
  144.7418  137.0310  151.5902 H   0  0  0  0  0  0  0  0  0  0  0  0
  144.8806  135.7313  149.4661 H   0  0  0  0  0  0  0  0  0  0  0  0
  145.8226  134.9339  150.7018 H   0  0  0  0  0  0  0  0  0  0  0  0
  145.5247  132.7081  149.4740 H   0  0  0  0  0  0  0  0  0  0  0  0
  144.6374  133.6044  148.2347 H   0  0  0  0  0  0  0  0  0  0  0  0
  143.8834  132.2241  149.0292 H   0  0  0  0  0  0  0  0  0  0  0  0
  143.0928  132.4441  151.3566 H   0  0  0  0  0  0  0  0  0  0  0  0
  144.6995  132.8786  151.8905 H   0  0  0  0  0  0  0  0  0  0  0  0
  142.9597  133.7487  153.4872 H   0  0  0  0  0  0  0  0  0  0  0  0
  142.1450  134.5716  152.1822 H   0  0  0  0  0  0  0  0  0  0  0  0
  149.7058  138.5577  153.5301 H   0  0  0  0  0  0  0  0  0  0  0  0
  152.0398  139.6063  156.7606 H   0  0  0  0  0  0  0  0  0  0  0  0
  143.0830  134.2836  149.8943 H   0  0  0  0  0  0  0  0  0  0  0  0
  1  2  1  0  0  0  0
  1 20  1  0  0  0  0
  1 21  1  0  0  0  0
  1 22  1  0  0  0  0
  2  3  1  0  0  0  0
  2 15  1  0  0  0  0
  2 23  1  0  0  0  0
  3  4  2  0  0  0  0
  3  5  1  0  0  0  0
  5  6  1  0  0  0  0
  5 24  1  0  0  0  0
  6  7  1  0  0  0  0
  6 25  1  0  0  0  0
  6 26  1  0  0  0  0
  7  8  1  0  0  0  0
  7 27  1  0  0  0  0
  7 28  1  0  0  0  0
  8 14  1  0  0  0  0
  8  9  1  0  0  0  0
  9 10  1  0  0  0  0
  9 29  1  0  0  0  0
  9 30  1  0  0  0  0
 10 11  1  0  0  0  0
 10 31  1  0  0  0  0
 10 32  1  0  0  0  0
 11 12  1  0  0  0  0
 11 13  1  0  0  0  0
 11 42  1  0  0  0  0
 12 33  1  0  0  0  0
 12 34  1  0  0  0  0
 12 35  1  0  0  0  0
 13 14  1  0  0  0  0
 13 36  1  0  0  0  0
 13 37  1  0  0  0  0
 14 38  1  0  0  0  0
 14 39  1  0  0  0  0
 15 19  1  0  0  0  0
 15 16  1  0  0  0  0
 16 17  2  0  0  0  0
 16 40  1  0  0  0  0
 17 18  1  0  0  0  0
 18 19  2  0  0  0  0
 18 41  1  0  0  0  0
M  CHG  1  11   1
M  END
> <s_m_source_file>
AV-unprocessed.smi

> <i_m_source_file_index>
3343

> <i_lp_mmshare_version>
43012

> <i_f3d_flags>
0

> <s_epik_input>
bjFbY0hdbltjSF1uMVtDQEhdKFtDSDNdKUMoPU8pW05IXVtDSDJdW0NIMl1OMltDSDJdW0NIMl1OKFtDSDNdKVtDSDJdW0NIMl0y

> <s_epik_cmdline>
J2VwaWtfcHl0aG9uJywgJy1waCcsICc3LjAnLCAnLXRuJywgJzgnLCAnLW1hJywgJzIwMCcsICctbWV0YWxfYmluZGluZycsICctaW1hZScsICc8aW5maWxlLm1hZT4nLCAnLW9tYWUnLCAnPG91dGZpbGUubWFlPic=

> <r_lp_tautomer_probability>
1

> <r_epik_Ionization_Penalty>
0.0359277

> <r_epik_Ionization_Penalty_Charging>
0.0358005

> <r_epik_Ionization_Penalty_Neutral>
0.000127293

> <r_epik_State_Penalty>
0.0476325

> <r_epik_Charging_Adjusted_Penalty>
0.0834329

> <i_epik_Tot_Q>
1

> <i_epik_Tot_abs_Q>
1

> <r_epik_Metal_State_Penalty>
0.0476323

> <b_epik_Metal_Only>
0

> <s_lp_Force_Field>
OPLS_2005

> <r_lp_Energy>
19.669

> <b_lp_Chiralities_Consistent>
1

> <s_lp_Variant>
AV-unprocessed.smi:3343-2

> <Gold.Version>
5.8.1

> <Gold.Id.Protein>
6NUR|6NUR_protein|mol2

> <Gold.PLP.Fitness>
40.7216

> <Gold.PLP.PLP>
-25.0198

> <Gold.PLP.part.hbond>
-3.0000

> <Gold.PLP.part.metal>
0.0000

> <Gold.PLP.part.buried>
-0.6898

> <Gold.PLP.part.nonpolar>
-20.9730

> <Gold.PLP.part.repulsive>
0.2643

> <Gold.PLP.ligand.clash>
0.0000

> <Gold.PLP.ligand.torsion>
0.5804

> <Gold.PLP.Chemscore.Hbond>
3.8480

> <Gold.PLP.Chemscore.CHOScore>
1.7395

> <Gold.PLP.Chemscore.Metal>
0.0000

> <Gold.Chemscore.Hbonds>
donor molecule, donor type, donor heavy atom, donor atom, acceptor molecule, acceptor atom, score
      L1  H     5    24       P1  7948  1.00
      L1  H    11    42       P1 10186  1.62
      P1  H  7989  7998       L1    17  1.00
      L1  C    16    40       P1  7948  0.02
      L1  C    16    40       P1  7957  0.36

> <Gold.PLP.Chemscore.Internal.Correction>
0.1001

> <Gold.Rescore>
     Score         DG    S(hbond)    S(metal)    S(lipo)     H(rot)  DE(clash)    DE(int)     intcor
     12.79     -13.23       2.75        0.00      45.09       2.63       0.12       0.31       ----

> <Gold.Chemscore.Fitness>
12.7897

> <Gold.Chemscore.DG>
-13.2263

> <Gold.Chemscore.ZeroCoef>
-5.4800

> <Gold.Chemscore.Hbond>
2.7537

> <Gold.Chemscore.Metal>
0.0000

> <Gold.Chemscore.Lipo>
45.0929

> <Gold.Chemscore.Internal_Hbond>
0.0000

> <Gold.Chemscore.DEClash>
0.1227

> <Gold.Chemscore.DEInternal>
0.3139

> <Gold.Chemscore.Rot>
2.6278

> <Gold.Chemscore.Internal.Correction>
   9.000000E+99

> <Gold.Chemscore.Hbonds>
donor molecule, donor type, donor heavy atom, donor atom, acceptor molecule, acceptor atom, score
      L1  H     5    24       P1  7948  0.95
      L1  H    11    42       P1 10186  0.79
      P1  H  7989  7998       L1    17  0.89

> <Gold.Chemscore.Hbond.Weighted>
-9.1975

> <Gold.Chemscore.Metal.Weighted>
-0.0000

> <Gold.Chemscore.Lipo.Weighted>
-5.2759

> <Gold.Chemscore.Internal_Hbond.Weighted>
0.0000

> <Gold.Chemscore.DEClash.Weighted>
0.1227

> <Gold.Chemscore.DEInternal.Weighted>
0.3139

> <Gold.Chemscore.Rot.Weighted>
6.7271

> <Gold.Chemscore.Internal.Correction.Weighted>
   9.000000E+99

> <Gold.Protein.RotatedTorsions>
[ 6907 6896 6895 6894 ] final -156.54 input  -60.11 | X-H torsion
[ 7974 7965 7964 7962 ] final    9.53 input  175.53 | X-H torsion
[ 8008 7997 7996 7995 ] final  120.11 input   59.86 | X-H torsion
[ 10167 10162 10161 10158 ] final -102.37 input  -65.29 | X-H torsion
[ 10718 10713 10712 10709 ] final  105.81 input   66.30 | X-H torsion
[ 10763 10752 10751 10750 ] final -138.61 input  -60.55 | X-H torsion
[ 11005 11000 10999 10996 ] final -153.56 input  -57.11 | X-H torsion

> <Gold.Protein.ActiveResidues>
 VAL166  LYS551  ARG553  GLY616  TRP617  ASP618  TYR619  PRO620  LYS621  CYS622 
 ASP623  PHE694  ASN695  SER759  ASP760  ASP761  ALA762  ILE779  LEU786  VAL792 
 PHE793  MET794  SER795  GLU796  ALA797  LYS798  CYS799  TRP800  GLU811  SER814 

> <Gold.Protein.RotatedAtoms>
  151.2892  133.4173  159.2631 H   0  0  0  0  0  0  0  0  0  0  0  0  # atno 6907 bound_to 6896
  151.0292  134.9527  159.8112 H   0  0  0  0  0  0  0  0  0  0  0  0  # atno 6908 bound_to 6896
  152.5342  134.2853  159.9075 H   0  0  0  0  0  0  0  0  0  0  0  0  # atno 6909 bound_to 6896
  146.2402  139.9770  142.8440 H   0  0  0  0  0  0  0  0  0  0  0  0  # atno 7974 bound_to 7965
  156.2627  140.2838  156.1097 H   0  0  0  0  0  0  0  0  0  0  0  0  # atno 8008 bound_to 7997
  155.1270  140.0393  157.2782 H   0  0  0  0  0  0  0  0  0  0  0  0  # atno 8009 bound_to 7997
  154.6628  140.2570  155.7097 H   0  0  0  0  0  0  0  0  0  0  0  0  # atno 8010 bound_to 7997
  140.2314  143.3604  152.0883 H   0  0  0  0  0  0  0  0  0  0  0  0  # atno 10167 bound_to 10162
  157.6692  131.0836  150.5913 H   0  0  0  0  0  0  0  0  0  0  0  0  # atno 10718 bound_to 10713
  154.8632  135.3607  154.5413 H   0  0  0  0  0  0  0  0  0  0  0  0  # atno 10763 bound_to 10752
  153.6034  135.7012  153.5380 H   0  0  0  0  0  0  0  0  0  0  0  0  # atno 10764 bound_to 10752
  153.3271  135.4135  155.1426 H   0  0  0  0  0  0  0  0  0  0  0  0  # atno 10765 bound_to 10752
  140.7068  134.3876  157.5203 H   0  0  0  0  0  0  0  0  0  0  0  0  # atno 11005 bound_to 11000
  145.1628  140.9681  143.4367 LP  0  0  0  0  0  0  0  0  0  0  0  0  # atno 17320 bound_to 7965
  145.0101  139.3518  143.6124 LP  0  0  0  0  0  0  0  0  0  0  0  0  # atno 17321 bound_to 7965
  139.5108  144.6891  151.5808 LP  0  0  0  0  0  0  0  0  0  0  0  0  # atno 17342 bound_to 10162
  140.6182  143.9308  150.6505 LP  0  0  0  0  0  0  0  0  0  0  0  0  # atno 17343 bound_to 10162
  156.6213  130.4406  149.5821 LP  0  0  0  0  0  0  0  0  0  0  0  0  # atno 17370 bound_to 10713
  156.2353  130.6819  151.1504 LP  0  0  0  0  0  0  0  0  0  0  0  0  # atno 17371 bound_to 10713
  139.8882  134.8863  156.2487 LP  0  0  0  0  0  0  0  0  0  0  0  0  # atno 17394 bound_to 11000
  141.0117  133.7091  156.1123 LP  0  0  0  0  0  0  0  0  0  0  0  0  # atno 17395 bound_to 11000

$$$$
