#       Name:                AV-unprocessed.smi:241
#       Creating user name   scv26
#       Creation time:       Thu Mar 26 20:45:34 2020


#       File generated by GOLD software.
#

@<TRIPOS>MOLECULE
AV-unprocessed.smi:241
    66    69     1
SMALL
NO_CHARGES


@<TRIPOS>ATOM
      1 ****        -1.7139  -3.7769  -3.8201 C.3            1 S1                 0.0000
      2 ****        -1.8140  -2.4141  -3.4473 O.3            1 S1                 0.0000
      3 ****        -3.0777  -2.0913  -2.8920 C.3            1 S1                 0.0000
      4 ****        -3.1241  -0.6079  -2.4789 C.3            1 S1                 0.0000
      5 ****        -4.5541  -0.1155  -2.2426 C.3            1 S1                 0.0000
      6 ****        -4.3447   1.0974  -1.3366 C.3            1 S1                 0.0000
      7 ****        -5.4807   1.4194  -0.5477 O.3            1 S1                 0.0000
      8 ****        -6.5354   2.0115  -1.2887 C.3            1 S1                 0.0000
      9 ****        -3.1756   0.6599  -0.4504 C.3            1 S1                 0.0000
     10 ****        -2.4416  -0.3463  -1.2108 N.3            1 S1                 0.0000
     11 ****        -1.0886  -0.2700  -1.1333 C.ar           1 S1                 0.0000
     12 ****        -0.3422  -0.1522  -2.2630 N.ar           1 S1                 0.0000
     13 ****         0.9888  -0.0648  -2.1885 C.ar           1 S1                 0.0000
     14 ****         1.7650  -0.0664  -1.1035 N.ar           1 S1                 0.0000
     15 ****         1.0224  -0.1776   0.0349 C.ar           1 S1                 0.0000
     16 ****        -0.3948  -0.2887   0.1092 C.ar           1 S1                 0.0000
     17 ****        -0.7911  -0.4071   1.4362 N.2            1 S1                 0.0000
     18 ****         0.3275  -0.3673   2.1073 C.2            1 S1                 0.0000
     19 ****         1.4626  -0.1996   1.3464 N.pl3          1 S1                 0.0000
     20 ****         2.8152  -0.1545   1.8174 C.3            1 S1                 0.0000
     21 ****         3.1555   0.4044   3.2003 C.3            1 S1                 0.0000
     22 ****         4.4997   0.9325   2.6497 C.3            1 S1                 0.0000
     23 ****         4.9129   2.3440   3.1011 C.3            1 S1                 0.0000
     24 ****         5.0099   2.4344   4.5071 O.3            1 S1                 0.0000
     25 ****         5.7110  -0.0155   2.7696 C.3            1 S1                 0.0000
     26 ****         6.0379  -0.2978   4.1150 O.3            1 S1                 0.0000
     27 ****         3.8018   0.8807   1.2726 C.3            1 S1                 0.0000
     28 ****        -2.6881   0.0081  -3.2669 H              1 S1                 0.0000
     29 ****        -4.0302   1.9557  -1.9336 H              1 S1                 0.0000
     30 ****        -0.7268  -3.9699  -4.2397 H              1 S1                 0.0000
     31 ****        -2.4573  -4.0356  -4.5752 H              1 S1                 0.0000
     32 ****        -1.8467  -4.4319  -2.9579 H              1 S1                 0.0000
     33 ****        -3.8424  -2.2806  -3.6472 H              1 S1                 0.0000
     34 ****        -3.3025  -2.7323  -2.0375 H              1 S1                 0.0000
     35 ****        -5.0752   0.1264  -3.1693 H              1 S1                 0.0000
     36 ****        -5.1341  -0.8747  -1.7151 H              1 S1                 0.0000
     37 ****        -7.3574   2.2593  -0.6172 H              1 S1                 0.0000
     38 ****        -6.9208   1.3329  -2.0501 H              1 S1                 0.0000
     39 ****        -6.2092   2.9329  -1.7729 H              1 S1                 0.0000
     40 ****        -2.5576   1.5128  -0.1654 H              1 S1                 0.0000
     41 ****        -3.5421   0.1915   0.4638 H              1 S1                 0.0000
     42 ****         1.5048   0.0227  -3.1331 H              1 S1                 0.0000
     43 ****         0.3525  -0.4519   3.1840 H              1 S1                 0.0000
     44 ****         3.2097  -1.1654   1.7014 H              1 S1                 0.0000
     45 ****         2.4813   1.2070   3.5055 H              1 S1                 0.0000
     46 ****         3.2409  -0.3504   3.9827 H              1 S1                 0.0000
     47 ****         5.8651   2.6394   2.6601 H              1 S1                 0.0000
     48 ****         4.1825   3.0860   2.7776 H              1 S1                 0.0000
     49 ****         5.6117   1.7694   4.8066 H              1 S1                 0.0000
     50 ****         5.5156  -0.9668   2.2746 H              1 S1                 0.0000
     51 ****         6.5885   0.4052   2.2775 H              1 S1                 0.0000
     52 ****         6.7699  -0.8956   4.1269 H              1 S1                 0.0000
     53 ****         4.4249   0.5203   0.4535 H              1 S1                 0.0000
     54 ****         3.3088   1.8162   1.0016 H              1 S1                 0.0000
     55 ****        -1.6670  -1.8486  -4.2588 LP             1 S1                 0.0000
     56 ****        -1.1062  -2.2148  -2.7695 LP             1 S1                 0.0000
     57 ****        -5.1984   2.0590   0.1673 LP             1 S1                 0.0000
     58 ****        -5.8224   0.5789  -0.1271 LP             1 S1                 0.0000
     59 ****        -2.4847  -1.2370  -0.7581 LP             1 S1                 0.0000
     60 ****        -0.7922  -0.1308  -3.1557 LP             1 S1                 0.0000
     61 ****         2.7623   0.0047  -1.1225 LP             1 S1                 0.0000
     62 ****        -1.7199  -0.5012   1.7944 LP             1 S1                 0.0000
     63 ****         4.1105   2.2864   4.9183 LP             1 S1                 0.0000
     64 ****         5.3497   3.3388   4.7652 LP             1 S1                 0.0000
     65 ****         5.2532  -0.7164   4.5721 LP             1 S1                 0.0000
     66 ****         6.2859   0.5484   4.5866 LP             1 S1                 0.0000
@<TRIPOS>BOND
    1    1    2 1     
    2    1   30 1     
    3    1   31 1     
    4    1   32 1     
    5    2    3 1     
    6    3    4 1     
    7    3   33 1     
    8    3   34 1     
    9    4   28 1     
   10    4   10 1     
   11    4    5 1     
   12    5    6 1     
   13    5   35 1     
   14    5   36 1     
   15    6   29 1     
   16    6    7 1     
   17    6    9 1     
   18    7    8 1     
   19    8   37 1     
   20    8   38 1     
   21    8   39 1     
   22    9   10 1     
   23    9   40 1     
   24    9   41 1     
   25   10   11 1     
   26   11   16 ar    
   27   11   12 ar    
   28   12   13 ar    
   29   13   14 ar    
   30   13   42 1     
   31   14   15 ar    
   32   15   19 1     
   33   15   16 ar    
   34   16   17 1     
   35   17   18 2     
   36   18   19 1     
   37   18   43 1     
   38   19   20 1     
   39   20   27 1     
   40   20   21 1     
   41   20   44 1     
   42   21   22 1     
   43   21   45 1     
   44   21   46 1     
   45   22   23 1     
   46   22   25 1     
   47   22   27 1     
   48   23   24 1     
   49   23   47 1     
   50   23   48 1     
   51   24   49 1     
   52   25   26 1     
   53   25   50 1     
   54   25   51 1     
   55   26   52 1     
   56   27   53 1     
   57   27   54 1     
   58    2   55 1     
   59    2   56 1     
   60    7   57 1     
   61    7   58 1     
   62   10   59 1     
   63   12   60 1     
   64   14   61 1     
   65   17   62 1     
   66   24   63 1     
   67   24   64 1     
   68   26   65 1     
   69   26   66 1     
@<TRIPOS>SUBSTRUCTURE
      1 S1             1
@<TRIPOS>SET
LONE_PAIRS      STATIC     ATOMS    <user>   **** ""
12 55 56 57 58 59 60 61 62 63 64 65 66
DONOR_HYDROGENS      STATIC     ATOMS    <user>   **** ""
2 49 52
ATOM$BLUE        STATIC     ATOMS    COLORGROUP SYSTEM
12 55 56 57 58 59 60 61 62 63 64 65 66
ATOM$RED        STATIC     ATOMS    COLORGROUP SYSTEM
2 49 52
