AV-unprocessed.smi:512|AV-procd|sdf|2771|dock1
  -GOLD-   2262023233D 1   1.00000     0.00000
 Structure written by MMmdl.
 47 49  0  0  0  0  0  0  0  0  2 V2000
  147.3685  140.7229  153.3667 C   0  0  0  0  0  0  0  0  0  0  0  0
  147.7728  140.6355  154.8400 C   0  0  0  0  0  0  0  0  0  0  0  0
  147.6528  139.2902  155.2697 O   0  0  0  0  0  0  0  0  0  0  0  0
  147.8707  139.1382  156.6621 C   0  0  0  0  0  0  0  0  0  0  0  0
  148.2691  137.6798  156.9409 C   0  0  0  0  0  0  0  0  0  0  0  0
  149.3140  137.5724  157.9559 N   0  0  0  0  0  0  0  0  0  0  0  0
  149.2993  136.8889  159.1376 C   0  0  0  0  0  0  0  0  0  0  0  0
  148.1973  136.1567  159.6005 N   0  0  0  0  0  0  0  0  0  0  0  0
  146.8066  136.5255  159.3369 C   0  0  0  0  0  0  0  0  0  0  0  0
  145.9802  136.5434  160.6379 C   0  0  0  0  0  0  0  0  0  0  0  0
  145.9757  135.2069  161.2309 N   0  0  0  0  0  0  0  0  0  0  0  0
  145.2040  135.2202  162.4650 C   0  0  0  0  0  0  0  0  0  0  0  0
  147.3570  134.8243  161.5183 C   0  0  0  0  0  0  0  0  0  0  0  0
  148.1659  134.8246  160.2061 C   0  0  0  0  0  0  0  0  0  0  0  0
  150.4506  136.9415  159.8128 N   0  0  0  0  0  0  0  0  0  0  0  0
  151.2570  137.7333  159.0132 C   0  0  0  0  0  0  0  0  0  0  0  0
  150.6016  138.1191  157.8871 C   0  0  0  0  0  0  0  0  0  0  0  0
  151.2172  138.9459  156.8238 C   0  0  0  0  0  0  0  0  0  0  0  0
  150.5915  139.2483  155.8098 O   0  0  0  0  0  0  0  0  0  0  0  0
  152.5082  139.2968  157.1218 N   0  5  0  0  0  0  0  0  0  0  0  0
  153.2056  138.9341  158.2538 C   0  0  0  0  0  0  0  0  0  0  0  0
  154.3675  139.2954  158.4455 O   0  0  0  0  0  0  0  0  0  0  0  0
  152.6029  138.1500  159.2017 N   0  0  0  0  0  0  0  0  0  0  0  0
  153.3222  137.7418  160.4116 C   0  0  0  0  0  0  0  0  0  0  0  0
  147.4450  141.7473  153.0017 H   0  0  0  0  0  0  0  0  0  0  0  0
  146.3399  140.3914  153.2230 H   0  0  0  0  0  0  0  0  0  0  0  0
  148.0124  140.0979  152.7476 H   0  0  0  0  0  0  0  0  0  0  0  0
  148.8002  140.9810  154.9641 H   0  0  0  0  0  0  0  0  0  0  0  0
  147.1311  141.2813  155.4414 H   0  0  0  0  0  0  0  0  0  0  0  0
  148.6546  139.8204  156.9914 H   0  0  0  0  0  0  0  0  0  0  0  0
  146.9687  139.4084  157.2111 H   0  0  0  0  0  0  0  0  0  0  0  0
  147.4044  137.0928  157.2413 H   0  0  0  0  0  0  0  0  0  0  0  0
  148.6187  137.2037  156.0253 H   0  0  0  0  0  0  0  0  0  0  0  0
  146.7670  137.5144  158.8796 H   0  0  0  0  0  0  0  0  0  0  0  0
  146.3723  135.8337  158.6135 H   0  0  0  0  0  0  0  0  0  0  0  0
  146.3911  137.2730  161.3381 H   0  0  0  0  0  0  0  0  0  0  0  0
  144.9559  136.8467  160.4188 H   0  0  0  0  0  0  0  0  0  0  0  0
  145.1936  134.2287  162.9186 H   0  0  0  0  0  0  0  0  0  0  0  0
  144.1705  135.5060  162.2662 H   0  0  0  0  0  0  0  0  0  0  0  0
  145.6200  135.9230  163.1885 H   0  0  0  0  0  0  0  0  0  0  0  0
  147.8008  135.5063  162.2453 H   0  0  0  0  0  0  0  0  0  0  0  0
  147.3727  133.8271  161.9594 H   0  0  0  0  0  0  0  0  0  0  0  0
  147.7235  134.1230  159.4974 H   0  0  0  0  0  0  0  0  0  0  0  0
  149.1696  134.4540  160.3875 H   0  0  0  0  0  0  0  0  0  0  0  0
  154.2349  137.2039  160.1521 H   0  0  0  0  0  0  0  0  0  0  0  0
  152.7324  137.0855  161.0510 H   0  0  0  0  0  0  0  0  0  0  0  0
  153.5968  138.6155  161.0036 H   0  0  0  0  0  0  0  0  0  0  0  0
  1  2  1  0  0  0  0
  1 25  1  0  0  0  0
  1 26  1  0  0  0  0
  1 27  1  0  0  0  0
  2  3  1  0  0  0  0
  2 28  1  0  0  0  0
  2 29  1  0  0  0  0
  3  4  1  0  0  0  0
  4  5  1  0  0  0  0
  4 30  1  0  0  0  0
  4 31  1  0  0  0  0
  5  6  1  0  0  0  0
  5 32  1  0  0  0  0
  5 33  1  0  0  0  0
  6 17  1  0  0  0  0
  6  7  1  0  0  0  0
  7  8  1  0  0  0  0
  7 15  2  0  0  0  0
  8 14  1  0  0  0  0
  8  9  1  0  0  0  0
  9 10  1  0  0  0  0
  9 34  1  0  0  0  0
  9 35  1  0  0  0  0
 10 11  1  0  0  0  0
 10 36  1  0  0  0  0
 10 37  1  0  0  0  0
 11 12  1  0  0  0  0
 11 13  1  0  0  0  0
 12 38  1  0  0  0  0
 12 39  1  0  0  0  0
 12 40  1  0  0  0  0
 13 14  1  0  0  0  0
 13 41  1  0  0  0  0
 13 42  1  0  0  0  0
 14 43  1  0  0  0  0
 14 44  1  0  0  0  0
 15 16  1  0  0  0  0
 16 23  1  0  0  0  0
 16 17  2  0  0  0  0
 17 18  1  0  0  0  0
 18 19  2  0  0  0  0
 18 20  1  0  0  0  0
 20 21  1  0  0  0  0
 21 22  2  0  0  0  0
 21 23  1  0  0  0  0
 23 24  1  0  0  0  0
 24 45  1  0  0  0  0
 24 46  1  0  0  0  0
 24 47  1  0  0  0  0
M  CHG  1  20  -1
M  END
> <s_m_source_file>
AV-unprocessed.smi

> <i_m_source_file_index>
512

> <i_lp_mmshare_version>
43012

> <i_f3d_flags>
0

> <s_epik_input>
W0NIM11uMWMoPU8pW25IXWMoPU8pYyhjMTIpbihbQ0gyXVtDSDJdT1tDSDJdW0NIM10pYyhuMilOM1tDSDJdW0NIMl1OKFtDSDNdKVtDSDJdW0NIMl0z

> <s_epik_cmdline>
J2VwaWtfcHl0aG9uJywgJy1waCcsICc3LjAnLCAnLXRuJywgJzgnLCAnLW1hJywgJzIwMCcsICctbWV0YWxfYmluZGluZycsICctaW1hZScsICc8aW5maWxlLm1hZT4nLCAnLW9tYWUnLCAnPG91dGZpbGUubWFlPic=

> <r_epik_Ionization_Penalty>
7.67022

> <r_epik_Ionization_Penalty_Charging>
0.0776929

> <r_epik_Ionization_Penalty_Neutral>
7.59253

> <r_epik_State_Penalty>
7.66971

> <r_epik_Charging_Adjusted_Penalty>
7.7474

> <i_epik_Tot_Q>
-1

> <i_epik_Tot_abs_Q>
1

> <r_epik_Metal_State_Penalty>
3.61867

> <b_epik_Metal_Only>
1

> <s_lp_Force_Field>
OPLS_2005

> <r_lp_Energy>
53.7442

> <b_lp_Chiralities_Consistent>
1

> <s_lp_Variant>
AV-unprocessed.smi:512-4

> <Gold.Version>
5.8.1

> <Gold.Id.Protein>
6NUR|6NUR_protein|mol2

> <Gold.PLP.Fitness>
37.1069

> <Gold.PLP.PLP>
-29.6164

> <Gold.PLP.part.hbond>
-3.4887

> <Gold.PLP.part.metal>
0.0000

> <Gold.PLP.part.buried>
-4.6931

> <Gold.PLP.part.nonpolar>
-21.9770

> <Gold.PLP.part.repulsive>
0.0091

> <Gold.PLP.ligand.clash>
0.0000

> <Gold.PLP.ligand.torsion>
0.9594

> <Gold.PLP.Chemscore.Hbond>
3.0936

> <Gold.PLP.Chemscore.CHOScore>
0.0000

> <Gold.PLP.Chemscore.Metal>
0.0000

> <Gold.Chemscore.Hbonds>
donor molecule, donor type, donor heavy atom, donor atom, acceptor molecule, acceptor atom, score
      P1  H  6896  6908       L1    15  1.00
      P1  H  7997  8009       L1    20  0.33

> <Gold.PLP.Chemscore.Internal.Correction>
0.1286

> <Gold.Rescore>
     Score         DG    S(hbond)    S(metal)    S(lipo)     H(rot)  DE(clash)    DE(int)     intcor
      9.72     -11.53       1.53        0.00      43.25       1.61       0.02       1.79       ----

> <Gold.Chemscore.Fitness>
9.7208

> <Gold.Chemscore.DG>
-11.5314

> <Gold.Chemscore.ZeroCoef>
-5.4800

> <Gold.Chemscore.Hbond>
1.5278

> <Gold.Chemscore.Metal>
0.0000

> <Gold.Chemscore.Lipo>
43.2548

> <Gold.Chemscore.Internal_Hbond>
0.0000

> <Gold.Chemscore.DEClash>
0.0207

> <Gold.Chemscore.DEInternal>
1.7900

> <Gold.Chemscore.Rot>
1.6064

> <Gold.Chemscore.Internal.Correction>
   9.000000E+99

> <Gold.Chemscore.Hbonds>
donor molecule, donor type, donor heavy atom, donor atom, acceptor molecule, acceptor atom, score
      P1  H  6896  6908       L1    15  0.45
      P1  H  7997  8008       L1    22  0.03

> <Gold.Chemscore.Hbond.Weighted>
-5.1029

> <Gold.Chemscore.Metal.Weighted>
-0.0000

> <Gold.Chemscore.Lipo.Weighted>
-5.0608

> <Gold.Chemscore.Internal_Hbond.Weighted>
0.0000

> <Gold.Chemscore.DEClash.Weighted>
0.0207

> <Gold.Chemscore.DEInternal.Weighted>
1.7900

> <Gold.Chemscore.Rot.Weighted>
4.1123

> <Gold.Chemscore.Internal.Correction.Weighted>
   9.000000E+99

> <Gold.Protein.RotatedTorsions>
[ 6907 6896 6895 6894 ] final -142.34 input  -60.11 | X-H torsion
[ 7974 7965 7964 7962 ] final  -19.12 input  175.53 | X-H torsion
[ 8008 7997 7996 7995 ] final -171.10 input   59.86 | X-H torsion
[ 10167 10162 10161 10158 ] final    5.37 input  -65.29 | X-H torsion
[ 10718 10713 10712 10709 ] final  -81.97 input   66.30 | X-H torsion
[ 10763 10752 10751 10750 ] final -117.26 input  -60.55 | X-H torsion
[ 11005 11000 10999 10996 ] final  165.29 input  -57.11 | X-H torsion

> <Gold.Protein.ActiveResidues>
 VAL166  LYS551  ARG553  GLY616  TRP617  ASP618  TYR619  PRO620  LYS621  CYS622 
 ASP623  PHE694  ASN695  SER759  ASP760  ASP761  ALA762  ILE779  LEU786  VAL792 
 PHE793  MET794  SER795  GLU796  ALA797  LYS798  CYS799  TRP800  GLU811  SER814 

> <Gold.Protein.RotatedAtoms>
  151.0858  133.5354  159.2617 H   0  0  0  0  0  0  0  0  0  0  0  0  # atno 6907 bound_to 6896
  151.2240  135.0529  159.8971 H   0  0  0  0  0  0  0  0  0  0  0  0  # atno 6908 bound_to 6896
  152.5429  134.0657  159.8225 H   0  0  0  0  0  0  0  0  0  0  0  0  # atno 6909 bound_to 6896
  146.1857  140.4017  142.8477 H   0  0  0  0  0  0  0  0  0  0  0  0  # atno 7974 bound_to 7965
  155.9271  140.1084  157.1161 H   0  0  0  0  0  0  0  0  0  0  0  0  # atno 8008 bound_to 7997
  154.4064  140.1245  156.4820 H   0  0  0  0  0  0  0  0  0  0  0  0  # atno 8009 bound_to 7997
  155.7125  140.3471  155.4982 H   0  0  0  0  0  0  0  0  0  0  0  0  # atno 8010 bound_to 7997
  140.6485  143.7602  150.7537 H   0  0  0  0  0  0  0  0  0  0  0  0  # atno 10167 bound_to 10162
  156.0041  130.4620  150.4034 H   0  0  0  0  0  0  0  0  0  0  0  0  # atno 10718 bound_to 10713
  154.8549  135.4316  154.1952 H   0  0  0  0  0  0  0  0  0  0  0  0  # atno 10763 bound_to 10752
  153.3011  135.6969  153.7208 H   0  0  0  0  0  0  0  0  0  0  0  0  # atno 10764 bound_to 10752
  153.6337  135.3480  155.3024 H   0  0  0  0  0  0  0  0  0  0  0  0  # atno 10765 bound_to 10752
  140.2546  134.7950  157.3534 H   0  0  0  0  0  0  0  0  0  0  0  0  # atno 11005 bound_to 11000
  144.8394  140.6833  143.6239 LP  0  0  0  0  0  0  0  0  0  0  0  0  # atno 17320 bound_to 7965
  145.3944  139.1610  143.4211 LP  0  0  0  0  0  0  0  0  0  0  0  0  # atno 17321 bound_to 7965
  140.1248  143.4579  152.2291 LP  0  0  0  0  0  0  0  0  0  0  0  0  # atno 17342 bound_to 10162
  139.5698  144.7456  151.3922 LP  0  0  0  0  0  0  0  0  0  0  0  0  # atno 17343 bound_to 10162
  157.2101  131.0458  151.2604 LP  0  0  0  0  0  0  0  0  0  0  0  0  # atno 17370 bound_to 10713
  157.3896  130.7275  149.6688 LP  0  0  0  0  0  0  0  0  0  0  0  0  # atno 17371 bound_to 10713
  140.1524  134.4833  155.7952 LP  0  0  0  0  0  0  0  0  0  0  0  0  # atno 17394 bound_to 11000
  141.2197  133.6868  156.7401 LP  0  0  0  0  0  0  0  0  0  0  0  0  # atno 17395 bound_to 11000

$$$$
