AV-unprocessed.smi:109|AV-procd|sdf|1039|dock4
  -GOLD-   2262018 63D 1   1.00000     0.00000
 Structure written by MMmdl.
 58 61  0  0  0  0  0  0  0  0  1 V2000
  155.1075  138.9802  158.5688 O   0  0  0  0  0  0  0  0  0  0  0  0
  154.6865  139.4471  159.8323 C   0  0  0  0  0  0  0  0  0  0  0  0
  154.3874  140.9546  159.7597 C   0  0  0  0  0  0  0  0  0  0  0  0
  152.9139  141.2929  159.4243 C   0  0  2  0  0  0  0  0  0  0  0  0
  152.5089  140.5648  158.2200 N   0  0  0  0  0  0  0  0  0  0  0  0
  151.4452  139.7305  158.2024 C   0  0  0  0  0  0  0  0  0  0  0  0
  151.1682  138.9070  159.2465 N   0  0  0  0  0  0  0  0  0  0  0  0
  150.1153  138.0859  159.1906 C   0  0  0  0  0  0  0  0  0  0  0  0
  149.2264  137.9358  158.2064 N   0  0  0  0  0  0  0  0  0  0  0  0
  149.4944  138.7676  157.1583 C   0  0  0  0  0  0  0  0  0  0  0  0
  150.5817  139.6810  157.0780 C   0  0  0  0  0  0  0  0  0  0  0  0
  150.5526  140.3399  155.8566 N   0  0  0  0  0  0  0  0  0  0  0  0
  149.5112  139.8356  155.2513 C   0  0  0  0  0  0  0  0  0  0  0  0
  148.7949  138.9056  155.9770 N   0  0  0  0  0  0  0  0  0  0  0  0
  147.5819  138.1240  155.5691 C   0  0  2  0  0  0  0  0  0  0  0  0
  147.1779  138.5663  154.3042 O   0  0  0  0  0  0  0  0  0  0  0  0
  146.0117  139.3835  154.3885 C   0  0  2  0  0  0  0  0  0  0  0  0
  146.4042  140.8681  154.5679 C   0  0  0  0  0  0  0  0  0  0  0  0
  145.2426  141.6486  154.7498 O   0  0  0  0  0  0  0  0  0  0  0  0
  145.2771  138.7501  155.5772 C   0  0  2  0  0  0  0  0  0  0  0  0
  144.3465  139.6254  156.1842 O   0  0  0  0  0  0  0  0  0  0  0  0
  146.4013  138.3656  156.5307 C   0  0  1  0  0  0  0  0  0  0  0  0
  146.0455  137.1900  157.2313 O   0  0  0  0  0  0  0  0  0  0  0  0
  152.6537  142.8129  159.2170 C   0  0  0  0  0  0  0  0  0  0  0  0
  152.5852  143.6095  160.5441 C   0  0  0  0  0  0  0  0  0  0  0  0
  152.2885  145.1014  160.3186 C   0  0  0  0  0  0  0  0  0  0  0  0
  150.9944  145.3028  159.5211 C   0  0  0  0  0  0  0  0  0  0  0  0
  151.0570  144.5426  158.1913 C   0  0  0  0  0  0  0  0  0  0  0  0
  151.3460  143.0509  158.4181 C   0  0  0  0  0  0  0  0  0  0  0  0
  147.9287  137.0905  155.5256 H   0  0  0  0  0  0  0  0  0  0  0  0
  145.4129  139.2749  153.4832 H   0  0  0  0  0  0  0  0  0  0  0  0
  144.7549  137.8576  155.2277 H   0  0  0  0  0  0  0  0  0  0  0  0
  146.6306  139.1815  157.2184 H   0  0  0  0  0  0  0  0  0  0  0  0
  156.0332  138.7954  158.6101 H   0  0  0  0  0  0  0  0  0  0  0  0
  153.8044  138.8818  160.1329 H   0  0  0  0  0  0  0  0  0  0  0  0
  155.4702  139.2458  160.5632 H   0  0  0  0  0  0  0  0  0  0  0  0
  154.6507  141.3727  160.7296 H   0  0  0  0  0  0  0  0  0  0  0  0
  155.0481  141.4265  159.0310 H   0  0  0  0  0  0  0  0  0  0  0  0
  152.3067  140.9916  160.2775 H   0  0  0  0  0  0  0  0  0  0  0  0
  153.0488  140.7680  157.3910 H   0  0  0  0  0  0  0  0  0  0  0  0
  149.9630  137.4607  160.0580 H   0  0  0  0  0  0  0  0  0  0  0  0
  149.2357  140.1400  154.2523 H   0  0  0  0  0  0  0  0  0  0  0  0
  147.0050  141.0009  155.4674 H   0  0  0  0  0  0  0  0  0  0  0  0
  146.9975  141.2501  153.7389 H   0  0  0  0  0  0  0  0  0  0  0  0
  144.4881  141.0830  154.6889 H   0  0  0  0  0  0  0  0  0  0  0  0
  143.8301  140.0331  155.5057 H   0  0  0  0  0  0  0  0  0  0  0  0
  146.7499  136.5657  157.1496 H   0  0  0  0  0  0  0  0  0  0  0  0
  153.4815  143.2185  158.6329 H   0  0  0  0  0  0  0  0  0  0  0  0
  151.8207  143.1796  161.1926 H   0  0  0  0  0  0  0  0  0  0  0  0
  153.5272  143.5440  161.0858 H   0  0  0  0  0  0  0  0  0  0  0  0
  152.2155  145.6138  161.2783 H   0  0  0  0  0  0  0  0  0  0  0  0
  153.1212  145.5622  159.7858 H   0  0  0  0  0  0  0  0  0  0  0  0
  150.1429  144.9524  160.1061 H   0  0  0  0  0  0  0  0  0  0  0  0
  150.8301  146.3650  159.3371 H   0  0  0  0  0  0  0  0  0  0  0  0
  150.1164  144.6601  157.6522 H   0  0  0  0  0  0  0  0  0  0  0  0
  151.8332  144.9737  157.5575 H   0  0  0  0  0  0  0  0  0  0  0  0
  151.3914  142.5620  157.4447 H   0  0  0  0  0  0  0  0  0  0  0  0
  150.5071  142.5961  158.9469 H   0  0  0  0  0  0  0  0  0  0  0  0
  1  2  1  0  0  0  0
  1 34  1  0  0  0  0
  2  3  1  0  0  0  0
  2 35  1  0  0  0  0
  2 36  1  0  0  0  0
  3  4  1  0  0  0  0
  3 37  1  0  0  0  0
  3 38  1  0  0  0  0
  4  5  1  0  0  0  0
  4 24  1  0  0  0  0
  4 39  1  0  0  0  0
  5  6  1  0  0  0  0
  5 40  1  0  0  0  0
  6 11  1  0  0  0  0
  6  7  2  0  0  0  0
  7  8  1  0  0  0  0
  8  9  2  0  0  0  0
  8 41  1  0  0  0  0
  9 10  1  0  0  0  0
 10 14  1  0  0  0  0
 10 11  2  0  0  0  0
 11 12  1  0  0  0  0
 12 13  2  0  0  0  0
 13 14  1  0  0  0  0
 13 42  1  0  0  0  0
 14 15  1  0  0  0  0
 15 30  1  0  0  0  0
 15 22  1  0  0  0  0
 15 16  1  0  0  0  0
 16 17  1  0  0  0  0
 17 31  1  0  0  0  0
 17 18  1  0  0  0  0
 17 20  1  0  0  0  0
 18 19  1  0  0  0  0
 18 43  1  0  0  0  0
 18 44  1  0  0  0  0
 19 45  1  0  0  0  0
 20 32  1  0  0  0  0
 20 21  1  0  0  0  0
 20 22  1  0  0  0  0
 21 46  1  0  0  0  0
 22 33  1  0  0  0  0
 22 23  1  0  0  0  0
 23 47  1  0  0  0  0
 24 29  1  0  0  0  0
 24 25  1  0  0  0  0
 24 48  1  0  0  0  0
 25 26  1  0  0  0  0
 25 49  1  0  0  0  0
 25 50  1  0  0  0  0
 26 27  1  0  0  0  0
 26 51  1  0  0  0  0
 26 52  1  0  0  0  0
 27 28  1  0  0  0  0
 27 53  1  0  0  0  0
 27 54  1  0  0  0  0
 28 29  1  0  0  0  0
 28 55  1  0  0  0  0
 28 56  1  0  0  0  0
 29 57  1  0  0  0  0
 29 58  1  0  0  0  0
M  END
> <s_m_source_file>
AV-unprocessed.smi

> <i_m_source_file_index>
109

> <i_lp_mmshare_version>
43012

> <i_f3d_flags>
0

> <s_epik_input>
W0NIMl0xW0NIMl1bQ0gyXVtDSDJdW0NIMl1bQ0hdMVtDQEhdKFtDSDJdW0NIMl1bT0hdKVtOSF1jKG5bY0hdbjIpYyhjMjMpbltjSF1uM1tDQEBIXTRPW0NASF0oW0NIMl1bT0hdKVtDQEBIXShbT0hdKVtDQEhdNFtPSF0=

> <s_epik_cmdline>
J2VwaWtfcHl0aG9uJywgJy1waCcsICc3LjAnLCAnLXRuJywgJzgnLCAnLW1hJywgJzIwMCcsICctbWV0YWxfYmluZGluZycsICctaW1hZScsICc8aW5maWxlLm1hZT4nLCAnLW9tYWUnLCAnPG91dGZpbGUubWFlPic=

> <r_lp_tautomer_probability>
1

> <r_epik_Ionization_Penalty>
0.000793976

> <r_epik_Ionization_Penalty_Charging>
0

> <r_epik_Ionization_Penalty_Neutral>
0.000793976

> <r_epik_State_Penalty>
-0

> <r_epik_Charging_Adjusted_Penalty>
0

> <i_epik_Tot_Q>
0

> <i_epik_Tot_abs_Q>
0

> <r_epik_Metal_State_Penalty>
-0

> <b_epik_Metal_Only>
0

> <s_epik_Chemistry_Notes>
This compound contains an acetal/aminal-like group ( X-CH(R)-Y where X, Y are N, S, or O) that may be acid/base labile, releasing an aldehyde.

> <s_lp_Force_Field>
OPLS_2005

> <r_lp_Energy>
51.6151

> <b_lp_Chiralities_Consistent>
1

> <s_lp_Variant>
AV-unprocessed.smi:109-9

> <Gold.Version>
5.8.1

> <Gold.Id.Protein>
6NUR|6NUR_protein|mol2

> <Gold.PLP.Fitness>
54.5017

> <Gold.PLP.PLP>
-44.6899

> <Gold.PLP.part.hbond>
-4.0000

> <Gold.PLP.part.metal>
0.0000

> <Gold.PLP.part.buried>
-6.4389

> <Gold.PLP.part.nonpolar>
-36.7129

> <Gold.PLP.part.repulsive>
1.6176

> <Gold.PLP.ligand.clash>
0.0000

> <Gold.PLP.ligand.torsion>
0.9605

> <Gold.PLP.Chemscore.Hbond>
2.9750

> <Gold.PLP.Chemscore.CHOScore>
0.8440

> <Gold.PLP.Chemscore.Metal>
0.0000

> <Gold.Chemscore.Hbonds>
donor molecule, donor type, donor heavy atom, donor atom, acceptor molecule, acceptor atom, score
      L1  H    19    45       P1 10175  0.02
      P1  H  7997  8009       L1     1  0.55

> <Gold.PLP.Chemscore.Internal.Correction>
0.2756

> <Gold.Rescore>
     Score         DG    S(hbond)    S(metal)    S(lipo)     H(rot)  DE(clash)    DE(int)     intcor
     11.41     -13.12       2.57        0.00     111.62       5.47       0.82       0.89       ----

> <Gold.Chemscore.Fitness>
11.4126

> <Gold.Chemscore.DG>
-13.1179

> <Gold.Chemscore.ZeroCoef>
-5.4800

> <Gold.Chemscore.Hbond>
2.5666

> <Gold.Chemscore.Metal>
0.0000

> <Gold.Chemscore.Lipo>
111.6160

> <Gold.Chemscore.Internal_Hbond>
0.0000

> <Gold.Chemscore.DEClash>
0.8196

> <Gold.Chemscore.DEInternal>
0.8857

> <Gold.Chemscore.Rot>
5.4662

> <Gold.Chemscore.Internal.Correction>
   9.000000E+99

> <Gold.Chemscore.Hbonds>
donor molecule, donor type, donor heavy atom, donor atom, acceptor molecule, acceptor atom, score
      L1  H    19    45       P1 10175  0.03
      P1  H  7997  8009       L1     1  0.03

> <Gold.Chemscore.Hbond.Weighted>
-8.5723

> <Gold.Chemscore.Metal.Weighted>
-0.0000

> <Gold.Chemscore.Lipo.Weighted>
-13.0591

> <Gold.Chemscore.Internal_Hbond.Weighted>
0.0000

> <Gold.Chemscore.DEClash.Weighted>
0.8196

> <Gold.Chemscore.DEInternal.Weighted>
0.8857

> <Gold.Chemscore.Rot.Weighted>
13.9935

> <Gold.Chemscore.Internal.Correction.Weighted>
   9.000000E+99

> <Gold.Protein.RotatedTorsions>
[ 6907 6896 6895 6894 ] final -112.49 input  -60.11 | X-H torsion
[ 7974 7965 7964 7962 ] final  -51.50 input  175.53 | X-H torsion
[ 8008 7997 7996 7995 ] final  106.64 input   59.86 | X-H torsion
[ 10167 10162 10161 10158 ] final   89.41 input  -65.29 | X-H torsion
[ 10718 10713 10712 10709 ] final  174.26 input   66.30 | X-H torsion
[ 10763 10752 10751 10750 ] final   28.52 input  -60.55 | X-H torsion
[ 11005 11000 10999 10996 ] final  -13.96 input  -57.11 | X-H torsion

> <Gold.Protein.ActiveResidues>
 VAL166  LYS551  ARG553  GLY616  TRP617  ASP618  TYR619  PRO620  LYS621  CYS622 
 ASP623  PHE694  ASN695  SER759  ASP760  ASP761  ALA762  ILE779  LEU786  VAL792 
 PHE793  MET794  SER795  GLU796  ALA797  LYS798  CYS799  TRP800  GLU811  SER814 

> <Gold.Protein.RotatedAtoms>
  150.7762  133.9082  159.3361 H   0  0  0  0  0  0  0  0  0  0  0  0  # atno 6907 bound_to 6896
  151.6956  135.0937  160.0251 H   0  0  0  0  0  0  0  0  0  0  0  0  # atno 6908 bound_to 6896
  152.3798  133.6493  159.6188 H   0  0  0  0  0  0  0  0  0  0  0  0  # atno 6909 bound_to 6896
  145.9183  140.7856  142.9660 H   0  0  0  0  0  0  0  0  0  0  0  0  # atno 7974 bound_to 7965
  156.1759  140.3109  155.9059 H   0  0  0  0  0  0  0  0  0  0  0  0  # atno 8008 bound_to 7997
  155.3488  140.0470  157.3063 H   0  0  0  0  0  0  0  0  0  0  0  0  # atno 8009 bound_to 7997
  154.5290  140.2224  155.8848 H   0  0  0  0  0  0  0  0  0  0  0  0  # atno 8010 bound_to 7997
  139.8575  144.6561  150.9097 H   0  0  0  0  0  0  0  0  0  0  0  0  # atno 10167 bound_to 10162
  156.9521  131.0034  151.2946 H   0  0  0  0  0  0  0  0  0  0  0  0  # atno 10718 bound_to 10713
  153.0487  135.6511  154.0750 H   0  0  0  0  0  0  0  0  0  0  0  0  # atno 10763 bound_to 10752
  154.0443  135.2901  155.3352 H   0  0  0  0  0  0  0  0  0  0  0  0  # atno 10764 bound_to 10752
  154.6761  135.5338  153.8267 H   0  0  0  0  0  0  0  0  0  0  0  0  # atno 10765 bound_to 10752
  140.7815  133.8359  155.9296 H   0  0  0  0  0  0  0  0  0  0  0  0  # atno 11005 bound_to 11000
  144.6750  140.1935  143.7394 LP  0  0  0  0  0  0  0  0  0  0  0  0  # atno 17320 bound_to 7965
  145.8583  139.2210  143.1732 LP  0  0  0  0  0  0  0  0  0  0  0  0  # atno 17321 bound_to 7965
  140.7779  143.3773  151.1540 LP  0  0  0  0  0  0  0  0  0  0  0  0  # atno 17342 bound_to 10162
  139.7405  143.8931  152.3048 LP  0  0  0  0  0  0  0  0  0  0  0  0  # atno 17343 bound_to 10162
  157.5714  130.8313  149.8397 LP  0  0  0  0  0  0  0  0  0  0  0  0  # atno 17370 bound_to 10713
  156.0358  130.3752  150.1564 LP  0  0  0  0  0  0  0  0  0  0  0  0  # atno 17371 bound_to 10713
  140.9478  134.1818  157.4750 LP  0  0  0  0  0  0  0  0  0  0  0  0  # atno 17394 bound_to 11000
  139.8742  134.9897  156.5470 LP  0  0  0  0  0  0  0  0  0  0  0  0  # atno 17395 bound_to 11000

$$$$
