#       Name:                AV-unprocessed.smi:1652
#       Creating user name   scv26
#       Creation time:       Fri Mar 27 07:34:17 2020


#       File generated by GOLD software.
#

@<TRIPOS>MOLECULE
AV-unprocessed.smi:1652
    43    45     1
SMALL
NO_CHARGES


@<TRIPOS>ATOM
      1 ****        -0.3575  -2.4285   0.4436 O.2            1 S1                 0.0000
      2 ****        -1.0624  -1.4184   0.4570 C.2            1 S1                 0.0000
      3 ****        -2.5313  -1.4537   0.5249 C.2            1 S1                 0.0000
      4 ****        -3.2137  -2.8185   0.5619 C.3            1 S1                 0.0000
      5 ****        -4.5426  -2.7054   0.5871 F              1 S1                 0.0000
      6 ****        -2.8863  -3.5375  -0.5126 F              1 S1                 0.0000
      7 ****        -2.8410  -3.4976   1.6473 F              1 S1                 0.0000
      8 ****        -3.2382  -0.2973   0.5436 C.2            1 S1                 0.0000
      9 ****        -2.5536   0.9795   0.5034 C.2            1 S1                 0.0000
     10 ****        -3.2731   2.2975   0.5388 C.3            1 S1                 0.0000
     11 ****        -3.1892   3.2148   1.7362 C.3            1 S1                 0.0000
     12 ****        -4.4926   2.5267   1.4024 C.3            1 S1                 0.0000
     13 ****        -1.2651   1.0074   0.4357 N.2            1 S1                 0.0000
     14 ****        -0.5306  -0.1613   0.4061 N.am           1 S1                 0.0000
     15 ****         0.9203   0.0514   0.3232 C.3            1 S1                 0.0000
     16 ****         1.4714  -0.1934  -1.0988 C.3            1 S1                 0.0000
     17 ****         1.1099   0.8995  -1.9210 O.3            1 S1                 0.0000
     18 ****         2.9793  -0.3960  -1.0703 C.ar           1 S1                 0.0000
     19 ****         3.8555   0.7044  -0.9364 C.ar           1 S1                 0.0000
     20 ****         5.2494   0.5028  -0.9048 C.ar           1 S1                 0.0000
     21 ****         5.7756  -0.7995  -1.0024 C.ar           1 S1                 0.0000
     22 ****         7.1154  -0.9934  -0.9724 F              1 S1                 0.0000
     23 ****         4.9071  -1.9005  -1.1295 C.ar           1 S1                 0.0000
     24 ****         3.5134  -1.6994  -1.1617 C.ar           1 S1                 0.0000
     25 ****        -4.3170  -0.3026   0.5881 H              1 S1                 0.0000
     26 ****        -3.2713   2.7639  -0.4447 H              1 S1                 0.0000
     27 ****        -2.6474   2.8624   2.6123 H              1 S1                 0.0000
     28 ****        -3.1216   4.2839   1.5455 H              1 S1                 0.0000
     29 ****        -5.2919   3.1385   0.9895 H              1 S1                 0.0000
     30 ****        -4.8149   1.7262   2.0658 H              1 S1                 0.0000
     31 ****         1.1951   1.0494   0.6712 H              1 S1                 0.0000
     32 ****         1.4040  -0.6326   1.0235 H              1 S1                 0.0000
     33 ****         1.0199  -1.0873  -1.5306 H              1 S1                 0.0000
     34 ****         1.3816   0.7100  -2.8061 H              1 S1                 0.0000
     35 ****         3.4619   1.7072  -0.8559 H              1 S1                 0.0000
     36 ****         5.9147   1.3477  -0.8043 H              1 S1                 0.0000
     37 ****         5.3099  -2.9001  -1.2015 H              1 S1                 0.0000
     38 ****         2.8555  -2.5510  -1.2559 H              1 S1                 0.0000
     39 ****         0.6377  -2.3431   0.3942 LP             1 S1                 0.0000
     40 ****        -0.7803  -3.3338   0.4822 LP             1 S1                 0.0000
     41 ****        -0.7920   1.8879   0.4043 LP             1 S1                 0.0000
     42 ****         1.5649   1.7296  -1.5985 LP             1 S1                 0.0000
     43 ****         0.1189   1.0301  -1.8926 LP             1 S1                 0.0000
@<TRIPOS>BOND
    1    1    2 2     
    2    2   14 am    
    3    2    3 1     
    4    3    4 1     
    5    3    8 2     
    6    4    5 1     
    7    4    6 1     
    8    4    7 1     
    9    8    9 1     
   10    8   25 1     
   11    9   10 1     
   12    9   13 2     
   13   10   12 1     
   14   10   11 1     
   15   10   26 1     
   16   11   12 1     
   17   11   27 1     
   18   11   28 1     
   19   12   29 1     
   20   12   30 1     
   21   13   14 1     
   22   14   15 1     
   23   15   16 1     
   24   15   31 1     
   25   15   32 1     
   26   16   17 1     
   27   16   18 1     
   28   16   33 1     
   29   17   34 1     
   30   18   24 ar    
   31   18   19 ar    
   32   19   20 ar    
   33   19   35 1     
   34   20   21 ar    
   35   20   36 1     
   36   21   22 1     
   37   21   23 ar    
   38   23   24 ar    
   39   23   37 1     
   40   24   38 1     
   41    1   39 1     
   42    1   40 1     
   43   13   41 1     
   44   17   42 1     
   45   17   43 1     
@<TRIPOS>SUBSTRUCTURE
      1 S1             1
@<TRIPOS>SET
LONE_PAIRS      STATIC     ATOMS    <user>   **** ""
5 39 40 41 42 43
DONOR_HYDROGENS      STATIC     ATOMS    <user>   **** ""
1 34
ATOM$BLUE        STATIC     ATOMS    COLORGROUP SYSTEM
5 39 40 41 42 43
ATOM$RED        STATIC     ATOMS    COLORGROUP SYSTEM
1 34
