AV-unprocessed.smi:1697|AV-procd|sdf|6805|dock6
  -GOLD-   22720 7573D 1   1.00000     0.00000
 Structure written by MMmdl.
 54 56  0  0  0  0  0  0  0  0  2 V2000
  144.2129  145.9708  156.7525 C   0  0  0  0  0  0  0  0  0  0  0  0
  144.6856  144.6714  157.4188 C   0  0  0  0  0  0  0  0  0  0  0  0
  145.2862  143.7836  156.4844 O   0  0  0  0  0  0  0  0  0  0  0  0
  144.4588  143.3970  155.3916 C   0  0  2  0  0  0  0  0  0  0  0  0
  144.1933  141.8869  155.4857 C   0  0  0  0  0  0  0  0  0  0  0  0
  145.4753  141.0668  155.2584 C   0  0  0  0  0  0  0  0  0  0  0  0
  146.1123  141.4103  153.9609 N   0  3  2  0  0  0  0  0  0  0  0  0
  147.2693  140.5311  153.6530 C   0  0  0  0  0  0  0  0  0  0  0  0
  148.5242  140.8791  154.4849 C   0  0  2  0  0  0  0  0  0  0  0  0
  149.6098  141.0760  153.5997 O   0  0  0  0  0  0  0  0  0  0  0  0
  148.8997  139.7903  155.5147 C   0  0  0  0  0  0  0  0  0  0  0  0
  150.1636  140.0367  156.1901 N   0  0  0  0  0  0  0  0  0  0  0  0
  151.3040  139.3309  156.0622 C   0  0  0  0  0  0  0  0  0  0  0  0
  152.3477  139.7221  156.7869 N   0  0  0  0  0  0  0  0  0  0  0  0
  151.8273  140.8148  157.4583 C   0  0  0  0  0  0  0  0  0  0  0  0
  152.4245  141.6823  158.3985 C   0  0  0  0  0  0  0  0  0  0  0  0
  151.6920  142.7468  158.9700 C   0  0  0  0  0  0  0  0  0  0  0  0
  152.3722  143.6507  159.9830 C   0  0  0  0  0  0  0  0  0  0  0  0
  150.3409  142.9608  158.5960 C   0  0  0  0  0  0  0  0  0  0  0  0
  149.5349  144.1007  159.1935 C   0  0  0  0  0  0  0  0  0  0  0  0
  149.7291  142.1040  157.6575 C   0  0  0  0  0  0  0  0  0  0  0  0
  150.4661  141.0432  157.1017 C   0  0  0  0  0  0  0  0  0  0  0  0
  146.4356  142.8596  153.8820 C   0  0  0  0  0  0  0  0  0  0  0  0
  145.1746  143.7206  154.0702 C   0  0  0  0  0  0  0  0  0  0  0  0
  143.8191  146.6638  157.4962 H   0  0  0  0  0  0  0  0  0  0  0  0
  143.4222  145.7879  156.0252 H   0  0  0  0  0  0  0  0  0  0  0  0
  145.0353  146.4680  156.2377 H   0  0  0  0  0  0  0  0  0  0  0  0
  145.4353  144.9131  158.1724 H   0  0  0  0  0  0  0  0  0  0  0  0
  143.8670  144.1791  157.9459 H   0  0  0  0  0  0  0  0  0  0  0  0
  143.5009  143.9196  155.4185 H   0  0  0  0  0  0  0  0  0  0  0  0
  143.7607  141.6438  156.4569 H   0  0  0  0  0  0  0  0  0  0  0  0
  143.4492  141.6040  154.7399 H   0  0  0  0  0  0  0  0  0  0  0  0
  146.1847  141.2385  156.0697 H   0  0  0  0  0  0  0  0  0  0  0  0
  145.2242  140.0056  155.2776 H   0  0  0  0  0  0  0  0  0  0  0  0
  146.9806  139.4911  153.8117 H   0  0  0  0  0  0  0  0  0  0  0  0
  147.5166  140.6199  152.5941 H   0  0  0  0  0  0  0  0  0  0  0  0
  148.3728  141.8090  155.0314 H   0  0  0  0  0  0  0  0  0  0  0  0
  149.3778  140.7222  152.7541 H   0  0  0  0  0  0  0  0  0  0  0  0
  148.1174  139.6973  156.2695 H   0  0  0  0  0  0  0  0  0  0  0  0
  148.9599  138.8200  155.0205 H   0  0  0  0  0  0  0  0  0  0  0  0
  151.3690  138.4755  155.4053 H   0  0  0  0  0  0  0  0  0  0  0  0
  153.4549  141.5211  158.6802 H   0  0  0  0  0  0  0  0  0  0  0  0
  152.4323  144.6707  159.6032 H   0  0  0  0  0  0  0  0  0  0  0  0
  153.3860  143.3135  160.2001 H   0  0  0  0  0  0  0  0  0  0  0  0
  151.8167  143.6615  160.9211 H   0  0  0  0  0  0  0  0  0  0  0  0
  148.5473  144.1715  158.7372 H   0  0  0  0  0  0  0  0  0  0  0  0
  150.0422  145.0530  159.0379 H   0  0  0  0  0  0  0  0  0  0  0  0
  149.4006  143.9507  160.2648 H   0  0  0  0  0  0  0  0  0  0  0  0
  148.7006  142.2565  157.3662 H   0  0  0  0  0  0  0  0  0  0  0  0
  147.1780  143.1097  154.6414 H   0  0  0  0  0  0  0  0  0  0  0  0
  146.8828  143.1001  152.9184 H   0  0  0  0  0  0  0  0  0  0  0  0
  144.4921  143.5445  153.2377 H   0  0  0  0  0  0  0  0  0  0  0  0
  145.4369  144.7780  154.0317 H   0  0  0  0  0  0  0  0  0  0  0  0
  145.4205  141.2199  153.2496 H   0  0  0  0  0  0  0  0  0  0  0  0
  1  2  1  0  0  0  0
  1 25  1  0  0  0  0
  1 26  1  0  0  0  0
  1 27  1  0  0  0  0
  2  3  1  0  0  0  0
  2 28  1  0  0  0  0
  2 29  1  0  0  0  0
  3  4  1  0  0  0  0
  4 24  1  0  0  0  0
  4  5  1  0  0  0  0
  4 30  1  0  0  0  0
  5  6  1  0  0  0  0
  5 31  1  0  0  0  0
  5 32  1  0  0  0  0
  6  7  1  0  0  0  0
  6 33  1  0  0  0  0
  6 34  1  0  0  0  0
  7  8  1  0  0  0  0
  7 23  1  0  0  0  0
  7 54  1  0  0  0  0
  8  9  1  0  0  0  0
  8 35  1  0  0  0  0
  8 36  1  0  0  0  0
  9 10  1  0  0  0  0
  9 11  1  0  0  0  0
  9 37  1  0  0  0  0
 10 38  1  0  0  0  0
 11 12  1  0  0  0  0
 11 39  1  0  0  0  0
 11 40  1  0  0  0  0
 12 22  1  0  0  0  0
 12 13  1  0  0  0  0
 13 14  2  0  0  0  0
 13 41  1  0  0  0  0
 14 15  1  0  0  0  0
 15 22  2  0  0  0  0
 15 16  1  0  0  0  0
 16 17  2  0  0  0  0
 16 42  1  0  0  0  0
 17 18  1  0  0  0  0
 17 19  1  0  0  0  0
 18 43  1  0  0  0  0
 18 44  1  0  0  0  0
 18 45  1  0  0  0  0
 19 20  1  0  0  0  0
 19 21  2  0  0  0  0
 20 46  1  0  0  0  0
 20 47  1  0  0  0  0
 20 48  1  0  0  0  0
 21 22  1  0  0  0  0
 21 49  1  0  0  0  0
 23 24  1  0  0  0  0
 23 50  1  0  0  0  0
 23 51  1  0  0  0  0
 24 52  1  0  0  0  0
 24 53  1  0  0  0  0
M  CHG  1   7   1
M  END
> <s_m_source_file>
AV-unprocessed.smi

> <i_m_source_file_index>
1697

> <i_lp_mmshare_version>
43012

> <i_f3d_flags>
0

> <s_epik_input>
W0NIM11bQ0gyXU9bQ0hdMVtDSDJdW0NIMl1OKFtDSDJdW0NIMl0xKVtDSDJdW0NASF0oW09IXSlbQ0gyXW4oW2NIXW4yKWMoYzIzKVtjSF1jKFtDSDNdKWMoW2NIXTMpW0NIM10=

> <s_epik_cmdline>
J2VwaWtfcHl0aG9uJywgJy1waCcsICc3LjAnLCAnLXRuJywgJzgnLCAnLW1hJywgJzIwMCcsICctbWV0YWxfYmluZGluZycsICctaW1hZScsICc8aW5maWxlLm1hZT4nLCAnLW9tYWUnLCAnPG91dGZpbGUubWFlPic=

> <r_epik_Ionization_Penalty>
0.112476

> <r_epik_Ionization_Penalty_Charging>
0.0244612

> <r_epik_Ionization_Penalty_Neutral>
0.0880147

> <r_epik_State_Penalty>
0.0961447

> <r_epik_Charging_Adjusted_Penalty>
0.120606

> <i_epik_Tot_Q>
1

> <i_epik_Tot_abs_Q>
1

> <r_epik_Metal_State_Penalty>
0.0206204

> <b_epik_Metal_Only>
0

> <s_lp_Force_Field>
OPLS_2005

> <r_lp_Energy>
22.8908

> <b_lp_Chiralities_Consistent>
1

> <s_lp_Variant>
AV-unprocessed.smi:1697-3

> <Gold.Version>
5.8.1

> <Gold.Id.Protein>
6NUR|6NUR_protein|mol2

> <Gold.PLP.Fitness>
50.2559

> <Gold.PLP.PLP>
-40.5840

> <Gold.PLP.part.hbond>
-5.0000

> <Gold.PLP.part.metal>
0.0000

> <Gold.PLP.part.buried>
-6.6613

> <Gold.PLP.part.nonpolar>
-29.4722

> <Gold.PLP.part.repulsive>
0.1661

> <Gold.PLP.ligand.clash>
0.0000

> <Gold.PLP.ligand.torsion>
1.6269

> <Gold.PLP.Chemscore.Hbond>
4.2538

> <Gold.PLP.Chemscore.CHOScore>
0.0000

> <Gold.PLP.Chemscore.Metal>
0.0000

> <Gold.Chemscore.Hbonds>
donor molecule, donor type, donor heavy atom, donor atom, acceptor molecule, acceptor atom, score
      L1  H     7    54       P1 10175  1.90
      L1  H    10    38       P1  7957  1.00
      P1  H  7989  7998       L1    10  0.24
      P1  H  7997  8008       L1    14  0.94

> <Gold.PLP.Chemscore.Internal.Correction>
0.1645

> <Gold.Rescore>
     Score         DG    S(hbond)    S(metal)    S(lipo)     H(rot)  DE(clash)    DE(int)     intcor
     19.41     -21.02       2.89        0.00     100.02       2.27       0.03       1.59       ----

> <Gold.Chemscore.Fitness>
19.4074

> <Gold.Chemscore.DG>
-21.0200

> <Gold.Chemscore.ZeroCoef>
-5.4800

> <Gold.Chemscore.Hbond>
2.8895

> <Gold.Chemscore.Metal>
0.0000

> <Gold.Chemscore.Lipo>
100.0236

> <Gold.Chemscore.Internal_Hbond>
0.0000

> <Gold.Chemscore.DEClash>
0.0272

> <Gold.Chemscore.DEInternal>
1.5853

> <Gold.Chemscore.Rot>
2.2710

> <Gold.Chemscore.Internal.Correction>
   9.000000E+99

> <Gold.Chemscore.Hbonds>
donor molecule, donor type, donor heavy atom, donor atom, acceptor molecule, acceptor atom, score
      L1  H     7    54       P1 10175  0.20
      L1  H    10    38       P1  7957  0.99
      P1  H  7989  7998       L1    10  0.04
      P1  H  7997  8008       L1    14  0.54

> <Gold.Chemscore.Hbond.Weighted>
-9.6509

> <Gold.Chemscore.Metal.Weighted>
-0.0000

> <Gold.Chemscore.Lipo.Weighted>
-11.7028

> <Gold.Chemscore.Internal_Hbond.Weighted>
0.0000

> <Gold.Chemscore.DEClash.Weighted>
0.0272

> <Gold.Chemscore.DEInternal.Weighted>
1.5853

> <Gold.Chemscore.Rot.Weighted>
5.8137

> <Gold.Chemscore.Internal.Correction.Weighted>
   9.000000E+99

> <Gold.Protein.RotatedTorsions>
[ 6907 6896 6895 6894 ] final -145.33 input  -60.11 | X-H torsion
[ 7974 7965 7964 7962 ] final   33.96 input  175.53 | X-H torsion
[ 8008 7997 7996 7995 ] final  -47.96 input   59.86 | X-H torsion
[ 10167 10162 10161 10158 ] final   50.96 input  -65.29 | X-H torsion
[ 10718 10713 10712 10709 ] final  -28.99 input   66.30 | X-H torsion
[ 10763 10752 10751 10750 ] final -168.61 input  -60.55 | X-H torsion
[ 11005 11000 10999 10996 ] final  101.80 input  -57.11 | X-H torsion

> <Gold.Protein.ActiveResidues>
 VAL166  LYS551  ARG553  GLY616  TRP617  ASP618  TYR619  PRO620  LYS621  CYS622 
 ASP623  PHE694  ASN695  SER759  ASP760  ASP761  ALA762  ILE779  LEU786  VAL792 
 PHE793  MET794  SER795  GLU796  ALA797  LYS798  CYS799  TRP800  GLU811  SER814 

> <Gold.Protein.RotatedAtoms>
  151.1263  133.5068  159.2600 H   0  0  0  0  0  0  0  0  0  0  0  0  # atno 6907 bound_to 6896
  151.1806  135.0359  159.8801 H   0  0  0  0  0  0  0  0  0  0  0  0  # atno 6908 bound_to 6896
  152.5458  134.1116  159.8414 H   0  0  0  0  0  0  0  0  0  0  0  0  # atno 6909 bound_to 6896
  146.1385  139.6330  142.9179 H   0  0  0  0  0  0  0  0  0  0  0  0  # atno 7974 bound_to 7965
  154.4023  140.1333  156.4260 H   0  0  0  0  0  0  0  0  0  0  0  0  # atno 8008 bound_to 7997
  155.7597  140.3486  155.5171 H   0  0  0  0  0  0  0  0  0  0  0  0  # atno 8009 bound_to 7997
  155.8871  140.0997  157.1435 H   0  0  0  0  0  0  0  0  0  0  0  0  # atno 8010 bound_to 7997
  140.2670  144.3309  150.6301 H   0  0  0  0  0  0  0  0  0  0  0  0  # atno 10167 bound_to 10162
  156.4182  130.4421  149.7203 H   0  0  0  0  0  0  0  0  0  0  0  0  # atno 10718 bound_to 10713
  154.6610  135.2925  154.9866 H   0  0  0  0  0  0  0  0  0  0  0  0  # atno 10763 bound_to 10752
  154.0926  135.6588  153.4859 H   0  0  0  0  0  0  0  0  0  0  0  0  # atno 10764 bound_to 10752
  153.0430  135.5223  154.7561 H   0  0  0  0  0  0  0  0  0  0  0  0  # atno 10765 bound_to 10752
  139.8774  134.9198  156.4961 H   0  0  0  0  0  0  0  0  0  0  0  0  # atno 11005 bound_to 11000
  145.5100  141.0435  143.2493 LP  0  0  0  0  0  0  0  0  0  0  0  0  # atno 17320 bound_to 7965
  144.7766  139.6616  143.7172 LP  0  0  0  0  0  0  0  0  0  0  0  0  # atno 17321 bound_to 7965
  140.5921  143.2168  151.7234 LP  0  0  0  0  0  0  0  0  0  0  0  0  # atno 17342 bound_to 10162
  139.5000  144.3924  152.0266 LP  0  0  0  0  0  0  0  0  0  0  0  0  # atno 17343 bound_to 10162
  156.4154  130.7743  151.2758 LP  0  0  0  0  0  0  0  0  0  0  0  0  # atno 17370 bound_to 10713
  157.7508  131.0199  150.3685 LP  0  0  0  0  0  0  0  0  0  0  0  0  # atno 17371 bound_to 10713
  140.8623  133.8050  155.9278 LP  0  0  0  0  0  0  0  0  0  0  0  0  # atno 17394 bound_to 11000
  140.9037  134.2347  157.5027 LP  0  0  0  0  0  0  0  0  0  0  0  0  # atno 17395 bound_to 11000

$$$$
