AV-unprocessed.smi:2062|AV-procd|sdf|8406|dock3
  -GOLD-   2272011 93D 1   1.00000     0.00000
 Structure written by MMmdl.
 41 42  0  0  0  0  0  0  0  0  2 V2000
  152.1595  144.3635  157.8668 C   0  0  0  0  0  0  0  0  0  0  0  0
  151.6895  143.5352  159.0715 C   0  0  0  0  0  0  0  0  0  0  0  0
  152.6340  143.7408  160.2670 C   0  0  0  0  0  0  0  0  0  0  0  0
  151.5699  142.0445  158.6865 C   0  0  0  0  0  0  0  0  0  0  0  0
  150.4998  141.7122  157.7448 N   0  0  0  0  0  0  0  0  0  0  0  0
  150.8865  141.9185  156.3509 C   0  0  0  0  0  0  0  0  0  0  0  0
  149.7596  141.5280  155.3799 C   0  0  0  0  0  0  0  0  0  0  0  0
  149.3790  140.1767  155.6123 O   0  0  0  0  0  0  0  0  0  0  0  0
  148.9313  139.9479  156.9467 C   0  0  1  0  0  0  0  0  0  0  0  0
  148.5326  138.4687  157.0848 C   0  0  0  0  0  0  0  0  0  0  0  0
  147.8821  138.1992  158.3630 N   0  0  0  0  0  0  0  0  0  0  0  0
  148.2552  137.2687  159.2531 C   0  0  0  0  0  0  0  0  0  0  0  0
  149.2252  136.5447  159.0162 O   0  0  0  0  0  0  0  0  0  0  0  0
  147.4827  137.2364  160.3628 N   0  5  0  0  0  0  0  0  0  0  0  0
  147.1595  136.0595  160.9231 C   0  0  0  0  0  0  0  0  0  0  0  0
  146.9941  134.9354  160.2160 N   0  0  0  0  0  0  0  0  0  0  0  0
  146.6532  133.8316  161.0000 C   0  0  0  0  0  0  0  0  0  0  0  0
  146.5471  134.1238  162.3341 C   0  0  0  0  0  0  0  0  0  0  0  0
  146.8752  135.8042  162.6475 S   0  0  0  0  0  0  0  0  0  0  0  0
  150.0679  140.3286  157.9156 C   0  0  0  0  0  0  0  0  0  0  0  0
  153.1479  144.0490  157.5302 H   0  0  0  0  0  0  0  0  0  0  0  0
  152.2149  145.4239  158.1153 H   0  0  0  0  0  0  0  0  0  0  0  0
  151.4728  144.2597  157.0263 H   0  0  0  0  0  0  0  0  0  0  0  0
  150.7072  143.9173  159.3470 H   0  0  0  0  0  0  0  0  0  0  0  0
  153.6386  143.3799  160.0448 H   0  0  0  0  0  0  0  0  0  0  0  0
  152.2778  143.2104  161.1506 H   0  0  0  0  0  0  0  0  0  0  0  0
  152.7100  144.7960  160.5303 H   0  0  0  0  0  0  0  0  0  0  0  0
  152.5222  141.7002  158.2802 H   0  0  0  0  0  0  0  0  0  0  0  0
  151.4203  141.4766  159.6061 H   0  0  0  0  0  0  0  0  0  0  0  0
  151.1440  142.9624  156.1772 H   0  0  0  0  0  0  0  0  0  0  0  0
  151.7778  141.3319  156.1228 H   0  0  0  0  0  0  0  0  0  0  0  0
  148.8967  142.1839  155.5043 H   0  0  0  0  0  0  0  0  0  0  0  0
  150.0952  141.6314  154.3480 H   0  0  0  0  0  0  0  0  0  0  0  0
  148.0641  140.5796  157.1481 H   0  0  0  0  0  0  0  0  0  0  0  0
  147.8460  138.1899  156.2852 H   0  0  0  0  0  0  0  0  0  0  0  0
  149.4083  137.8269  156.9764 H   0  0  0  0  0  0  0  0  0  0  0  0
  147.0856  138.7727  158.5992 H   0  0  0  0  0  0  0  0  0  0  0  0
  146.5029  132.8743  160.5235 H   0  0  0  0  0  0  0  0  0  0  0  0
  146.2969  133.4588  163.1466 H   0  0  0  0  0  0  0  0  0  0  0  0
  150.9144  139.6570  157.7630 H   0  0  0  0  0  0  0  0  0  0  0  0
  149.7298  140.1739  158.9410 H   0  0  0  0  0  0  0  0  0  0  0  0
  1  2  1  0  0  0  0
  1 21  1  0  0  0  0
  1 22  1  0  0  0  0
  1 23  1  0  0  0  0
  2  3  1  0  0  0  0
  2  4  1  0  0  0  0
  2 24  1  0  0  0  0
  3 25  1  0  0  0  0
  3 26  1  0  0  0  0
  3 27  1  0  0  0  0
  4  5  1  0  0  0  0
  4 28  1  0  0  0  0
  4 29  1  0  0  0  0
  5 20  1  0  0  0  0
  5  6  1  0  0  0  0
  6  7  1  0  0  0  0
  6 30  1  0  0  0  0
  6 31  1  0  0  0  0
  7  8  1  0  0  0  0
  7 32  1  0  0  0  0
  7 33  1  0  0  0  0
  8  9  1  0  0  0  0
  9 10  1  0  0  0  0
  9 20  1  0  0  0  0
  9 34  1  0  0  0  0
 10 11  1  0  0  0  0
 10 35  1  0  0  0  0
 10 36  1  0  0  0  0
 11 12  1  0  0  0  0
 11 37  1  0  0  0  0
 12 13  2  0  0  0  0
 12 14  1  0  0  0  0
 14 15  1  0  0  0  0
 15 19  1  0  0  0  0
 15 16  2  0  0  0  0
 16 17  1  0  0  0  0
 17 18  2  0  0  0  0
 17 38  1  0  0  0  0
 18 19  1  0  0  0  0
 18 39  1  0  0  0  0
 20 40  1  0  0  0  0
 20 41  1  0  0  0  0
M  CHG  1  14  -1
M  END
> <s_m_source_file>
AV-unprocessed.smi

> <i_m_source_file_index>
2062

> <i_lp_mmshare_version>
43012

> <i_f3d_flags>
0

> <s_epik_input>
W0NIM11bQ0hdKFtDSDNdKVtDSDJdTjFbQ0gyXVtDSDJdT1tDQEhdKFtDSDJdMSlbQ0gyXVtOSF1DKD1PKVtOSF1jMm5bY0hdW2NIXXMy

> <s_epik_cmdline>
J2VwaWtfcHl0aG9uJywgJy1waCcsICc3LjAnLCAnLXRuJywgJzgnLCAnLW1hJywgJzIwMCcsICctbWV0YWxfYmluZGluZycsICctaW1hZScsICc8aW5maWxlLm1hZT4nLCAnLW9tYWUnLCAnPG91dGZpbGUubWFlPic=

> <r_lp_tautomer_probability>
0.999

> <r_epik_Ionization_Penalty>
7.76343

> <r_epik_Ionization_Penalty_Charging>
5.65212

> <r_epik_Ionization_Penalty_Neutral>
2.11131

> <r_epik_State_Penalty>
6.82229

> <r_epik_Charging_Adjusted_Penalty>
12.4744

> <i_epik_Tot_Q>
-1

> <i_epik_Tot_abs_Q>
1

> <r_epik_Metal_State_Penalty>
2.82401

> <b_epik_Metal_Only>
1

> <s_lp_Force_Field>
OPLS_2005

> <r_lp_Energy>
19.1571

> <b_lp_Chiralities_Consistent>
1

> <s_lp_Variant>
AV-unprocessed.smi:2062-11

> <Gold.Version>
5.8.1

> <Gold.Id.Protein>
6NUR|6NUR_protein|mol2

> <Gold.PLP.Fitness>
50.4978

> <Gold.PLP.PLP>
-39.6819

> <Gold.PLP.part.hbond>
-3.0000

> <Gold.PLP.part.metal>
0.0000

> <Gold.PLP.part.buried>
-5.7984

> <Gold.PLP.part.nonpolar>
-32.4998

> <Gold.PLP.part.repulsive>
0.2432

> <Gold.PLP.ligand.clash>
0.0000

> <Gold.PLP.ligand.torsion>
0.8852

> <Gold.PLP.Chemscore.Hbond>
4.1768

> <Gold.PLP.Chemscore.CHOScore>
0.0000

> <Gold.PLP.Chemscore.Metal>
0.0000

> <Gold.Chemscore.Hbonds>
donor molecule, donor type, donor heavy atom, donor atom, acceptor molecule, acceptor atom, score
      P1  H  6896  6908       L1    13  0.02
      P1  H  6931  6943       L1    14  0.08
      P1  H  6934  6947       L1    14  2.00

> <Gold.PLP.Chemscore.Internal.Correction>
0.0560

> <Gold.Rescore>
     Score         DG    S(hbond)    S(metal)    S(lipo)     H(rot)  DE(clash)    DE(int)     intcor
     17.73     -19.02       2.01        0.00      94.99       1.68       0.02       1.27       ----

> <Gold.Chemscore.Fitness>
17.7295

> <Gold.Chemscore.DG>
-19.0216

> <Gold.Chemscore.ZeroCoef>
-5.4800

> <Gold.Chemscore.Hbond>
2.0129

> <Gold.Chemscore.Metal>
0.0000

> <Gold.Chemscore.Lipo>
94.9907

> <Gold.Chemscore.Internal_Hbond>
0.0000

> <Gold.Chemscore.DEClash>
0.0231

> <Gold.Chemscore.DEInternal>
1.2690

> <Gold.Chemscore.Rot>
1.6779

> <Gold.Chemscore.Internal.Correction>
   9.000000E+99

> <Gold.Chemscore.Hbonds>
donor molecule, donor type, donor heavy atom, donor atom, acceptor molecule, acceptor atom, score
      P1  H  6896  6908       L1    13  0.07
      P1  H  6931  6943       L1    14  0.01
      P1  H  6934  6947       L1    14  0.62

> <Gold.Chemscore.Hbond.Weighted>
-6.7231

> <Gold.Chemscore.Metal.Weighted>
-0.0000

> <Gold.Chemscore.Lipo.Weighted>
-11.1139

> <Gold.Chemscore.Internal_Hbond.Weighted>
0.0000

> <Gold.Chemscore.DEClash.Weighted>
0.0231

> <Gold.Chemscore.DEInternal.Weighted>
1.2690

> <Gold.Chemscore.Rot.Weighted>
4.2953

> <Gold.Chemscore.Internal.Correction.Weighted>
   9.000000E+99

> <Gold.Protein.RotatedTorsions>
[ 6907 6896 6895 6894 ] final -175.50 input  -60.11 | X-H torsion
[ 7974 7965 7964 7962 ] final -139.65 input  175.53 | X-H torsion
[ 8008 7997 7996 7995 ] final  -11.58 input   59.86 | X-H torsion
[ 10167 10162 10161 10158 ] final  -18.93 input  -65.29 | X-H torsion
[ 10718 10713 10712 10709 ] final   -2.59 input   66.30 | X-H torsion
[ 10763 10752 10751 10750 ] final  -76.40 input  -60.55 | X-H torsion
[ 11005 11000 10999 10996 ] final  104.73 input  -57.11 | X-H torsion

> <Gold.Protein.ActiveResidues>
 VAL166  LYS551  ARG553  GLY616  TRP617  ASP618  TYR619  PRO620  LYS621  CYS622 
 ASP623  PHE694  ASN695  SER759  ASP760  ASP761  ALA762  ILE779  LEU786  VAL792 
 PHE793  MET794  SER795  GLU796  ALA797  LYS798  CYS799  TRP800  GLU811  SER814 

> <Gold.Protein.RotatedAtoms>
  151.5895  133.3368  159.3024 H   0  0  0  0  0  0  0  0  0  0  0  0  # atno 6907 bound_to 6896
  150.8268  134.7506  159.6831 H   0  0  0  0  0  0  0  0  0  0  0  0  # atno 6908 bound_to 6896
  152.4356  134.5698  159.9969 H   0  0  0  0  0  0  0  0  0  0  0  0  # atno 6909 bound_to 6896
  144.8659  140.6293  143.5298 H   0  0  0  0  0  0  0  0  0  0  0  0  # atno 7974 bound_to 7965
  154.5453  140.2299  155.8574 H   0  0  0  0  0  0  0  0  0  0  0  0  # atno 8008 bound_to 7997
  156.1896  140.3080  155.9269 H   0  0  0  0  0  0  0  0  0  0  0  0  # atno 8009 bound_to 7997
  155.3177  140.0439  157.3028 H   0  0  0  0  0  0  0  0  0  0  0  0  # atno 8010 bound_to 7997
  140.7263  143.4868  151.0045 H   0  0  0  0  0  0  0  0  0  0  0  0  # atno 10167 bound_to 10162
  156.7885  130.5354  149.5739 H   0  0  0  0  0  0  0  0  0  0  0  0  # atno 10718 bound_to 10713
  154.4993  135.5799  153.6519 H   0  0  0  0  0  0  0  0  0  0  0  0  # atno 10763 bound_to 10752
  152.9876  135.6132  154.3023 H   0  0  0  0  0  0  0  0  0  0  0  0  # atno 10764 bound_to 10752
  154.2929  135.2848  155.2626 H   0  0  0  0  0  0  0  0  0  0  0  0  # atno 10765 bound_to 10752
  139.8795  134.9311  156.5406 H   0  0  0  0  0  0  0  0  0  0  0  0  # atno 11005 bound_to 11000
  145.4222  139.1562  143.4068 LP  0  0  0  0  0  0  0  0  0  0  0  0  # atno 17320 bound_to 7965
  146.2895  140.4333  142.8745 LP  0  0  0  0  0  0  0  0  0  0  0  0  # atno 17321 bound_to 7965
  139.8570  143.7364  152.3175 LP  0  0  0  0  0  0  0  0  0  0  0  0  # atno 17342 bound_to 10162
  139.7566  144.7519  151.0426 LP  0  0  0  0  0  0  0  0  0  0  0  0  # atno 17343 bound_to 10162
  156.1173  130.6084  151.0141 LP  0  0  0  0  0  0  0  0  0  0  0  0  # atno 17370 bound_to 10713
  157.6612  131.0880  150.7834 LP  0  0  0  0  0  0  0  0  0  0  0  0  # atno 17371 bound_to 10713
  140.8313  133.8277  155.8987 LP  0  0  0  0  0  0  0  0  0  0  0  0  # atno 17394 bound_to 11000
  140.9326  134.2003  157.4853 LP  0  0  0  0  0  0  0  0  0  0  0  0  # atno 17395 bound_to 11000

$$$$
