AV-unprocessed.smi:1830|AV-procd|sdf|7442|dock3
  -GOLD-   22720 9133D 1   1.00000     0.00000
 Structure written by MMmdl.
 52 55  0  0  0  0  0  0  0  0  1 V2000
  150.1725  134.0973  155.7827 O   0  0  0  0  0  0  0  0  0  0  0  0
  149.8049  134.7157  154.7844 C   0  0  0  0  0  0  0  0  0  0  0  0
  150.0767  136.0104  154.5701 N   0  0  0  0  0  0  0  0  0  0  0  0
  150.7768  136.8917  155.4986 C   0  0  0  0  0  0  0  0  0  0  0  0
  151.2139  138.1944  154.7986 C   0  0  2  0  0  0  0  0  0  0  0  0
  151.9094  139.1877  155.7598 C   0  0  0  0  0  0  0  0  0  0  0  0
  150.9360  139.8397  156.6162 N   0  0  0  0  0  0  0  0  0  0  0  0
  151.4332  140.8656  157.5031 C   0  0  0  0  0  0  0  0  0  0  0  0
  150.1725  141.6269  157.9483 C   0  0  0  0  0  0  0  0  0  0  0  0
  149.1204  141.2944  156.8675 C   0  0  0  0  0  0  0  0  0  0  0  0
  149.9294  140.5061  155.8358 C   0  0  2  0  0  0  0  0  0  0  0  0
  149.1686  139.5016  154.9617 C   0  0  0  0  0  0  0  0  0  0  0  0
  150.1142  138.8286  154.1249 O   0  0  0  0  0  0  0  0  0  0  0  0
  149.0961  134.1992  153.7667 N   0  0  0  0  0  0  0  0  0  0  0  0
  148.6512  132.8589  153.5761 C   0  0  0  0  0  0  0  0  0  0  0  0
  149.3733  131.7372  154.0535 C   0  0  0  0  0  0  0  0  0  0  0  0
  148.8524  130.4470  153.8510 C   0  0  0  0  0  0  0  0  0  0  0  0
  147.6208  130.3217  153.1859 C   0  0  0  0  0  0  0  0  0  0  0  0
  146.9136  131.3790  152.7398 N   0  0  0  0  0  0  0  0  0  0  0  0
  147.4044  132.6276  152.9331 C   0  0  0  0  0  0  0  0  0  0  0  0
  146.6498  133.7107  152.4340 N   0  0  0  0  0  0  0  0  0  0  0  0
  146.4502  133.6756  150.9878 C   0  0  0  0  0  0  0  0  0  0  0  0
  145.0572  134.2526  150.7305 C   0  0  0  0  0  0  0  0  0  0  0  0
  144.3069  133.9193  152.0138 C   0  0  0  0  0  0  0  0  0  0  0  0
  145.3894  134.0750  153.0805 C   0  0  0  0  0  0  0  0  0  0  0  0
  149.7399  136.4299  153.7161 H   0  0  0  0  0  0  0  0  0  0  0  0
  150.1745  137.1037  156.3831 H   0  0  0  0  0  0  0  0  0  0  0  0
  151.6572  136.3590  155.8587 H   0  0  0  0  0  0  0  0  0  0  0  0
  151.9346  137.9215  154.0267 H   0  0  0  0  0  0  0  0  0  0  0  0
  152.6592  138.6751  156.3632 H   0  0  0  0  0  0  0  0  0  0  0  0
  152.4410  139.9390  155.1741 H   0  0  0  0  0  0  0  0  0  0  0  0
  151.9859  140.4406  158.3415 H   0  0  0  0  0  0  0  0  0  0  0  0
  152.1011  141.5387  156.9628 H   0  0  0  0  0  0  0  0  0  0  0  0
  149.8330  141.2823  158.9257 H   0  0  0  0  0  0  0  0  0  0  0  0
  150.3637  142.6981  158.0178 H   0  0  0  0  0  0  0  0  0  0  0  0
  148.3278  140.6763  157.2917 H   0  0  0  0  0  0  0  0  0  0  0  0
  148.6631  142.1855  156.4367 H   0  0  0  0  0  0  0  0  0  0  0  0
  150.4158  141.2277  155.1756 H   0  0  0  0  0  0  0  0  0  0  0  0
  148.6214  138.7842  155.5735 H   0  0  0  0  0  0  0  0  0  0  0  0
  148.4372  140.0126  154.3354 H   0  0  0  0  0  0  0  0  0  0  0  0
  148.9293  134.8187  152.9872 H   0  0  0  0  0  0  0  0  0  0  0  0
  150.3066  131.8392  154.5844 H   0  0  0  0  0  0  0  0  0  0  0  0
  149.3828  129.5746  154.2028 H   0  0  0  0  0  0  0  0  0  0  0  0
  147.1888  129.3472  153.0123 H   0  0  0  0  0  0  0  0  0  0  0  0
  147.2181  134.2494  150.4683 H   0  0  0  0  0  0  0  0  0  0  0  0
  146.5004  132.6466  150.6276 H   0  0  0  0  0  0  0  0  0  0  0  0
  145.1201  135.3351  150.6111 H   0  0  0  0  0  0  0  0  0  0  0  0
  144.5850  133.8402  149.8386 H   0  0  0  0  0  0  0  0  0  0  0  0
  143.4440  134.5630  152.1861 H   0  0  0  0  0  0  0  0  0  0  0  0
  143.9605  132.8852  151.9840 H   0  0  0  0  0  0  0  0  0  0  0  0
  145.1561  133.5038  153.9790 H   0  0  0  0  0  0  0  0  0  0  0  0
  145.4643  135.1200  153.3824 H   0  0  0  0  0  0  0  0  0  0  0  0
  1  2  2  0  0  0  0
  2  3  1  0  0  0  0
  2 14  1  0  0  0  0
  3  4  1  0  0  0  0
  3 26  1  0  0  0  0
  4  5  1  0  0  0  0
  4 27  1  0  0  0  0
  4 28  1  0  0  0  0
  5 13  1  0  0  0  0
  5  6  1  0  0  0  0
  5 29  1  0  0  0  0
  6  7  1  0  0  0  0
  6 30  1  0  0  0  0
  6 31  1  0  0  0  0
  7 11  1  0  0  0  0
  7  8  1  0  0  0  0
  8  9  1  0  0  0  0
  8 32  1  0  0  0  0
  8 33  1  0  0  0  0
  9 10  1  0  0  0  0
  9 34  1  0  0  0  0
  9 35  1  0  0  0  0
 10 11  1  0  0  0  0
 10 36  1  0  0  0  0
 10 37  1  0  0  0  0
 11 12  1  0  0  0  0
 11 38  1  0  0  0  0
 12 13  1  0  0  0  0
 12 39  1  0  0  0  0
 12 40  1  0  0  0  0
 14 15  1  0  0  0  0
 14 41  1  0  0  0  0
 15 20  1  0  0  0  0
 15 16  2  0  0  0  0
 16 17  1  0  0  0  0
 16 42  1  0  0  0  0
 17 18  2  0  0  0  0
 17 43  1  0  0  0  0
 18 19  1  0  0  0  0
 18 44  1  0  0  0  0
 19 20  2  0  0  0  0
 20 21  1  0  0  0  0
 21 25  1  0  0  0  0
 21 22  1  0  0  0  0
 22 23  1  0  0  0  0
 22 45  1  0  0  0  0
 22 46  1  0  0  0  0
 23 24  1  0  0  0  0
 23 47  1  0  0  0  0
 23 48  1  0  0  0  0
 24 25  1  0  0  0  0
 24 49  1  0  0  0  0
 24 50  1  0  0  0  0
 25 51  1  0  0  0  0
 25 52  1  0  0  0  0
M  END
> <s_m_source_file>
AV-unprocessed.smi

> <i_m_source_file_index>
1830

> <i_lp_mmshare_version>
43012

> <i_f3d_flags>
0

> <s_epik_input>
W0NIMl0xW0NIMl1bQ0gyXVtDQEhdKE4xMilbQ0gyXU9bQ0BASF0oW0NIMl0yKVtDSDJdW05IXUMoPU8pW05IXWMzW2NIXVtjSF1bY0hdbmMzTjRbQ0gyXVtDSDJdW0NIMl1bQ0gyXTQ=

> <s_epik_cmdline>
J2VwaWtfcHl0aG9uJywgJy1waCcsICc3LjAnLCAnLXRuJywgJzgnLCAnLW1hJywgJzIwMCcsICctbWV0YWxfYmluZGluZycsICctaW1hZScsICc8aW5maWxlLm1hZT4nLCAnLW9tYWUnLCAnPG91dGZpbGUubWFlPic=

> <r_lp_tautomer_probability>
1

> <r_epik_Ionization_Penalty>
1.16487

> <r_epik_Ionization_Penalty_Charging>
0

> <r_epik_Ionization_Penalty_Neutral>
1.16487

> <r_epik_State_Penalty>
1.21807

> <r_epik_Charging_Adjusted_Penalty>
1.21807

> <i_epik_Tot_Q>
0

> <i_epik_Tot_abs_Q>
0

> <r_epik_Metal_State_Penalty>
1.19922

> <b_epik_Metal_Only>
0

> <s_lp_Force_Field>
OPLS_2005

> <r_lp_Energy>
77.9026

> <b_lp_Chiralities_Consistent>
1

> <s_lp_Variant>
AV-unprocessed.smi:1830-11

> <Gold.Version>
5.8.1

> <Gold.Id.Protein>
6NUR|6NUR_protein|mol2

> <Gold.PLP.Fitness>
45.3815

> <Gold.PLP.PLP>
-41.3762

> <Gold.PLP.part.hbond>
-2.8731

> <Gold.PLP.part.metal>
0.0000

> <Gold.PLP.part.buried>
-5.3939

> <Gold.PLP.part.nonpolar>
-33.8028

> <Gold.PLP.part.repulsive>
1.2175

> <Gold.PLP.ligand.clash>
0.0000

> <Gold.PLP.ligand.torsion>
0.4205

> <Gold.PLP.Chemscore.Hbond>
1.5606

> <Gold.PLP.Chemscore.CHOScore>
0.0000

> <Gold.PLP.Chemscore.Metal>
0.0000

> <Gold.Chemscore.Hbonds>
donor molecule, donor type, donor heavy atom, donor atom, acceptor molecule, acceptor atom, score
      L1  H     3    26       P1  7948  0.99
      L1  H    14    41       P1  7948  0.75

> <Gold.PLP.Chemscore.Internal.Correction>
0.1646

> <Gold.Rescore>
     Score         DG    S(hbond)    S(metal)    S(lipo)     H(rot)  DE(clash)    DE(int)     intcor
     15.18     -16.48       1.45        0.00      82.69       1.37       0.18       1.13       ----

> <Gold.Chemscore.Fitness>
15.1769

> <Gold.Chemscore.DG>
-16.4777

> <Gold.Chemscore.ZeroCoef>
-5.4800

> <Gold.Chemscore.Hbond>
1.4495

> <Gold.Chemscore.Metal>
0.0000

> <Gold.Chemscore.Lipo>
82.6931

> <Gold.Chemscore.Internal_Hbond>
0.0000

> <Gold.Chemscore.DEClash>
0.1755

> <Gold.Chemscore.DEInternal>
1.1253

> <Gold.Chemscore.Rot>
1.3746

> <Gold.Chemscore.Internal.Correction>
   9.000000E+99

> <Gold.Chemscore.Hbonds>
donor molecule, donor type, donor heavy atom, donor atom, acceptor molecule, acceptor atom, score
      L1  H     3    26       P1  7948  0.41
      L1  H    14    41       P1  7948  0.09

> <Gold.Chemscore.Hbond.Weighted>
-4.8415

> <Gold.Chemscore.Metal.Weighted>
-0.0000

> <Gold.Chemscore.Lipo.Weighted>
-9.6751

> <Gold.Chemscore.Internal_Hbond.Weighted>
0.0000

> <Gold.Chemscore.DEClash.Weighted>
0.1755

> <Gold.Chemscore.DEInternal.Weighted>
1.1253

> <Gold.Chemscore.Rot.Weighted>
3.5189

> <Gold.Chemscore.Internal.Correction.Weighted>
   9.000000E+99

> <Gold.Protein.RotatedTorsions>
[ 6907 6896 6895 6894 ] final  -50.18 input  -60.11 | X-H torsion
[ 7974 7965 7964 7962 ] final -111.43 input  175.53 | X-H torsion
[ 8008 7997 7996 7995 ] final  105.08 input   59.86 | X-H torsion
[ 10167 10162 10161 10158 ] final  -68.80 input  -65.29 | X-H torsion
[ 10718 10713 10712 10709 ] final  -39.95 input   66.30 | X-H torsion
[ 10763 10752 10751 10750 ] final -162.51 input  -60.55 | X-H torsion
[ 11005 11000 10999 10996 ] final   50.15 input  -57.11 | X-H torsion

> <Gold.Protein.ActiveResidues>
 VAL166  LYS551  ARG553  GLY616  TRP617  ASP618  TYR619  PRO620  LYS621  CYS622 
 ASP623  PHE694  ASN695  SER759  ASP760  ASP761  ALA762  ILE779  LEU786  VAL792 
 PHE793  MET794  SER795  GLU796  ALA797  LYS798  CYS799  TRP800  GLU811  SER814 

> <Gold.Protein.RotatedAtoms>
  150.8732  134.8110  159.7170 H   0  0  0  0  0  0  0  0  0  0  0  0  # atno 6907 bound_to 6896
  152.4729  134.4913  159.9706 H   0  0  0  0  0  0  0  0  0  0  0  0  # atno 6908 bound_to 6896
  151.4998  133.3468  159.2902 H   0  0  0  0  0  0  0  0  0  0  0  0  # atno 6909 bound_to 6896
  145.1562  140.8854  143.3618 H   0  0  0  0  0  0  0  0  0  0  0  0  # atno 7974 bound_to 7965
  156.1628  140.3136  155.8837 H   0  0  0  0  0  0  0  0  0  0  0  0  # atno 8008 bound_to 7997
  155.3747  140.0484  157.3062 H   0  0  0  0  0  0  0  0  0  0  0  0  # atno 8009 bound_to 7997
  154.5163  140.2182  155.9070 H   0  0  0  0  0  0  0  0  0  0  0  0  # atno 8010 bound_to 7997
  140.5480  143.2312  151.6965 H   0  0  0  0  0  0  0  0  0  0  0  0  # atno 10167 bound_to 10162
  156.2868  130.4223  149.8280 H   0  0  0  0  0  0  0  0  0  0  0  0  # atno 10718 bound_to 10713
  154.7208  135.3025  154.9051 H   0  0  0  0  0  0  0  0  0  0  0  0  # atno 10763 bound_to 10752
  153.9923  135.6717  153.4759 H   0  0  0  0  0  0  0  0  0  0  0  0  # atno 10764 bound_to 10752
  153.0832  135.4998  154.8462 H   0  0  0  0  0  0  0  0  0  0  0  0  # atno 10765 bound_to 10752
  140.1042  134.5041  155.8735 H   0  0  0  0  0  0  0  0  0  0  0  0  # atno 11005 bound_to 11000
  145.0379  139.3285  143.5991 LP  0  0  0  0  0  0  0  0  0  0  0  0  # atno 17320 bound_to 7965
  146.3488  139.9741  142.8703 LP  0  0  0  0  0  0  0  0  0  0  0  0  # atno 17321 bound_to 7965
  139.5015  144.3864  152.0324 LP  0  0  0  0  0  0  0  0  0  0  0  0  # atno 17342 bound_to 10162
  140.2978  144.3681  150.6069 LP  0  0  0  0  0  0  0  0  0  0  0  0  # atno 17343 bound_to 10162
  156.5708  130.8424  151.3356 LP  0  0  0  0  0  0  0  0  0  0  0  0  # atno 17370 bound_to 10713
  157.7331  130.9725  150.1959 LP  0  0  0  0  0  0  0  0  0  0  0  0  # atno 17371 bound_to 10713
  141.2114  133.6706  156.6578 LP  0  0  0  0  0  0  0  0  0  0  0  0  # atno 17394 bound_to 11000
  140.3178  134.8032  157.4228 LP  0  0  0  0  0  0  0  0  0  0  0  0  # atno 17395 bound_to 11000

$$$$
