AV-unprocessed.smi:2045|AV-procd|sdf|8310|dock4
  -GOLD-   2272010573D 1   1.00000     0.00000
 Structure written by MMmdl.
 38 39  0  0  0  0  0  0  0  0  3 V2000
  151.8539  140.2719  156.5238 C   0  0  0  0  0  0  0  0  0  0  0  0
  151.2611  139.2387  155.6285 C   0  0  0  0  0  0  0  0  0  0  0  0
  151.1187  137.8841  155.7370 C   0  0  0  0  0  0  0  0  0  0  0  0
  150.4664  137.5314  154.5254 C   0  0  0  0  0  0  0  0  0  0  0  0
  150.1307  136.1790  154.2512 N   0  0  0  0  0  0  0  0  0  0  0  0
  150.5311  135.0644  154.8901 C   0  0  0  0  0  0  0  0  0  0  0  0
  151.2780  135.1419  155.8730 O   0  0  0  0  0  0  0  0  0  0  0  0
  150.0215  133.9361  154.3238 N   0  5  0  0  0  0  0  0  0  0  0  0
  148.6761  133.8207  153.7660 C   0  0  0  0  0  0  0  0  0  0  0  0
  148.2380  132.3440  153.7791 C   0  0  0  0  0  0  0  0  0  0  0  0
  147.4956  131.9701  152.5454 N   0  3  0  0  0  0  0  0  0  0  0  0
  146.6511  130.7601  152.7317 C   0  0  0  0  0  0  0  0  0  0  0  0
  146.0157  130.3119  151.4044 C   0  0  0  0  0  0  0  0  0  0  0  0
  145.2059  131.4487  150.7679 C   0  0  0  0  0  0  0  0  0  0  0  0
  146.0876  132.6940  150.6122 C   0  0  0  0  0  0  0  0  0  0  0  0
  146.7139  133.0954  151.9581 C   0  0  0  0  0  0  0  0  0  0  0  0
  150.2323  138.5783  153.7481 N   0  0  0  0  0  0  0  0  0  0  0  0
  150.7410  139.6771  154.4505 O   0  0  0  0  0  0  0  0  0  0  0  0
  152.2927  139.8142  157.4105 H   0  0  0  0  0  0  0  0  0  0  0  0
  151.0938  140.9816  156.8503 H   0  0  0  0  0  0  0  0  0  0  0  0
  152.6368  140.8269  156.0071 H   0  0  0  0  0  0  0  0  0  0  0  0
  151.4304  137.2490  156.5527 H   0  0  0  0  0  0  0  0  0  0  0  0
  149.5156  136.0344  153.4644 H   0  0  0  0  0  0  0  0  0  0  0  0
  147.9464  134.4067  154.3264 H   0  0  0  0  0  0  0  0  0  0  0  0
  148.6335  134.1935  152.7420 H   0  0  0  0  0  0  0  0  0  0  0  0
  149.1351  131.7291  153.8704 H   0  0  0  0  0  0  0  0  0  0  0  0
  147.6333  132.1222  154.6603 H   0  0  0  0  0  0  0  0  0  0  0  0
  147.2584  129.9447  153.1266 H   0  0  0  0  0  0  0  0  0  0  0  0
  145.8759  130.9673  153.4712 H   0  0  0  0  0  0  0  0  0  0  0  0
  146.7972  129.9883  150.7155 H   0  0  0  0  0  0  0  0  0  0  0  0
  145.3739  129.4466  151.5720 H   0  0  0  0  0  0  0  0  0  0  0  0
  144.8153  131.1383  149.7983 H   0  0  0  0  0  0  0  0  0  0  0  0
  144.3430  131.6825  151.3929 H   0  0  0  0  0  0  0  0  0  0  0  0
  146.8768  132.4976  149.8851 H   0  0  0  0  0  0  0  0  0  0  0  0
  145.4983  133.5205  150.2142 H   0  0  0  0  0  0  0  0  0  0  0  0
  145.9334  133.4012  152.6568 H   0  0  0  0  0  0  0  0  0  0  0  0
  147.3560  133.9636  151.8068 H   0  0  0  0  0  0  0  0  0  0  0  0
  148.2016  131.7162  151.8689 H   0  0  0  0  0  0  0  0  0  0  0  0
  1  2  1  0  0  0  0
  1 19  1  0  0  0  0
  1 20  1  0  0  0  0
  1 21  1  0  0  0  0
  2 18  1  0  0  0  0
  2  3  2  0  0  0  0
  3  4  1  0  0  0  0
  3 22  1  0  0  0  0
  4  5  1  0  0  0  0
  4 17  2  0  0  0  0
  5  6  1  0  0  0  0
  5 23  1  0  0  0  0
  6  7  2  0  0  0  0
  6  8  1  0  0  0  0
  8  9  1  0  0  0  0
  9 10  1  0  0  0  0
  9 24  1  0  0  0  0
  9 25  1  0  0  0  0
 10 11  1  0  0  0  0
 10 26  1  0  0  0  0
 10 27  1  0  0  0  0
 11 16  1  0  0  0  0
 11 12  1  0  0  0  0
 11 38  1  0  0  0  0
 12 13  1  0  0  0  0
 12 28  1  0  0  0  0
 12 29  1  0  0  0  0
 13 14  1  0  0  0  0
 13 30  1  0  0  0  0
 13 31  1  0  0  0  0
 14 15  1  0  0  0  0
 14 32  1  0  0  0  0
 14 33  1  0  0  0  0
 15 16  1  0  0  0  0
 15 34  1  0  0  0  0
 15 35  1  0  0  0  0
 16 36  1  0  0  0  0
 16 37  1  0  0  0  0
 17 18  1  0  0  0  0
M  CHG  1   8  -1
M  CHG  1  11   1
M  END
> <s_m_source_file>
AV-unprocessed.smi

> <i_m_source_file_index>
2045

> <i_lp_mmshare_version>
43012

> <i_f3d_flags>
0

> <s_epik_input>
W0NIM11jMVtjSF1jKG5vMSlbTkhdQyg9TylbTkhdW0NIMl1bQ0gyXU4yW0NIMl1bQ0gyXVtDSDJdW0NIMl1bQ0gyXTI=

> <s_epik_cmdline>
J2VwaWtfcHl0aG9uJywgJy1waCcsICc3LjAnLCAnLXRuJywgJzgnLCAnLW1hJywgJzIwMCcsICctbWV0YWxfYmluZGluZycsICctaW1hZScsICc8aW5maWxlLm1hZT4nLCAnLW9tYWUnLCAnPG91dGZpbGUubWFlPic=

> <r_epik_Ionization_Penalty>
6.7666

> <r_epik_Ionization_Penalty_Charging>
6.7666

> <r_epik_Ionization_Penalty_Neutral>
5.77131e-06

> <r_epik_State_Penalty>
6.79217

> <r_epik_Charging_Adjusted_Penalty>
13.5588

> <i_epik_Tot_Q>
0

> <i_epik_Tot_abs_Q>
2

> <r_epik_Metal_State_Penalty>
2.72569

> <b_epik_Metal_Only>
1

> <s_lp_Force_Field>
OPLS_2005

> <r_lp_Energy>
13.1294

> <b_lp_Chiralities_Consistent>
1

> <s_lp_Variant>
AV-unprocessed.smi:2045-3

> <Gold.Version>
5.8.1

> <Gold.Id.Protein>
6NUR|6NUR_protein|mol2

> <Gold.PLP.Fitness>
39.9715

> <Gold.PLP.PLP>
-30.0016

> <Gold.PLP.part.hbond>
-5.0000

> <Gold.PLP.part.metal>
0.0000

> <Gold.PLP.part.buried>
-1.6094

> <Gold.PLP.part.nonpolar>
-24.0144

> <Gold.PLP.part.repulsive>
0.9785

> <Gold.PLP.ligand.clash>
0.0000

> <Gold.PLP.ligand.torsion>
1.0380

> <Gold.PLP.Chemscore.Hbond>
4.0000

> <Gold.PLP.Chemscore.CHOScore>
0.0000

> <Gold.PLP.Chemscore.Metal>
0.0000

> <Gold.Chemscore.Hbonds>
donor molecule, donor type, donor heavy atom, donor atom, acceptor molecule, acceptor atom, score
      L1  H     5    23       P1  7948  1.00
      L1  H    11    38       P1 10747  1.00
      P1  H  7989  7998       L1    18  1.00
      P1  H 10752 10763       L1     7  0.99

> <Gold.PLP.Chemscore.Internal.Correction>
0.0460

> <Gold.Rescore>
     Score         DG    S(hbond)    S(metal)    S(lipo)     H(rot)  DE(clash)    DE(int)     intcor
     16.74     -19.71       3.03        0.00      69.20       1.55       0.47       2.50       ----

> <Gold.Chemscore.Fitness>
16.7423

> <Gold.Chemscore.DG>
-19.7076

> <Gold.Chemscore.ZeroCoef>
-5.4800

> <Gold.Chemscore.Hbond>
3.0272

> <Gold.Chemscore.Metal>
0.0000

> <Gold.Chemscore.Lipo>
69.1973

> <Gold.Chemscore.Internal_Hbond>
0.0000

> <Gold.Chemscore.DEClash>
0.4685

> <Gold.Chemscore.DEInternal>
2.4968

> <Gold.Chemscore.Rot>
1.5544

> <Gold.Chemscore.Internal.Correction>
   9.000000E+99

> <Gold.Chemscore.Hbonds>
donor molecule, donor type, donor heavy atom, donor atom, acceptor molecule, acceptor atom, score
      L1  H     5    23       P1  7948  0.39
      L1  H    11    38       P1 10747  0.98
      P1  H  7989  7998       L1    18  0.91
      P1  H 10752 10763       L1     7  0.31

> <Gold.Chemscore.Hbond.Weighted>
-10.1109

> <Gold.Chemscore.Metal.Weighted>
-0.0000

> <Gold.Chemscore.Lipo.Weighted>
-8.0961

> <Gold.Chemscore.Internal_Hbond.Weighted>
0.0000

> <Gold.Chemscore.DEClash.Weighted>
0.4685

> <Gold.Chemscore.DEInternal.Weighted>
2.4968

> <Gold.Chemscore.Rot.Weighted>
3.9794

> <Gold.Chemscore.Internal.Correction.Weighted>
   9.000000E+99

> <Gold.Protein.RotatedTorsions>
[ 6907 6896 6895 6894 ] final   57.68 input  -60.11 | X-H torsion
[ 7974 7965 7964 7962 ] final  156.99 input  175.53 | X-H torsion
[ 8008 7997 7996 7995 ] final  -82.76 input   59.86 | X-H torsion
[ 10167 10162 10161 10158 ] final  118.45 input  -65.29 | X-H torsion
[ 10718 10713 10712 10709 ] final  -58.99 input   66.30 | X-H torsion
[ 10763 10752 10751 10750 ] final   85.83 input  -60.55 | X-H torsion
[ 11005 11000 10999 10996 ] final   85.36 input  -57.11 | X-H torsion

> <Gold.Protein.ActiveResidues>
 VAL166  LYS551  ARG553  GLY616  TRP617  ASP618  TYR619  PRO620  LYS621  CYS622 
 ASP623  PHE694  ASN695  SER759  ASP760  ASP761  ALA762  ILE779  LEU786  VAL792 
 PHE793  MET794  SER795  GLU796  ALA797  LYS798  CYS799  TRP800  GLU811  SER814 

> <Gold.Protein.RotatedAtoms>
  152.3754  134.6672  160.0161 H   0  0  0  0  0  0  0  0  0  0  0  0  # atno 6907 bound_to 6896
  151.6952  133.3305  159.3261 H   0  0  0  0  0  0  0  0  0  0  0  0  # atno 6908 bound_to 6896
  150.7705  134.6599  159.6379 H   0  0  0  0  0  0  0  0  0  0  0  0  # atno 6909 bound_to 6896
  144.7930  139.7280  143.6213 H   0  0  0  0  0  0  0  0  0  0  0  0  # atno 7974 bound_to 7965
  154.6119  140.0628  156.9505 H   0  0  0  0  0  0  0  0  0  0  0  0  # atno 8008 bound_to 7997
  155.1958  140.3311  155.4332 H   0  0  0  0  0  0  0  0  0  0  0  0  # atno 8009 bound_to 7997
  156.2382  140.1873  156.7045 H   0  0  0  0  0  0  0  0  0  0  0  0  # atno 8010 bound_to 7997
  139.6111  144.7082  151.2843 H   0  0  0  0  0  0  0  0  0  0  0  0  # atno 10167 bound_to 10162
  156.1094  130.4176  150.0653 H   0  0  0  0  0  0  0  0  0  0  0  0  # atno 10718 bound_to 10713
  153.1513  135.4602  154.9640 H   0  0  0  0  0  0  0  0  0  0  0  0  # atno 10763 bound_to 10752
  154.7826  135.3193  154.7958 H   0  0  0  0  0  0  0  0  0  0  0  0  # atno 10764 bound_to 10752
  153.8463  135.6925  153.4851 H   0  0  0  0  0  0  0  0  0  0  0  0  # atno 10765 bound_to 10752
  139.8974  134.8281  156.2571 H   0  0  0  0  0  0  0  0  0  0  0  0  # atno 11005 bound_to 11000
  146.2188  139.5598  142.9632 LP  0  0  0  0  0  0  0  0  0  0  0  0  # atno 17320 bound_to 7965
  145.5746  141.0390  143.2155 LP  0  0  0  0  0  0  0  0  0  0  0  0  # atno 17321 bound_to 7965
  140.7319  143.6838  150.7979 LP  0  0  0  0  0  0  0  0  0  0  0  0  # atno 17342 bound_to 10162
  140.0432  143.5324  152.2708 LP  0  0  0  0  0  0  0  0  0  0  0  0  # atno 17343 bound_to 10162
  156.8621  130.9495  151.3617 LP  0  0  0  0  0  0  0  0  0  0  0  0  # atno 17370 bound_to 10713
  157.6274  130.8702  149.9213 LP  0  0  0  0  0  0  0  0  0  0  0  0  # atno 17371 bound_to 10713
  141.0186  133.7054  156.1231 LP  0  0  0  0  0  0  0  0  0  0  0  0  # atno 17394 bound_to 11000
  140.7265  134.4301  157.5570 LP  0  0  0  0  0  0  0  0  0  0  0  0  # atno 17395 bound_to 11000

$$$$
