AV-unprocessed.smi:2321|AV-procd|sdf|9284|dock6
  -GOLD-   2272012503D 1   1.00000     0.00000
 Structure written by MMmdl.
 36 37  0  0  0  0  0  0  0  0  1 V2000
  146.9401  138.3146  151.3333 O   0  0  0  0  0  0  0  0  0  0  0  0
  146.3446  138.3844  152.4062 C   0  0  0  0  0  0  0  0  0  0  0  0
  145.4795  137.4602  152.8676 N   0  0  0  0  0  0  0  0  0  0  0  0
  145.0504  136.2513  152.2568 C   0  0  0  0  0  0  0  0  0  0  0  0
  145.4502  135.8258  150.9669 C   0  0  0  0  0  0  0  0  0  0  0  0
  144.9656  134.5937  150.4837 C   0  0  0  0  0  0  0  0  0  0  0  0
  144.1421  133.7893  151.1888 N   0  0  0  0  0  0  0  0  0  0  0  0
  143.7740  134.1925  152.4233 C   0  0  0  0  0  0  0  0  0  0  0  0
  144.2022  135.4043  153.0011 C   0  0  0  0  0  0  0  0  0  0  0  0
  143.7990  135.7474  154.2485 F   0  0  0  0  0  0  0  0  0  0  0  0
  146.5023  139.4457  153.2187 N   0  0  0  0  0  0  0  0  0  0  0  0
  147.3559  140.6241  153.0309 C   0  0  1  0  0  0  0  0  0  0  0  0
  146.6219  141.8920  153.5082 C   0  0  0  0  0  0  0  0  0  0  0  0
  146.4857  141.9439  155.0392 C   0  0  0  0  0  0  0  0  0  0  0  0
  147.8520  141.8034  155.7277 C   0  0  0  0  0  0  0  0  0  0  0  0
  148.5778  140.5123  155.2948 C   0  0  2  0  0  0  0  0  0  0  0  0
  149.9424  140.3527  155.9963 C   0  0  0  0  0  0  0  0  0  0  0  0
  150.6704  139.4030  155.4082 F   0  0  0  0  0  0  0  0  0  0  0  0
  150.6163  141.5018  155.9520 F   0  0  0  0  0  0  0  0  0  0  0  0
  149.7611  140.0262  157.2760 F   0  0  0  0  0  0  0  0  0  0  0  0
  148.7126  140.4706  153.7557 C   0  0  0  0  0  0  0  0  0  0  0  0
  145.0113  137.6918  153.7314 H   0  0  0  0  0  0  0  0  0  0  0  0
  146.1199  136.4049  150.3504 H   0  0  0  0  0  0  0  0  0  0  0  0
  145.2530  134.2418  149.5039 H   0  0  0  0  0  0  0  0  0  0  0  0
  143.1198  133.5284  152.9684 H   0  0  0  0  0  0  0  0  0  0  0  0
  145.9488  139.4430  154.0634 H   0  0  0  0  0  0  0  0  0  0  0  0
  147.5419  140.7458  151.9624 H   0  0  0  0  0  0  0  0  0  0  0  0
  147.1750  142.7705  153.1731 H   0  0  0  0  0  0  0  0  0  0  0  0
  145.6380  141.9590  153.0420 H   0  0  0  0  0  0  0  0  0  0  0  0
  146.0173  142.8826  155.3360 H   0  0  0  0  0  0  0  0  0  0  0  0
  145.8211  141.1491  155.3798 H   0  0  0  0  0  0  0  0  0  0  0  0
  148.4683  142.6718  155.4916 H   0  0  0  0  0  0  0  0  0  0  0  0
  147.7123  141.8110  156.8090 H   0  0  0  0  0  0  0  0  0  0  0  0
  147.9590  139.6671  155.6002 H   0  0  0  0  0  0  0  0  0  0  0  0
  149.2026  139.5467  153.4479 H   0  0  0  0  0  0  0  0  0  0  0  0
  149.3734  141.2761  153.4337 H   0  0  0  0  0  0  0  0  0  0  0  0
  1  2  2  0  0  0  0
  2  3  1  0  0  0  0
  2 11  1  0  0  0  0
  3  4  1  0  0  0  0
  3 22  1  0  0  0  0
  4  9  1  0  0  0  0
  4  5  2  0  0  0  0
  5  6  1  0  0  0  0
  5 23  1  0  0  0  0
  6  7  2  0  0  0  0
  6 24  1  0  0  0  0
  7  8  1  0  0  0  0
  8  9  2  0  0  0  0
  8 25  1  0  0  0  0
  9 10  1  0  0  0  0
 11 12  1  0  0  0  0
 11 26  1  0  0  0  0
 12 21  1  0  0  0  0
 12 13  1  0  0  0  0
 12 27  1  0  0  0  0
 13 14  1  0  0  0  0
 13 28  1  0  0  0  0
 13 29  1  0  0  0  0
 14 15  1  0  0  0  0
 14 30  1  0  0  0  0
 14 31  1  0  0  0  0
 15 16  1  0  0  0  0
 15 32  1  0  0  0  0
 15 33  1  0  0  0  0
 16 17  1  0  0  0  0
 16 21  1  0  0  0  0
 16 34  1  0  0  0  0
 17 18  1  0  0  0  0
 17 19  1  0  0  0  0
 17 20  1  0  0  0  0
 21 35  1  0  0  0  0
 21 36  1  0  0  0  0
M  END
> <s_m_source_file>
AV-unprocessed.smi

> <i_m_source_file_index>
2321

> <i_lp_mmshare_version>
43012

> <i_f3d_flags>
0

> <s_epik_input>
RkMoRikoRilbQ0BASF0oW0NIMl0xKVtDSDJdW0NIMl1bQ0gyXVtDQEhdMVtOSF1DKD1PKVtOSF1jMltjSF1bY0hdbltjSF1jMkY=

> <s_epik_cmdline>
J2VwaWtfcHl0aG9uJywgJy1waCcsICc3LjAnLCAnLXRuJywgJzgnLCAnLW1hJywgJzIwMCcsICctbWV0YWxfYmluZGluZycsICctaW1hZScsICc8aW5maWxlLm1hZT4nLCAnLW9tYWUnLCAnPG91dGZpbGUubWFlPic=

> <r_epik_Ionization_Penalty>
0.00319438

> <r_epik_Ionization_Penalty_Charging>
0

> <r_epik_Ionization_Penalty_Neutral>
0.00319438

> <r_epik_State_Penalty>
0.00222511

> <r_epik_Charging_Adjusted_Penalty>
0.00222511

> <i_epik_Tot_Q>
0

> <i_epik_Tot_abs_Q>
0

> <r_epik_Metal_State_Penalty>
-0

> <b_epik_Metal_Only>
0

> <s_lp_Force_Field>
OPLS_2005

> <r_lp_Energy>
25.9848

> <b_lp_Chiralities_Consistent>
1

> <s_lp_Variant>
AV-unprocessed.smi:2321-4

> <Gold.Version>
5.8.1

> <Gold.Id.Protein>
6NUR|6NUR_protein|mol2

> <Gold.PLP.Fitness>
39.0608

> <Gold.PLP.PLP>
-31.4813

> <Gold.PLP.part.hbond>
-1.9644

> <Gold.PLP.part.metal>
0.0000

> <Gold.PLP.part.buried>
-1.1935

> <Gold.PLP.part.nonpolar>
-30.4615

> <Gold.PLP.part.repulsive>
1.0354

> <Gold.PLP.ligand.clash>
0.0000

> <Gold.PLP.ligand.torsion>
0.6667

> <Gold.PLP.Chemscore.Hbond>
1.0000

> <Gold.PLP.Chemscore.CHOScore>
1.9639

> <Gold.PLP.Chemscore.Metal>
0.0000

> <Gold.Chemscore.Hbonds>
donor molecule, donor type, donor heavy atom, donor atom, acceptor molecule, acceptor atom, score
      P1  H  7954  7966       L1     1  1.00
      L1  C     6    24       P1  7921  1.00
      L1  C     8    25       P1 10957  0.92

> <Gold.PLP.Chemscore.Internal.Correction>
0.0211

> <Gold.Rescore>
     Score         DG    S(hbond)    S(metal)    S(lipo)     H(rot)  DE(clash)    DE(int)     intcor
     10.58     -13.46       0.93        0.00      63.56       1.00       1.23       1.66       ----

> <Gold.Chemscore.Fitness>
10.5761

> <Gold.Chemscore.DG>
-13.4639

> <Gold.Chemscore.ZeroCoef>
-5.4800

> <Gold.Chemscore.Hbond>
0.9304

> <Gold.Chemscore.Metal>
0.0000

> <Gold.Chemscore.Lipo>
63.5571

> <Gold.Chemscore.Internal_Hbond>
0.0000

> <Gold.Chemscore.DEClash>
1.2311

> <Gold.Chemscore.DEInternal>
1.6566

> <Gold.Chemscore.Rot>
1.0000

> <Gold.Chemscore.Internal.Correction>
   9.000000E+99

> <Gold.Chemscore.Hbonds>
donor molecule, donor type, donor heavy atom, donor atom, acceptor molecule, acceptor atom, score
      P1  H  7954  7966       L1     1  0.99

> <Gold.Chemscore.Hbond.Weighted>
-3.1077

> <Gold.Chemscore.Metal.Weighted>
-0.0000

> <Gold.Chemscore.Lipo.Weighted>
-7.4362

> <Gold.Chemscore.Internal_Hbond.Weighted>
0.0000

> <Gold.Chemscore.DEClash.Weighted>
1.2311

> <Gold.Chemscore.DEInternal.Weighted>
1.6566

> <Gold.Chemscore.Rot.Weighted>
2.5600

> <Gold.Chemscore.Internal.Correction.Weighted>
   9.000000E+99

> <Gold.Protein.RotatedTorsions>
[ 6907 6896 6895 6894 ] final   61.02 input  -60.11 | X-H torsion
[ 7974 7965 7964 7962 ] final   59.54 input  175.53 | X-H torsion
[ 8008 7997 7996 7995 ] final   19.49 input   59.86 | X-H torsion
[ 10167 10162 10161 10158 ] final  119.43 input  -65.29 | X-H torsion
[ 10718 10713 10712 10709 ] final -132.15 input   66.30 | X-H torsion
[ 10763 10752 10751 10750 ] final -122.37 input  -60.55 | X-H torsion
[ 11005 11000 10999 10996 ] final  -73.75 input  -57.11 | X-H torsion

> <Gold.Protein.ActiveResidues>
 VAL166  LYS551  ARG553  GLY616  TRP617  ASP618  TYR619  PRO620  LYS621  CYS622 
 ASP623  PHE694  ASN695  SER759  ASP760  ASP761  ALA762  ILE779  LEU786  VAL792 
 PHE793  MET794  SER795  GLU796  ALA797  LYS798  CYS799  TRP800  GLU811  SER814 

> <Gold.Protein.RotatedAtoms>
  152.4053  134.6217  160.0052 H   0  0  0  0  0  0  0  0  0  0  0  0  # atno 6907 bound_to 6896
  151.6410  133.3320  159.3138 H   0  0  0  0  0  0  0  0  0  0  0  0  # atno 6908 bound_to 6896
  150.7949  134.7042  159.6612 H   0  0  0  0  0  0  0  0  0  0  0  0  # atno 6909 bound_to 6896
  145.9060  139.3617  143.0564 H   0  0  0  0  0  0  0  0  0  0  0  0  # atno 7974 bound_to 7965
  154.9215  140.3028  155.5213 H   0  0  0  0  0  0  0  0  0  0  0  0  # atno 8008 bound_to 7997
  156.3009  140.2370  156.4202 H   0  0  0  0  0  0  0  0  0  0  0  0  # atno 8009 bound_to 7997
  154.8326  140.0417  157.1476 H   0  0  0  0  0  0  0  0  0  0  0  0  # atno 8010 bound_to 7997
  139.6047  144.7066  151.2982 H   0  0  0  0  0  0  0  0  0  0  0  0  # atno 10167 bound_to 10162
  156.2317  130.7041  151.0865 H   0  0  0  0  0  0  0  0  0  0  0  0  # atno 10718 bound_to 10713
  154.8688  135.4135  154.2771 H   0  0  0  0  0  0  0  0  0  0  0  0  # atno 10763 bound_to 10752
  153.3670  135.7006  153.6673 H   0  0  0  0  0  0  0  0  0  0  0  0  # atno 10764 bound_to 10752
  153.5550  135.3621  155.2747 H   0  0  0  0  0  0  0  0  0  0  0  0  # atno 10765 bound_to 10752
  141.1627  133.6888  156.7260 H   0  0  0  0  0  0  0  0  0  0  0  0  # atno 11005 bound_to 11000
  145.8731  140.9408  143.0640 LP  0  0  0  0  0  0  0  0  0  0  0  0  # atno 17320 bound_to 7965
  144.6739  140.0681  143.7474 LP  0  0  0  0  0  0  0  0  0  0  0  0  # atno 17321 bound_to 7965
  140.7276  143.6959  150.7884 LP  0  0  0  0  0  0  0  0  0  0  0  0  # atno 17342 bound_to 10162
  140.0543  143.5219  152.2659 LP  0  0  0  0  0  0  0  0  0  0  0  0  # atno 17343 bound_to 10162
  157.7136  131.0721  150.6411 LP  0  0  0  0  0  0  0  0  0  0  0  0  # atno 17370 bound_to 10713
  156.6479  130.4477  149.5729 LP  0  0  0  0  0  0  0  0  0  0  0  0  # atno 17371 bound_to 10713
  140.2781  134.8339  157.3908 LP  0  0  0  0  0  0  0  0  0  0  0  0  # atno 17394 bound_to 11000
  140.1459  134.4912  155.7997 LP  0  0  0  0  0  0  0  0  0  0  0  0  # atno 17395 bound_to 11000

$$$$
