#       Name:                AV-unprocessed.smi:3258
#       Creating user name   scv26
#       Creation time:       Fri Mar 27 18:36:49 2020


#       File generated by GOLD software.
#

@<TRIPOS>MOLECULE
AV-unprocessed.smi:3258
    43    44     1
SMALL
NO_CHARGES


@<TRIPOS>ATOM
      1 ****        -2.9113  -1.4207  -0.7640 C.3            1 S1                 0.0000
      2 ****        -2.4335  -0.5789   0.4297 C.3            1 S1                 0.0000
      3 ****        -3.0066  -1.1096   1.7580 C.3            1 S1                 0.0000
      4 ****        -2.6885  -0.2452   2.8812 N.pl3          1 S1                 0.0000
      5 ****        -3.3175   0.9190   3.2694 C.2            1 S1                 0.0000
      6 ****        -2.6621   1.3865   4.3722 C.2            1 S1                 0.0000
      7 ****        -1.6342   0.4260   4.5868 C.2            1 S1                 0.0000
      8 ****        -1.6527  -0.5498   3.6932 N.2            1 S1                 0.0000
      9 ****        -0.9728  -0.5703   0.4806 N.am           1 S1                 0.0000
     10 ****        -0.1787   0.2789  -0.1856 C.2            1 S1                 0.0000
     11 ****        -0.5887   1.1522  -0.9504 O.2            1 S1                 0.0000
     12 ****         1.1162   0.0570   0.0798 N.am           1 S1                 0.0000
     13 ****         2.2358   0.7976  -0.4929 C.3            1 S1                 0.0000
     14 ****         2.8353   0.0751  -1.7138 C.3            1 S1                 0.0000
     15 ****         4.0423   0.7725  -2.3065 C.3            1 S1                 0.0000
     16 ****         4.1268   0.1360  -3.6906 C.3            1 S1                 0.0000
     17 ****         2.7861  -0.1760  -4.0576 O.3            1 S1                 0.0000
     18 ****         1.9212  -0.0065  -2.9385 C.3            1 S1                 0.0000
     19 ****        -3.9996  -1.4266  -0.8285 H              1 S1                 0.0000
     20 ****        -2.5774  -2.4554  -0.6785 H              1 S1                 0.0000
     21 ****        -2.5306  -1.0240  -1.7056 H              1 S1                 0.0000
     22 ****        -2.7942   0.4421   0.2907 H              1 S1                 0.0000
     23 ****        -4.0929  -1.1837   1.6929 H              1 S1                 0.0000
     24 ****        -2.6387  -2.1165   1.9631 H              1 S1                 0.0000
     25 ****        -4.1672   1.3144   2.7324 H              1 S1                 0.0000
     26 ****        -2.8827   2.2788   4.9390 H              1 S1                 0.0000
     27 ****        -0.8802   0.4093   5.3597 H              1 S1                 0.0000
     28 ****        -0.5377  -1.2499   1.0873 H              1 S1                 0.0000
     29 ****         1.3465  -0.6840   0.7257 H              1 S1                 0.0000
     30 ****         1.9374   1.8146  -0.7538 H              1 S1                 0.0000
     31 ****         2.9969   0.8941   0.2816 H              1 S1                 0.0000
     32 ****         3.1293  -0.9363  -1.4274 H              1 S1                 0.0000
     33 ****         3.8563   1.8435  -2.3991 H              1 S1                 0.0000
     34 ****         4.9506   0.6329  -1.7196 H              1 S1                 0.0000
     35 ****         4.5991   0.7918  -4.4223 H              1 S1                 0.0000
     36 ****         4.6985  -0.7919  -3.6486 H              1 S1                 0.0000
     37 ****         1.1989  -0.8201  -2.8684 H              1 S1                 0.0000
     38 ****         1.3688   0.9247  -3.0712 H              1 S1                 0.0000
     39 ****        -1.0379  -1.3362   3.6326 LP             1 S1                 0.0000
     40 ****        -1.5706   1.2602  -1.1055 LP             1 S1                 0.0000
     41 ****         0.0603   1.7535  -1.4165 LP             1 S1                 0.0000
     42 ****         2.7409  -1.1249  -4.3701 LP             1 S1                 0.0000
     43 ****         2.4951   0.4323  -4.7960 LP             1 S1                 0.0000
@<TRIPOS>BOND
    1    1    2 1     
    2    1   19 1     
    3    1   20 1     
    4    1   21 1     
    5    2    3 1     
    6    2    9 1     
    7    2   22 1     
    8    3    4 1     
    9    3   23 1     
   10    3   24 1     
   11    4    8 1     
   12    4    5 1     
   13    5    6 2     
   14    5   25 1     
   15    6    7 1     
   16    6   26 1     
   17    7    8 2     
   18    7   27 1     
   19    9   10 am    
   20    9   28 1     
   21   10   11 2     
   22   10   12 am    
   23   12   13 1     
   24   12   29 1     
   25   13   14 1     
   26   13   30 1     
   27   13   31 1     
   28   14   18 1     
   29   14   15 1     
   30   14   32 1     
   31   15   16 1     
   32   15   33 1     
   33   15   34 1     
   34   16   17 1     
   35   16   35 1     
   36   16   36 1     
   37   17   18 1     
   38   18   37 1     
   39   18   38 1     
   40    8   39 1     
   41   11   40 1     
   42   11   41 1     
   43   17   42 1     
   44   17   43 1     
@<TRIPOS>SUBSTRUCTURE
      1 S1             1
@<TRIPOS>SET
LONE_PAIRS      STATIC     ATOMS    <user>   **** ""
5 39 40 41 42 43
DONOR_HYDROGENS      STATIC     ATOMS    <user>   **** ""
2 28 29
ATOM$BLUE        STATIC     ATOMS    COLORGROUP SYSTEM
5 39 40 41 42 43
ATOM$RED        STATIC     ATOMS    COLORGROUP SYSTEM
2 28 29
