#       Name:                AV-unprocessed.smi:2877
#       Creating user name   scv26
#       Creation time:       Fri Mar 27 15:51:11 2020


#       File generated by GOLD software.
#

@<TRIPOS>MOLECULE
AV-unprocessed.smi:2877
    46    47     1
SMALL
NO_CHARGES


@<TRIPOS>ATOM
      1 ****        -3.1285  -0.5586  -0.2086 O.2            1 S1                 0.0000
      2 ****        -2.3694   0.4107  -0.3224 C.2            1 S1                 0.0000
      3 ****        -0.8332   0.2202  -0.4631 C.3            1 S1                 0.0000
      4 ****        -0.2564  -1.2134  -0.3349 C.3            1 S1                 0.0000
      5 ****         1.1973  -1.1807  -0.4820 N.pl3          1 S1                -1.0000
      6 ****         1.8571  -1.4522  -1.6456 C.2            1 S1                 0.0000
      7 ****         1.4088  -1.7547  -2.7578 O.2            1 S1                 0.0000
      8 ****         3.3873  -1.3423  -1.4746 C.3            1 S1                 0.0000
      9 ****         3.9624  -1.3158  -2.6802 F              1 S1                 0.0000
     10 ****         3.6800  -0.1864  -0.8705 F              1 S1                 0.0000
     11 ****         3.9416  -2.5238  -0.6778 C.ar           1 S1                 0.0000
     12 ****         4.2713  -2.3899   0.6909 C.ar           1 S1                 0.0000
     13 ****         4.7683  -3.5121   1.3804 C.ar           1 S1                 0.0000
     14 ****         4.9223  -4.7243   0.6820 C.ar           1 S1                 0.0000
     15 ****         4.5666  -4.7606  -0.6805 C.ar           1 S1                 0.0000
     16 ****         4.0889  -3.6909  -1.3511 N.ar           1 S1                 0.0000
     17 ****        -2.8555   1.6787  -0.3263 N.am           1 S1                 0.0000
     18 ****        -4.2737   1.9869  -0.0936 C.3            1 S1                 0.0000
     19 ****        -4.4158   2.6494   1.2894 C.3            1 S1                 0.0000
     20 ****        -3.5269   3.9034   1.3947 C.3            1 S1                 0.0000
     21 ****        -2.0790   3.6136   0.9552 C.3            1 S1                 0.0000
     22 ****        -2.0528   2.9080  -0.4128 C.3            1 S1                 0.0000
     23 ****        -0.5413   0.6231  -1.4340 H              1 S1                 0.0000
     24 ****        -0.3512   0.8394   0.2948 H              1 S1                 0.0000
     25 ****        -0.5361  -1.6212   0.6370 H              1 S1                 0.0000
     26 ****        -0.7360  -1.8633  -1.0685 H              1 S1                 0.0000
     27 ****         4.1353  -1.4511   1.2069 H              1 S1                 0.0000
     28 ****         5.0254  -3.4443   2.4270 H              1 S1                 0.0000
     29 ****         5.3012  -5.6051   1.1786 H              1 S1                 0.0000
     30 ****         4.6696  -5.6739  -1.2474 H              1 S1                 0.0000
     31 ****        -4.6303   2.6628  -0.8721 H              1 S1                 0.0000
     32 ****        -4.9178   1.1085  -0.1502 H              1 S1                 0.0000
     33 ****        -5.4573   2.9130   1.4755 H              1 S1                 0.0000
     34 ****        -4.1333   1.9355   2.0644 H              1 S1                 0.0000
     35 ****        -3.9415   4.6866   0.7587 H              1 S1                 0.0000
     36 ****        -3.5418   4.2931   2.4129 H              1 S1                 0.0000
     37 ****        -1.5102   4.5426   0.9102 H              1 S1                 0.0000
     38 ****        -1.5883   2.9842   1.6990 H              1 S1                 0.0000
     39 ****        -1.0238   2.7453  -0.7284 H              1 S1                 0.0000
     40 ****        -2.4822   3.5611  -1.1740 H              1 S1                 0.0000
     41 ****        -2.7570  -1.4871  -0.2059 LP             1 S1                 0.0000
     42 ****        -4.1140  -0.4142  -0.1193 LP             1 S1                 0.0000
     43 ****         1.7436  -0.9443   0.3214 LP             1 S1                 0.0000
     44 ****         0.4211  -1.8293  -2.8954 LP             1 S1                 0.0000
     45 ****         2.0340  -1.9248  -3.5196 LP             1 S1                 0.0000
     46 ****         3.8498  -3.7578  -2.3198 LP             1 S1                 0.0000
@<TRIPOS>BOND
    1    1    2 2     
    2    2    3 1     
    3    2   17 am    
    4    3    4 1     
    5    3   23 1     
    6    3   24 1     
    7    4    5 1     
    8    4   25 1     
    9    4   26 1     
   10    5    6 1     
   11    6    7 2     
   12    6    8 1     
   13    8    9 1     
   14    8   10 1     
   15    8   11 1     
   16   11   16 ar    
   17   11   12 ar    
   18   12   13 ar    
   19   12   27 1     
   20   13   14 ar    
   21   13   28 1     
   22   14   15 ar    
   23   14   29 1     
   24   15   16 ar    
   25   15   30 1     
   26   17   22 1     
   27   17   18 1     
   28   18   19 1     
   29   18   31 1     
   30   18   32 1     
   31   19   20 1     
   32   19   33 1     
   33   19   34 1     
   34   20   21 1     
   35   20   35 1     
   36   20   36 1     
   37   21   22 1     
   38   21   37 1     
   39   21   38 1     
   40   22   39 1     
   41   22   40 1     
   42    1   41 1     
   43    1   42 1     
   44    5   43 1     
   45    7   44 1     
   46    7   45 1     
   47   16   46 1     
@<TRIPOS>SUBSTRUCTURE
      1 S1             1
@<TRIPOS>SET
LONE_PAIRS      STATIC     ATOMS    <user>   **** ""
6 41 42 43 44 45 46
ATOM$BLUE        STATIC     ATOMS    COLORGROUP SYSTEM
6 41 42 43 44 45 46
