AV-unprocessed.smi:270|AV-procd|sdf|2048|dock4
  -GOLD-   2262021273D 1   1.00000     0.00000
 Structure written by MMmdl.
 54 57  0  0  0  0  0  0  0  0  1 V2000
  147.1013  133.7956  152.4529 C   0  0  0  0  0  0  0  0  0  0  0  0
  146.3973  133.8912  151.0903 C   0  0  1  0  0  0  0  0  0  0  0  0
  146.0954  132.5626  150.6700 O   0  0  0  0  0  0  0  0  0  0  0  0
  144.9062  132.5815  149.9006 C   0  0  0  0  0  0  0  0  0  0  0  0
  144.0461  133.5837  150.6544 C   0  0  0  0  0  0  0  0  0  0  0  0
  145.0480  134.6640  151.0518 C   0  0  2  0  0  0  0  0  0  0  0  0
  145.1191  135.6005  149.9888 O   0  0  0  0  0  0  0  0  0  0  0  0
  144.6565  135.4331  152.3412 C   0  0  0  0  0  0  0  0  0  0  0  0
  145.6407  136.4268  152.7438 N   0  0  0  0  0  0  0  0  0  0  0  0
  145.9501  137.5918  152.0798 C   0  0  0  0  0  0  0  0  0  0  0  0
  146.8657  138.3283  152.6467 N   0  0  0  0  0  0  0  0  0  0  0  0
  147.2302  137.6113  153.7808 C   0  0  0  0  0  0  0  0  0  0  0  0
  148.1677  137.8375  154.8311 C   0  0  0  0  0  0  0  0  0  0  0  0
  148.9936  138.9938  154.9362 N   0  0  0  0  0  0  0  0  0  0  0  0
  150.3155  138.9031  154.3338 C   0  0  0  0  0  0  0  0  0  0  0  0
  150.8411  139.6349  155.5731 C   0  0  0  0  0  0  0  0  0  0  0  0
  151.0334  141.0276  155.3795 O   0  0  0  0  0  0  0  0  0  0  0  0
  150.7095  141.7951  156.5279 C   0  0  0  0  0  0  0  0  0  0  0  0
  151.8353  141.6431  157.5575 C   0  0  0  0  0  0  0  0  0  0  0  0
  152.2337  140.5079  157.8225 O   0  0  0  0  0  0  0  0  0  0  0  0
  152.3543  142.7490  158.1404 N   0  0  0  0  0  0  0  0  0  0  0  0
  151.9112  144.1094  157.8188 C   0  0  0  0  0  0  0  0  0  0  0  0
  153.4165  142.6265  159.1426 C   0  0  0  0  0  0  0  0  0  0  0  0
  149.5071  139.3326  156.2580 C   0  0  0  0  0  0  0  0  0  0  0  0
  148.2169  136.8908  155.8065 N   0  0  0  0  0  0  0  0  0  0  0  0
  147.4459  135.8011  155.7528 C   0  0  0  0  0  0  0  0  0  0  0  0
  146.5481  135.4612  154.8281 N   0  0  0  0  0  0  0  0  0  0  0  0
  146.4673  136.4101  153.8539 C   0  0  0  0  0  0  0  0  0  0  0  0
  147.3798  134.7801  152.8286 H   0  0  0  0  0  0  0  0  0  0  0  0
  148.0166  133.2091  152.3712 H   0  0  0  0  0  0  0  0  0  0  0  0
  146.4693  133.3105  153.1972 H   0  0  0  0  0  0  0  0  0  0  0  0
  147.0996  134.3150  150.3699 H   0  0  0  0  0  0  0  0  0  0  0  0
  145.1238  132.9281  148.8892 H   0  0  0  0  0  0  0  0  0  0  0  0
  144.4498  131.5934  149.8396 H   0  0  0  0  0  0  0  0  0  0  0  0
  143.2019  133.9538  150.0707 H   0  0  0  0  0  0  0  0  0  0  0  0
  143.6471  133.0965  151.5444 H   0  0  0  0  0  0  0  0  0  0  0  0
  145.5448  135.1861  149.2539 H   0  0  0  0  0  0  0  0  0  0  0  0
  143.7021  135.9435  152.2088 H   0  0  0  0  0  0  0  0  0  0  0  0
  144.5226  134.7382  153.1710 H   0  0  0  0  0  0  0  0  0  0  0  0
  145.4652  137.8839  151.1594 H   0  0  0  0  0  0  0  0  0  0  0  0
  150.6878  137.8806  154.2550 H   0  0  0  0  0  0  0  0  0  0  0  0
  150.4042  139.4561  153.3985 H   0  0  0  0  0  0  0  0  0  0  0  0
  151.6841  139.1398  156.0576 H   0  0  0  0  0  0  0  0  0  0  0  0
  150.6085  142.8456  156.2504 H   0  0  0  0  0  0  0  0  0  0  0  0
  149.7576  141.4883  156.9622 H   0  0  0  0  0  0  0  0  0  0  0  0
  152.0200  144.3141  156.7535 H   0  0  0  0  0  0  0  0  0  0  0  0
  152.4834  144.8738  158.3442 H   0  0  0  0  0  0  0  0  0  0  0  0
  150.8649  144.2505  158.0916 H   0  0  0  0  0  0  0  0  0  0  0  0
  153.0997  141.9765  159.9596 H   0  0  0  0  0  0  0  0  0  0  0  0
  153.6986  143.5818  159.5848 H   0  0  0  0  0  0  0  0  0  0  0  0
  154.3131  142.1955  158.6949 H   0  0  0  0  0  0  0  0  0  0  0  0
  149.0212  140.1987  156.7081 H   0  0  0  0  0  0  0  0  0  0  0  0
  149.5701  138.4838  156.9408 H   0  0  0  0  0  0  0  0  0  0  0  0
  147.5635  135.1045  156.5697 H   0  0  0  0  0  0  0  0  0  0  0  0
  1  2  1  0  0  0  0
  1 29  1  0  0  0  0
  1 30  1  0  0  0  0
  1 31  1  0  0  0  0
  2  6  1  0  0  0  0
  2  3  1  0  0  0  0
  2 32  1  0  0  0  0
  3  4  1  0  0  0  0
  4  5  1  0  0  0  0
  4 33  1  0  0  0  0
  4 34  1  0  0  0  0
  5  6  1  0  0  0  0
  5 35  1  0  0  0  0
  5 36  1  0  0  0  0
  6  7  1  0  0  0  0
  6  8  1  0  0  0  0
  7 37  1  0  0  0  0
  8  9  1  0  0  0  0
  8 38  1  0  0  0  0
  8 39  1  0  0  0  0
  9 28  1  0  0  0  0
  9 10  1  0  0  0  0
 10 11  2  0  0  0  0
 10 40  1  0  0  0  0
 11 12  1  0  0  0  0
 12 28  2  0  0  0  0
 12 13  1  0  0  0  0
 13 14  1  0  0  0  0
 13 25  2  0  0  0  0
 14 24  1  0  0  0  0
 14 15  1  0  0  0  0
 15 16  1  0  0  0  0
 15 41  1  0  0  0  0
 15 42  1  0  0  0  0
 16 17  1  0  0  0  0
 16 24  1  0  0  0  0
 16 43  1  0  0  0  0
 17 18  1  0  0  0  0
 18 19  1  0  0  0  0
 18 44  1  0  0  0  0
 18 45  1  0  0  0  0
 19 20  2  0  0  0  0
 19 21  1  0  0  0  0
 21 22  1  0  0  0  0
 21 23  1  0  0  0  0
 22 46  1  0  0  0  0
 22 47  1  0  0  0  0
 22 48  1  0  0  0  0
 23 49  1  0  0  0  0
 23 50  1  0  0  0  0
 23 51  1  0  0  0  0
 24 52  1  0  0  0  0
 24 53  1  0  0  0  0
 25 26  1  0  0  0  0
 26 27  2  0  0  0  0
 26 54  1  0  0  0  0
 27 28  1  0  0  0  0
M  END
> <s_m_source_file>
AV-unprocessed.smi

> <i_m_source_file_index>
270

> <i_lp_mmshare_version>
43012

> <i_f3d_flags>
0

> <s_epik_input>
W0NIMl0xW0NIMl1PW0NAQEhdKFtDSDNdKVtDQEBdMShbT0hdKVtDSDJdbihbY0hdbjIpYyhjMjMpbltjSF1uYzNONFtDSDJdW0NIXShbQ0gyXTQpT1tDSDJdQyg9TylOKFtDSDNdKVtDSDNd

> <s_epik_cmdline>
J2VwaWtfcHl0aG9uJywgJy1waCcsICc3LjAnLCAnLXRuJywgJzgnLCAnLW1hJywgJzIwMCcsICctbWV0YWxfYmluZGluZycsICctaW1hZScsICc8aW5maWxlLm1hZT4nLCAnLW9tYWUnLCAnPG91dGZpbGUubWFlPic=

> <r_lp_tautomer_probability>
1

> <r_epik_Ionization_Penalty>
0.00375854

> <r_epik_Ionization_Penalty_Charging>
0

> <r_epik_Ionization_Penalty_Neutral>
0.00375854

> <r_epik_State_Penalty>
-0

> <r_epik_Charging_Adjusted_Penalty>
0

> <i_epik_Tot_Q>
0

> <i_epik_Tot_abs_Q>
0

> <r_epik_Metal_State_Penalty>
-0

> <b_epik_Metal_Only>
0

> <s_lp_Force_Field>
OPLS_2005

> <r_lp_Energy>
53.4022

> <b_lp_Chiralities_Consistent>
1

> <s_lp_Variant>
AV-unprocessed.smi:270-4

> <Gold.Version>
5.8.1

> <Gold.Id.Protein>
6NUR|6NUR_protein|mol2

> <Gold.PLP.Fitness>
44.6022

> <Gold.PLP.PLP>
-39.5734

> <Gold.PLP.part.hbond>
-2.5814

> <Gold.PLP.part.metal>
0.0000

> <Gold.PLP.part.buried>
-3.2792

> <Gold.PLP.part.nonpolar>
-34.2290

> <Gold.PLP.part.repulsive>
0.7049

> <Gold.PLP.ligand.clash>
0.0000

> <Gold.PLP.ligand.torsion>
1.2269

> <Gold.PLP.Chemscore.Hbond>
1.3923

> <Gold.PLP.Chemscore.CHOScore>
1.0000

> <Gold.PLP.Chemscore.Metal>
0.0000

> <Gold.Chemscore.Hbonds>
donor molecule, donor type, donor heavy atom, donor atom, acceptor molecule, acceptor atom, score
      L1  H     7    37       P1  7921  1.00
      P1  H  7989  7998       L1    17  0.54
      L1  C    10    40       P1 10171  1.00

> <Gold.PLP.Chemscore.Internal.Correction>
0.3056

> <Gold.Rescore>
     Score         DG    S(hbond)    S(metal)    S(lipo)     H(rot)  DE(clash)    DE(int)     intcor
      7.57     -10.92       1.00        0.00      86.31       3.12       0.03       3.32       ----

> <Gold.Chemscore.Fitness>
7.5732

> <Gold.Chemscore.DG>
-10.9195

> <Gold.Chemscore.ZeroCoef>
-5.4800

> <Gold.Chemscore.Hbond>
0.9992

> <Gold.Chemscore.Metal>
0.0000

> <Gold.Chemscore.Lipo>
86.3088

> <Gold.Chemscore.Internal_Hbond>
0.0000

> <Gold.Chemscore.DEClash>
0.0272

> <Gold.Chemscore.DEInternal>
3.3191

> <Gold.Chemscore.Rot>
3.1234

> <Gold.Chemscore.Internal.Correction>
   9.000000E+99

> <Gold.Chemscore.Hbonds>
donor molecule, donor type, donor heavy atom, donor atom, acceptor molecule, acceptor atom, score
      L1  H     7    37       P1  7921  1.00
      P1  H  7989  7998       L1    17  0.08

> <Gold.Chemscore.Hbond.Weighted>
-3.3372

> <Gold.Chemscore.Metal.Weighted>
-0.0000

> <Gold.Chemscore.Lipo.Weighted>
-10.0981

> <Gold.Chemscore.Internal_Hbond.Weighted>
0.0000

> <Gold.Chemscore.DEClash.Weighted>
0.0272

> <Gold.Chemscore.DEInternal.Weighted>
3.3191

> <Gold.Chemscore.Rot.Weighted>
7.9959

> <Gold.Chemscore.Internal.Correction.Weighted>
   9.000000E+99

> <Gold.Protein.RotatedTorsions>
[ 6907 6896 6895 6894 ] final   92.78 input  -60.11 | X-H torsion
[ 7974 7965 7964 7962 ] final   82.03 input  175.53 | X-H torsion
[ 8008 7997 7996 7995 ] final   68.29 input   59.86 | X-H torsion
[ 10167 10162 10161 10158 ] final  -59.60 input  -65.29 | X-H torsion
[ 10718 10713 10712 10709 ] final -159.13 input   66.30 | X-H torsion
[ 10763 10752 10751 10750 ] final  -60.00 input  -60.55 | X-H torsion
[ 11005 11000 10999 10996 ] final  138.71 input  -57.11 | X-H torsion

> <Gold.Protein.ActiveResidues>
 VAL166  LYS551  ARG553  GLY616  TRP617  ASP618  TYR619  PRO620  LYS621  CYS622 
 ASP623  PHE694  ASN695  SER759  ASP760  ASP761  ALA762  ILE779  LEU786  VAL792 
 PHE793  MET794  SER795  GLU796  ALA797  LYS798  CYS799  TRP800  GLU811  SER814 

> <Gold.Protein.RotatedAtoms>
  152.5453  134.1449  159.8493 H   0  0  0  0  0  0  0  0  0  0  0  0  # atno 6907 bound_to 6896
  151.1481  133.4918  159.2603 H   0  0  0  0  0  0  0  0  0  0  0  0  # atno 6908 bound_to 6896
  151.1501  135.0233  159.8719 H   0  0  0  0  0  0  0  0  0  0  0  0  # atno 6909 bound_to 6896
  145.6304  139.2403  143.2088 H   0  0  0  0  0  0  0  0  0  0  0  0  # atno 7974 bound_to 7965
  155.7061  140.3495  155.4953 H   0  0  0  0  0  0  0  0  0  0  0  0  # atno 8008 bound_to 7997
  155.9397  140.1099  157.1087 H   0  0  0  0  0  0  0  0  0  0  0  0  # atno 8009 bound_to 7997
  154.4100  140.1215  156.4898 H   0  0  0  0  0  0  0  0  0  0  0  0  # atno 8010 bound_to 7997
  140.6124  143.2391  151.5677 H   0  0  0  0  0  0  0  0  0  0  0  0  # atno 10167 bound_to 10162
  156.5638  130.8658  151.2817 H   0  0  0  0  0  0  0  0  0  0  0  0  # atno 10718 bound_to 10713
  154.2625  135.6305  153.5279 H   0  0  0  0  0  0  0  0  0  0  0  0  # atno 10763 bound_to 10752
  152.9893  135.5591  154.5689 H   0  0  0  0  0  0  0  0  0  0  0  0  # atno 10764 bound_to 10752
  154.5241  135.2884  155.1212 H   0  0  0  0  0  0  0  0  0  0  0  0  # atno 10765 bound_to 10752
  140.0203  134.9399  157.0460 H   0  0  0  0  0  0  0  0  0  0  0  0  # atno 11005 bound_to 11000
  146.1361  140.7121  142.9389 LP  0  0  0  0  0  0  0  0  0  0  0  0  # atno 17320 bound_to 7965
  144.7196  140.4328  143.7018 LP  0  0  0  0  0  0  0  0  0  0  0  0  # atno 17321 bound_to 7965
  139.5372  144.2748  152.1276 LP  0  0  0  0  0  0  0  0  0  0  0  0  # atno 17342 bound_to 10162
  140.1950  144.4714  150.6460 LP  0  0  0  0  0  0  0  0  0  0  0  0  # atno 17343 bound_to 10162
  157.7363  130.9776  150.2128 LP  0  0  0  0  0  0  0  0  0  0  0  0  # atno 17370 bound_to 10713
  156.2775  130.3729  149.7968 LP  0  0  0  0  0  0  0  0  0  0  0  0  # atno 17371 bound_to 10713
  140.4399  134.1692  155.7173 LP  0  0  0  0  0  0  0  0  0  0  0  0  # atno 17394 bound_to 11000
  141.1769  133.8495  157.1390 LP  0  0  0  0  0  0  0  0  0  0  0  0  # atno 17395 bound_to 11000

$$$$
