AV-unprocessed.smi:2515|AV-procd|sdf|9897|dock8
  -GOLD-   2272013533D 1   1.00000     0.00000
 Structure written by MMmdl.
 36 37  0  0  0  0  0  0  0  0  1 V2000
  152.8615  135.1591  157.3931 N   0  0  0  0  0  0  0  0  0  0  0  0
  152.4247  136.0085  156.7405 C   0  0  0  0  0  0  0  0  0  0  0  0
  151.8847  137.0510  155.9346 C   0  0  0  0  0  0  0  0  0  0  0  0
  151.0952  136.7862  154.8167 N   0  0  0  0  0  0  0  0  0  0  0  0
  150.7758  137.9816  154.3278 C   0  0  0  0  0  0  0  0  0  0  0  0
  149.9818  138.1888  153.2095 N   0  0  0  0  0  0  0  0  0  0  0  0
  151.2877  139.0199  155.0180 N   0  0  0  0  0  0  0  0  0  0  0  0
  151.1298  140.4456  154.7583 C   0  0  0  0  0  0  0  0  0  0  0  0
  150.3359  141.1357  155.8800 C   0  0  0  0  0  0  0  0  0  0  0  0
  151.0111  142.3397  156.3475 N   0  0  0  0  0  0  0  0  0  0  0  0
  151.1112  142.7102  157.6336 C   0  0  0  0  0  0  0  0  0  0  0  0
  150.6283  142.0556  158.5586 O   0  0  0  0  0  0  0  0  0  0  0  0
  151.8799  144.0140  157.9113 C   0  0  0  0  0  0  0  0  0  0  0  0
  153.1036  143.7882  158.8127 C   0  0  0  0  0  0  0  0  0  0  0  0
  152.6207  143.9669  160.2594 C   0  0  0  0  0  0  0  0  0  0  0  0
  151.2826  144.7161  160.1861 C   0  0  0  0  0  0  0  0  0  0  0  0
  151.0426  145.0284  158.7040 C   0  0  0  0  0  0  0  0  0  0  0  0
  151.9960  138.4196  156.0555 C   0  0  0  0  0  0  0  0  0  0  0  0
  152.6990  139.1198  157.0591 C   0  0  0  0  0  0  0  0  0  0  0  0
  153.2759  139.6923  157.8820 N   0  0  0  0  0  0  0  0  0  0  0  0
  149.5924  137.4140  152.6918 H   0  0  0  0  0  0  0  0  0  0  0  0
  149.7761  139.1173  152.8700 H   0  0  0  0  0  0  0  0  0  0  0  0
  152.1195  140.8916  154.6544 H   0  0  0  0  0  0  0  0  0  0  0  0
  150.6352  140.5867  153.7968 H   0  0  0  0  0  0  0  0  0  0  0  0
  149.3458  141.4147  155.5186 H   0  0  0  0  0  0  0  0  0  0  0  0
  150.1782  140.4520  156.7163 H   0  0  0  0  0  0  0  0  0  0  0  0
  151.4333  142.9316  155.6467 H   0  0  0  0  0  0  0  0  0  0  0  0
  152.1901  144.4458  156.9582 H   0  0  0  0  0  0  0  0  0  0  0  0
  153.5731  142.8150  158.6596 H   0  0  0  0  0  0  0  0  0  0  0  0
  153.8583  144.5424  158.5861 H   0  0  0  0  0  0  0  0  0  0  0  0
  152.4759  142.9957  160.7348 H   0  0  0  0  0  0  0  0  0  0  0  0
  153.3556  144.5118  160.8530 H   0  0  0  0  0  0  0  0  0  0  0  0
  150.4840  144.0785  160.5676 H   0  0  0  0  0  0  0  0  0  0  0  0
  151.2882  145.6240  160.7902 H   0  0  0  0  0  0  0  0  0  0  0  0
  151.3981  146.0357  158.4830 H   0  0  0  0  0  0  0  0  0  0  0  0
  149.9821  145.0015  158.4486 H   0  0  0  0  0  0  0  0  0  0  0  0
  1  2  3  0  0  0  0
  2  3  1  0  0  0  0
  3 18  2  0  0  0  0
  3  4  1  0  0  0  0
  4  5  2  0  0  0  0
  5  6  1  0  0  0  0
  5  7  1  0  0  0  0
  6 21  1  0  0  0  0
  6 22  1  0  0  0  0
  7  8  1  0  0  0  0
  7 18  1  0  0  0  0
  8  9  1  0  0  0  0
  8 23  1  0  0  0  0
  8 24  1  0  0  0  0
  9 10  1  0  0  0  0
  9 25  1  0  0  0  0
  9 26  1  0  0  0  0
 10 11  1  0  0  0  0
 10 27  1  0  0  0  0
 11 12  2  0  0  0  0
 11 13  1  0  0  0  0
 13 17  1  0  0  0  0
 13 14  1  0  0  0  0
 13 28  1  0  0  0  0
 14 15  1  0  0  0  0
 14 29  1  0  0  0  0
 14 30  1  0  0  0  0
 15 16  1  0  0  0  0
 15 31  1  0  0  0  0
 15 32  1  0  0  0  0
 16 17  1  0  0  0  0
 16 33  1  0  0  0  0
 16 34  1  0  0  0  0
 17 35  1  0  0  0  0
 17 36  1  0  0  0  0
 18 19  1  0  0  0  0
 19 20  3  0  0  0  0
M  END
> <s_m_source_file>
AV-unprocessed.smi

> <i_m_source_file_index>
2515

> <i_lp_mmshare_version>
43012

> <i_f3d_flags>
0

> <s_epik_input>
TiNDYzFuYyhbTkgyXSluKGMxQyNOKVtDSDJdW0NIMl1bTkhdQyg9TylbQ0hdMltDSDJdW0NIMl1bQ0gyXVtDSDJdMg==

> <s_epik_cmdline>
J2VwaWtfcHl0aG9uJywgJy1waCcsICc3LjAnLCAnLXRuJywgJzgnLCAnLW1hJywgJzIwMCcsICctbWV0YWxfYmluZGluZycsICctaW1hZScsICc8aW5maWxlLm1hZT4nLCAnLW9tYWUnLCAnPG91dGZpbGUubWFlPic=

> <r_lp_tautomer_probability>
1

> <r_epik_Ionization_Penalty>
0.000275801

> <r_epik_Ionization_Penalty_Charging>
2.18328e-09

> <r_epik_Ionization_Penalty_Neutral>
0.000275798

> <r_epik_State_Penalty>
-0

> <r_epik_Charging_Adjusted_Penalty>
2.18328e-09

> <i_epik_Tot_Q>
0

> <i_epik_Tot_abs_Q>
0

> <r_epik_Metal_State_Penalty>
-0

> <b_epik_Metal_Only>
0

> <s_lp_Force_Field>
OPLS_2005

> <r_lp_Energy>
23.1048

> <b_lp_Chiralities_Consistent>
1

> <s_lp_Variant>
AV-unprocessed.smi:2515-1

> <Gold.Version>
5.8.1

> <Gold.Id.Protein>
6NUR|6NUR_protein|mol2

> <Gold.PLP.Fitness>
43.7122

> <Gold.PLP.PLP>
-36.1564

> <Gold.PLP.part.hbond>
-5.3255

> <Gold.PLP.part.metal>
0.0000

> <Gold.PLP.part.buried>
2.0053

> <Gold.PLP.part.nonpolar>
-32.4183

> <Gold.PLP.part.repulsive>
0.3865

> <Gold.PLP.ligand.clash>
0.0000

> <Gold.PLP.ligand.torsion>
0.5249

> <Gold.PLP.Chemscore.Hbond>
2.8606

> <Gold.PLP.Chemscore.CHOScore>
0.0000

> <Gold.PLP.Chemscore.Metal>
0.0000

> <Gold.Chemscore.Hbonds>
donor molecule, donor type, donor heavy atom, donor atom, acceptor molecule, acceptor atom, score
      L1  H     6    21       P1  7948  1.00
      L1  H     6    22       P1  7957  0.75
      P1  H  7997  8010       L1    20  0.94
      P1  H 10752 10765       L1     4  0.02

> <Gold.PLP.Chemscore.Internal.Correction>
0.0238

> <Gold.Rescore>
     Score         DG    S(hbond)    S(metal)    S(lipo)     H(rot)  DE(clash)    DE(int)     intcor
     15.67     -18.06       2.35        0.00      89.10       2.23       1.85       0.55       ----

> <Gold.Chemscore.Fitness>
15.6666

> <Gold.Chemscore.DG>
-18.0618

> <Gold.Chemscore.ZeroCoef>
-5.4800

> <Gold.Chemscore.Hbond>
2.3526

> <Gold.Chemscore.Metal>
0.0000

> <Gold.Chemscore.Lipo>
89.0988

> <Gold.Chemscore.Internal_Hbond>
0.0000

> <Gold.Chemscore.DEClash>
1.8469

> <Gold.Chemscore.DEInternal>
0.5482

> <Gold.Chemscore.Rot>
2.2267

> <Gold.Chemscore.Internal.Correction>
   9.000000E+99

> <Gold.Chemscore.Hbonds>
donor molecule, donor type, donor heavy atom, donor atom, acceptor molecule, acceptor atom, score
      L1  H     6    21       P1  7948  0.52
      L1  H     6    22       P1  7957  0.70
      P1  H  7997  8010       L1    20  0.41

> <Gold.Chemscore.Hbond.Weighted>
-7.8576

> <Gold.Chemscore.Metal.Weighted>
-0.0000

> <Gold.Chemscore.Lipo.Weighted>
-10.4246

> <Gold.Chemscore.Internal_Hbond.Weighted>
0.0000

> <Gold.Chemscore.DEClash.Weighted>
1.8469

> <Gold.Chemscore.DEInternal.Weighted>
0.5482

> <Gold.Chemscore.Rot.Weighted>
5.7004

> <Gold.Chemscore.Internal.Correction.Weighted>
   9.000000E+99

> <Gold.Protein.RotatedTorsions>
[ 6907 6896 6895 6894 ] final  -73.77 input  -60.11 | X-H torsion
[ 7974 7965 7964 7962 ] final -104.75 input  175.53 | X-H torsion
[ 8008 7997 7996 7995 ] final   20.07 input   59.86 | X-H torsion
[ 10167 10162 10161 10158 ] final -107.53 input  -65.29 | X-H torsion
[ 10718 10713 10712 10709 ] final -179.26 input   66.30 | X-H torsion
[ 10763 10752 10751 10750 ] final  156.81 input  -60.55 | X-H torsion
[ 11005 11000 10999 10996 ] final  164.23 input  -57.11 | X-H torsion

> <Gold.Protein.ActiveResidues>
 VAL166  LYS551  ARG553  GLY616  TRP617  ASP618  TYR619  PRO620  LYS621  CYS622 
 ASP623  PHE694  ASN695  SER759  ASP760  ASP761  ALA762  ILE779  LEU786  VAL792 
 PHE793  MET794  SER795  GLU796  ALA797  LYS798  CYS799  TRP800  GLU811  SER814 

> <Gold.Protein.RotatedAtoms>
  150.7117  134.4967  159.5541 H   0  0  0  0  0  0  0  0  0  0  0  0  # atno 6907 bound_to 6896
  152.2573  134.8067  160.0445 H   0  0  0  0  0  0  0  0  0  0  0  0  # atno 6908 bound_to 6896
  151.8793  133.3457  159.3798 H   0  0  0  0  0  0  0  0  0  0  0  0  # atno 6909 bound_to 6896
  145.2392  140.9199  143.3160 H   0  0  0  0  0  0  0  0  0  0  0  0  # atno 7974 bound_to 7965
  154.9302  140.3039  155.5172 H   0  0  0  0  0  0  0  0  0  0  0  0  # atno 8008 bound_to 7997
  156.3004  140.2355  156.4298 H   0  0  0  0  0  0  0  0  0  0  0  0  # atno 8009 bound_to 7997
  154.8245  140.0421  157.1423 H   0  0  0  0  0  0  0  0  0  0  0  0  # atno 8010 bound_to 7997
  140.1760  143.4005  152.1318 H   0  0  0  0  0  0  0  0  0  0  0  0  # atno 10167 bound_to 10162
  156.8564  130.9737  151.3087 H   0  0  0  0  0  0  0  0  0  0  0  0  # atno 10718 bound_to 10713
  154.1902  135.2795  155.3024 H   0  0  0  0  0  0  0  0  0  0  0  0  # atno 10763 bound_to 10752
  154.5934  135.5552  153.7305 H   0  0  0  0  0  0  0  0  0  0  0  0  # atno 10764 bound_to 10752
  153.0114  135.6374  154.2041 H   0  0  0  0  0  0  0  0  0  0  0  0  # atno 10765 bound_to 10752
  140.2438  134.8030  157.3436 H   0  0  0  0  0  0  0  0  0  0  0  0  # atno 11005 bound_to 11000
  144.9605  139.3985  143.6358 LP  0  0  0  0  0  0  0  0  0  0  0  0  # atno 17320 bound_to 7965
  146.3333  139.8656  142.8849 LP  0  0  0  0  0  0  0  0  0  0  0  0  # atno 17321 bound_to 7965
  139.5317  144.7166  151.5033 LP  0  0  0  0  0  0  0  0  0  0  0  0  # atno 17342 bound_to 10162
  140.6551  143.8616  150.6826 LP  0  0  0  0  0  0  0  0  0  0  0  0  # atno 17343 bound_to 10162
  157.6274  130.8703  149.9214 LP  0  0  0  0  0  0  0  0  0  0  0  0  # atno 17370 bound_to 10713
  156.0800  130.3674  150.0599 LP  0  0  0  0  0  0  0  0  0  0  0  0  # atno 17371 bound_to 10713
  140.1626  134.4709  155.7884 LP  0  0  0  0  0  0  0  0  0  0  0  0  # atno 17394 bound_to 11000
  141.2208  133.6908  156.7571 LP  0  0  0  0  0  0  0  0  0  0  0  0  # atno 17395 bound_to 11000

$$$$
