#       Name:                AV-unprocessed.smi:886
#       Creating user name   scv26
#       Creation time:       Fri Mar 27 01:53:57 2020


#       File generated by GOLD software.
#

@<TRIPOS>MOLECULE
AV-unprocessed.smi:886
    40    42     1
SMALL
NO_CHARGES


@<TRIPOS>ATOM
      1 ****        -3.2455  -3.3513  -0.6032 C.3            1 S1                 0.0000
      2 ****        -1.8132  -3.0983  -0.5846 N.am           1 S1                 0.0000
      3 ****        -1.2491  -1.9877  -0.0855 C.2            1 S1                 0.0000
      4 ****        -1.8989  -1.0580   0.3947 O.2            1 S1                 0.0000
      5 ****         0.2544  -1.9313  -0.1827 C.ar           1 S1                 0.0000
      6 ****         1.0151  -3.0860   0.1175 C.ar           1 S1                 0.0000
      7 ****         2.4187  -3.0305   0.0539 C.ar           1 S1                 0.0000
      8 ****         3.0198  -1.8120  -0.3041 C.ar           1 S1                 0.0000
      9 ****         2.3146  -0.6987  -0.5872 N.ar           1 S1                 0.0000
     10 ****         0.9610  -0.7422  -0.5270 C.ar           1 S1                 0.0000
     11 ****         0.2707   0.4395  -0.8505 N.pl3          1 S1                 0.0000
     12 ****         0.9158   1.7403  -0.6979 C.3            1 S1                 0.0000
     13 ****         0.0164   2.9026  -1.1259 C.3            1 S1                 0.0000
     14 ****         0.0311   3.7917   0.1252 C.3            1 S1                 0.0000
     15 ****        -0.8271   3.1962   1.2491 C.3            1 S1                 0.0000
     16 ****         0.0390   2.0274   1.7138 C.3            1 S1                 0.0000
     17 ****         1.2425   2.1239   0.7604 C.3            1 S1                 0.0000
     18 ****         1.3326   3.5321   0.6244 O.3            1 S1                 0.0000
     19 ****        -3.4451  -4.3274  -1.0451 H              1 S1                 0.0000
     20 ****        -3.7652  -2.5966  -1.1949 H              1 S1                 0.0000
     21 ****        -3.6546  -3.3445   0.4080 H              1 S1                 0.0000
     22 ****        -1.2125  -3.8091  -0.9766 H              1 S1                 0.0000
     23 ****         0.5345  -4.0110   0.4020 H              1 S1                 0.0000
     24 ****         3.0192  -3.8996   0.2773 H              1 S1                 0.0000
     25 ****         4.0947  -1.7284  -0.3645 H              1 S1                 0.0000
     26 ****        -0.7350   0.4200  -0.7581 H              1 S1                 0.0000
     27 ****         1.8265   1.7694  -1.2981 H              1 S1                 0.0000
     28 ****         0.4540   3.4239  -1.9778 H              1 S1                 0.0000
     29 ****        -0.9954   2.6001  -1.3996 H              1 S1                 0.0000
     30 ****        -0.1731   4.8434  -0.0764 H              1 S1                 0.0000
     31 ****        -0.9665   3.9147   2.0576 H              1 S1                 0.0000
     32 ****        -1.8102   2.8807   0.8979 H              1 S1                 0.0000
     33 ****         0.3575   2.1805   2.7455 H              1 S1                 0.0000
     34 ****        -0.4747   1.0675   1.6628 H              1 S1                 0.0000
     35 ****         2.1484   1.6574   1.1485 H              1 S1                 0.0000
     36 ****        -2.8971  -1.1092   0.4258 LP             1 S1                 0.0000
     37 ****        -1.4283  -0.2519   0.7536 LP             1 S1                 0.0000
     38 ****         2.7836   0.1481  -0.8383 LP             1 S1                 0.0000
     39 ****         1.4944   3.9838   1.5018 LP             1 S1                 0.0000
     40 ****         2.0437   3.8012  -0.0251 LP             1 S1                 0.0000
@<TRIPOS>BOND
    1    1    2 1     
    2    1   19 1     
    3    1   20 1     
    4    1   21 1     
    5    2    3 am    
    6    2   22 1     
    7    3    4 2     
    8    3    5 1     
    9    5   10 ar    
   10    5    6 ar    
   11    6    7 ar    
   12    6   23 1     
   13    7    8 ar    
   14    7   24 1     
   15    8    9 ar    
   16    8   25 1     
   17    9   10 ar    
   18   10   11 1     
   19   11   12 1     
   20   11   26 1     
   21   12   17 1     
   22   12   13 1     
   23   12   27 1     
   24   13   14 1     
   25   13   28 1     
   26   13   29 1     
   27   14   18 1     
   28   14   15 1     
   29   14   30 1     
   30   15   16 1     
   31   15   31 1     
   32   15   32 1     
   33   16   17 1     
   34   16   33 1     
   35   16   34 1     
   36   17   18 1     
   37   17   35 1     
   38    4   36 1     
   39    4   37 1     
   40    9   38 1     
   41   18   39 1     
   42   18   40 1     
@<TRIPOS>SUBSTRUCTURE
      1 S1             1
@<TRIPOS>SET
LONE_PAIRS      STATIC     ATOMS    <user>   **** ""
5 36 37 38 39 40
DONOR_HYDROGENS      STATIC     ATOMS    <user>   **** ""
2 22 26
ATOM$BLUE        STATIC     ATOMS    COLORGROUP SYSTEM
5 36 37 38 39 40
ATOM$RED        STATIC     ATOMS    COLORGROUP SYSTEM
2 22 26
