AV-unprocessed.smi:1285|AV-procd|sdf|5371|dock9
  -GOLD-   22720 4513D 1   1.00000     0.00000
 Structure written by MMmdl.
 47 48  0  0  0  0  0  0  0  0  2 V2000
  147.7803  134.0684  156.9628 C   0  0  0  0  0  0  0  0  0  0  0  0
  147.1355  134.1362  155.5669 C   0  0  0  0  0  0  0  0  0  0  0  0
  147.7547  135.1803  154.5867 C   0  0  1  0  0  0  0  0  0  0  0  0
  147.4345  136.5881  155.1567 C   0  0  0  0  0  0  0  0  0  0  0  0
  149.3045  135.0017  154.5308 C   0  0  0  0  0  0  0  0  0  0  0  0
  150.0097  136.2345  154.1870 N   0  0  0  0  0  0  0  0  0  0  0  0
  151.0735  136.7395  154.8313 C   0  0  0  0  0  0  0  0  0  0  0  0
  151.6390  136.1615  155.7602 O   0  0  0  0  0  0  0  0  0  0  0  0
  151.5294  138.1325  154.3748 C   0  0  2  0  0  0  0  0  0  0  0  0
  152.8900  138.5456  154.9668 C   0  0  0  0  0  0  0  0  0  0  0  0
  150.4937  139.1067  154.6910 N   0  0  0  0  0  0  0  0  0  0  0  0
  149.1855  139.1124  154.4192 C   0  0  0  0  0  0  0  0  0  0  0  0
  148.5584  140.2089  154.8206 N   0  0  0  0  0  0  0  0  0  0  0  0
  149.6108  140.8862  155.3671 C   0  0  0  0  0  0  0  0  0  0  0  0
  150.7943  140.2760  155.3059 N   0  0  0  0  0  0  0  0  0  0  0  0
  147.1500  135.0186  153.2138 N   0  3  0  0  0  0  0  0  0  0  0  0
  147.2147  133.6504  152.6261 C   0  0  0  0  0  0  0  0  0  0  0  0
  146.7440  133.6684  151.1616 C   0  0  0  0  0  0  0  0  0  0  0  0
  145.4258  134.1923  151.0845 O   0  0  0  0  0  0  0  0  0  0  0  0
  145.3639  135.5300  151.5584 C   0  0  0  0  0  0  0  0  0  0  0  0
  145.7757  135.5696  153.0389 C   0  0  0  0  0  0  0  0  0  0  0  0
  147.2885  133.3086  157.5705 H   0  0  0  0  0  0  0  0  0  0  0  0
  147.6964  135.0141  157.4977 H   0  0  0  0  0  0  0  0  0  0  0  0
  148.8359  133.8029  156.9091 H   0  0  0  0  0  0  0  0  0  0  0  0
  147.2081  133.1386  155.1330 H   0  0  0  0  0  0  0  0  0  0  0  0
  146.0649  134.3052  155.6784 H   0  0  0  0  0  0  0  0  0  0  0  0
  147.6513  136.6507  156.2240 H   0  0  0  0  0  0  0  0  0  0  0  0
  146.3837  136.8487  155.0283 H   0  0  0  0  0  0  0  0  0  0  0  0
  148.0282  137.3680  154.6794 H   0  0  0  0  0  0  0  0  0  0  0  0
  149.6907  134.6115  155.4725 H   0  0  0  0  0  0  0  0  0  0  0  0
  149.5770  134.2693  153.7718 H   0  0  0  0  0  0  0  0  0  0  0  0
  149.6172  136.7845  153.4361 H   0  0  0  0  0  0  0  0  0  0  0  0
  151.6428  138.1002  153.2892 H   0  0  0  0  0  0  0  0  0  0  0  0
  153.6669  137.8252  154.7081 H   0  0  0  0  0  0  0  0  0  0  0  0
  152.8560  138.6218  156.0543 H   0  0  0  0  0  0  0  0  0  0  0  0
  153.2028  139.5155  154.5788 H   0  0  0  0  0  0  0  0  0  0  0  0
  148.6848  138.3038  153.9067 H   0  0  0  0  0  0  0  0  0  0  0  0
  149.5030  141.8626  155.8163 H   0  0  0  0  0  0  0  0  0  0  0  0
  148.2283  133.2544  152.6386 H   0  0  0  0  0  0  0  0  0  0  0  0
  146.5924  132.9633  153.2000 H   0  0  0  0  0  0  0  0  0  0  0  0
  147.4204  134.2599  150.5424 H   0  0  0  0  0  0  0  0  0  0  0  0
  146.7449  132.6569  150.7549 H   0  0  0  0  0  0  0  0  0  0  0  0
  146.0044  136.1764  150.9558 H   0  0  0  0  0  0  0  0  0  0  0  0
  144.3436  135.8961  151.4427 H   0  0  0  0  0  0  0  0  0  0  0  0
  145.0571  134.9914  153.6199 H   0  0  0  0  0  0  0  0  0  0  0  0
  145.7106  136.6004  153.3812 H   0  0  0  0  0  0  0  0  0  0  0  0
  147.7371  135.5838  152.6170 H   0  0  0  0  0  0  0  0  0  0  0  0
  1  2  1  0  0  0  0
  1 22  1  0  0  0  0
  1 23  1  0  0  0  0
  1 24  1  0  0  0  0
  2  3  1  0  0  0  0
  2 25  1  0  0  0  0
  2 26  1  0  0  0  0
  3  4  1  0  0  0  0
  3  5  1  0  0  0  0
  3 16  1  0  0  0  0
  4 27  1  0  0  0  0
  4 28  1  0  0  0  0
  4 29  1  0  0  0  0
  5  6  1  0  0  0  0
  5 30  1  0  0  0  0
  5 31  1  0  0  0  0
  6  7  1  0  0  0  0
  6 32  1  0  0  0  0
  7  8  2  0  0  0  0
  7  9  1  0  0  0  0
  9 10  1  0  0  0  0
  9 11  1  0  0  0  0
  9 33  1  0  0  0  0
 10 34  1  0  0  0  0
 10 35  1  0  0  0  0
 10 36  1  0  0  0  0
 11 15  1  0  0  0  0
 11 12  1  0  0  0  0
 12 13  2  0  0  0  0
 12 37  1  0  0  0  0
 13 14  1  0  0  0  0
 14 15  2  0  0  0  0
 14 38  1  0  0  0  0
 16 21  1  0  0  0  0
 16 17  1  0  0  0  0
 16 47  1  0  0  0  0
 17 18  1  0  0  0  0
 17 39  1  0  0  0  0
 17 40  1  0  0  0  0
 18 19  1  0  0  0  0
 18 41  1  0  0  0  0
 18 42  1  0  0  0  0
 19 20  1  0  0  0  0
 20 21  1  0  0  0  0
 20 43  1  0  0  0  0
 20 44  1  0  0  0  0
 21 45  1  0  0  0  0
 21 46  1  0  0  0  0
M  CHG  1  16   1
M  END
> <s_m_source_file>
AV-unprocessed.smi

> <i_m_source_file_index>
1285

> <i_lp_mmshare_version>
43012

> <i_f3d_flags>
0

> <s_epik_input>
W0NIMl0xW0NIMl1PW0NIMl1bQ0gyXU4xW0NAQF0oW0NIM10pKFtDSDJdW0NIM10pW0NIMl1bTkhdQyg9TylbQ0BIXShbQ0gzXSluMltjSF1uW2NIXW4y

> <s_epik_cmdline>
J2VwaWtfcHl0aG9uJywgJy1waCcsICc3LjAnLCAnLXRuJywgJzgnLCAnLW1hJywgJzIwMCcsICctbWV0YWxfYmluZGluZycsICctaW1hZScsICc8aW5maWxlLm1hZT4nLCAnLW9tYWUnLCAnPG91dGZpbGUubWFlPic=

> <r_lp_tautomer_probability>
1

> <r_epik_Ionization_Penalty>
0.569304

> <r_epik_Ionization_Penalty_Charging>
0.569295

> <r_epik_Ionization_Penalty_Neutral>
8.22697e-06

> <r_epik_State_Penalty>
0.581114

> <r_epik_Charging_Adjusted_Penalty>
1.15041

> <i_epik_Tot_Q>
1

> <i_epik_Tot_abs_Q>
1

> <r_epik_Metal_State_Penalty>
0.581117

> <b_epik_Metal_Only>
0

> <s_lp_Force_Field>
OPLS_2005

> <r_lp_Energy>
33.7003

> <b_lp_Chiralities_Consistent>
1

> <s_lp_Variant>
AV-unprocessed.smi:1285-5

> <Gold.Version>
5.8.1

> <Gold.Id.Protein>
6NUR|6NUR_protein|mol2

> <Gold.PLP.Fitness>
46.8806

> <Gold.PLP.PLP>
-30.9405

> <Gold.PLP.part.hbond>
-5.0000

> <Gold.PLP.part.metal>
0.0000

> <Gold.PLP.part.buried>
-0.7531

> <Gold.PLP.part.nonpolar>
-25.1691

> <Gold.PLP.part.repulsive>
0.4148

> <Gold.PLP.ligand.clash>
0.0000

> <Gold.PLP.ligand.torsion>
1.0989

> <Gold.PLP.Chemscore.Hbond>
4.9600

> <Gold.PLP.Chemscore.CHOScore>
0.9889

> <Gold.PLP.Chemscore.Metal>
0.0000

> <Gold.Chemscore.Hbonds>
donor molecule, donor type, donor heavy atom, donor atom, acceptor molecule, acceptor atom, score
      L1  H     6    32       P1  7948  0.58
      L1  H    16    47       P1  7948  2.00
      P1  H  7989  7998       L1    15  0.31
      P1  H 10752 10763       L1     8  1.00
      L1  C    12    37       P1  7948  0.06
      L1  C    14    38       P1  8028  0.01

> <Gold.PLP.Chemscore.Internal.Correction>
0.2911

> <Gold.Rescore>
     Score         DG    S(hbond)    S(metal)    S(lipo)     H(rot)  DE(clash)    DE(int)     intcor
     10.20     -11.97       2.34        0.00      49.08       2.76       0.20       1.57       ----

> <Gold.Chemscore.Fitness>
10.1951

> <Gold.Chemscore.DG>
-11.9657

> <Gold.Chemscore.ZeroCoef>
-5.4800

> <Gold.Chemscore.Hbond>
2.3372

> <Gold.Chemscore.Metal>
0.0000

> <Gold.Chemscore.Lipo>
49.0775

> <Gold.Chemscore.Internal_Hbond>
0.0000

> <Gold.Chemscore.DEClash>
0.1959

> <Gold.Chemscore.DEInternal>
1.5747

> <Gold.Chemscore.Rot>
2.7589

> <Gold.Chemscore.Internal.Correction>
   9.000000E+99

> <Gold.Chemscore.Hbonds>
donor molecule, donor type, donor heavy atom, donor atom, acceptor molecule, acceptor atom, score
      L1  H     6    32       P1  7948  0.38
      L1  H    16    47       P1  7948  0.95
      P1  H 10752 10763       L1     8  0.59

> <Gold.Chemscore.Hbond.Weighted>
-7.8063

> <Gold.Chemscore.Metal.Weighted>
-0.0000

> <Gold.Chemscore.Lipo.Weighted>
-5.7421

> <Gold.Chemscore.Internal_Hbond.Weighted>
0.0000

> <Gold.Chemscore.DEClash.Weighted>
0.1959

> <Gold.Chemscore.DEInternal.Weighted>
1.5747

> <Gold.Chemscore.Rot.Weighted>
7.0627

> <Gold.Chemscore.Internal.Correction.Weighted>
   9.000000E+99

> <Gold.Protein.RotatedTorsions>
[ 6907 6896 6895 6894 ] final  139.89 input  -60.11 | X-H torsion
[ 7974 7965 7964 7962 ] final  -56.97 input  175.53 | X-H torsion
[ 8008 7997 7996 7995 ] final  126.42 input   59.86 | X-H torsion
[ 10167 10162 10161 10158 ] final  -65.66 input  -65.29 | X-H torsion
[ 10718 10713 10712 10709 ] final   -2.36 input   66.30 | X-H torsion
[ 10763 10752 10751 10750 ] final   94.83 input  -60.55 | X-H torsion
[ 11005 11000 10999 10996 ] final  160.76 input  -57.11 | X-H torsion

> <Gold.Protein.ActiveResidues>
 VAL166  LYS551  ARG553  GLY616  TRP617  ASP618  TYR619  PRO620  LYS621  CYS622 
 ASP623  PHE694  ASN695  SER759  ASP760  ASP761  ALA762  ILE779  LEU786  VAL792 
 PHE793  MET794  SER795  GLU796  ALA797  LYS798  CYS799  TRP800  GLU811  SER814 

> <Gold.Protein.RotatedAtoms>
  152.2496  133.5203  159.5317 H   0  0  0  0  0  0  0  0  0  0  0  0  # atno 6907 bound_to 6896
  150.7089  134.0979  159.3964 H   0  0  0  0  0  0  0  0  0  0  0  0  # atno 6908 bound_to 6896
  151.8899  135.0421  160.0547 H   0  0  0  0  0  0  0  0  0  0  0  0  # atno 6909 bound_to 6896
  145.8565  140.8316  142.9959 H   0  0  0  0  0  0  0  0  0  0  0  0  # atno 7974 bound_to 7965
  156.2863  140.2693  156.2108 H   0  0  0  0  0  0  0  0  0  0  0  0  # atno 8008 bound_to 7997
  155.0266  140.0386  157.2476 H   0  0  0  0  0  0  0  0  0  0  0  0  # atno 8009 bound_to 7997
  154.7390  140.2721  155.6394 H   0  0  0  0  0  0  0  0  0  0  0  0  # atno 8010 bound_to 7997
  140.5713  143.2318  151.6532 H   0  0  0  0  0  0  0  0  0  0  0  0  # atno 10167 bound_to 10162
  156.7920  130.5365  149.5734 H   0  0  0  0  0  0  0  0  0  0  0  0  # atno 10718 bound_to 10713
  153.2461  135.4276  155.0749 H   0  0  0  0  0  0  0  0  0  0  0  0  # atno 10763 bound_to 10752
  154.8362  135.3414  154.6579 H   0  0  0  0  0  0  0  0  0  0  0  0  # atno 10764 bound_to 10752
  153.7002  135.7029  153.5122 H   0  0  0  0  0  0  0  0  0  0  0  0  # atno 10765 bound_to 10752
  140.2091  134.8280  157.3102 H   0  0  0  0  0  0  0  0  0  0  0  0  # atno 11005 bound_to 11000
  144.6727  140.1031  143.7459 LP  0  0  0  0  0  0  0  0  0  0  0  0  # atno 17320 bound_to 7965
  145.9298  139.2599  143.1332 LP  0  0  0  0  0  0  0  0  0  0  0  0  # atno 17321 bound_to 7965
  139.5119  144.3493  152.0667 LP  0  0  0  0  0  0  0  0  0  0  0  0  # atno 17342 bound_to 10162
  140.2631  144.4045  150.6178 LP  0  0  0  0  0  0  0  0  0  0  0  0  # atno 17343 bound_to 10162
  156.1153  130.6070  151.0111 LP  0  0  0  0  0  0  0  0  0  0  0  0  # atno 17370 bound_to 10713
  157.6596  131.0883  150.7870 LP  0  0  0  0  0  0  0  0  0  0  0  0  # atno 17371 bound_to 10713
  140.1970  134.4301  155.7684 LP  0  0  0  0  0  0  0  0  0  0  0  0  # atno 17394 bound_to 11000
  141.2226  133.7054  156.8121 LP  0  0  0  0  0  0  0  0  0  0  0  0  # atno 17395 bound_to 11000

$$$$
