#       Name:                AV-unprocessed.smi:1672
#       Creating user name   scv26
#       Creation time:       Fri Mar 27 07:45:01 2020


#       File generated by GOLD software.
#

@<TRIPOS>MOLECULE
AV-unprocessed.smi:1672
    53    55     1
SMALL
NO_CHARGES


@<TRIPOS>ATOM
      1 ****        -4.1669  -3.4630  -2.2117 C.3            1 S1                 0.0000
      2 ****        -4.3048  -2.0541  -1.6086 C.3            1 S1                 0.0000
      3 ****        -3.7743  -0.9516  -2.5430 C.3            1 S1                 0.0000
      4 ****        -2.2361  -0.9235  -2.5978 C.3            1 S1                 0.0000
      5 ****        -1.6512  -0.7852  -1.2394 N.4            1 S1                 1.0000
      6 ****        -0.1758  -0.6118  -1.2740 C.3            1 S1                 0.0000
      7 ****         0.3564   0.1573  -0.0487 C.3            1 S1                 0.0000
      8 ****        -0.1493   1.4777  -0.0870 O.3            1 S1                 0.0000
      9 ****         1.8975   0.1944  -0.0189 C.3            1 S1                 0.0000
     10 ****         2.4303   0.8618   1.1806 N.pl3          1 S1                 0.0000
     11 ****         2.6648   0.3621   2.4289 C.2            1 S1                 0.0000
     12 ****         2.4348  -1.0384   2.8923 C.3            1 S1                 0.0000
     13 ****         3.5110  -1.8916   2.5729 O.3            1 S1                 0.0000
     14 ****         3.1651   1.3791   3.1849 N.pl3          1 S1                 1.0000
     15 ****         3.2507   2.5410   2.4176 C.ar           1 S1                 0.0000
     16 ****         3.6927   3.8184   2.7478 C.ar           1 S1                 0.0000
     17 ****         3.6522   4.7867   1.7234 C.ar           1 S1                 0.0000
     18 ****         3.1850   4.4689   0.4318 C.ar           1 S1                 0.0000
     19 ****         2.7393   3.1701   0.1090 C.ar           1 S1                 0.0000
     20 ****         2.7827   2.2170   1.1271 C.ar           1 S1                 0.0000
     21 ****        -2.0937  -1.8830  -0.3391 C.3            1 S1                 0.0000
     22 ****        -3.6284  -1.9270  -0.2313 C.3            1 S1                 0.0000
     23 ****        -3.1277  -3.7309  -2.4003 H              1 S1                 0.0000
     24 ****        -4.7021  -3.5356  -3.1590 H              1 S1                 0.0000
     25 ****        -4.5845  -4.2162  -1.5431 H              1 S1                 0.0000
     26 ****        -5.3730  -1.8824  -1.4686 H              1 S1                 0.0000
     27 ****        -4.1827  -1.0776  -3.5463 H              1 S1                 0.0000
     28 ****        -4.1327   0.0170  -2.1915 H              1 S1                 0.0000
     29 ****        -1.8502  -1.8257  -3.0741 H              1 S1                 0.0000
     30 ****        -1.9225  -0.0831  -3.2184 H              1 S1                 0.0000
     31 ****         0.2976  -1.5921  -1.3489 H              1 S1                 0.0000
     32 ****         0.1149  -0.0678  -2.1743 H              1 S1                 0.0000
     33 ****         0.0051  -0.3082   0.8711 H              1 S1                 0.0000
     34 ****         0.1861   1.9089  -0.8584 H              1 S1                 0.0000
     35 ****         2.2916  -0.8225  -0.0196 H              1 S1                 0.0000
     36 ****         2.3022   0.6728  -0.9109 H              1 S1                 0.0000
     37 ****         2.2890  -1.0428   3.9729 H              1 S1                 0.0000
     38 ****         1.5212  -1.4296   2.4447 H              1 S1                 0.0000
     39 ****         3.5915  -1.9386   1.6324 H              1 S1                 0.0000
     40 ****         4.0506   4.0641   3.7369 H              1 S1                 0.0000
     41 ****         3.9861   5.7929   1.9323 H              1 S1                 0.0000
     42 ****         3.1682   5.2377  -0.3273 H              1 S1                 0.0000
     43 ****         2.3825   2.9428  -0.8841 H              1 S1                 0.0000
     44 ****        -1.7106  -2.8361  -0.7061 H              1 S1                 0.0000
     45 ****        -1.6775  -1.7462   0.6582 H              1 S1                 0.0000
     46 ****        -3.9748  -1.0135   0.2542 H              1 S1                 0.0000
     47 ****        -3.9355  -2.7478   0.4177 H              1 S1                 0.0000
     48 ****        -2.0261   0.0739  -0.8619 H              1 S1                 0.0000
     49 ****         3.4326   1.2806   4.1561 H              1 S1                 0.0000
     50 ****         0.1439   1.9741   0.7301 LP             1 S1                 0.0000
     51 ****        -1.1484   1.4544  -0.1223 LP             1 S1                 0.0000
     52 ****         3.3375  -2.8047   2.9418 LP             1 S1                 0.0000
     53 ****         4.3561  -1.5286   2.9653 LP             1 S1                 0.0000
@<TRIPOS>BOND
    1    1    2 1     
    2    1   23 1     
    3    1   24 1     
    4    1   25 1     
    5    2   22 1     
    6    2    3 1     
    7    2   26 1     
    8    3    4 1     
    9    3   27 1     
   10    3   28 1     
   11    4    5 1     
   12    4   29 1     
   13    4   30 1     
   14    5    6 1     
   15    5   21 1     
   16    5   48 1     
   17    6    7 1     
   18    6   31 1     
   19    6   32 1     
   20    7    8 1     
   21    7    9 1     
   22    7   33 1     
   23    8   34 1     
   24    9   10 1     
   25    9   35 1     
   26    9   36 1     
   27   10   20 1     
   28   10   11 1     
   29   11   12 1     
   30   11   14 2     
   31   12   13 1     
   32   12   37 1     
   33   12   38 1     
   34   13   39 1     
   35   14   15 1     
   36   14   49 1     
   37   15   20 ar    
   38   15   16 ar    
   39   16   17 ar    
   40   16   40 1     
   41   17   18 ar    
   42   17   41 1     
   43   18   19 ar    
   44   18   42 1     
   45   19   20 ar    
   46   19   43 1     
   47   21   22 1     
   48   21   44 1     
   49   21   45 1     
   50   22   46 1     
   51   22   47 1     
   52    8   50 1     
   53    8   51 1     
   54   13   52 1     
   55   13   53 1     
@<TRIPOS>SUBSTRUCTURE
      1 S1             1
@<TRIPOS>SET
LONE_PAIRS      STATIC     ATOMS    <user>   **** ""
4 50 51 52 53
DONOR_HYDROGENS      STATIC     ATOMS    <user>   **** ""
4 48 34 39 49
ATOM$BLUE        STATIC     ATOMS    COLORGROUP SYSTEM
4 50 51 52 53
ATOM$RED        STATIC     ATOMS    COLORGROUP SYSTEM
4 48 34 39 49
