AV-unprocessed.smi:1111|AV-procd|sdf|4793|dock3
  -GOLD-   22720 3343D 1   1.00000     0.00000
 Structure written by MMmdl.
 32 33  0  0  0  0  0  0  0  0  1 V2000
  146.5658  135.4703  155.2074 C   0  0  0  0  0  0  0  0  0  0  0  0
  148.0904  135.2357  155.2376 C   0  0  2  0  0  0  0  0  0  0  0  0
  148.7987  136.3353  154.5715 N   0  0  0  0  0  0  0  0  0  0  0  0
  149.4136  137.3936  155.1273 C   0  0  0  0  0  0  0  0  0  0  0  0
  149.3890  137.6544  156.3292 O   0  0  0  0  0  0  0  0  0  0  0  0
  150.2069  138.2817  154.1701 C   0  0  0  0  0  0  0  0  0  0  0  0
  149.8446  139.6755  154.3498 N   0  0  0  0  0  0  0  0  0  0  0  0
  150.2302  140.5177  155.3857 C   0  0  0  0  0  0  0  0  0  0  0  0
  149.6303  141.7336  155.1474 C   0  0  0  0  0  0  0  0  0  0  0  0
  148.8773  141.6641  153.9778 N   0  0  0  0  0  0  0  0  0  0  0  0
  149.0508  140.4157  153.5631 C   0  0  0  0  0  0  0  0  0  0  0  0
  148.4490  133.9384  154.4740 C   0  0  0  0  0  0  0  0  0  0  0  0
  149.8882  133.5224  154.8103 C   0  0  0  0  0  0  0  0  0  0  0  0
  150.1830  134.0911  156.5253 S   0  0  0  0  0  0  0  0  0  0  0  0
  150.1452  132.9427  157.4434 O   0  0  0  0  0  0  0  0  0  0  0  0
  151.3186  135.0258  156.5251 O   0  0  0  0  0  0  0  0  0  0  0  0
  148.6186  135.0349  156.6761 C   0  0  0  0  0  0  0  0  0  0  0  0
  146.0258  134.6107  155.6057 H   0  0  0  0  0  0  0  0  0  0  0  0
  146.2112  135.6365  154.1897 H   0  0  0  0  0  0  0  0  0  0  0  0
  146.2742  136.3334  155.8058 H   0  0  0  0  0  0  0  0  0  0  0  0
  148.8907  136.2432  153.5702 H   0  0  0  0  0  0  0  0  0  0  0  0
  151.2771  138.1632  154.3453 H   0  0  0  0  0  0  0  0  0  0  0  0
  150.0124  137.9929  153.1364 H   0  0  0  0  0  0  0  0  0  0  0  0
  150.8759  140.1908  156.1872 H   0  0  0  0  0  0  0  0  0  0  0  0
  149.6803  142.6452  155.7242 H   0  0  0  0  0  0  0  0  0  0  0  0
  148.5856  140.0288  152.6680 H   0  0  0  0  0  0  0  0  0  0  0  0
  147.7818  133.1388  154.7992 H   0  0  0  0  0  0  0  0  0  0  0  0
  148.3055  134.0404  153.3974 H   0  0  0  0  0  0  0  0  0  0  0  0
  150.0483  132.4469  154.7365 H   0  0  0  0  0  0  0  0  0  0  0  0
  150.6033  134.0272  154.1604 H   0  0  0  0  0  0  0  0  0  0  0  0
  148.7884  135.9551  157.2347 H   0  0  0  0  0  0  0  0  0  0  0  0
  147.9269  134.4213  157.2539 H   0  0  0  0  0  0  0  0  0  0  0  0
  1  2  1  0  0  0  0
  1 18  1  0  0  0  0
  1 19  1  0  0  0  0
  1 20  1  0  0  0  0
  2 17  1  0  0  0  0
  2  3  1  0  0  0  0
  2 12  1  0  0  0  0
  3  4  1  0  0  0  0
  3 21  1  0  0  0  0
  4  5  2  0  0  0  0
  4  6  1  0  0  0  0
  6  7  1  0  0  0  0
  6 22  1  0  0  0  0
  6 23  1  0  0  0  0
  7 11  1  0  0  0  0
  7  8  1  0  0  0  0
  8  9  2  0  0  0  0
  8 24  1  0  0  0  0
  9 10  1  0  0  0  0
  9 25  1  0  0  0  0
 10 11  2  0  0  0  0
 11 26  1  0  0  0  0
 12 13  1  0  0  0  0
 12 27  1  0  0  0  0
 12 28  1  0  0  0  0
 13 14  1  0  0  0  0
 13 29  1  0  0  0  0
 13 30  1  0  0  0  0
 14 15  2  0  0  0  0
 14 16  2  0  0  0  0
 14 17  1  0  0  0  0
 17 31  1  0  0  0  0
 17 32  1  0  0  0  0
M  END
> <s_m_source_file>
AV-unprocessed.smi

> <i_m_source_file_index>
1111

> <i_lp_mmshare_version>
43012

> <i_f3d_flags>
0

> <s_epik_input>
Tz1TKD1PKShbQ0gyXTEpW0NIMl1bQ0gyXVtDQEBdMShbQ0gzXSlbTkhdQyg9TylbQ0gyXW4yW2NIXVtjSF1uW2NIXTI=

> <s_epik_cmdline>
J2VwaWtfcHl0aG9uJywgJy1waCcsICc3LjAnLCAnLXRuJywgJzgnLCAnLW1hJywgJzIwMCcsICctbWV0YWxfYmluZGluZycsICctaW1hZScsICc8aW5maWxlLm1hZT4nLCAnLW9tYWUnLCAnPG91dGZpbGUubWFlPic=

> <r_lp_tautomer_probability>
1

> <r_epik_Ionization_Penalty>
0.246342

> <r_epik_Ionization_Penalty_Charging>
0.246341

> <r_epik_Ionization_Penalty_Neutral>
5.91248e-07

> <r_epik_State_Penalty>
0.237514

> <r_epik_Charging_Adjusted_Penalty>
0.483856

> <i_epik_Tot_Q>
0

> <i_epik_Tot_abs_Q>
0

> <r_epik_Metal_State_Penalty>
0.166715

> <b_epik_Metal_Only>
0

> <s_lp_Force_Field>
OPLS_2005

> <r_lp_Energy>
5.38439

> <b_lp_Chiralities_Consistent>
1

> <s_lp_Variant>
AV-unprocessed.smi:1111-2

> <Gold.Version>
5.8.1

> <Gold.Id.Protein>
6NUR|6NUR_protein|mol2

> <Gold.PLP.Fitness>
35.1332

> <Gold.PLP.PLP>
-21.9999

> <Gold.PLP.part.hbond>
-4.0000

> <Gold.PLP.part.metal>
0.0000

> <Gold.PLP.part.buried>
2.0888

> <Gold.PLP.part.nonpolar>
-19.3436

> <Gold.PLP.part.repulsive>
0.1880

> <Gold.PLP.ligand.clash>
0.0000

> <Gold.PLP.ligand.torsion>
0.7569

> <Gold.PLP.Chemscore.Hbond>
3.1604

> <Gold.PLP.Chemscore.CHOScore>
1.7153

> <Gold.PLP.Chemscore.Metal>
0.0000

> <Gold.Chemscore.Hbonds>
donor molecule, donor type, donor heavy atom, donor atom, acceptor molecule, acceptor atom, score
      L1  H     3    21       P1  7948  1.00
      P1  H  6896  6908       L1    15  0.91
      P1  H  8011  8017       L1    10  0.40
      P1  H 10752 10763       L1    16  0.13
      L1  C     9    25       P1  8028  1.00
      L1  C    11    26       P1  7957  0.35

> <Gold.PLP.Chemscore.Internal.Correction>
0.0201

> <Gold.Rescore>
     Score         DG    S(hbond)    S(metal)    S(lipo)     H(rot)  DE(clash)    DE(int)     intcor
     10.86     -14.21       2.73        0.00      34.58       1.73       1.32       2.03       ----

> <Gold.Chemscore.Fitness>
10.8601

> <Gold.Chemscore.DG>
-14.2081

> <Gold.Chemscore.ZeroCoef>
-5.4800

> <Gold.Chemscore.Hbond>
2.7299

> <Gold.Chemscore.Metal>
0.0000

> <Gold.Chemscore.Lipo>
34.5819

> <Gold.Chemscore.Internal_Hbond>
0.0000

> <Gold.Chemscore.DEClash>
1.3221

> <Gold.Chemscore.DEInternal>
2.0259

> <Gold.Chemscore.Rot>
1.7328

> <Gold.Chemscore.Internal.Correction>
   9.000000E+99

> <Gold.Chemscore.Hbonds>
donor molecule, donor type, donor heavy atom, donor atom, acceptor molecule, acceptor atom, score
      L1  H     3    21       P1  7948  1.00
      P1  H  6896  6908       L1    15  0.58
      P1  H  8011  8017       L1    10  0.03
      P1  H 10752 10763       L1    16  0.15

> <Gold.Chemscore.Hbond.Weighted>
-9.1180

> <Gold.Chemscore.Metal.Weighted>
-0.0000

> <Gold.Chemscore.Lipo.Weighted>
-4.0461

> <Gold.Chemscore.Internal_Hbond.Weighted>
0.0000

> <Gold.Chemscore.DEClash.Weighted>
1.3221

> <Gold.Chemscore.DEInternal.Weighted>
2.0259

> <Gold.Chemscore.Rot.Weighted>
4.4360

> <Gold.Chemscore.Internal.Correction.Weighted>
   9.000000E+99

> <Gold.Protein.RotatedTorsions>
[ 6907 6896 6895 6894 ] final   96.45 input  -60.11 | X-H torsion
[ 7974 7965 7964 7962 ] final   69.47 input  175.53 | X-H torsion
[ 8008 7997 7996 7995 ] final   67.95 input   59.86 | X-H torsion
[ 10167 10162 10161 10158 ] final  108.32 input  -65.29 | X-H torsion
[ 10718 10713 10712 10709 ] final    7.46 input   66.30 | X-H torsion
[ 10763 10752 10751 10750 ] final   84.53 input  -60.55 | X-H torsion
[ 11005 11000 10999 10996 ] final  161.44 input  -57.11 | X-H torsion

> <Gold.Protein.ActiveResidues>
 VAL166  LYS551  ARG553  GLY616  TRP617  ASP618  TYR619  PRO620  LYS621  CYS622 
 ASP623  PHE694  ASN695  SER759  ASP760  ASP761  ALA762  ILE779  LEU786  VAL792 
 PHE793  MET794  SER795  GLU796  ALA797  LYS798  CYS799  TRP800  GLU811  SER814 

> <Gold.Protein.RotatedAtoms>
  152.5435  134.0885  159.8266 H   0  0  0  0  0  0  0  0  0  0  0  0  # atno 6907 bound_to 6896
  151.0977  133.5260  159.2619 H   0  0  0  0  0  0  0  0  0  0  0  0  # atno 6908 bound_to 6896
  151.2026  135.0458  159.8933 H   0  0  0  0  0  0  0  0  0  0  0  0  # atno 6909 bound_to 6896
  145.7900  139.2929  143.1216 H   0  0  0  0  0  0  0  0  0  0  0  0  # atno 7974 bound_to 7965
  155.7008  140.3495  155.4932 H   0  0  0  0  0  0  0  0  0  0  0  0  # atno 8008 bound_to 7997
  155.9442  140.1107  157.1052 H   0  0  0  0  0  0  0  0  0  0  0  0  # atno 8009 bound_to 7997
  154.4108  140.1207  156.4954 H   0  0  0  0  0  0  0  0  0  0  0  0  # atno 8010 bound_to 7997
  139.6856  144.7114  151.1439 H   0  0  0  0  0  0  0  0  0  0  0  0  # atno 10167 bound_to 10162
  156.9373  130.5848  149.5651 H   0  0  0  0  0  0  0  0  0  0  0  0  # atno 10718 bound_to 10713
  153.1390  135.4651  154.9467 H   0  0  0  0  0  0  0  0  0  0  0  0  # atno 10763 bound_to 10752
  154.7731  135.3165  154.8151 H   0  0  0  0  0  0  0  0  0  0  0  0  # atno 10764 bound_to 10752
  153.8678  135.6906  153.4831 H   0  0  0  0  0  0  0  0  0  0  0  0  # atno 10765 bound_to 10752
  140.2158  134.8233  157.3168 H   0  0  0  0  0  0  0  0  0  0  0  0  # atno 11005 bound_to 11000
  145.9987  140.8540  143.0030 LP  0  0  0  0  0  0  0  0  0  0  0  0  # atno 17320 bound_to 7965
  144.6783  140.2320  143.7354 LP  0  0  0  0  0  0  0  0  0  0  0  0  # atno 17321 bound_to 7965
  140.7666  143.5635  150.9073 LP  0  0  0  0  0  0  0  0  0  0  0  0  # atno 17342 bound_to 10162
  139.9309  143.6494  152.3076 LP  0  0  0  0  0  0  0  0  0  0  0  0  # atno 17343 bound_to 10162
  156.0420  130.5501  150.8793 LP  0  0  0  0  0  0  0  0  0  0  0  0  # atno 17370 bound_to 10713
  157.5808  131.0946  150.9274 LP  0  0  0  0  0  0  0  0  0  0  0  0  # atno 17371 bound_to 10713
  140.1902  134.4381  155.7720 LP  0  0  0  0  0  0  0  0  0  0  0  0  # atno 17394 bound_to 11000
  141.2225  133.7024  156.8015 LP  0  0  0  0  0  0  0  0  0  0  0  0  # atno 17395 bound_to 11000

$$$$
