AV-unprocessed.smi:717|AV-procd|sdf|3490|dock1
  -GOLD-   22720 0483D 1   1.00000     0.00000
 Structure written by MMmdl.
 43 44  0  0  0  0  0  0  0  0  1 V2000
  147.2433  137.6699  159.3125 O   0  0  0  0  0  0  0  0  0  0  0  0
  148.2425  137.1667  158.7984 C   0  0  0  0  0  0  0  0  0  0  0  0
  148.7444  135.7985  159.2669 C   0  0  0  0  0  0  0  0  0  0  0  0
  147.7598  135.1639  160.2330 C   0  0  0  0  0  0  0  0  0  0  0  0
  147.3969  135.8158  161.4301 C   0  0  0  0  0  0  0  0  0  0  0  0
  146.4832  135.1849  162.2958 C   0  0  0  0  0  0  0  0  0  0  0  0
  145.9696  133.9256  161.9267 C   0  0  0  0  0  0  0  0  0  0  0  0
  146.3085  133.2924  160.7829 N   0  0  0  0  0  0  0  0  0  0  0  0
  147.1858  133.9040  159.9584 C   0  0  0  0  0  0  0  0  0  0  0  0
  148.9435  137.7565  157.8179 N   0  0  0  0  0  0  0  0  0  0  0  0
  148.6352  139.0543  157.2282 C   0  0  0  0  0  0  0  0  0  0  0  0
  149.8116  140.0354  157.3638 C   0  0  0  0  0  0  0  0  0  0  0  0
  149.5286  141.3887  156.6966 C   0  0  0  0  0  0  0  0  0  0  0  0
  150.7783  142.2799  156.6207 C   0  0  0  0  0  0  0  0  0  0  0  0
  151.0317  143.0835  157.9085 C   0  0  0  0  0  0  0  0  0  0  0  0
  151.8048  144.3822  157.6735 C   0  0  0  0  0  0  0  0  0  0  0  0
  152.3175  144.7749  159.0601 C   0  0  0  0  0  0  0  0  0  0  0  0
  152.5106  143.4565  159.8236 C   0  0  0  0  0  0  0  0  0  0  0  0
  151.8799  142.3556  158.9588 C   0  0  0  0  0  0  0  0  0  0  0  0
  148.8822  135.1534  158.3985 H   0  0  0  0  0  0  0  0  0  0  0  0
  149.7183  135.8897  159.7512 H   0  0  0  0  0  0  0  0  0  0  0  0
  147.8129  136.7801  161.6830 H   0  0  0  0  0  0  0  0  0  0  0  0
  146.1844  135.6540  163.2215 H   0  0  0  0  0  0  0  0  0  0  0  0
  145.2676  133.4136  162.5678 H   0  0  0  0  0  0  0  0  0  0  0  0
  147.4388  133.3710  159.0536 H   0  0  0  0  0  0  0  0  0  0  0  0
  149.7514  137.2717  157.4545 H   0  0  0  0  0  0  0  0  0  0  0  0
  148.3577  138.9312  156.1800 H   0  0  0  0  0  0  0  0  0  0  0  0
  147.7574  139.4543  157.7365 H   0  0  0  0  0  0  0  0  0  0  0  0
  150.0366  140.1913  158.4197 H   0  0  0  0  0  0  0  0  0  0  0  0
  150.7061  139.5977  156.9189 H   0  0  0  0  0  0  0  0  0  0  0  0
  149.1430  141.2214  155.6902 H   0  0  0  0  0  0  0  0  0  0  0  0
  148.7415  141.9045  157.2475 H   0  0  0  0  0  0  0  0  0  0  0  0
  151.6518  141.6702  156.3857 H   0  0  0  0  0  0  0  0  0  0  0  0
  150.6628  142.9774  155.7901 H   0  0  0  0  0  0  0  0  0  0  0  0
  150.0726  143.3439  158.3596 H   0  0  0  0  0  0  0  0  0  0  0  0
  152.6509  144.1992  157.0096 H   0  0  0  0  0  0  0  0  0  0  0  0
  151.1897  145.1608  157.2210 H   0  0  0  0  0  0  0  0  0  0  0  0
  153.2342  145.3630  159.0068 H   0  0  0  0  0  0  0  0  0  0  0  0
  151.5675  145.3827  159.5678 H   0  0  0  0  0  0  0  0  0  0  0  0
  153.5673  143.2495  159.9958 H   0  0  0  0  0  0  0  0  0  0  0  0
  152.0268  143.5114  160.7994 H   0  0  0  0  0  0  0  0  0  0  0  0
  151.2917  141.6538  159.5510 H   0  0  0  0  0  0  0  0  0  0  0  0
  152.6713  141.7862  158.4691 H   0  0  0  0  0  0  0  0  0  0  0  0
  1  2  2  0  0  0  0
  2  3  1  0  0  0  0
  2 10  1  0  0  0  0
  3  4  1  0  0  0  0
  3 20  1  0  0  0  0
  3 21  1  0  0  0  0
  4  9  1  0  0  0  0
  4  5  2  0  0  0  0
  5  6  1  0  0  0  0
  5 22  1  0  0  0  0
  6  7  2  0  0  0  0
  6 23  1  0  0  0  0
  7  8  1  0  0  0  0
  7 24  1  0  0  0  0
  8  9  2  0  0  0  0
  9 25  1  0  0  0  0
 10 11  1  0  0  0  0
 10 26  1  0  0  0  0
 11 12  1  0  0  0  0
 11 27  1  0  0  0  0
 11 28  1  0  0  0  0
 12 13  1  0  0  0  0
 12 29  1  0  0  0  0
 12 30  1  0  0  0  0
 13 14  1  0  0  0  0
 13 31  1  0  0  0  0
 13 32  1  0  0  0  0
 14 15  1  0  0  0  0
 14 33  1  0  0  0  0
 14 34  1  0  0  0  0
 15 19  1  0  0  0  0
 15 16  1  0  0  0  0
 15 35  1  0  0  0  0
 16 17  1  0  0  0  0
 16 36  1  0  0  0  0
 16 37  1  0  0  0  0
 17 18  1  0  0  0  0
 17 38  1  0  0  0  0
 17 39  1  0  0  0  0
 18 19  1  0  0  0  0
 18 40  1  0  0  0  0
 18 41  1  0  0  0  0
 19 42  1  0  0  0  0
 19 43  1  0  0  0  0
M  END
> <s_m_source_file>
AV-unprocessed.smi

> <i_m_source_file_index>
717

> <i_lp_mmshare_version>
43012

> <i_f3d_flags>
0

> <s_epik_input>
W2NIXTFuW2NIXVtjSF1bY0hdYzFbQ0gyXUMoPU8pW05IXVtDSDJdW0NIMl1bQ0gyXVtDSDJdW0NIXTJbQ0gyXVtDSDJdW0NIMl1bQ0gyXTI=

> <s_epik_cmdline>
J2VwaWtfcHl0aG9uJywgJy1waCcsICc3LjAnLCAnLXRuJywgJzgnLCAnLW1hJywgJzIwMCcsICctbWV0YWxfYmluZGluZycsICctaW1hZScsICc8aW5maWxlLm1hZT4nLCAnLW9tYWUnLCAnPG91dGZpbGUubWFlPic=

> <r_epik_Ionization_Penalty>
0.00412097

> <r_epik_Ionization_Penalty_Charging>
0

> <r_epik_Ionization_Penalty_Neutral>
0.00412097

> <r_epik_State_Penalty>
0.00295657

> <r_epik_Charging_Adjusted_Penalty>
0.00295657

> <i_epik_Tot_Q>
0

> <i_epik_Tot_abs_Q>
0

> <r_epik_Metal_State_Penalty>
-0

> <b_epik_Metal_Only>
0

> <s_lp_Force_Field>
OPLS_2005

> <r_lp_Energy>
20.3192

> <b_lp_Chiralities_Consistent>
1

> <s_lp_Variant>
AV-unprocessed.smi:717-1

> <Gold.Version>
5.8.1

> <Gold.Id.Protein>
6NUR|6NUR_protein|mol2

> <Gold.PLP.Fitness>
42.4859

> <Gold.PLP.PLP>
-41.2802

> <Gold.PLP.part.hbond>
-1.0000

> <Gold.PLP.part.metal>
0.0000

> <Gold.PLP.part.buried>
-3.9177

> <Gold.PLP.part.nonpolar>
-36.7772

> <Gold.PLP.part.repulsive>
0.1042

> <Gold.PLP.ligand.clash>
0.0000

> <Gold.PLP.ligand.torsion>
0.5454

> <Gold.PLP.Chemscore.Hbond>
0.7200

> <Gold.PLP.Chemscore.CHOScore>
0.0000

> <Gold.PLP.Chemscore.Metal>
0.0000

> <Gold.Chemscore.Hbonds>
donor molecule, donor type, donor heavy atom, donor atom, acceptor molecule, acceptor atom, score
      P1  H  6934  6947       L1     1  0.61

> <Gold.PLP.Chemscore.Internal.Correction>
0.1366

> <Gold.Rescore>
     Score         DG    S(hbond)    S(metal)    S(lipo)     H(rot)  DE(clash)    DE(int)     intcor
     16.32     -18.10       0.84        0.00     120.47       1.67       0.02       1.76       ----

> <Gold.Chemscore.Fitness>
16.3209

> <Gold.Chemscore.DG>
-18.1013

> <Gold.Chemscore.ZeroCoef>
-5.4800

> <Gold.Chemscore.Hbond>
0.8370

> <Gold.Chemscore.Metal>
0.0000

> <Gold.Chemscore.Lipo>
120.4676

> <Gold.Chemscore.Internal_Hbond>
0.0000

> <Gold.Chemscore.DEClash>
0.0195

> <Gold.Chemscore.DEInternal>
1.7609

> <Gold.Chemscore.Rot>
1.6676

> <Gold.Chemscore.Internal.Correction>
   9.000000E+99

> <Gold.Chemscore.Hbonds>
donor molecule, donor type, donor heavy atom, donor atom, acceptor molecule, acceptor atom, score
      P1  H  6934  6947       L1     1  0.59

> <Gold.Chemscore.Hbond.Weighted>
-2.7956

> <Gold.Chemscore.Metal.Weighted>
-0.0000

> <Gold.Chemscore.Lipo.Weighted>
-14.0947

> <Gold.Chemscore.Internal_Hbond.Weighted>
0.0000

> <Gold.Chemscore.DEClash.Weighted>
0.0195

> <Gold.Chemscore.DEInternal.Weighted>
1.7609

> <Gold.Chemscore.Rot.Weighted>
4.2690

> <Gold.Chemscore.Internal.Correction.Weighted>
   9.000000E+99

> <Gold.Protein.RotatedTorsions>
[ 6907 6896 6895 6894 ] final  -35.73 input  -60.11 | X-H torsion
[ 7974 7965 7964 7962 ] final -149.82 input  175.53 | X-H torsion
[ 8008 7997 7996 7995 ] final  -65.73 input   59.86 | X-H torsion
[ 10167 10162 10161 10158 ] final  -32.48 input  -65.29 | X-H torsion
[ 10718 10713 10712 10709 ] final  -43.54 input   66.30 | X-H torsion
[ 10763 10752 10751 10750 ] final   22.66 input  -60.55 | X-H torsion
[ 11005 11000 10999 10996 ] final    1.92 input  -57.11 | X-H torsion

> <Gold.Protein.ActiveResidues>
 VAL166  LYS551  ARG553  GLY616  TRP617  ASP618  TYR619  PRO620  LYS621  CYS622 
 ASP623  PHE694  ASN695  SER759  ASP760  ASP761  ALA762  ILE779  LEU786  VAL792 
 PHE793  MET794  SER795  GLU796  ALA797  LYS798  CYS799  TRP800  GLU811  SER814 

> <Gold.Protein.RotatedAtoms>
  151.0361  134.9574  159.8136 H   0  0  0  0  0  0  0  0  0  0  0  0  # atno 6907 bound_to 6896
  152.5355  134.2718  159.8984 H   0  0  0  0  0  0  0  0  0  0  0  0  # atno 6908 bound_to 6896
  151.2728  133.4204  159.2656 H   0  0  0  0  0  0  0  0  0  0  0  0  # atno 6909 bound_to 6896
  144.7944  140.5013  143.5750 H   0  0  0  0  0  0  0  0  0  0  0  0  # atno 7974 bound_to 7965
  154.4690  140.0927  156.7095 H   0  0  0  0  0  0  0  0  0  0  0  0  # atno 8008 bound_to 7997
  155.4778  140.3466  155.4317 H   0  0  0  0  0  0  0  0  0  0  0  0  # atno 8009 bound_to 7997
  156.1006  140.1421  156.9461 H   0  0  0  0  0  0  0  0  0  0  0  0  # atno 8010 bound_to 7997
  140.7220  143.3691  151.1812 H   0  0  0  0  0  0  0  0  0  0  0  0  # atno 10167 bound_to 10162
  156.2479  130.4185  149.8684 H   0  0  0  0  0  0  0  0  0  0  0  0  # atno 10718 bound_to 10713
  153.0898  135.6643  153.9877 H   0  0  0  0  0  0  0  0  0  0  0  0  # atno 10763 bound_to 10752
  153.9477  135.2987  155.3441 H   0  0  0  0  0  0  0  0  0  0  0  0  # atno 10764 bound_to 10752
  154.7311  135.5122  153.9038 H   0  0  0  0  0  0  0  0  0  0  0  0  # atno 10765 bound_to 10752
  140.6101  133.9756  155.8173 H   0  0  0  0  0  0  0  0  0  0  0  0  # atno 11005 bound_to 11000
  145.5711  139.1483  143.3288 LP  0  0  0  0  0  0  0  0  0  0  0  0  # atno 17320 bound_to 7965
  146.2207  140.5844  142.9018 LP  0  0  0  0  0  0  0  0  0  0  0  0  # atno 17321 bound_to 7965
  139.7259  143.9149  152.3002 LP  0  0  0  0  0  0  0  0  0  0  0  0  # atno 17342 bound_to 10162
  139.8922  144.6959  150.8758 LP  0  0  0  0  0  0  0  0  0  0  0  0  # atno 17343 bound_to 10162
  156.6243  130.8639  151.3482 LP  0  0  0  0  0  0  0  0  0  0  0  0  # atno 17370 bound_to 10713
  157.7202  130.9549  150.1410 LP  0  0  0  0  0  0  0  0  0  0  0  0  # atno 17371 bound_to 10713
  141.0814  134.0057  157.3380 LP  0  0  0  0  0  0  0  0  0  0  0  0  # atno 17394 bound_to 11000
  139.9196  135.0199  156.8013 LP  0  0  0  0  0  0  0  0  0  0  0  0  # atno 17395 bound_to 11000

$$$$
