AV-unprocessed.smi:2083|AV-procd|sdf|8499|dock6
  -GOLD-   2272011213D 1   1.00000     0.00000
 Structure written by MMmdl.
 44 45  0  0  0  0  0  0  0  0  3 V2000
  154.0119  137.6109  157.1339 C   0  0  0  0  0  0  0  0  0  0  0  0
  153.0105  138.1001  156.1445 C   0  0  0  0  0  0  0  0  0  0  0  0
  152.0369  137.4714  155.4212 C   0  0  0  0  0  0  0  0  0  0  0  0
  151.4566  138.5293  154.6695 C   0  0  0  0  0  0  0  0  0  0  0  0
  150.4377  138.4164  153.8037 N   0  5  0  0  0  0  0  0  0  0  0  0
  149.1861  138.7665  154.1766 C   0  0  0  0  0  0  0  0  0  0  0  0
  148.8699  139.3752  155.2015 O   0  0  0  0  0  0  0  0  0  0  0  0
  148.2399  138.3936  153.3030 N   0  0  0  0  0  0  0  0  0  0  0  0
  146.8093  138.6529  153.4343 C   0  0  0  0  0  0  0  0  0  0  0  0
  145.9593  137.8994  152.3727 C   0  0  1  0  0  0  0  0  0  0  0  0
  146.2229  138.4820  150.9657 C   0  0  0  0  0  0  0  0  0  0  0  0
  146.1681  136.4138  152.3549 N   0  3  1  0  0  0  0  0  0  0  0  0
  146.1927  135.7411  153.6868 C   0  0  0  0  0  0  0  0  0  0  0  0
  146.5355  134.2471  153.5617 C   0  0  0  0  0  0  0  0  0  0  0  0
  145.5697  133.5296  152.6149 C   0  0  0  0  0  0  0  0  0  0  0  0
  145.5536  134.2373  151.2525 C   0  0  1  0  0  0  0  0  0  0  0  0
  144.5827  133.5544  150.2788 C   0  0  0  0  0  0  0  0  0  0  0  0
  145.2115  135.7284  151.4379 C   0  0  0  0  0  0  0  0  0  0  0  0
  152.0165  139.6993  154.9273 N   0  0  0  0  0  0  0  0  0  0  0  0
  153.0178  139.4318  155.8684 O   0  0  0  0  0  0  0  0  0  0  0  0
  153.5199  137.2851  158.0501 H   0  0  0  0  0  0  0  0  0  0  0  0
  154.7244  138.3945  157.3931 H   0  0  0  0  0  0  0  0  0  0  0  0
  154.5715  136.7670  156.7305 H   0  0  0  0  0  0  0  0  0  0  0  0
  151.7828  136.4222  155.4251 H   0  0  0  0  0  0  0  0  0  0  0  0
  148.5421  137.8920  152.4804 H   0  0  0  0  0  0  0  0  0  0  0  0
  146.5090  138.3539  154.4391 H   0  0  0  0  0  0  0  0  0  0  0  0
  146.6678  139.7326  153.3702 H   0  0  0  0  0  0  0  0  0  0  0  0
  144.9115  138.0743  152.6224 H   0  0  0  0  0  0  0  0  0  0  0  0
  146.0073  139.5498  150.9240 H   0  0  0  0  0  0  0  0  0  0  0  0
  145.6060  138.0205  150.1968 H   0  0  0  0  0  0  0  0  0  0  0  0
  147.2651  138.3462  150.6750 H   0  0  0  0  0  0  0  0  0  0  0  0
  146.9518  136.1825  154.3312 H   0  0  0  0  0  0  0  0  0  0  0  0
  145.2282  135.8698  154.1808 H   0  0  0  0  0  0  0  0  0  0  0  0
  147.5569  134.1361  153.1952 H   0  0  0  0  0  0  0  0  0  0  0  0
  146.5087  133.7764  154.5451 H   0  0  0  0  0  0  0  0  0  0  0  0
  145.8683  132.4871  152.4995 H   0  0  0  0  0  0  0  0  0  0  0  0
  144.5675  133.5234  153.0463 H   0  0  0  0  0  0  0  0  0  0  0  0
  146.5532  134.1695  150.8204 H   0  0  0  0  0  0  0  0  0  0  0  0
  143.5578  133.5894  150.6496 H   0  0  0  0  0  0  0  0  0  0  0  0
  144.8471  132.5070  150.1305 H   0  0  0  0  0  0  0  0  0  0  0  0
  144.5998  134.0385  149.3019 H   0  0  0  0  0  0  0  0  0  0  0  0
  144.1990  135.8331  151.8320 H   0  0  0  0  0  0  0  0  0  0  0  0
  145.2105  136.2064  150.4598 H   0  0  0  0  0  0  0  0  0  0  0  0
  147.0911  136.2744  151.9696 H   0  0  0  0  0  0  0  0  0  0  0  0
  1  2  1  0  0  0  0
  1 21  1  0  0  0  0
  1 22  1  0  0  0  0
  1 23  1  0  0  0  0
  2 20  1  0  0  0  0
  2  3  2  0  0  0  0
  3  4  1  0  0  0  0
  3 24  1  0  0  0  0
  4  5  1  0  0  0  0
  4 19  2  0  0  0  0
  5  6  1  0  0  0  0
  6  7  2  0  0  0  0
  6  8  1  0  0  0  0
  8  9  1  0  0  0  0
  8 25  1  0  0  0  0
  9 10  1  0  0  0  0
  9 26  1  0  0  0  0
  9 27  1  0  0  0  0
 10 11  1  0  0  0  0
 10 12  1  0  0  0  0
 10 28  1  0  0  0  0
 11 29  1  0  0  0  0
 11 30  1  0  0  0  0
 11 31  1  0  0  0  0
 12 18  1  0  0  0  0
 12 13  1  0  0  0  0
 12 44  1  0  0  0  0
 13 14  1  0  0  0  0
 13 32  1  0  0  0  0
 13 33  1  0  0  0  0
 14 15  1  0  0  0  0
 14 34  1  0  0  0  0
 14 35  1  0  0  0  0
 15 16  1  0  0  0  0
 15 36  1  0  0  0  0
 15 37  1  0  0  0  0
 16 17  1  0  0  0  0
 16 18  1  0  0  0  0
 16 38  1  0  0  0  0
 17 39  1  0  0  0  0
 17 40  1  0  0  0  0
 17 41  1  0  0  0  0
 18 42  1  0  0  0  0
 18 43  1  0  0  0  0
 19 20  1  0  0  0  0
M  CHG  1   5  -1
M  CHG  1  12   1
M  END
> <s_m_source_file>
AV-unprocessed.smi

> <i_m_source_file_index>
2083

> <i_lp_mmshare_version>
43012

> <i_f3d_flags>
0

> <s_epik_input>
W0NIM11jMVtjSF1jKG5vMSlbTkhdQyg9TylbTkhdW0NIMl1bQ0BIXShbQ0gzXSlOMltDSDJdW0NIMl1bQ0gyXVtDQEBIXShbQ0gzXSlbQ0gyXTI=

> <s_epik_cmdline>
J2VwaWtfcHl0aG9uJywgJy1waCcsICc3LjAnLCAnLXRuJywgJzgnLCAnLW1hJywgJzIwMCcsICctbWV0YWxfYmluZGluZycsICctaW1hZScsICc8aW5maWxlLm1hZT4nLCAnLW9tYWUnLCAnPG91dGZpbGUubWFlPic=

> <r_epik_Ionization_Penalty>
6.22434

> <r_epik_Ionization_Penalty_Charging>
6.22425

> <r_epik_Ionization_Penalty_Neutral>
9.62407e-05

> <r_epik_State_Penalty>
6.22423

> <r_epik_Charging_Adjusted_Penalty>
12.4485

> <i_epik_Tot_Q>
0

> <i_epik_Tot_abs_Q>
2

> <r_epik_Metal_State_Penalty>
2.16764

> <b_epik_Metal_Only>
1

> <s_lp_Force_Field>
OPLS_2005

> <r_lp_Energy>
9.18004

> <b_lp_Chiralities_Consistent>
1

> <s_lp_Variant>
AV-unprocessed.smi:2083-10

> <Gold.Version>
5.8.1

> <Gold.Id.Protein>
6NUR|6NUR_protein|mol2

> <Gold.PLP.Fitness>
42.5044

> <Gold.PLP.PLP>
-29.6687

> <Gold.PLP.part.hbond>
-5.0000

> <Gold.PLP.part.metal>
0.0000

> <Gold.PLP.part.buried>
1.8072

> <Gold.PLP.part.nonpolar>
-26.8518

> <Gold.PLP.part.repulsive>
0.4533

> <Gold.PLP.ligand.clash>
0.0000

> <Gold.PLP.ligand.torsion>
0.9084

> <Gold.PLP.Chemscore.Hbond>
4.8400

> <Gold.PLP.Chemscore.CHOScore>
0.0000

> <Gold.PLP.Chemscore.Metal>
0.0000

> <Gold.Chemscore.Hbonds>
donor molecule, donor type, donor heavy atom, donor atom, acceptor molecule, acceptor atom, score
      L1  H     8    25       P1  7948  0.90
      L1  H    12    44       P1  7948  2.00
      P1  H  7989  7998       L1    19  0.90
      P1  H  7997  8008       L1    20  1.00

> <Gold.PLP.Chemscore.Internal.Correction>
0.1325

> <Gold.Rescore>
     Score         DG    S(hbond)    S(metal)    S(lipo)     H(rot)  DE(clash)    DE(int)     intcor
     19.50     -22.18       3.81        0.00      67.14       1.52       1.77       0.91       ----

> <Gold.Chemscore.Fitness>
19.4994

> <Gold.Chemscore.DG>
-22.1798

> <Gold.Chemscore.ZeroCoef>
-5.4800

> <Gold.Chemscore.Hbond>
3.8122

> <Gold.Chemscore.Metal>
0.0000

> <Gold.Chemscore.Lipo>
67.1442

> <Gold.Chemscore.Internal_Hbond>
0.0000

> <Gold.Chemscore.DEClash>
1.7683

> <Gold.Chemscore.DEInternal>
0.9122

> <Gold.Chemscore.Rot>
1.5190

> <Gold.Chemscore.Internal.Correction>
   9.000000E+99

> <Gold.Chemscore.Hbonds>
donor molecule, donor type, donor heavy atom, donor atom, acceptor molecule, acceptor atom, score
      L1  H     8    25       P1  7948  0.87
      L1  H    12    44       P1  7948  1.00
      P1  H  7989  7998       L1    19  0.62
      P1  H  7997  8008       L1    20  0.86

> <Gold.Chemscore.Hbond.Weighted>
-12.7326

> <Gold.Chemscore.Metal.Weighted>
-0.0000

> <Gold.Chemscore.Lipo.Weighted>
-7.8559

> <Gold.Chemscore.Internal_Hbond.Weighted>
0.0000

> <Gold.Chemscore.DEClash.Weighted>
1.7683

> <Gold.Chemscore.DEInternal.Weighted>
0.9122

> <Gold.Chemscore.Rot.Weighted>
3.8886

> <Gold.Chemscore.Internal.Correction.Weighted>
   9.000000E+99

> <Gold.Protein.RotatedTorsions>
[ 6907 6896 6895 6894 ] final    1.11 input  -60.11 | X-H torsion
[ 7974 7965 7964 7962 ] final  -83.77 input  175.53 | X-H torsion
[ 8008 7997 7996 7995 ] final  -32.41 input   59.86 | X-H torsion
[ 10167 10162 10161 10158 ] final  -95.06 input  -65.29 | X-H torsion
[ 10718 10713 10712 10709 ] final  154.30 input   66.30 | X-H torsion
[ 10763 10752 10751 10750 ] final  -30.06 input  -60.55 | X-H torsion
[ 11005 11000 10999 10996 ] final   48.56 input  -57.11 | X-H torsion

> <Gold.Protein.ActiveResidues>
 VAL166  LYS551  ARG553  GLY616  TRP617  ASP618  TYR619  PRO620  LYS621  CYS622 
 ASP623  PHE694  ASN695  SER759  ASP760  ASP761  ALA762  ILE779  LEU786  VAL792 
 PHE793  MET794  SER795  GLU796  ALA797  LYS798  CYS799  TRP800  GLU811  SER814 

> <Gold.Protein.RotatedAtoms>
  151.5873  135.1055  160.0030 H   0  0  0  0  0  0  0  0  0  0  0  0  # atno 6907 bound_to 6896
  152.4324  133.7296  159.6591 H   0  0  0  0  0  0  0  0  0  0  0  0  # atno 6908 bound_to 6896
  150.8218  133.8170  159.3158 H   0  0  0  0  0  0  0  0  0  0  0  0  # atno 6909 bound_to 6896
  145.5155  140.9536  143.1684 H   0  0  0  0  0  0  0  0  0  0  0  0  # atno 7974 bound_to 7965
  154.4181  140.1738  156.1723 H   0  0  0  0  0  0  0  0  0  0  0  0  # atno 8008 bound_to 7997
  155.9750  140.3382  155.6586 H   0  0  0  0  0  0  0  0  0  0  0  0  # atno 8009 bound_to 7997
  155.6575  140.0697  157.2556 H   0  0  0  0  0  0  0  0  0  0  0  0  # atno 8010 bound_to 7997
  140.3080  143.3122  152.0178 H   0  0  0  0  0  0  0  0  0  0  0  0  # atno 10167 bound_to 10162
  157.2334  131.0744  151.1838 H   0  0  0  0  0  0  0  0  0  0  0  0  # atno 10718 bound_to 10713
  153.7748  135.6909  153.4899 H   0  0  0  0  0  0  0  0  0  0  0  0  # atno 10763 bound_to 10752
  153.1850  135.4492  155.0076 H   0  0  0  0  0  0  0  0  0  0  0  0  # atno 10764 bound_to 10752
  154.8104  135.3375  154.7255 H   0  0  0  0  0  0  0  0  0  0  0  0  # atno 10765 bound_to 10752
  140.1180  134.4867  155.8621 H   0  0  0  0  0  0  0  0  0  0  0  0  # atno 11005 bound_to 11000
  144.7704  139.6748  143.7197 LP  0  0  0  0  0  0  0  0  0  0  0  0  # atno 17320 bound_to 7965
  146.2139  139.5515  142.9663 LP  0  0  0  0  0  0  0  0  0  0  0  0  # atno 17321 bound_to 7965
  139.4900  144.6406  151.6885 LP  0  0  0  0  0  0  0  0  0  0  0  0  # atno 17342 bound_to 10162
  140.5593  144.0296  150.6162 LP  0  0  0  0  0  0  0  0  0  0  0  0  # atno 17343 bound_to 10162
  157.3454  130.7055  149.6407 LP  0  0  0  0  0  0  0  0  0  0  0  0  # atno 17370 bound_to 10713
  155.9674  130.4268  150.4714 LP  0  0  0  0  0  0  0  0  0  0  0  0  # atno 17371 bound_to 10713
  141.2145  133.6750  156.6834 LP  0  0  0  0  0  0  0  0  0  0  0  0  # atno 17394 bound_to 11000
  140.3002  134.8169  157.4091 LP  0  0  0  0  0  0  0  0  0  0  0  0  # atno 17395 bound_to 11000

$$$$
