#       Name:                AV-unprocessed.smi:213
#       Creating user name   scv26
#       Creation time:       Thu Mar 26 20:01:44 2020


#       File generated by GOLD software.
#

@<TRIPOS>MOLECULE
AV-unprocessed.smi:213
    68    71     1
SMALL
NO_CHARGES


@<TRIPOS>ATOM
      1 ****        -3.6228   1.3238   2.5873 C.3            1 S1                 0.0000
      2 ****        -2.5002   0.9355   1.6040 C.3            1 S1                 0.0000
      3 ****        -3.0442   0.4753   0.2297 C.3            1 S1                 0.0000
      4 ****        -3.1601  -0.9717   0.0390 N.3            1 S1                 0.0000
      5 ****        -3.5076  -1.2842  -1.3432 C.3            1 S1                 0.0000
      6 ****        -3.6187  -2.7991  -1.5834 C.3            1 S1                 0.0000
      7 ****        -4.5780  -3.3507  -0.6882 O.3            1 S1                 0.0000
      8 ****        -4.2490  -3.1152   0.6766 C.3            1 S1                 0.0000
      9 ****        -4.1277  -1.6023   0.9320 C.3            1 S1                 0.0000
     10 ****        -1.5702   2.0575   1.4476 N.pl3          1 S1                 0.0000
     11 ****        -2.0351   3.3626   0.9826 C.3            1 S1                 0.0000
     12 ****        -0.2286   1.8711   1.5653 C.ar           1 S1                 0.0000
     13 ****         0.5140   2.9069   2.0386 N.ar           1 S1                 0.0000
     14 ****         1.8355   2.7839   2.1890 C.ar           1 S1                 0.0000
     15 ****         2.6101   1.7313   1.9251 N.ar           1 S1                 0.0000
     16 ****         1.8781   0.6918   1.4339 C.ar           1 S1                 0.0000
     17 ****         0.4688   0.6731   1.2230 C.ar           1 S1                 0.0000
     18 ****         0.0977  -0.5584   0.6927 N.2            1 S1                 0.0000
     19 ****         1.2132  -1.2277   0.6059 C.2            1 S1                 0.0000
     20 ****         2.3336  -0.5488   1.0242 N.pl3          1 S1                 0.0000
     21 ****         3.6992  -1.0412   1.0263 C.3            1 S1                 0.0000
     22 ****         4.5969  -0.3490  -0.0217 C.3            1 S1                 0.0000
     23 ****         5.8755  -0.9462   0.0611 O.3            1 S1                 0.0000
     24 ****         4.0837  -0.4546  -1.4753 C.3            1 S1                 0.0000
     25 ****         5.0266   0.1403  -2.5241 C.3            1 S1                 0.0000
     26 ****         4.1079   0.4924  -3.6837 C.3            1 S1                 0.0000
     27 ****         2.7062   0.4494  -3.0717 C.3            1 S1                 0.0000
     28 ****         2.9221   0.3376  -1.6733 O.3            1 S1                 0.0000
     29 ****        -4.2872   0.4898   2.8044 H              1 S1                 0.0000
     30 ****        -4.2415   2.1327   2.1985 H              1 S1                 0.0000
     31 ****        -3.2056   1.6558   3.5387 H              1 S1                 0.0000
     32 ****        -1.9626   0.1087   2.0675 H              1 S1                 0.0000
     33 ****        -3.9996   0.9606   0.0246 H              1 S1                 0.0000
     34 ****        -2.3641   0.8490  -0.5376 H              1 S1                 0.0000
     35 ****        -4.4551  -0.8092  -1.6020 H              1 S1                 0.0000
     36 ****        -2.7569  -0.8691  -2.0166 H              1 S1                 0.0000
     37 ****        -3.9305  -2.9987  -2.6086 H              1 S1                 0.0000
     38 ****        -2.6525  -3.2855  -1.4407 H              1 S1                 0.0000
     39 ****        -5.0244  -3.5455   1.3105 H              1 S1                 0.0000
     40 ****        -3.3155  -3.6230   0.9240 H              1 S1                 0.0000
     41 ****        -3.8257  -1.4607   1.9683 H              1 S1                 0.0000
     42 ****        -5.1049  -1.1321   0.8143 H              1 S1                 0.0000
     43 ****        -1.3636   3.7704   0.2259 H              1 S1                 0.0000
     44 ****        -2.0860   4.0652   1.8146 H              1 S1                 0.0000
     45 ****        -3.0270   3.2927   0.5362 H              1 S1                 0.0000
     46 ****         2.3448   3.6539   2.5765 H              1 S1                 0.0000
     47 ****         1.2493  -2.2363   0.2206 H              1 S1                 0.0000
     48 ****         4.1080  -0.8977   2.0275 H              1 S1                 0.0000
     49 ****         3.6761  -2.1178   0.8504 H              1 S1                 0.0000
     50 ****         4.7131   0.7034   0.2397 H              1 S1                 0.0000
     51 ****         5.7967  -1.8579  -0.1740 H              1 S1                 0.0000
     52 ****         3.8563  -1.4927  -1.7256 H              1 S1                 0.0000
     53 ****         5.4898   1.0498  -2.1387 H              1 S1                 0.0000
     54 ****         5.8240  -0.5458  -2.8108 H              1 S1                 0.0000
     55 ****         4.3455   1.4792  -4.0824 H              1 S1                 0.0000
     56 ****         4.1946  -0.2291  -4.4965 H              1 S1                 0.0000
     57 ****         2.1169   1.3358  -3.3074 H              1 S1                 0.0000
     58 ****         2.1594  -0.4274  -3.4220 H              1 S1                 0.0000
     59 ****        -2.2605  -1.3463   0.2638 LP             1 S1                 0.0000
     60 ****        -4.6280  -4.3378  -0.8402 LP             1 S1                 0.0000
     61 ****        -5.4688  -2.9385  -0.8790 LP             1 S1                 0.0000
     62 ****         0.0666   3.7690   2.2764 LP             1 S1                 0.0000
     63 ****         3.5995   1.7075   2.0689 LP             1 S1                 0.0000
     64 ****        -0.8196  -0.8624   0.4356 LP             1 S1                 0.0000
     65 ****         6.2246  -0.8677   0.9949 LP             1 S1                 0.0000
     66 ****         6.5029  -0.4885  -0.5688 LP             1 S1                 0.0000
     67 ****         3.0578   1.2454  -1.2764 LP             1 S1                 0.0000
     68 ****         2.1338  -0.1007  -1.2413 LP             1 S1                 0.0000
@<TRIPOS>BOND
    1    1    2 1     
    2    1   29 1     
    3    1   30 1     
    4    1   31 1     
    5    2    3 1     
    6    2   10 1     
    7    2   32 1     
    8    3    4 1     
    9    3   33 1     
   10    3   34 1     
   11    4    9 1     
   12    4    5 1     
   13    5    6 1     
   14    5   35 1     
   15    5   36 1     
   16    6    7 1     
   17    6   37 1     
   18    6   38 1     
   19    7    8 1     
   20    8    9 1     
   21    8   39 1     
   22    8   40 1     
   23    9   41 1     
   24    9   42 1     
   25   10   11 1     
   26   10   12 1     
   27   11   43 1     
   28   11   44 1     
   29   11   45 1     
   30   12   17 ar    
   31   12   13 ar    
   32   13   14 ar    
   33   14   15 ar    
   34   14   46 1     
   35   15   16 ar    
   36   16   20 1     
   37   16   17 ar    
   38   17   18 1     
   39   18   19 2     
   40   19   20 1     
   41   19   47 1     
   42   20   21 1     
   43   21   22 1     
   44   21   48 1     
   45   21   49 1     
   46   22   23 1     
   47   22   24 1     
   48   22   50 1     
   49   23   51 1     
   50   24   28 1     
   51   24   25 1     
   52   24   52 1     
   53   25   26 1     
   54   25   53 1     
   55   25   54 1     
   56   26   27 1     
   57   26   55 1     
   58   26   56 1     
   59   27   28 1     
   60   27   57 1     
   61   27   58 1     
   62    4   59 1     
   63    7   60 1     
   64    7   61 1     
   65   13   62 1     
   66   15   63 1     
   67   18   64 1     
   68   23   65 1     
   69   23   66 1     
   70   28   67 1     
   71   28   68 1     
@<TRIPOS>SUBSTRUCTURE
      1 S1             1
@<TRIPOS>SET
LONE_PAIRS      STATIC     ATOMS    <user>   **** ""
10 59 60 61 62 63 64 65 66 67 68
DONOR_HYDROGENS      STATIC     ATOMS    <user>   **** ""
1 51
ATOM$BLUE        STATIC     ATOMS    COLORGROUP SYSTEM
10 59 60 61 62 63 64 65 66 67 68
ATOM$RED        STATIC     ATOMS    COLORGROUP SYSTEM
1 51
