AV-unprocessed.smi:670|AV-procd|sdf|3271|dock8
  -GOLD-   22720 0233D 1   1.00000     0.00000
 Structure written by MMmdl.
 45 46  0  0  0  0  0  0  0  0  1 V2000
  153.0580  141.4363  160.1246 C   0  0  0  0  0  0  0  0  0  0  0  0
  152.8333  142.9163  159.7778 C   0  0  2  0  0  0  0  0  0  0  0  0
  151.7646  143.5645  160.6808 C   0  0  0  0  0  0  0  0  0  0  0  0
  151.5741  145.0524  160.3433 C   0  0  0  0  0  0  0  0  0  0  0  0
  151.2363  145.2528  158.8572 C   0  0  0  0  0  0  0  0  0  0  0  0
  152.2918  144.5998  157.9479 C   0  0  0  0  0  0  0  0  0  0  0  0
  152.4867  143.1090  158.2855 C   0  0  2  0  0  0  0  0  0  0  0  0
  151.2782  142.4110  158.0209 O   0  0  0  0  0  0  0  0  0  0  0  0
  151.1432  141.9233  156.6969 C   0  0  0  0  0  0  0  0  0  0  0  0
  149.7643  141.2634  156.5539 C   0  0  0  0  0  0  0  0  0  0  0  0
  148.6939  142.1918  156.9065 N   0  0  0  0  0  0  0  0  0  0  0  0
  147.6752  141.9147  157.7359 C   0  0  0  0  0  0  0  0  0  0  0  0
  147.5617  140.8397  158.3276 O   0  0  0  0  0  0  0  0  0  0  0  0
  146.6339  143.0303  157.9125 C   0  0  0  0  0  0  0  0  0  0  0  0
  146.2436  143.2596  159.3118 N   0  0  0  0  0  0  0  0  0  0  0  0
  146.6483  144.4866  159.8152 N   0  0  0  0  0  0  0  0  0  0  0  0
  146.3819  144.8022  161.0374 C   0  0  0  0  0  0  0  0  0  0  0  0
  146.8029  146.0265  161.4958 O   0  0  0  0  0  0  0  0  0  0  0  0
  145.6599  143.8967  161.9042 C   0  0  0  0  0  0  0  0  0  0  0  0
  145.2654  142.7055  161.4036 C   0  0  0  0  0  0  0  0  0  0  0  0
  145.5498  142.3165  160.0212 C   0  0  0  0  0  0  0  0  0  0  0  0
  145.1982  141.2401  159.5400 O   0  0  0  0  0  0  0  0  0  0  0  0
  147.7375  146.0390  161.3589 H   0  0  0  0  0  0  0  0  0  0  0  0
  152.1593  140.8449  159.9489 H   0  0  0  0  0  0  0  0  0  0  0  0
  153.3353  141.3149  161.1720 H   0  0  0  0  0  0  0  0  0  0  0  0
  153.8577  141.0087  159.5197 H   0  0  0  0  0  0  0  0  0  0  0  0
  153.7762  143.4319  159.9654 H   0  0  0  0  0  0  0  0  0  0  0  0
  150.8148  143.0388  160.5699 H   0  0  0  0  0  0  0  0  0  0  0  0
  152.0497  143.4622  161.7283 H   0  0  0  0  0  0  0  0  0  0  0  0
  150.7840  145.4754  160.9644 H   0  0  0  0  0  0  0  0  0  0  0  0
  152.4849  145.6009  160.5866 H   0  0  0  0  0  0  0  0  0  0  0  0
  150.2558  144.8241  158.6460 H   0  0  0  0  0  0  0  0  0  0  0  0
  151.1608  146.3172  158.6336 H   0  0  0  0  0  0  0  0  0  0  0  0
  152.0064  144.7188  156.9026 H   0  0  0  0  0  0  0  0  0  0  0  0
  153.2418  145.1227  158.0655 H   0  0  0  0  0  0  0  0  0  0  0  0
  153.3028  142.7022  157.6850 H   0  0  0  0  0  0  0  0  0  0  0  0
  151.2406  142.7411  155.9820 H   0  0  0  0  0  0  0  0  0  0  0  0
  151.9311  141.2000  156.4810 H   0  0  0  0  0  0  0  0  0  0  0  0
  149.6306  140.8782  155.5417 H   0  0  0  0  0  0  0  0  0  0  0  0
  149.6995  140.4035  157.2208 H   0  0  0  0  0  0  0  0  0  0  0  0
  148.7131  143.0994  156.4647 H   0  0  0  0  0  0  0  0  0  0  0  0
  147.0418  143.9480  157.4847 H   0  0  0  0  0  0  0  0  0  0  0  0
  145.7546  142.7933  157.3105 H   0  0  0  0  0  0  0  0  0  0  0  0
  145.4446  144.1741  162.9254 H   0  0  0  0  0  0  0  0  0  0  0  0
  144.7253  142.0191  162.0392 H   0  0  0  0  0  0  0  0  0  0  0  0
  1  2  1  0  0  0  0
  1 24  1  0  0  0  0
  1 25  1  0  0  0  0
  1 26  1  0  0  0  0
  2  7  1  0  0  0  0
  2  3  1  0  0  0  0
  2 27  1  0  0  0  0
  3  4  1  0  0  0  0
  3 28  1  0  0  0  0
  3 29  1  0  0  0  0
  4  5  1  0  0  0  0
  4 30  1  0  0  0  0
  4 31  1  0  0  0  0
  5  6  1  0  0  0  0
  5 32  1  0  0  0  0
  5 33  1  0  0  0  0
  6  7  1  0  0  0  0
  6 34  1  0  0  0  0
  6 35  1  0  0  0  0
  7  8  1  0  0  0  0
  7 36  1  0  0  0  0
  8  9  1  0  0  0  0
  9 10  1  0  0  0  0
  9 37  1  0  0  0  0
  9 38  1  0  0  0  0
 10 11  1  0  0  0  0
 10 39  1  0  0  0  0
 10 40  1  0  0  0  0
 11 12  1  0  0  0  0
 11 41  1  0  0  0  0
 12 13  2  0  0  0  0
 12 14  1  0  0  0  0
 14 42  1  0  0  0  0
 14 43  1  0  0  0  0
 14 15  1  0  0  0  0
 15 16  1  0  0  0  0
 15 21  1  0  0  0  0
 16 17  2  0  0  0  0
 17 18  1  0  0  0  0
 17 19  1  0  0  0  0
 18 23  1  0  0  0  0
 19 44  1  0  0  0  0
 19 20  2  0  0  0  0
 20 45  1  0  0  0  0
 20 21  1  0  0  0  0
 21 22  2  0  0  0  0
M  END
> <s_m_source_file>
AV-unprocessed.smi

> <i_m_source_file_index>
670

> <i_lp_mmshare_version>
43012

> <i_f3d_flags>
0

> <s_epik_input>
W0NIM11bQ0BASF0xW0NIMl1bQ0gyXVtDSDJdW0NIMl1bQ0BIXTFPW0NIMl1bQ0gyXVtOSF1DKD1PKVtDSDJdbjJbbkhdYyg9TylbY0hdW2NIXWMyPU8=

> <s_epik_cmdline>
J2VwaWtfcHl0aG9uJywgJy1waCcsICc3LjAnLCAnLXRuJywgJzgnLCAnLW1hJywgJzIwMCcsICctbWV0YWxfYmluZGluZycsICctaW1hZScsICc8aW5maWxlLm1hZT4nLCAnLW9tYWUnLCAnPG91dGZpbGUubWFlPic=

> <r_lp_tautomer_probability>
0.9996

> <r_epik_Ionization_Penalty>
2.12726

> <r_epik_Ionization_Penalty_Charging>
3.83395e-08

> <r_epik_Ionization_Penalty_Neutral>
2.12726

> <r_epik_State_Penalty>
1.70432

> <r_epik_Charging_Adjusted_Penalty>
1.70432

> <i_epik_Tot_Q>
0

> <i_epik_Tot_abs_Q>
0

> <r_epik_Metal_State_Penalty>
1.70432

> <b_epik_Metal_Only>
0

> <s_lp_Force_Field>
OPLS_2005

> <r_lp_Energy>
20.0493

> <b_lp_Chiralities_Consistent>
1

> <s_lp_Variant>
AV-unprocessed.smi:670-7

> <Gold.Version>
5.8.1

> <Gold.Id.Protein>
6NUR|6NUR_protein|mol2

> <Gold.PLP.Fitness>
51.6106

> <Gold.PLP.PLP>
-49.8335

> <Gold.PLP.part.hbond>
-5.6840

> <Gold.PLP.part.metal>
0.0000

> <Gold.PLP.part.buried>
-6.0659

> <Gold.PLP.part.nonpolar>
-37.2056

> <Gold.PLP.part.repulsive>
0.4923

> <Gold.PLP.ligand.clash>
0.0000

> <Gold.PLP.ligand.torsion>
0.6577

> <Gold.PLP.Chemscore.Hbond>
1.0052

> <Gold.PLP.Chemscore.CHOScore>
0.0000

> <Gold.PLP.Chemscore.Metal>
0.0000

> <Gold.Chemscore.Hbonds>
donor molecule, donor type, donor heavy atom, donor atom, acceptor molecule, acceptor atom, score
      L1  H    11    41       P1  8028  1.00

> <Gold.PLP.Chemscore.Internal.Correction>
0.0769

> <Gold.Rescore>
     Score         DG    S(hbond)    S(metal)    S(lipo)     H(rot)  DE(clash)    DE(int)     intcor
     12.00     -13.92       0.97        0.00     112.05       3.09       0.84       1.08       ----

> <Gold.Chemscore.Fitness>
11.9968

> <Gold.Chemscore.DG>
-13.9160

> <Gold.Chemscore.ZeroCoef>
-5.4800

> <Gold.Chemscore.Hbond>
0.9689

> <Gold.Chemscore.Metal>
0.0000

> <Gold.Chemscore.Lipo>
112.0540

> <Gold.Chemscore.Internal_Hbond>
0.0000

> <Gold.Chemscore.DEClash>
0.8350

> <Gold.Chemscore.DEInternal>
1.0842

> <Gold.Chemscore.Rot>
3.0901

> <Gold.Chemscore.Internal.Correction>
   9.000000E+99

> <Gold.Chemscore.Hbonds>
donor molecule, donor type, donor heavy atom, donor atom, acceptor molecule, acceptor atom, score
      L1  H    11    41       P1  8028  0.93

> <Gold.Chemscore.Hbond.Weighted>
-3.2363

> <Gold.Chemscore.Metal.Weighted>
-0.0000

> <Gold.Chemscore.Lipo.Weighted>
-13.1103

> <Gold.Chemscore.Internal_Hbond.Weighted>
0.0000

> <Gold.Chemscore.DEClash.Weighted>
0.8350

> <Gold.Chemscore.DEInternal.Weighted>
1.0842

> <Gold.Chemscore.Rot.Weighted>
7.9106

> <Gold.Chemscore.Internal.Correction.Weighted>
   9.000000E+99

> <Gold.Protein.RotatedTorsions>
[ 6907 6896 6895 6894 ] final  164.54 input  -60.11 | X-H torsion
[ 7974 7965 7964 7962 ] final -111.84 input  175.53 | X-H torsion
[ 8008 7997 7996 7995 ] final   92.93 input   59.86 | X-H torsion
[ 10167 10162 10161 10158 ] final  109.18 input  -65.29 | X-H torsion
[ 10718 10713 10712 10709 ] final   65.48 input   66.30 | X-H torsion
[ 10763 10752 10751 10750 ] final  128.99 input  -60.55 | X-H torsion
[ 11005 11000 10999 10996 ] final  -79.10 input  -57.11 | X-H torsion

> <Gold.Protein.ActiveResidues>
 VAL166  LYS551  ARG553  GLY616  TRP617  ASP618  TYR619  PRO620  LYS621  CYS622 
 ASP623  PHE694  ASN695  SER759  ASP760  ASP761  ALA762  ILE779  LEU786  VAL792 
 PHE793  MET794  SER795  GLU796  ALA797  LYS798  CYS799  TRP800  GLU811  SER814 

> <Gold.Protein.RotatedAtoms>
  151.9083  133.3555  159.3854 H   0  0  0  0  0  0  0  0  0  0  0  0  # atno 6907 bound_to 6896
  150.7064  134.4758  159.5456 H   0  0  0  0  0  0  0  0  0  0  0  0  # atno 6908 bound_to 6896
  152.2359  134.8276  160.0518 H   0  0  0  0  0  0  0  0  0  0  0  0  # atno 6909 bound_to 6896
  145.1512  140.8830  143.3645 H   0  0  0  0  0  0  0  0  0  0  0  0  # atno 7974 bound_to 7965
  156.0409  140.3319  155.7243 H   0  0  0  0  0  0  0  0  0  0  0  0  # atno 8008 bound_to 7997
  155.5745  140.0631  157.2816 H   0  0  0  0  0  0  0  0  0  0  0  0  # atno 8009 bound_to 7997
  154.4393  140.1855  156.0901 H   0  0  0  0  0  0  0  0  0  0  0  0  # atno 8010 bound_to 7997
  139.6787  144.7120  151.1555 H   0  0  0  0  0  0  0  0  0  0  0  0  # atno 10167 bound_to 10162
  157.6108  130.9216  149.9982 H   0  0  0  0  0  0  0  0  0  0  0  0  # atno 10718 bound_to 10713
  153.7345  135.3233  155.3292 H   0  0  0  0  0  0  0  0  0  0  0  0  # atno 10763 bound_to 10752
  154.8315  135.4530  154.1088 H   0  0  0  0  0  0  0  0  0  0  0  0  # atno 10764 bound_to 10752
  153.2245  135.6952  153.8042 H   0  0  0  0  0  0  0  0  0  0  0  0  # atno 10765 bound_to 10752
  141.1666  133.7091  156.8072 H   0  0  0  0  0  0  0  0  0  0  0  0  # atno 11005 bound_to 11000
  145.0429  139.3245  143.5967 LP  0  0  0  0  0  0  0  0  0  0  0  0  # atno 17320 bound_to 7965
  146.3494  139.9809  142.8696 LP  0  0  0  0  0  0  0  0  0  0  0  0  # atno 17321 bound_to 7965
  140.7644  143.5732  150.8973 LP  0  0  0  0  0  0  0  0  0  0  0  0  # atno 17342 bound_to 10162
  139.9402  143.6390  152.3055 LP  0  0  0  0  0  0  0  0  0  0  0  0  # atno 17343 bound_to 10162
  156.1210  130.3646  149.9887 LP  0  0  0  0  0  0  0  0  0  0  0  0  # atno 17370 bound_to 10713
  156.7967  130.9276  151.3646 LP  0  0  0  0  0  0  0  0  0  0  0  0  # atno 17371 bound_to 10713
  140.2213  134.8754  157.3380 LP  0  0  0  0  0  0  0  0  0  0  0  0  # atno 17394 bound_to 11000
  140.1984  134.4284  155.7676 LP  0  0  0  0  0  0  0  0  0  0  0  0  # atno 17395 bound_to 11000

$$$$
