AV-unprocessed.smi:802|AV-procd|sdf|3792|dock7
  -GOLD-   22720 1233D 1   1.00000     0.00000
 Structure written by MMmdl.
 37 38  0  0  0  0  0  0  0  0  2 V2000
  148.5518  133.9497  155.8309 C   0  0  0  0  0  0  0  0  0  0  0  0
  149.6592  134.9575  155.7455 C   0  0  0  0  0  0  0  0  0  0  0  0
  149.7021  136.1639  154.9949 C   0  0  0  0  0  0  0  0  0  0  0  0
  150.9290  136.6864  155.2927 C   0  0  0  0  0  0  0  0  0  0  0  0
  151.6400  137.9260  154.8634 C   0  0  0  0  0  0  0  0  0  0  0  0
  151.0204  139.3725  155.8222 S   0  0  0  0  0  0  0  0  0  0  0  0
  150.8046  140.4496  154.8419 O   0  0  0  0  0  0  0  0  0  0  0  0
  149.8389  138.8963  156.5603 O   0  0  0  0  0  0  0  0  0  0  0  0
  152.2901  139.6534  156.7886 N   0  5  0  0  0  0  0  0  0  0  0  0
  152.0959  139.6710  158.2288 C   0  0  0  0  0  0  0  0  0  0  0  0
  152.5203  141.0445  158.8183 C   0  0  0  0  0  0  0  0  0  0  0  0
  152.6093  141.0500  160.3700 C   0  0  0  0  0  0  0  0  0  0  0  0
  153.0735  142.4140  160.9073 C   0  0  0  0  0  0  0  0  0  0  0  0
  152.1575  143.5469  160.4239 C   0  0  0  0  0  0  0  0  0  0  0  0
  152.0590  143.5578  158.8920 C   0  0  0  0  0  0  0  0  0  0  0  0
  151.5906  142.1963  158.3514 C   0  0  0  0  0  0  0  0  0  0  0  0
  151.5915  135.8651  156.1480 O   0  0  0  0  0  0  0  0  0  0  0  0
  150.7741  134.7649  156.4305 N   0  0  0  0  0  0  0  0  0  0  0  0
  147.6787  134.2761  155.2657 H   0  0  0  0  0  0  0  0  0  0  0  0
  148.2389  133.7959  156.8638 H   0  0  0  0  0  0  0  0  0  0  0  0
  148.8665  132.9863  155.4292 H   0  0  0  0  0  0  0  0  0  0  0  0
  148.9494  136.5871  154.3463 H   0  0  0  0  0  0  0  0  0  0  0  0
  152.7132  137.8370  155.0316 H   0  0  0  0  0  0  0  0  0  0  0  0
  151.4780  138.1173  153.8030 H   0  0  0  0  0  0  0  0  0  0  0  0
  151.0508  139.4883  158.4808 H   0  0  0  0  0  0  0  0  0  0  0  0
  152.6605  138.8824  158.7274 H   0  0  0  0  0  0  0  0  0  0  0  0
  153.5157  141.2686  158.4301 H   0  0  0  0  0  0  0  0  0  0  0  0
  151.6393  140.8105  160.8114 H   0  0  0  0  0  0  0  0  0  0  0  0
  153.3052  140.2898  160.7302 H   0  0  0  0  0  0  0  0  0  0  0  0
  153.0950  142.3950  161.9973 H   0  0  0  0  0  0  0  0  0  0  0  0
  154.0965  142.6059  160.5813 H   0  0  0  0  0  0  0  0  0  0  0  0
  151.1630  143.4228  160.8545 H   0  0  0  0  0  0  0  0  0  0  0  0
  152.5329  144.5064  160.7805 H   0  0  0  0  0  0  0  0  0  0  0  0
  151.3716  144.3406  158.5704 H   0  0  0  0  0  0  0  0  0  0  0  0
  153.0314  143.8051  158.4642 H   0  0  0  0  0  0  0  0  0  0  0  0
  151.5556  142.2565  157.2614 H   0  0  0  0  0  0  0  0  0  0  0  0
  150.5645  142.0230  158.6836 H   0  0  0  0  0  0  0  0  0  0  0  0
  1  2  1  0  0  0  0
  1 19  1  0  0  0  0
  1 20  1  0  0  0  0
  1 21  1  0  0  0  0
  2 18  2  0  0  0  0
  2  3  1  0  0  0  0
  3  4  2  0  0  0  0
  3 22  1  0  0  0  0
  4  5  1  0  0  0  0
  4 17  1  0  0  0  0
  5  6  1  0  0  0  0
  5 23  1  0  0  0  0
  5 24  1  0  0  0  0
  6  7  2  0  0  0  0
  6  8  2  0  0  0  0
  6  9  1  0  0  0  0
  9 10  1  0  0  0  0
 10 11  1  0  0  0  0
 10 25  1  0  0  0  0
 10 26  1  0  0  0  0
 11 16  1  0  0  0  0
 11 12  1  0  0  0  0
 11 27  1  0  0  0  0
 12 13  1  0  0  0  0
 12 28  1  0  0  0  0
 12 29  1  0  0  0  0
 13 14  1  0  0  0  0
 13 30  1  0  0  0  0
 13 31  1  0  0  0  0
 14 15  1  0  0  0  0
 14 32  1  0  0  0  0
 14 33  1  0  0  0  0
 15 16  1  0  0  0  0
 15 34  1  0  0  0  0
 15 35  1  0  0  0  0
 16 36  1  0  0  0  0
 16 37  1  0  0  0  0
 17 18  1  0  0  0  0
M  CHG  1   9  -1
M  END
> <s_m_source_file>
AV-unprocessed.smi

> <i_m_source_file_index>
802

> <i_lp_mmshare_version>
43012

> <i_f3d_flags>
0

> <s_epik_input>
W0NIM11jMVtjSF1jKG9uMSlbQ0gyXVMoPU8pKD1PKVtOSF1bQ0gyXVtDSF0yW0NIMl1bQ0gyXVtDSDJdW0NIMl1bQ0gyXTI=

> <s_epik_cmdline>
J2VwaWtfcHl0aG9uJywgJy1waCcsICc3LjAnLCAnLXRuJywgJzgnLCAnLW1hJywgJzIwMCcsICctbWV0YWxfYmluZGluZycsICctaW1hZScsICc8aW5maWxlLm1hZT4nLCAnLW9tYWUnLCAnPG91dGZpbGUubWFlPic=

> <r_lp_tautomer_probability>
1

> <r_epik_Ionization_Penalty>
5.54077

> <r_epik_Ionization_Penalty_Charging>
5.54077

> <r_epik_Ionization_Penalty_Neutral>
8.84355e-10

> <r_epik_State_Penalty>
5.54071

> <r_epik_Charging_Adjusted_Penalty>
11.0815

> <i_epik_Tot_Q>
-1

> <i_epik_Tot_abs_Q>
1

> <r_epik_Metal_State_Penalty>
1.54279

> <b_epik_Metal_Only>
1

> <s_lp_Force_Field>
OPLS_2005

> <r_lp_Energy>
6.62566

> <b_lp_Chiralities_Consistent>
1

> <s_lp_Variant>
AV-unprocessed.smi:802-2

> <Gold.Version>
5.8.1

> <Gold.Id.Protein>
6NUR|6NUR_protein|mol2

> <Gold.PLP.Fitness>
43.8613

> <Gold.PLP.PLP>
-32.9632

> <Gold.PLP.part.hbond>
-3.3470

> <Gold.PLP.part.metal>
0.0000

> <Gold.PLP.part.buried>
-4.0339

> <Gold.PLP.part.nonpolar>
-26.4091

> <Gold.PLP.part.repulsive>
0.1022

> <Gold.PLP.ligand.clash>
0.0000

> <Gold.PLP.ligand.torsion>
1.0494

> <Gold.PLP.Chemscore.Hbond>
4.0000

> <Gold.PLP.Chemscore.CHOScore>
0.0000

> <Gold.PLP.Chemscore.Metal>
0.0000

> <Gold.Chemscore.Hbonds>
donor molecule, donor type, donor heavy atom, donor atom, acceptor molecule, acceptor atom, score
      P1  H  7989  7998       L1     7  1.00
      P1  H  7997  8009       L1     9  1.46
      P1  H 10752 10763       L1    17  0.60

> <Gold.PLP.Chemscore.Internal.Correction>
0.9969

> <Gold.Rescore>
     Score         DG    S(hbond)    S(metal)    S(lipo)     H(rot)  DE(clash)    DE(int)     intcor
     18.54     -19.60       2.26        0.00      88.93       1.50       0.12       0.94       ----

> <Gold.Chemscore.Fitness>
18.5380

> <Gold.Chemscore.DG>
-19.5999

> <Gold.Chemscore.ZeroCoef>
-5.4800

> <Gold.Chemscore.Hbond>
2.2588

> <Gold.Chemscore.Metal>
0.0000

> <Gold.Chemscore.Lipo>
88.9252

> <Gold.Chemscore.Internal_Hbond>
0.0000

> <Gold.Chemscore.DEClash>
0.1201

> <Gold.Chemscore.DEInternal>
0.9419

> <Gold.Chemscore.Rot>
1.4956

> <Gold.Chemscore.Internal.Correction>
   9.000000E+99

> <Gold.Chemscore.Hbonds>
donor molecule, donor type, donor heavy atom, donor atom, acceptor molecule, acceptor atom, score
      P1  H  7989  7998       L1     7  0.97
      P1  H  7997  8009       L1     9  0.47
      P1  H 10752 10763       L1    17  0.04

> <Gold.Chemscore.Hbond.Weighted>
-7.5444

> <Gold.Chemscore.Metal.Weighted>
-0.0000

> <Gold.Chemscore.Lipo.Weighted>
-10.4043

> <Gold.Chemscore.Internal_Hbond.Weighted>
0.0000

> <Gold.Chemscore.DEClash.Weighted>
0.1201

> <Gold.Chemscore.DEInternal.Weighted>
0.9419

> <Gold.Chemscore.Rot.Weighted>
3.8287

> <Gold.Chemscore.Internal.Correction.Weighted>
   9.000000E+99

> <Gold.Protein.RotatedTorsions>
[ 6907 6896 6895 6894 ] final -117.89 input  -60.11 | X-H torsion
[ 7974 7965 7964 7962 ] final  150.09 input  175.53 | X-H torsion
[ 8008 7997 7996 7995 ] final -164.02 input   59.86 | X-H torsion
[ 10167 10162 10161 10158 ] final   99.93 input  -65.29 | X-H torsion
[ 10718 10713 10712 10709 ] final   62.87 input   66.30 | X-H torsion
[ 10763 10752 10751 10750 ] final   73.26 input  -60.55 | X-H torsion
[ 11005 11000 10999 10996 ] final  125.67 input  -57.11 | X-H torsion

> <Gold.Protein.ActiveResidues>
 VAL166  LYS551  ARG553  GLY616  TRP617  ASP618  TYR619  PRO620  LYS621  CYS622 
 ASP623  PHE694  ASN695  SER759  ASP760  ASP761  ALA762  ILE779  LEU786  VAL792 
 PHE793  MET794  SER795  GLU796  ALA797  LYS798  CYS799  TRP800  GLU811  SER814 

> <Gold.Protein.RotatedAtoms>
  150.8174  133.8313  159.3154 H   0  0  0  0  0  0  0  0  0  0  0  0  # atno 6907 bound_to 6896
  151.6082  135.1040  160.0085 H   0  0  0  0  0  0  0  0  0  0  0  0  # atno 6908 bound_to 6896
  152.4264  133.7162  159.6564 H   0  0  0  0  0  0  0  0  0  0  0  0  # atno 6909 bound_to 6896
  144.8390  139.6363  143.6025 H   0  0  0  0  0  0  0  0  0  0  0  0  # atno 7974 bound_to 7965
  155.8296  140.0932  157.1800 H   0  0  0  0  0  0  0  0  0  0  0  0  # atno 8008 bound_to 7997
  154.3979  140.1421  156.3659 H   0  0  0  0  0  0  0  0  0  0  0  0  # atno 8009 bound_to 7997
  155.8180  140.3447  155.5499 H   0  0  0  0  0  0  0  0  0  0  0  0  # atno 8010 bound_to 7997
  139.7572  144.6966  151.0345 H   0  0  0  0  0  0  0  0  0  0  0  0  # atno 10167 bound_to 10162
  157.5931  130.9074  149.9643 H   0  0  0  0  0  0  0  0  0  0  0  0  # atno 10718 bound_to 10713
  153.0510  135.5069  154.7866 H   0  0  0  0  0  0  0  0  0  0  0  0  # atno 10763 bound_to 10752
  154.6729  135.2956  154.9720 H   0  0  0  0  0  0  0  0  0  0  0  0  # atno 10764 bound_to 10752
  154.0532  135.6701  153.4855 H   0  0  0  0  0  0  0  0  0  0  0  0  # atno 10765 bound_to 10752
  139.9418  134.9634  156.8592 H   0  0  0  0  0  0  0  0  0  0  0  0  # atno 11005 bound_to 11000
  146.2685  139.6578  142.9312 LP  0  0  0  0  0  0  0  0  0  0  0  0  # atno 17320 bound_to 7965
  145.4734  141.0436  143.2686 LP  0  0  0  0  0  0  0  0  0  0  0  0  # atno 17321 bound_to 7965
  140.7804  143.4739  151.0109 LP  0  0  0  0  0  0  0  0  0  0  0  0  # atno 17342 bound_to 10162
  139.8425  143.7544  152.3180 LP  0  0  0  0  0  0  0  0  0  0  0  0  # atno 17343 bound_to 10162
  156.0989  130.3657  150.0254 LP  0  0  0  0  0  0  0  0  0  0  0  0  # atno 17370 bound_to 10713
  156.8373  130.9413  151.3634 LP  0  0  0  0  0  0  0  0  0  0  0  0  # atno 17371 bound_to 10713
  140.5934  134.0240  155.7508 LP  0  0  0  0  0  0  0  0  0  0  0  0  # atno 17394 bound_to 11000
  141.1054  133.9701  157.3005 LP  0  0  0  0  0  0  0  0  0  0  0  0  # atno 17395 bound_to 11000

$$$$
