#       Name:                AV-unprocessed.smi:2282
#       Creating user name   scv26
#       Creation time:       Fri Mar 27 12:41:26 2020


#       File generated by GOLD software.
#

@<TRIPOS>MOLECULE
AV-unprocessed.smi:2282
    37    38     1
SMALL
NO_CHARGES


@<TRIPOS>ATOM
      1 ****        -5.0953   2.6879   0.2305 C.3            1 S1                 0.0000
      2 ****        -4.1906   1.4835   0.0478 C.ar           1 S1                 0.0000
      3 ****        -4.8180   0.3130  -0.1996 N.ar           1 S1                 0.0000
      4 ****        -4.0594  -0.7881  -0.3767 C.ar           1 S1                 0.0000
      5 ****        -2.6530  -0.7793  -0.3104 C.ar           1 S1                 0.0000
      6 ****        -1.9930   0.4424  -0.0350 C.ar           1 S1                 0.0000
      7 ****        -0.5775   0.5701   0.0325 N.am           1 S1                 0.0000
      8 ****         0.3445  -0.3683   0.3148 C.2            1 S1                 0.0000
      9 ****         0.0911  -1.5453   0.5723 O.2            1 S1                 0.0000
     10 ****         1.7999   0.1142   0.3089 C.3            1 S1                 0.0000
     11 ****         2.6523  -0.4432   1.4641 C.3            1 S1                 0.0000
     12 ****         3.5905  -1.4165   0.7786 C.3            1 S1                 0.0000
     13 ****         3.7352  -0.7894  -0.6033 C.3            1 S1                 0.0000
     14 ****         4.2296  -1.7587  -1.6819 C.3            1 S1                 0.0000
     15 ****         2.4160  -0.3511  -0.8907 O.3            1 S1                 0.0000
     16 ****        -2.7836   1.6032   0.1350 C.ar           1 S1                 0.0000
     17 ****        -2.0464   3.1388   0.4505 Cl             1 S1                 0.0000
     18 ****        -4.8633   3.4526  -0.5112 H              1 S1                 0.0000
     19 ****        -4.9579   3.1169   1.2236 H              1 S1                 0.0000
     20 ****        -6.1473   2.4209   0.1206 H              1 S1                 0.0000
     21 ****        -4.5898  -1.7055  -0.5851 H              1 S1                 0.0000
     22 ****        -2.1147  -1.6980  -0.4847 H              1 S1                 0.0000
     23 ****        -0.2257   1.5099  -0.0800 H              1 S1                 0.0000
     24 ****         1.8348   1.2049   0.3250 H              1 S1                 0.0000
     25 ****         3.2240   0.3659   1.9203 H              1 S1                 0.0000
     26 ****         2.0750  -0.9199   2.2579 H              1 S1                 0.0000
     27 ****         4.5424  -1.5308   1.2978 H              1 S1                 0.0000
     28 ****         3.1194  -2.3979   0.7048 H              1 S1                 0.0000
     29 ****         4.3898   0.0823  -0.5501 H              1 S1                 0.0000
     30 ****         5.2297  -2.1247  -1.4485 H              1 S1                 0.0000
     31 ****         4.2722  -1.2691  -2.6550 H              1 S1                 0.0000
     32 ****         3.5685  -2.6213  -1.7714 H              1 S1                 0.0000
     33 ****        -5.8155   0.2643  -0.2500 LP             1 S1                 0.0000
     34 ****        -0.8573  -1.8621   0.5813 LP             1 S1                 0.0000
     35 ****         0.8337  -2.1844   0.7724 LP             1 S1                 0.0000
     36 ****         2.4494   0.3923  -1.5588 LP             1 S1                 0.0000
     37 ****         1.8857  -1.1118  -1.2649 LP             1 S1                 0.0000
@<TRIPOS>BOND
    1    1    2 1     
    2    1   18 1     
    3    1   19 1     
    4    1   20 1     
    5    2   16 ar    
    6    2    3 ar    
    7    3    4 ar    
    8    4    5 ar    
    9    4   21 1     
   10    5    6 ar    
   11    5   22 1     
   12    6    7 1     
   13    6   16 ar    
   14    7    8 am    
   15    7   23 1     
   16    8    9 2     
   17    8   10 1     
   18   10   15 1     
   19   10   11 1     
   20   10   24 1     
   21   11   12 1     
   22   11   25 1     
   23   11   26 1     
   24   12   13 1     
   25   12   27 1     
   26   12   28 1     
   27   13   14 1     
   28   13   15 1     
   29   13   29 1     
   30   14   30 1     
   31   14   31 1     
   32   14   32 1     
   33   16   17 1     
   34    3   33 1     
   35    9   34 1     
   36    9   35 1     
   37   15   36 1     
   38   15   37 1     
@<TRIPOS>SUBSTRUCTURE
      1 S1             1
@<TRIPOS>SET
LONE_PAIRS      STATIC     ATOMS    <user>   **** ""
5 33 34 35 36 37
DONOR_HYDROGENS      STATIC     ATOMS    <user>   **** ""
1 23
ATOM$BLUE        STATIC     ATOMS    COLORGROUP SYSTEM
5 33 34 35 36 37
ATOM$RED        STATIC     ATOMS    COLORGROUP SYSTEM
1 23
