AV-unprocessed.smi:35|AV-procd|sdf|254|dock6
  -GOLD-   2262016 13D 1   1.00000     0.00000
 Structure written by MMmdl.
 29 30  0  0  0  0  0  0  0  0  1 V2000
  152.1536  137.0719  159.8546 O   0  0  0  0  0  0  0  0  0  0  0  0
  151.7488  137.5890  158.8155 C   0  0  0  0  0  0  0  0  0  0  0  0
  152.6548  138.0976  157.8808 N   0  0  0  0  0  0  0  0  0  0  0  0
  152.3149  138.7050  156.6706 C   0  0  0  0  0  0  0  0  0  0  0  0
  153.1965  139.1292  155.9246 O   0  0  0  0  0  0  0  0  0  0  0  0
  150.9402  138.8129  156.3626 N   0  0  0  0  0  0  0  0  0  0  0  0
  150.5467  139.4679  155.0509 C   0  0  1  0  0  0  0  0  0  0  0  0
  149.4993  138.7534  154.4615 O   0  0  0  0  0  0  0  0  0  0  0  0
  148.2864  139.4946  154.5529 C   0  0  2  0  0  0  0  0  0  0  0  0
  147.2750  139.0387  153.4877 C   0  0  0  0  0  0  0  0  0  0  0  0
  147.9481  138.7287  152.2866 O   0  0  0  0  0  0  0  0  0  0  0  0
  148.7637  140.9470  154.4367 C   0  0  2  0  0  0  0  0  0  0  0  0
  148.9976  141.3030  153.0858 O   0  0  0  0  0  0  0  0  0  0  0  0
  150.0714  140.9330  155.2172 C   0  0  1  0  0  0  0  0  0  0  0  0
  149.8244  141.3078  156.5620 O   0  0  0  0  0  0  0  0  0  0  0  0
  150.0022  138.3219  157.2633 C   0  0  0  0  0  0  0  0  0  0  0  0
  150.3486  137.7369  158.4341 C   0  0  0  0  0  0  0  0  0  0  0  0
  148.8626  137.1032  159.5808 Br  0  0  0  0  0  0  0  0  0  0  0  0
  153.6372  138.0212  158.1011 H   0  0  0  0  0  0  0  0  0  0  0  0
  151.4145  139.3676  154.3960 H   0  0  0  0  0  0  0  0  0  0  0  0
  147.8605  139.3634  155.5492 H   0  0  0  0  0  0  0  0  0  0  0  0
  146.7643  138.1337  153.8182 H   0  0  0  0  0  0  0  0  0  0  0  0
  146.5129  139.7977  153.3078 H   0  0  0  0  0  0  0  0  0  0  0  0
  148.4158  137.9162  152.4068 H   0  0  0  0  0  0  0  0  0  0  0  0
  148.0359  141.6486  154.8475 H   0  0  0  0  0  0  0  0  0  0  0  0
  149.1685  140.5156  152.5917 H   0  0  0  0  0  0  0  0  0  0  0  0
  150.8156  141.6136  154.8010 H   0  0  0  0  0  0  0  0  0  0  0  0
  148.9778  141.7265  156.6026 H   0  0  0  0  0  0  0  0  0  0  0  0
  148.9489  138.3983  157.0430 H   0  0  0  0  0  0  0  0  0  0  0  0
  1  2  2  0  0  0  0
  2 17  1  0  0  0  0
  2  3  1  0  0  0  0
  3 19  1  0  0  0  0
  3  4  1  0  0  0  0
  4  5  2  0  0  0  0
  4  6  1  0  0  0  0
  6  7  1  0  0  0  0
  6 16  1  0  0  0  0
  7 14  1  0  0  0  0
  7  8  1  0  0  0  0
  7 20  1  0  0  0  0
  8  9  1  0  0  0  0
  9 10  1  0  0  0  0
  9 12  1  0  0  0  0
  9 21  1  0  0  0  0
 10 11  1  0  0  0  0
 10 22  1  0  0  0  0
 10 23  1  0  0  0  0
 11 24  1  0  0  0  0
 12 13  1  0  0  0  0
 12 14  1  0  0  0  0
 12 25  1  0  0  0  0
 13 26  1  0  0  0  0
 14 15  1  0  0  0  0
 14 27  1  0  0  0  0
 15 28  1  0  0  0  0
 16 17  2  0  0  0  0
 16 29  1  0  0  0  0
 17 18  1  0  0  0  0
M  END
> <s_m_source_file>
AV-unprocessed.smi

> <i_m_source_file_index>
35

> <i_lp_mmshare_version>
43012

> <i_f3d_flags>
0

> <s_epik_input>
Tz1jMVtuSF1jKD1PKW4oW2NIXWMxQnIpW0NAQEhdMk9bQ0BASF0oW0NIMl1bT0hdKVtDQEBIXShbT0hdKVtDQEhdMltPSF0=

> <s_epik_cmdline>
J2VwaWtfcHl0aG9uJywgJy1waCcsICc3LjAnLCAnLXRuJywgJzgnLCAnLW1hJywgJzIwMCcsICctbWV0YWxfYmluZGluZycsICctaW1hZScsICc8aW5maWxlLm1hZT4nLCAnLW9tYWUnLCAnPG91dGZpbGUubWFlPic=

> <r_lp_tautomer_probability>
0.999537

> <r_epik_Ionization_Penalty>
0.10812

> <r_epik_Ionization_Penalty_Charging>
0.108119

> <r_epik_Ionization_Penalty_Neutral>
4.93006e-07

> <r_epik_State_Penalty>
0.0979238

> <r_epik_Charging_Adjusted_Penalty>
0.206043

> <i_epik_Tot_Q>
0

> <i_epik_Tot_abs_Q>
0

> <r_epik_Metal_State_Penalty>
3.07911

> <b_epik_Metal_Only>
0

> <s_epik_Chemistry_Notes>
This compound contains an acetal/aminal-like group ( X-CH(R)-Y where X, Y are N, S, or O) that may be acid/base labile, releasing an aldehyde.

> <s_lp_Force_Field>
OPLS_2005

> <r_lp_Energy>
33.5115

> <b_lp_Chiralities_Consistent>
1

> <s_lp_Variant>
AV-unprocessed.smi:35-8

> <Gold.Version>
5.8.1

> <Gold.Id.Protein>
6NUR|6NUR_protein|mol2

> <Gold.PLP.Fitness>
38.4048

> <Gold.PLP.PLP>
-25.2107

> <Gold.PLP.part.hbond>
-5.7512

> <Gold.PLP.part.metal>
0.0000

> <Gold.PLP.part.buried>
-3.0112

> <Gold.PLP.part.nonpolar>
-16.0021

> <Gold.PLP.part.repulsive>
0.2987

> <Gold.PLP.ligand.clash>
0.0000

> <Gold.PLP.ligand.torsion>
0.7185

> <Gold.PLP.Chemscore.Hbond>
4.8560

> <Gold.PLP.Chemscore.CHOScore>
0.0000

> <Gold.PLP.Chemscore.Metal>
0.0000

> <Gold.Chemscore.Hbonds>
donor molecule, donor type, donor heavy atom, donor atom, acceptor molecule, acceptor atom, score
      L1  H    11    24       P1  7948  1.00
      L1  H    13    26       P1  7957  0.80
      P1  H  6896  6909       L1     1  1.00
      P1  H  7997  8009       L1     5  0.91
      P1  H  8011  8017       L1    13  1.00

> <Gold.PLP.Chemscore.Internal.Correction>
0.0631

> <Gold.Rescore>
     Score         DG    S(hbond)    S(metal)    S(lipo)     H(rot)  DE(clash)    DE(int)     intcor
     13.46     -14.29       4.24        0.00      34.60       3.67       0.05       0.79       ----

> <Gold.Chemscore.Fitness>
13.4600

> <Gold.Chemscore.DG>
-14.2949

> <Gold.Chemscore.ZeroCoef>
-5.4800

> <Gold.Chemscore.Hbond>
4.2401

> <Gold.Chemscore.Metal>
0.0000

> <Gold.Chemscore.Lipo>
34.6026

> <Gold.Chemscore.Internal_Hbond>
0.0000

> <Gold.Chemscore.DEClash>
0.0491

> <Gold.Chemscore.DEInternal>
0.7859

> <Gold.Chemscore.Rot>
3.6701

> <Gold.Chemscore.Internal.Correction>
   9.000000E+99

> <Gold.Chemscore.Hbonds>
donor molecule, donor type, donor heavy atom, donor atom, acceptor molecule, acceptor atom, score
      L1  H    11    24       P1  7948  0.96
      L1  H    13    26       P1  7957  0.77
      P1  H  6896  6909       L1     1  0.90
      P1  H  7997  8009       L1     5  0.89
      P1  H  8011  8017       L1    13  0.42

> <Gold.Chemscore.Hbond.Weighted>
-14.1619

> <Gold.Chemscore.Metal.Weighted>
-0.0000

> <Gold.Chemscore.Lipo.Weighted>
-4.0485

> <Gold.Chemscore.Internal_Hbond.Weighted>
0.0000

> <Gold.Chemscore.DEClash.Weighted>
0.0491

> <Gold.Chemscore.DEInternal.Weighted>
0.7859

> <Gold.Chemscore.Rot.Weighted>
9.3955

> <Gold.Chemscore.Internal.Correction.Weighted>
   9.000000E+99

> <Gold.Protein.RotatedTorsions>
[ 6907 6896 6895 6894 ] final  144.27 input  -60.11 | X-H torsion
[ 7974 7965 7964 7962 ] final  126.94 input  175.53 | X-H torsion
[ 8008 7997 7996 7995 ] final -136.43 input   59.86 | X-H torsion
[ 10167 10162 10161 10158 ] final  -72.22 input  -65.29 | X-H torsion
[ 10718 10713 10712 10709 ] final  -18.31 input   66.30 | X-H torsion
[ 10763 10752 10751 10750 ] final  147.86 input  -60.55 | X-H torsion
[ 11005 11000 10999 10996 ] final  114.06 input  -57.11 | X-H torsion

> <Gold.Protein.ActiveResidues>
 VAL166  LYS551  ARG553  GLY616  TRP617  ASP618  TYR619  PRO620  LYS621  CYS622 
 ASP623  PHE694  ASN695  SER759  ASP760  ASP761  ALA762  ILE779  LEU786  VAL792 
 PHE793  MET794  SER795  GLU796  ALA797  LYS798  CYS799  TRP800  GLU811  SER814 

> <Gold.Protein.RotatedAtoms>
  152.1958  133.4805  159.5031 H   0  0  0  0  0  0  0  0  0  0  0  0  # atno 6907 bound_to 6896
  150.6960  134.1654  159.4201 H   0  0  0  0  0  0  0  0  0  0  0  0  # atno 6908 bound_to 6896
  151.9570  135.0142  160.0596 H   0  0  0  0  0  0  0  0  0  0  0  0  # atno 6909 bound_to 6896
  145.0561  139.3843  143.5029 H   0  0  0  0  0  0  0  0  0  0  0  0  # atno 7974 bound_to 7965
  155.3950  140.0502  157.3039 H   0  0  0  0  0  0  0  0  0  0  0  0  # atno 8008 bound_to 7997
  154.5018  140.2159  155.9293 H   0  0  0  0  0  0  0  0  0  0  0  0  # atno 8009 bound_to 7997
  156.1476  140.3142  155.8601 H   0  0  0  0  0  0  0  0  0  0  0  0  # atno 8010 bound_to 7997
  140.5210  143.2332  151.7430 H   0  0  0  0  0  0  0  0  0  0  0  0  # atno 10167 bound_to 10162
  156.5614  130.4726  149.6405 H   0  0  0  0  0  0  0  0  0  0  0  0  # atno 10718 bound_to 10713
  154.0452  135.2886  155.3349 H   0  0  0  0  0  0  0  0  0  0  0  0  # atno 10763 bound_to 10752
  154.6904  135.5229  153.8387 H   0  0  0  0  0  0  0  0  0  0  0  0  # atno 10764 bound_to 10752
  153.0583  135.6604  154.0653 H   0  0  0  0  0  0  0  0  0  0  0  0  # atno 10765 bound_to 10752
  139.8970  134.9561  156.6835 H   0  0  0  0  0  0  0  0  0  0  0  0  # atno 11005 bound_to 11000
  146.3521  140.0236  142.8656 LP  0  0  0  0  0  0  0  0  0  0  0  0  # atno 17320 bound_to 7965
  145.1466  140.9600  143.4457 LP  0  0  0  0  0  0  0  0  0  0  0  0  # atno 17321 bound_to 7965
  139.4923  144.4255  151.9931 LP  0  0  0  0  0  0  0  0  0  0  0  0  # atno 17342 bound_to 10162
  140.3352  144.3269  150.5979 LP  0  0  0  0  0  0  0  0  0  0  0  0  # atno 17343 bound_to 10162
  156.2796  130.7063  151.1883 LP  0  0  0  0  0  0  0  0  0  0  0  0  # atno 17370 bound_to 10713
  157.7368  131.0559  150.5394 LP  0  0  0  0  0  0  0  0  0  0  0  0  # atno 17371 bound_to 10713
  140.7281  133.9083  155.8192 LP  0  0  0  0  0  0  0  0  0  0  0  0  # atno 17394 bound_to 11000
  141.0175  134.0935  157.4156 LP  0  0  0  0  0  0  0  0  0  0  0  0  # atno 17395 bound_to 11000

$$$$
