AV-unprocessed.smi:3057|AV-procd|sdf|11663|dock5
  -GOLD-   2272017 63D 1   1.00000     0.00000
 Structure written by MMmdl.
 40 42  0  0  0  0  0  0  0  0  1 V2000
  145.8781  131.7684  149.5593 C   0  0  0  0  0  0  0  0  0  0  0  0
  145.3616  132.1905  150.9507 C   0  0  1  0  0  0  0  0  0  0  0  0
  145.4492  131.0300  151.9544 C   0  0  0  0  0  0  0  0  0  0  0  0
  146.8348  131.1999  152.5973 C   0  0  0  0  0  0  0  0  0  0  0  0
  147.1148  132.6816  152.3907 C   0  0  0  0  0  0  0  0  0  0  0  0
  148.0022  133.2897  152.9872 O   0  0  0  0  0  0  0  0  0  0  0  0
  146.2207  133.2032  151.5361 N   0  0  0  0  0  0  0  0  0  0  0  0
  145.8479  134.6065  151.2998 C   0  0  2  0  0  0  0  0  0  0  0  0
  145.6727  135.4369  152.5860 C   0  0  0  0  0  0  0  0  0  0  0  0
  144.6747  135.2981  153.2945 O   0  0  0  0  0  0  0  0  0  0  0  0
  146.6401  136.3287  152.8487 N   0  0  0  0  0  0  0  0  0  0  0  0
  146.6651  137.2398  153.9897 C   0  0  0  0  0  0  0  0  0  0  0  0
  146.3805  138.7092  153.6114 C   0  0  0  0  0  0  0  0  0  0  0  0
  147.4980  139.6689  153.9848 C   0  0  0  0  0  0  0  0  0  0  0  0
  148.7765  139.1826  154.3342 C   0  0  0  0  0  0  0  0  0  0  0  0
  149.7748  140.1102  154.6873 C   0  0  0  0  0  0  0  0  0  0  0  0
  149.4591  141.4824  154.6745 C   0  0  0  0  0  0  0  0  0  0  0  0
  148.1542  141.8669  154.3060 C   0  0  0  0  0  0  0  0  0  0  0  0
  147.1888  140.9851  153.9669 N   0  0  0  0  0  0  0  0  0  0  0  0
  144.5540  134.5811  150.4568 C   0  0  0  0  0  0  0  0  0  0  0  0
  143.7524  132.9996  150.8360 S   0  0  0  0  0  0  0  0  0  0  0  0
  146.8765  131.3336  149.6172 H   0  0  0  0  0  0  0  0  0  0  0  0
  145.9324  132.6115  148.8708 H   0  0  0  0  0  0  0  0  0  0  0  0
  145.2215  131.0226  149.1109 H   0  0  0  0  0  0  0  0  0  0  0  0
  144.6780  131.1274  152.7204 H   0  0  0  0  0  0  0  0  0  0  0  0
  145.3236  130.0541  151.4842 H   0  0  0  0  0  0  0  0  0  0  0  0
  146.8376  130.9280  153.6530 H   0  0  0  0  0  0  0  0  0  0  0  0
  147.5926  130.6129  152.0776 H   0  0  0  0  0  0  0  0  0  0  0  0
  146.6445  135.0640  150.7109 H   0  0  0  0  0  0  0  0  0  0  0  0
  147.4181  136.3847  152.2074 H   0  0  0  0  0  0  0  0  0  0  0  0
  145.9662  136.9016  154.7561 H   0  0  0  0  0  0  0  0  0  0  0  0
  147.6602  137.1699  154.4297 H   0  0  0  0  0  0  0  0  0  0  0  0
  146.2006  138.7819  152.5383 H   0  0  0  0  0  0  0  0  0  0  0  0
  145.4563  139.0376  154.0884 H   0  0  0  0  0  0  0  0  0  0  0  0
  148.9853  138.1227  154.3419 H   0  0  0  0  0  0  0  0  0  0  0  0
  150.7631  139.7746  154.9652 H   0  0  0  0  0  0  0  0  0  0  0  0
  150.1992  142.2224  154.9402 H   0  0  0  0  0  0  0  0  0  0  0  0
  147.8784  142.9108  154.2846 H   0  0  0  0  0  0  0  0  0  0  0  0
  143.8832  135.4170  150.6564 H   0  0  0  0  0  0  0  0  0  0  0  0
  144.7947  134.6056  149.3941 H   0  0  0  0  0  0  0  0  0  0  0  0
  1  2  1  0  0  0  0
  1 22  1  0  0  0  0
  1 23  1  0  0  0  0
  1 24  1  0  0  0  0
  2  7  1  0  0  0  0
  2 21  1  0  0  0  0
  2  3  1  0  0  0  0
  3  4  1  0  0  0  0
  3 25  1  0  0  0  0
  3 26  1  0  0  0  0
  4  5  1  0  0  0  0
  4 27  1  0  0  0  0
  4 28  1  0  0  0  0
  5  6  2  0  0  0  0
  5  7  1  0  0  0  0
  7  8  1  0  0  0  0
  8  9  1  0  0  0  0
  8 20  1  0  0  0  0
  8 29  1  0  0  0  0
  9 10  2  0  0  0  0
  9 11  1  0  0  0  0
 11 12  1  0  0  0  0
 11 30  1  0  0  0  0
 12 13  1  0  0  0  0
 12 31  1  0  0  0  0
 12 32  1  0  0  0  0
 13 14  1  0  0  0  0
 13 33  1  0  0  0  0
 13 34  1  0  0  0  0
 14 19  1  0  0  0  0
 14 15  2  0  0  0  0
 15 16  1  0  0  0  0
 15 35  1  0  0  0  0
 16 17  2  0  0  0  0
 16 36  1  0  0  0  0
 17 18  1  0  0  0  0
 17 37  1  0  0  0  0
 18 19  2  0  0  0  0
 18 38  1  0  0  0  0
 20 21  1  0  0  0  0
 20 39  1  0  0  0  0
 20 40  1  0  0  0  0
M  END
> <s_m_source_file>
AV-unprocessed.smi

> <i_m_source_file_index>
3057

> <i_lp_mmshare_version>
43012

> <i_f3d_flags>
0

> <s_epik_input>
W0NIMl0xW0NIMl1DKD1PKU4oW0NAQF0xMltDSDNdKVtDQEhdKFtDSDJdUzIpQyg9TylbTkhdW0NIMl1bQ0gyXWMzW2NIXVtjSF1bY0hdW2NIXW4z

> <s_epik_cmdline>
J2VwaWtfcHl0aG9uJywgJy1waCcsICc3LjAnLCAnLXRuJywgJzgnLCAnLW1hJywgJzIwMCcsICctbWV0YWxfYmluZGluZycsICctaW1hZScsICc8aW5maWxlLm1hZT4nLCAnLW9tYWUnLCAnPG91dGZpbGUubWFlPic=

> <r_epik_Ionization_Penalty>
0.0249631

> <r_epik_Ionization_Penalty_Charging>
0

> <r_epik_Ionization_Penalty_Neutral>
0.0249631

> <r_epik_State_Penalty>
0.0202943

> <r_epik_Charging_Adjusted_Penalty>
0.0202943

> <i_epik_Tot_Q>
0

> <i_epik_Tot_abs_Q>
0

> <r_epik_Metal_State_Penalty>
0.0194661

> <b_epik_Metal_Only>
0

> <s_lp_Force_Field>
OPLS_2005

> <r_lp_Energy>
26.5663

> <b_lp_Chiralities_Consistent>
1

> <s_lp_Variant>
AV-unprocessed.smi:3057-3

> <Gold.Version>
5.8.1

> <Gold.Id.Protein>
6NUR|6NUR_protein|mol2

> <Gold.PLP.Fitness>
41.9812

> <Gold.PLP.PLP>
-37.9156

> <Gold.PLP.part.hbond>
-0.9141

> <Gold.PLP.part.metal>
0.0000

> <Gold.PLP.part.buried>
-3.1219

> <Gold.PLP.part.nonpolar>
-33.4803

> <Gold.PLP.part.repulsive>
0.4135

> <Gold.PLP.ligand.clash>
0.0000

> <Gold.PLP.ligand.torsion>
0.9435

> <Gold.PLP.Chemscore.Hbond>
1.0000

> <Gold.PLP.Chemscore.CHOScore>
0.9812

> <Gold.PLP.Chemscore.Metal>
0.0000

> <Gold.Chemscore.Hbonds>
donor molecule, donor type, donor heavy atom, donor atom, acceptor molecule, acceptor atom, score
      L1  H    11    30       P1  7948  1.00
      L1  C    18    38       P1  8028  0.95

> <Gold.PLP.Chemscore.Internal.Correction>
0.0091

> <Gold.Rescore>
     Score         DG    S(hbond)    S(metal)    S(lipo)     H(rot)  DE(clash)    DE(int)     intcor
     15.12     -16.09       0.90        0.00      98.63       1.53       0.05       0.92       ----

> <Gold.Chemscore.Fitness>
15.1201

> <Gold.Chemscore.DG>
-16.0888

> <Gold.Chemscore.ZeroCoef>
-5.4800

> <Gold.Chemscore.Hbond>
0.8968

> <Gold.Chemscore.Metal>
0.0000

> <Gold.Chemscore.Lipo>
98.6331

> <Gold.Chemscore.Internal_Hbond>
0.0000

> <Gold.Chemscore.DEClash>
0.0487

> <Gold.Chemscore.DEInternal>
0.9200

> <Gold.Chemscore.Rot>
1.5339

> <Gold.Chemscore.Internal.Correction>
   9.000000E+99

> <Gold.Chemscore.Hbonds>
donor molecule, donor type, donor heavy atom, donor atom, acceptor molecule, acceptor atom, score
      L1  H    11    30       P1  7948  0.94

> <Gold.Chemscore.Hbond.Weighted>
-2.9954

> <Gold.Chemscore.Metal.Weighted>
-0.0000

> <Gold.Chemscore.Lipo.Weighted>
-11.5401

> <Gold.Chemscore.Internal_Hbond.Weighted>
0.0000

> <Gold.Chemscore.DEClash.Weighted>
0.0487

> <Gold.Chemscore.DEInternal.Weighted>
0.9200

> <Gold.Chemscore.Rot.Weighted>
3.9267

> <Gold.Chemscore.Internal.Correction.Weighted>
   9.000000E+99

> <Gold.Protein.RotatedTorsions>
[ 6907 6896 6895 6894 ] final   99.83 input  -60.11 | X-H torsion
[ 7974 7965 7964 7962 ] final  -63.10 input  175.53 | X-H torsion
[ 8008 7997 7996 7995 ] final  -24.53 input   59.86 | X-H torsion
[ 10167 10162 10161 10158 ] final   46.68 input  -65.29 | X-H torsion
[ 10718 10713 10712 10709 ] final    9.95 input   66.30 | X-H torsion
[ 10763 10752 10751 10750 ] final  -72.26 input  -60.55 | X-H torsion
[ 11005 11000 10999 10996 ] final  -11.27 input  -57.11 | X-H torsion

> <Gold.Protein.ActiveResidues>
 VAL166  LYS551  ARG553  GLY616  TRP617  ASP618  TYR619  PRO620  LYS621  CYS622 
 ASP623  PHE694  ASN695  SER759  ASP760  ASP761  ALA762  ILE779  LEU786  VAL792 
 PHE793  MET794  SER795  GLU796  ALA797  LYS798  CYS799  TRP800  GLU811  SER814 

> <Gold.Protein.RotatedAtoms>
  152.5384  134.0368  159.8049 H   0  0  0  0  0  0  0  0  0  0  0  0  # atno 6907 bound_to 6896
  151.0531  133.5600  159.2648 H   0  0  0  0  0  0  0  0  0  0  0  0  # atno 6908 bound_to 6896
  151.2527  135.0635  159.9122 H   0  0  0  0  0  0  0  0  0  0  0  0  # atno 6909 bound_to 6896
  145.7831  140.8751  143.0320 H   0  0  0  0  0  0  0  0  0  0  0  0  # atno 7974 bound_to 7965
  154.4524  140.1951  156.0479 H   0  0  0  0  0  0  0  0  0  0  0  0  # atno 8008 bound_to 7997
  156.0676  140.3288  155.7509 H   0  0  0  0  0  0  0  0  0  0  0  0  # atno 8009 bound_to 7997
  155.5314  140.0578  157.2879 H   0  0  0  0  0  0  0  0  0  0  0  0  # atno 8010 bound_to 7997
  140.3114  144.2816  150.6199 H   0  0  0  0  0  0  0  0  0  0  0  0  # atno 10167 bound_to 10162
  156.9738  130.5979  149.5671 H   0  0  0  0  0  0  0  0  0  0  0  0  # atno 10718 bound_to 10713
  154.4432  135.5935  153.6143 H   0  0  0  0  0  0  0  0  0  0  0  0  # atno 10763 bound_to 10752
  152.9807  135.6003  154.3696 H   0  0  0  0  0  0  0  0  0  0  0  0  # atno 10764 bound_to 10752
  154.3549  135.2841  155.2331 H   0  0  0  0  0  0  0  0  0  0  0  0  # atno 10765 bound_to 10752
  140.7535  133.8573  155.9064 H   0  0  0  0  0  0  0  0  0  0  0  0  # atno 11005 bound_to 11000
  144.6793  140.0018  143.7484 LP  0  0  0  0  0  0  0  0  0  0  0  0  # atno 17320 bound_to 7965
  146.0053  139.3125  143.0903 LP  0  0  0  0  0  0  0  0  0  0  0  0  # atno 17321 bound_to 7965
  140.5565  143.2198  151.7839 LP  0  0  0  0  0  0  0  0  0  0  0  0  # atno 17342 bound_to 10162
  139.4893  144.4407  151.9768 LP  0  0  0  0  0  0  0  0  0  0  0  0  # atno 17343 bound_to 10162
  156.0272  130.5365  150.8437 LP  0  0  0  0  0  0  0  0  0  0  0  0  # atno 17370 bound_to 10713
  157.5574  131.0945  150.9609 LP  0  0  0  0  0  0  0  0  0  0  0  0  # atno 17371 bound_to 10713
  140.9729  134.1507  157.4561 LP  0  0  0  0  0  0  0  0  0  0  0  0  # atno 17394 bound_to 11000
  139.8783  134.9985  156.5902 LP  0  0  0  0  0  0  0  0  0  0  0  0  # atno 17395 bound_to 11000

$$$$
