AV-unprocessed.smi:1761|AV-procd|sdf|7097|dock6
  -GOLD-   22720 8313D 1   1.00000     0.00000
 Structure written by MMmdl.
 34 35  0  0  0  0  0  0  0  0  1 V2000
  150.6532  140.7596  156.5090 O   0  0  0  0  0  0  0  0  0  0  0  0
  150.0891  141.8127  156.2109 C   0  0  0  0  0  0  0  0  0  0  0  0
  149.0932  141.9364  155.3158 N   0  0  0  0  0  0  0  0  0  0  0  0
  148.4997  140.9237  154.5154 C   0  0  0  0  0  0  0  0  0  0  0  0
  147.4639  141.3661  153.6617 C   0  0  0  0  0  0  0  0  0  0  0  0
  146.8138  140.4402  152.8228 C   0  0  0  0  0  0  0  0  0  0  0  0
  147.2171  139.0936  152.8586 C   0  0  0  0  0  0  0  0  0  0  0  0
  148.2558  138.7361  153.7376 C   0  0  0  0  0  0  0  0  0  0  0  0
  148.8800  139.6218  154.5428 N   0  0  0  0  0  0  0  0  0  0  0  0
  150.4051  142.9988  156.7513 N   0  0  0  0  0  0  0  0  0  0  0  0
  151.4481  143.2217  157.7510 C   0  0  2  0  0  0  0  0  0  0  0  0
  151.3478  142.1730  158.8760 C   0  0  0  0  0  0  0  0  0  0  0  0
  152.4423  142.3856  159.9346 C   0  0  0  0  0  0  0  0  0  0  0  0
  152.3988  143.8111  160.5074 C   0  0  0  0  0  0  0  0  0  0  0  0
  152.4861  144.8702  159.3935 C   0  0  0  0  0  0  0  0  0  0  0  0
  151.4104  144.6661  158.3088 C   0  0  2  0  0  0  0  0  0  0  0  0
  150.1393  144.9621  158.8585 O   0  0  0  0  0  0  0  0  0  0  0  0
  148.7228  142.8657  155.1839 H   0  0  0  0  0  0  0  0  0  0  0  0
  147.1675  142.4049  153.6452 H   0  0  0  0  0  0  0  0  0  0  0  0
  146.0207  140.7590  152.1628 H   0  0  0  0  0  0  0  0  0  0  0  0
  146.7432  138.3548  152.2294 H   0  0  0  0  0  0  0  0  0  0  0  0
  148.5954  137.7126  153.7961 H   0  0  0  0  0  0  0  0  0  0  0  0
  149.8902  143.8122  156.4478 H   0  0  0  0  0  0  0  0  0  0  0  0
  152.4139  143.0752  157.2631 H   0  0  0  0  0  0  0  0  0  0  0  0
  150.3670  142.2246  159.3505 H   0  0  0  0  0  0  0  0  0  0  0  0
  151.4356  141.1690  158.4594 H   0  0  0  0  0  0  0  0  0  0  0  0
  152.3264  141.6591  160.7393 H   0  0  0  0  0  0  0  0  0  0  0  0
  153.4211  142.2009  159.4901 H   0  0  0  0  0  0  0  0  0  0  0  0
  151.4766  143.9482  161.0736 H   0  0  0  0  0  0  0  0  0  0  0  0
  153.2160  143.9510  161.2153 H   0  0  0  0  0  0  0  0  0  0  0  0
  152.4065  145.8706  159.8209 H   0  0  0  0  0  0  0  0  0  0  0  0
  153.4719  144.8160  158.9299 H   0  0  0  0  0  0  0  0  0  0  0  0
  151.5876  145.3773  157.5012 H   0  0  0  0  0  0  0  0  0  0  0  0
  149.5884  145.2989  158.1687 H   0  0  0  0  0  0  0  0  0  0  0  0
  1  2  2  0  0  0  0
  2  3  1  0  0  0  0
  2 10  1  0  0  0  0
  3  4  1  0  0  0  0
  3 18  1  0  0  0  0
  4  9  1  0  0  0  0
  4  5  2  0  0  0  0
  5  6  1  0  0  0  0
  5 19  1  0  0  0  0
  6  7  2  0  0  0  0
  6 20  1  0  0  0  0
  7  8  1  0  0  0  0
  7 21  1  0  0  0  0
  8  9  2  0  0  0  0
  8 22  1  0  0  0  0
 10 11  1  0  0  0  0
 10 23  1  0  0  0  0
 11 16  1  0  0  0  0
 11 12  1  0  0  0  0
 11 24  1  0  0  0  0
 12 13  1  0  0  0  0
 12 25  1  0  0  0  0
 12 26  1  0  0  0  0
 13 14  1  0  0  0  0
 13 27  1  0  0  0  0
 13 28  1  0  0  0  0
 14 15  1  0  0  0  0
 14 29  1  0  0  0  0
 14 30  1  0  0  0  0
 15 16  1  0  0  0  0
 15 31  1  0  0  0  0
 15 32  1  0  0  0  0
 16 17  1  0  0  0  0
 16 33  1  0  0  0  0
 17 34  1  0  0  0  0
M  END
> <s_m_source_file>
AV-unprocessed.smi

> <i_m_source_file_index>
1761

> <i_lp_mmshare_version>
43012

> <i_f3d_flags>
0

> <s_epik_input>
bjFbY0hdW2NIXVtjSF1bY0hdYzFbTkhdQyg9TylbTkhdW0NAQEhdMltDSDJdW0NIMl1bQ0gyXVtDSDJdW0NASF0yW09IXQ==

> <s_epik_cmdline>
J2VwaWtfcHl0aG9uJywgJy1waCcsICc3LjAnLCAnLXRuJywgJzgnLCAnLW1hJywgJzIwMCcsICctbWV0YWxfYmluZGluZycsICctaW1hZScsICc8aW5maWxlLm1hZT4nLCAnLW9tYWUnLCAnPG91dGZpbGUubWFlPic=

> <r_lp_tautomer_probability>
1

> <r_epik_Ionization_Penalty>
4.92589e-05

> <r_epik_Ionization_Penalty_Charging>
0

> <r_epik_Ionization_Penalty_Neutral>
4.92589e-05

> <r_epik_State_Penalty>
-0

> <r_epik_Charging_Adjusted_Penalty>
0

> <i_epik_Tot_Q>
0

> <i_epik_Tot_abs_Q>
0

> <r_epik_Metal_State_Penalty>
-0

> <b_epik_Metal_Only>
0

> <s_lp_Force_Field>
OPLS_2005

> <r_lp_Energy>
15.389

> <b_lp_Chiralities_Consistent>
1

> <s_lp_Variant>
AV-unprocessed.smi:1761-3

> <Gold.Version>
5.8.1

> <Gold.Id.Protein>
6NUR|6NUR_protein|mol2

> <Gold.PLP.Fitness>
47.2765

> <Gold.PLP.PLP>
-36.0371

> <Gold.PLP.part.hbond>
-3.0000

> <Gold.PLP.part.metal>
0.0000

> <Gold.PLP.part.buried>
-2.7583

> <Gold.PLP.part.nonpolar>
-30.4026

> <Gold.PLP.part.repulsive>
0.3447

> <Gold.PLP.ligand.clash>
0.0000

> <Gold.PLP.ligand.torsion>
0.1117

> <Gold.PLP.Chemscore.Hbond>
2.9440

> <Gold.PLP.Chemscore.CHOScore>
0.8726

> <Gold.PLP.Chemscore.Metal>
0.0000

> <Gold.Chemscore.Hbonds>
donor molecule, donor type, donor heavy atom, donor atom, acceptor molecule, acceptor atom, score
      L1  H     3    18       P1  8028  0.94
      L1  H    10    23       P1  8028  1.00
      L1  H    17    34       P1  8029  1.00
      L1  C     8    22       P1  7948  0.90

> <Gold.PLP.Chemscore.Internal.Correction>
0.0130

> <Gold.Rescore>
     Score         DG    S(hbond)    S(metal)    S(lipo)     H(rot)  DE(clash)    DE(int)     intcor
     18.57     -21.52       2.69        0.00      92.42       1.47       0.05       2.89       ----

> <Gold.Chemscore.Fitness>
18.5747

> <Gold.Chemscore.DG>
-21.5158

> <Gold.Chemscore.ZeroCoef>
-5.4800

> <Gold.Chemscore.Hbond>
2.6866

> <Gold.Chemscore.Metal>
0.0000

> <Gold.Chemscore.Lipo>
92.4234

> <Gold.Chemscore.Internal_Hbond>
0.0000

> <Gold.Chemscore.DEClash>
0.0489

> <Gold.Chemscore.DEInternal>
2.8922

> <Gold.Chemscore.Rot>
1.4653

> <Gold.Chemscore.Internal.Correction>
   9.000000E+99

> <Gold.Chemscore.Hbonds>
donor molecule, donor type, donor heavy atom, donor atom, acceptor molecule, acceptor atom, score
      L1  H     3    18       P1  8028  0.91
      L1  H    10    23       P1  8028  0.96
      L1  H    17    34       P1  8029  0.38

> <Gold.Chemscore.Hbond.Weighted>
-8.9733

> <Gold.Chemscore.Metal.Weighted>
-0.0000

> <Gold.Chemscore.Lipo.Weighted>
-10.8135

> <Gold.Chemscore.Internal_Hbond.Weighted>
0.0000

> <Gold.Chemscore.DEClash.Weighted>
0.0489

> <Gold.Chemscore.DEInternal.Weighted>
2.8922

> <Gold.Chemscore.Rot.Weighted>
3.7511

> <Gold.Chemscore.Internal.Correction.Weighted>
   9.000000E+99

> <Gold.Protein.RotatedTorsions>
[ 6907 6896 6895 6894 ] final   42.79 input  -60.11 | X-H torsion
[ 7974 7965 7964 7962 ] final  175.87 input  175.53 | X-H torsion
[ 8008 7997 7996 7995 ] final    7.82 input   59.86 | X-H torsion
[ 10167 10162 10161 10158 ] final   16.56 input  -65.29 | X-H torsion
[ 10718 10713 10712 10709 ] final -144.63 input   66.30 | X-H torsion
[ 10763 10752 10751 10750 ] final   47.47 input  -60.55 | X-H torsion
[ 11005 11000 10999 10996 ] final  141.45 input  -57.11 | X-H torsion

> <Gold.Protein.ActiveResidues>
 VAL166  LYS551  ARG553  GLY616  TRP617  ASP618  TYR619  PRO620  LYS621  CYS622 
 ASP623  PHE694  ASN695  SER759  ASP760  ASP761  ALA762  ILE779  LEU786  VAL792 
 PHE793  MET794  SER795  GLU796  ALA797  LYS798  CYS799  TRP800  GLU811  SER814 

> <Gold.Protein.RotatedAtoms>
  152.2122  134.8491  160.0495 H   0  0  0  0  0  0  0  0  0  0  0  0  # atno 6907 bound_to 6896
  151.9305  133.3605  159.3937 H   0  0  0  0  0  0  0  0  0  0  0  0  # atno 6908 bound_to 6896
  150.6979  134.4467  159.5361 H   0  0  0  0  0  0  0  0  0  0  0  0  # atno 6909 bound_to 6896
  144.7194  140.0011  143.6440 H   0  0  0  0  0  0  0  0  0  0  0  0  # atno 7974 bound_to 7965
  154.7588  140.2780  155.6231 H   0  0  0  0  0  0  0  0  0  0  0  0  # atno 8008 bound_to 7997
  156.2911  140.2664  156.2288 H   0  0  0  0  0  0  0  0  0  0  0  0  # atno 8009 bound_to 7997
  155.0044  140.0372  157.2363 H   0  0  0  0  0  0  0  0  0  0  0  0  # atno 8010 bound_to 7997
  140.5788  143.9020  150.6772 H   0  0  0  0  0  0  0  0  0  0  0  0  # atno 10167 bound_to 10162
  156.3725  130.7795  151.1978 H   0  0  0  0  0  0  0  0  0  0  0  0  # atno 10718 bound_to 10713
  152.9800  135.5975  154.3767 H   0  0  0  0  0  0  0  0  0  0  0  0  # atno 10763 bound_to 10752
  154.3436  135.2767  155.2411 H   0  0  0  0  0  0  0  0  0  0  0  0  # atno 10764 bound_to 10752
  154.4482  135.5996  153.6229 H   0  0  0  0  0  0  0  0  0  0  0  0  # atno 10765 bound_to 10752
  140.0402  134.9308  157.0829 H   0  0  0  0  0  0  0  0  0  0  0  0  # atno 11005 bound_to 11000
  146.0334  139.3356  143.0741 LP  0  0  0  0  0  0  0  0  0  0  0  0  # atno 17320 bound_to 7965
  145.8424  140.9573  143.0792 LP  0  0  0  0  0  0  0  0  0  0  0  0  # atno 17321 bound_to 7965
  140.2514  143.3590  152.1402 LP  0  0  0  0  0  0  0  0  0  0  0  0  # atno 17342 bound_to 10162
  139.5158  144.6968  151.5607 LP  0  0  0  0  0  0  0  0  0  0  0  0  # atno 17343 bound_to 10162
  157.7485  131.0368  150.4425 LP  0  0  0  0  0  0  0  0  0  0  0  0  # atno 17370 bound_to 10713
  156.4655  130.4041  149.6550 LP  0  0  0  0  0  0  0  0  0  0  0  0  # atno 17371 bound_to 10713
  140.4081  134.2010  155.7163 LP  0  0  0  0  0  0  0  0  0  0  0  0  # atno 17394 bound_to 11000
  141.1879  133.8271  157.1015 LP  0  0  0  0  0  0  0  0  0  0  0  0  # atno 17395 bound_to 11000

$$$$
