AV-unprocessed.smi:2448|AV-procd|sdf|9658|dock4
  -GOLD-   2272013293D 1   1.00000     0.00000
 Structure written by MMmdl.
 38 39  0  0  0  0  0  0  0  0  2 V2000
  146.3086  135.4600  151.8393 O   0  0  0  0  0  0  0  0  0  0  0  0
  146.0247  134.3610  152.6885 C   0  0  2  0  0  0  0  0  0  0  0  0
  146.9021  134.4916  153.9486 C   0  0  0  0  0  0  0  0  0  0  0  0
  148.3398  134.3251  153.6379 N   0  3  0  0  0  0  0  0  0  0  0  0
  149.2703  134.7667  154.7035 C   0  0  1  0  0  0  0  0  0  0  0  0
  148.7621  136.0606  155.3786 C   0  0  0  0  0  0  0  0  0  0  0  0
  149.5724  137.2918  155.0154 C   0  0  0  0  0  0  0  0  0  0  0  0
  148.9657  138.3873  154.3672 C   0  0  0  0  0  0  0  0  0  0  0  0
  149.7567  139.5169  154.0753 C   0  0  0  0  0  0  0  0  0  0  0  0
  151.0674  139.6043  154.3879 N   0  0  0  0  0  0  0  0  0  0  0  0
  151.6435  138.5491  155.0026 C   0  0  0  0  0  0  0  0  0  0  0  0
  150.9428  137.3738  155.3392 C   0  0  0  0  0  0  0  0  0  0  0  0
  149.4662  133.6307  155.7260 C   0  0  0  0  0  0  0  0  0  0  0  0
  150.4278  133.9645  156.5870 F   0  0  0  0  0  0  0  0  0  0  0  0
  148.3412  133.4280  156.4113 F   0  0  0  0  0  0  0  0  0  0  0  0
  149.8124  132.4989  155.1120 F   0  0  0  0  0  0  0  0  0  0  0  0
  146.3248  133.0717  151.9061 C   0  0  0  0  0  0  0  0  0  0  0  0
  145.2070  132.8771  150.8766 C   0  0  0  0  0  0  0  0  0  0  0  0
  143.6756  133.5054  151.6093 S   0  0  0  0  0  0  0  0  0  0  0  0
  144.5166  134.3185  152.9939 C   0  0  0  0  0  0  0  0  0  0  0  0
  147.2294  135.6642  151.9041 H   0  0  0  0  0  0  0  0  0  0  0  0
  146.7590  135.4712  154.4071 H   0  0  0  0  0  0  0  0  0  0  0  0
  146.5916  133.7533  154.6880 H   0  0  0  0  0  0  0  0  0  0  0  0
  148.5213  133.3524  153.4343 H   0  0  0  0  0  0  0  0  0  0  0  0
  150.2462  134.9671  154.2573 H   0  0  0  0  0  0  0  0  0  0  0  0
  147.7160  136.2324  155.1220 H   0  0  0  0  0  0  0  0  0  0  0  0
  148.7905  135.9492  156.4631 H   0  0  0  0  0  0  0  0  0  0  0  0
  147.9187  138.3686  154.1020 H   0  0  0  0  0  0  0  0  0  0  0  0
  149.3235  140.3746  153.5827 H   0  0  0  0  0  0  0  0  0  0  0  0
  152.6927  138.6459  155.2391 H   0  0  0  0  0  0  0  0  0  0  0  0
  151.4495  136.5601  155.8375 H   0  0  0  0  0  0  0  0  0  0  0  0
  147.3087  133.0885  151.4354 H   0  0  0  0  0  0  0  0  0  0  0  0
  146.3181  132.2230  152.5914 H   0  0  0  0  0  0  0  0  0  0  0  0
  145.4174  133.4591  149.9788 H   0  0  0  0  0  0  0  0  0  0  0  0
  145.0995  131.8343  150.5779 H   0  0  0  0  0  0  0  0  0  0  0  0
  144.3324  133.7137  153.8824 H   0  0  0  0  0  0  0  0  0  0  0  0
  144.0952  135.3070  153.1806 H   0  0  0  0  0  0  0  0  0  0  0  0
  148.5358  134.8651  152.8069 H   0  0  0  0  0  0  0  0  0  0  0  0
  1  2  1  0  0  0  0
  1 21  1  0  0  0  0
  2 20  1  0  0  0  0
  2  3  1  0  0  0  0
  2 17  1  0  0  0  0
  3  4  1  0  0  0  0
  3 22  1  0  0  0  0
  3 23  1  0  0  0  0
  4  5  1  0  0  0  0
  4 24  1  0  0  0  0
  4 38  1  0  0  0  0
  5  6  1  0  0  0  0
  5 13  1  0  0  0  0
  5 25  1  0  0  0  0
  6  7  1  0  0  0  0
  6 26  1  0  0  0  0
  6 27  1  0  0  0  0
  7 12  1  0  0  0  0
  7  8  2  0  0  0  0
  8  9  1  0  0  0  0
  8 28  1  0  0  0  0
  9 10  2  0  0  0  0
  9 29  1  0  0  0  0
 10 11  1  0  0  0  0
 11 12  2  0  0  0  0
 11 30  1  0  0  0  0
 12 31  1  0  0  0  0
 13 14  1  0  0  0  0
 13 15  1  0  0  0  0
 13 16  1  0  0  0  0
 17 18  1  0  0  0  0
 17 32  1  0  0  0  0
 17 33  1  0  0  0  0
 18 19  1  0  0  0  0
 18 34  1  0  0  0  0
 18 35  1  0  0  0  0
 19 20  1  0  0  0  0
 20 36  1  0  0  0  0
 20 37  1  0  0  0  0
M  CHG  1   4   1
M  END
> <s_m_source_file>
AV-unprocessed.smi

> <i_m_source_file_index>
2448

> <i_lp_mmshare_version>
43012

> <i_f3d_flags>
0

> <s_epik_input>
W0NIMl0xU1tDSDJdW0NIMl1bQ0BAXTEoW09IXSlbQ0gyXVtOSF1bQ0BASF0oQyhGKShGKUYpW0NIMl1jMltjSF1bY0hdbltjSF1bY0hdMg==

> <s_epik_cmdline>
J2VwaWtfcHl0aG9uJywgJy1waCcsICc3LjAnLCAnLXRuJywgJzgnLCAnLW1hJywgJzIwMCcsICctbWV0YWxfYmluZGluZycsICctaW1hZScsICc8aW5maWxlLm1hZT4nLCAnLW9tYWUnLCAnPG91dGZpbGUubWFlPic=

> <r_epik_Ionization_Penalty>
1.19945

> <r_epik_Ionization_Penalty_Charging>
1.19892

> <r_epik_Ionization_Penalty_Neutral>
0.000532129

> <r_epik_State_Penalty>
0.752927

> <r_epik_Charging_Adjusted_Penalty>
1.95185

> <i_epik_Tot_Q>
1

> <i_epik_Tot_abs_Q>
1

> <r_epik_Metal_State_Penalty>
0.804507

> <b_epik_Metal_Only>
0

> <s_lp_Force_Field>
OPLS_2005

> <r_lp_Energy>
23.5245

> <b_lp_Chiralities_Consistent>
1

> <s_lp_Variant>
AV-unprocessed.smi:2448-8

> <Gold.Version>
5.8.1

> <Gold.Id.Protein>
6NUR|6NUR_protein|mol2

> <Gold.PLP.Fitness>
42.5617

> <Gold.PLP.PLP>
-30.4599

> <Gold.PLP.part.hbond>
-3.0000

> <Gold.PLP.part.metal>
0.0000

> <Gold.PLP.part.buried>
-1.3435

> <Gold.PLP.part.nonpolar>
-25.1005

> <Gold.PLP.part.repulsive>
0.1201

> <Gold.PLP.ligand.clash>
0.0000

> <Gold.PLP.ligand.torsion>
1.0978

> <Gold.PLP.Chemscore.Hbond>
4.0000

> <Gold.PLP.Chemscore.CHOScore>
0.5306

> <Gold.PLP.Chemscore.Metal>
0.0000

> <Gold.Chemscore.Hbonds>
donor molecule, donor type, donor heavy atom, donor atom, acceptor molecule, acceptor atom, score
      L1  H     1    21       P1  7948  1.00
      L1  H     4    38       P1  7948  2.00
      P1  H  7989  7998       L1    10  1.00
      L1  C     9    29       P1  7957  0.55

> <Gold.PLP.Chemscore.Internal.Correction>
0.7055

> <Gold.Rescore>
     Score         DG    S(hbond)    S(metal)    S(lipo)     H(rot)  DE(clash)    DE(int)     intcor
     14.72     -15.96       2.80        0.00      61.88       2.39       0.02       1.22       ----

> <Gold.Chemscore.Fitness>
14.7155

> <Gold.Chemscore.DG>
-15.9556

> <Gold.Chemscore.ZeroCoef>
-5.4800

> <Gold.Chemscore.Hbond>
2.7979

> <Gold.Chemscore.Metal>
0.0000

> <Gold.Chemscore.Lipo>
61.8824

> <Gold.Chemscore.Internal_Hbond>
0.0000

> <Gold.Chemscore.DEClash>
0.0234

> <Gold.Chemscore.DEInternal>
1.2167

> <Gold.Chemscore.Rot>
2.3866

> <Gold.Chemscore.Internal.Correction>
   9.000000E+99

> <Gold.Chemscore.Hbonds>
donor molecule, donor type, donor heavy atom, donor atom, acceptor molecule, acceptor atom, score
      L1  H     1    21       P1  7948  1.00
      L1  H     4    38       P1  7948  0.39
      P1  H  7989  7998       L1    10  0.50

> <Gold.Chemscore.Hbond.Weighted>
-9.3450

> <Gold.Chemscore.Metal.Weighted>
-0.0000

> <Gold.Chemscore.Lipo.Weighted>
-7.2402

> <Gold.Chemscore.Internal_Hbond.Weighted>
0.0000

> <Gold.Chemscore.DEClash.Weighted>
0.0234

> <Gold.Chemscore.DEInternal.Weighted>
1.2167

> <Gold.Chemscore.Rot.Weighted>
6.1096

> <Gold.Chemscore.Internal.Correction.Weighted>
   9.000000E+99

> <Gold.Protein.RotatedTorsions>
[ 6907 6896 6895 6894 ] final  109.47 input  -60.11 | X-H torsion
[ 7974 7965 7964 7962 ] final  136.66 input  175.53 | X-H torsion
[ 8008 7997 7996 7995 ] final   67.88 input   59.86 | X-H torsion
[ 10167 10162 10161 10158 ] final -149.79 input  -65.29 | X-H torsion
[ 10718 10713 10712 10709 ] final -162.80 input   66.30 | X-H torsion
[ 10763 10752 10751 10750 ] final   58.60 input  -60.55 | X-H torsion
[ 11005 11000 10999 10996 ] final -126.17 input  -57.11 | X-H torsion

> <Gold.Protein.ActiveResidues>
 VAL166  LYS551  ARG553  GLY616  TRP617  ASP618  TYR619  PRO620  LYS621  CYS622 
 ASP623  PHE694  ASN695  SER759  ASP760  ASP761  ALA762  ILE779  LEU786  VAL792 
 PHE793  MET794  SER795  GLU796  ALA797  LYS798  CYS799  TRP800  GLU811  SER814 

> <Gold.Protein.RotatedAtoms>
  152.5065  133.8939  159.7407 H   0  0  0  0  0  0  0  0  0  0  0  0  # atno 6907 bound_to 6896
  150.9371  133.6690  159.2805 H   0  0  0  0  0  0  0  0  0  0  0  0  # atno 6908 bound_to 6896
  151.4014  135.0976  159.9610 H   0  0  0  0  0  0  0  0  0  0  0  0  # atno 6909 bound_to 6896
  144.9544  139.4782  143.5510 H   0  0  0  0  0  0  0  0  0  0  0  0  # atno 7974 bound_to 7965
  155.6997  140.3495  155.4928 H   0  0  0  0  0  0  0  0  0  0  0  0  # atno 8008 bound_to 7997
  155.9451  140.1109  157.1045 H   0  0  0  0  0  0  0  0  0  0  0  0  # atno 8009 bound_to 7997
  154.4110  140.1205  156.4965 H   0  0  0  0  0  0  0  0  0  0  0  0  # atno 8010 bound_to 7997
  139.7411  143.8661  152.2562 H   0  0  0  0  0  0  0  0  0  0  0  0  # atno 10167 bound_to 10162
  156.6155  130.8868  151.2946 H   0  0  0  0  0  0  0  0  0  0  0  0  # atno 10718 bound_to 10713
  152.9874  135.5601  154.5579 H   0  0  0  0  0  0  0  0  0  0  0  0  # atno 10763 bound_to 10752
  154.5003  135.2797  155.1428 H   0  0  0  0  0  0  0  0  0  0  0  0  # atno 10764 bound_to 10752
  154.2861  135.6335  153.5419 H   0  0  0  0  0  0  0  0  0  0  0  0  # atno 10765 bound_to 10752
  140.9703  134.0815  157.3876 H   0  0  0  0  0  0  0  0  0  0  0  0  # atno 11005 bound_to 11000
  146.3332  139.8651  142.8849 LP  0  0  0  0  0  0  0  0  0  0  0  0  # atno 17320 bound_to 7965
  145.2795  141.0134  143.3725 LP  0  0  0  0  0  0  0  0  0  0  0  0  # atno 17321 bound_to 7965
  139.8612  144.7116  150.9098 LP  0  0  0  0  0  0  0  0  0  0  0  0  # atno 17342 bound_to 10162
  140.7786  143.3816  151.1466 LP  0  0  0  0  0  0  0  0  0  0  0  0  # atno 17343 bound_to 10162
  157.7242  130.9600  150.1565 LP  0  0  0  0  0  0  0  0  0  0  0  0  # atno 17370 bound_to 10713
  156.2354  130.3686  149.8397 LP  0  0  0  0  0  0  0  0  0  0  0  0  # atno 17371 bound_to 10713
  139.8910  135.0115  156.6765 LP  0  0  0  0  0  0  0  0  0  0  0  0  # atno 17394 bound_to 11000
  140.7339  133.9036  155.8230 LP  0  0  0  0  0  0  0  0  0  0  0  0  # atno 17395 bound_to 11000

$$$$
