#       Name:                AV-unprocessed.smi:1539
#       Creating user name   scv26
#       Creation time:       Fri Mar 27 06:36:30 2020


#       File generated by GOLD software.
#

@<TRIPOS>MOLECULE
AV-unprocessed.smi:1539
    46    47     1
SMALL
NO_CHARGES


@<TRIPOS>ATOM
      1 ****        -2.2778   1.1877   2.7904 C.3            1 S1                 0.0000
      2 ****        -2.7316  -0.0487   2.0106 C.2            1 S1                 0.0000
      3 ****        -2.5904  -1.1522   2.5384 O.2            1 S1                 0.0000
      4 ****        -3.2581   0.1054   0.7706 N.am           1 S1                 0.0000
      5 ****        -3.6498  -1.0519  -0.0479 C.3            1 S1                 0.0000
      6 ****        -2.4541  -1.6023  -0.8544 C.3            1 S1                 0.0000
      7 ****        -1.8092  -0.5582  -1.7931 C.3            1 S1                 0.0000
      8 ****        -1.2664   0.5887  -1.0396 N.am           1 S1                 0.0000
      9 ****        -0.0378   0.6284  -0.4602 C.2            1 S1                 0.0000
     10 ****         0.3900   1.6077   0.1528 O.2            1 S1                 0.0000
     11 ****         0.6783  -0.5027  -0.5839 N.am           1 S1                 0.0000
     12 ****         2.0090  -0.7185  -0.0293 C.3            1 S1                 0.0000
     13 ****         3.0980  -0.1329  -0.9422 C.3            1 S1                 0.0000
     14 ****         4.4194  -0.3194  -0.3790 N.pl3          1 S1                 0.0000
     15 ****         5.1438   0.5937   0.3754 C.2            1 S1                 0.0000
     16 ****         6.3365  -0.0166   0.6917 C.2            1 S1                 0.0000
     17 ****         6.3664  -1.2984   0.1469 N.2            1 S1                 0.0000
     18 ****         5.1977  -1.4062  -0.4723 C.2            1 S1                 0.0000
     19 ****        -2.2222   1.7029  -0.8997 C.3            1 S1                 0.0000
     20 ****        -3.3903   1.3995   0.0778 C.3            1 S1                 0.0000
     21 ****        -1.5838   1.7887   2.2028 H              1 S1                 0.0000
     22 ****        -1.7670   0.8957   3.7086 H              1 S1                 0.0000
     23 ****        -3.1340   1.8037   3.0657 H              1 S1                 0.0000
     24 ****        -4.0696  -1.8422   0.5769 H              1 S1                 0.0000
     25 ****        -4.4528  -0.7794  -0.7334 H              1 S1                 0.0000
     26 ****        -1.7039  -2.0007  -0.1704 H              1 S1                 0.0000
     27 ****        -2.7929  -2.4508  -1.4492 H              1 S1                 0.0000
     28 ****        -1.0364  -1.0266  -2.4042 H              1 S1                 0.0000
     29 ****        -2.5565  -0.2154  -2.5098 H              1 S1                 0.0000
     30 ****         0.2630  -1.2719  -1.0893 H              1 S1                 0.0000
     31 ****         2.0732  -0.2870   0.9713 H              1 S1                 0.0000
     32 ****         2.1573  -1.7925   0.0871 H              1 S1                 0.0000
     33 ****         3.0687  -0.6055  -1.9250 H              1 S1                 0.0000
     34 ****         2.9386   0.9350  -1.0982 H              1 S1                 0.0000
     35 ****         4.7608   1.5742   0.6178 H              1 S1                 0.0000
     36 ****         7.1683   0.3647   1.2657 H              1 S1                 0.0000
     37 ****         4.9000  -2.2979  -1.0046 H              1 S1                 0.0000
     38 ****        -1.7255   2.6189  -0.5768 H              1 S1                 0.0000
     39 ****        -2.6250   1.9533  -1.8821 H              1 S1                 0.0000
     40 ****        -4.3254   1.4044  -0.4837 H              1 S1                 0.0000
     41 ****        -3.5101   2.2264   0.7774 H              1 S1                 0.0000
     42 ****        -2.1888  -1.2220   3.4516 LP             1 S1                 0.0000
     43 ****        -2.8773  -1.9786   2.0539 LP             1 S1                 0.0000
     44 ****        -0.1756   2.4274   0.2430 LP             1 S1                 0.0000
     45 ****         1.3030   1.5829   0.5602 LP             1 S1                 0.0000
     46 ****         7.0974  -1.9781   0.2081 LP             1 S1                 0.0000
@<TRIPOS>BOND
    1    1    2 1     
    2    1   21 1     
    3    1   22 1     
    4    1   23 1     
    5    2    3 2     
    6    2    4 am    
    7    4   20 1     
    8    4    5 1     
    9    5    6 1     
   10    5   24 1     
   11    5   25 1     
   12    6    7 1     
   13    6   26 1     
   14    6   27 1     
   15    7    8 1     
   16    7   28 1     
   17    7   29 1     
   18    8    9 am    
   19    8   19 1     
   20    9   10 2     
   21    9   11 am    
   22   11   12 1     
   23   11   30 1     
   24   12   13 1     
   25   12   31 1     
   26   12   32 1     
   27   13   14 1     
   28   13   33 1     
   29   13   34 1     
   30   14   18 1     
   31   14   15 1     
   32   15   16 2     
   33   15   35 1     
   34   16   17 1     
   35   16   36 1     
   36   17   18 2     
   37   18   37 1     
   38   19   20 1     
   39   19   38 1     
   40   19   39 1     
   41   20   40 1     
   42   20   41 1     
   43    3   42 1     
   44    3   43 1     
   45   10   44 1     
   46   10   45 1     
   47   17   46 1     
@<TRIPOS>SUBSTRUCTURE
      1 S1             1
@<TRIPOS>SET
LONE_PAIRS      STATIC     ATOMS    <user>   **** ""
5 42 43 44 45 46
DONOR_HYDROGENS      STATIC     ATOMS    <user>   **** ""
1 30
ATOM$BLUE        STATIC     ATOMS    COLORGROUP SYSTEM
5 42 43 44 45 46
ATOM$RED        STATIC     ATOMS    COLORGROUP SYSTEM
1 30
