AV-unprocessed.smi:514|AV-procd|sdf|2776|dock3
  -GOLD-   2262023243D 1   1.00000     0.00000
 Structure written by MMmdl.
 46 48  0  0  0  0  0  0  0  0  2 V2000
  148.4910  131.1557  154.1126 C   0  0  0  0  0  0  0  0  0  0  0  0
  149.3601  132.3976  154.3206 C   0  0  0  0  0  0  0  0  0  0  0  0
  148.5211  133.4752  154.6960 O   0  0  0  0  0  0  0  0  0  0  0  0
  149.2030  134.7130  154.7906 C   0  0  0  0  0  0  0  0  0  0  0  0
  148.2649  135.8122  155.3318 C   0  0  0  0  0  0  0  0  0  0  0  0
  148.8914  137.1333  155.3718 N   0  0  0  0  0  0  0  0  0  0  0  0
  148.4808  138.3151  154.8174 C   0  0  0  0  0  0  0  0  0  0  0  0
  147.3231  138.4704  154.0353 N   0  0  0  0  0  0  0  0  0  0  0  0
  147.1175  139.6167  153.1450 C   0  0  0  0  0  0  0  0  0  0  0  0
  146.8019  139.1702  151.7055 C   0  0  0  0  0  0  0  0  0  0  0  0
  145.6178  138.2885  151.6816 N   0  3  0  0  0  0  0  0  0  0  0  0
  145.7304  137.1672  152.6355 C   0  0  0  0  0  0  0  0  0  0  0  0
  146.0830  137.6908  154.0402 C   0  0  0  0  0  0  0  0  0  0  0  0
  149.3166  139.3353  155.0385 N   0  0  0  0  0  0  0  0  0  0  0  0
  150.3407  138.7703  155.7759 C   0  0  0  0  0  0  0  0  0  0  0  0
  150.1210  137.4463  155.9652 C   0  0  0  0  0  0  0  0  0  0  0  0
  151.0894  136.5906  156.6721 C   0  0  0  0  0  0  0  0  0  0  0  0
  150.9574  135.3763  156.8056 O   0  0  0  0  0  0  0  0  0  0  0  0
  152.1533  137.2754  157.1568 N   0  0  0  0  0  0  0  0  0  0  0  0
  152.4145  138.6108  157.0226 C   0  0  0  0  0  0  0  0  0  0  0  0
  153.4216  139.0939  157.5394 O   0  0  0  0  0  0  0  0  0  0  0  0
  151.5227  139.3631  156.3019 N   0  0  0  0  0  0  0  0  0  0  0  0
  151.7433  140.7964  156.0983 C   0  0  0  0  0  0  0  0  0  0  0  0
  152.8349  136.7368  157.6710 H   0  0  0  0  0  0  0  0  0  0  0  0
  149.0979  130.2989  153.8196 H   0  0  0  0  0  0  0  0  0  0  0  0
  147.7494  131.3248  153.3316 H   0  0  0  0  0  0  0  0  0  0  0  0
  147.9594  130.8929  155.0273 H   0  0  0  0  0  0  0  0  0  0  0  0
  150.1021  132.2092  155.0975 H   0  0  0  0  0  0  0  0  0  0  0  0
  149.8945  132.6367  153.4003 H   0  0  0  0  0  0  0  0  0  0  0  0
  150.0641  134.6117  155.4526 H   0  0  0  0  0  0  0  0  0  0  0  0
  149.5843  134.9718  153.8038 H   0  0  0  0  0  0  0  0  0  0  0  0
  147.3702  135.8691  154.7135 H   0  0  0  0  0  0  0  0  0  0  0  0
  147.8907  135.5532  156.3192 H   0  0  0  0  0  0  0  0  0  0  0  0
  146.3078  140.2347  153.5359 H   0  0  0  0  0  0  0  0  0  0  0  0
  148.0031  140.2522  153.1283 H   0  0  0  0  0  0  0  0  0  0  0  0
  146.6182  140.0352  151.0680 H   0  0  0  0  0  0  0  0  0  0  0  0
  147.6539  138.6356  151.2833 H   0  0  0  0  0  0  0  0  0  0  0  0
  144.8111  138.8396  151.9375 H   0  0  0  0  0  0  0  0  0  0  0  0
  144.7881  136.6197  152.6572 H   0  0  0  0  0  0  0  0  0  0  0  0
  146.4954  136.4748  152.2825 H   0  0  0  0  0  0  0  0  0  0  0  0
  146.1269  136.8687  154.7434 H   0  0  0  0  0  0  0  0  0  0  0  0
  145.2760  138.3289  154.4033 H   0  0  0  0  0  0  0  0  0  0  0  0
  151.3305  141.3596  156.9356 H   0  0  0  0  0  0  0  0  0  0  0  0
  151.2635  141.1503  155.1856 H   0  0  0  0  0  0  0  0  0  0  0  0
  152.8021  141.0434  156.0099 H   0  0  0  0  0  0  0  0  0  0  0  0
  145.4850  137.9263  150.7482 H   0  0  0  0  0  0  0  0  0  0  0  0
  1  2  1  0  0  0  0
  1 25  1  0  0  0  0
  1 26  1  0  0  0  0
  1 27  1  0  0  0  0
  2  3  1  0  0  0  0
  2 28  1  0  0  0  0
  2 29  1  0  0  0  0
  3  4  1  0  0  0  0
  4  5  1  0  0  0  0
  4 30  1  0  0  0  0
  4 31  1  0  0  0  0
  5  6  1  0  0  0  0
  5 32  1  0  0  0  0
  5 33  1  0  0  0  0
  6 16  1  0  0  0  0
  6  7  1  0  0  0  0
  7  8  1  0  0  0  0
  7 14  2  0  0  0  0
  8 13  1  0  0  0  0
  8  9  1  0  0  0  0
  9 10  1  0  0  0  0
  9 34  1  0  0  0  0
  9 35  1  0  0  0  0
 10 11  1  0  0  0  0
 10 36  1  0  0  0  0
 10 37  1  0  0  0  0
 11 12  1  0  0  0  0
 11 38  1  0  0  0  0
 11 46  1  0  0  0  0
 12 13  1  0  0  0  0
 12 39  1  0  0  0  0
 12 40  1  0  0  0  0
 13 41  1  0  0  0  0
 13 42  1  0  0  0  0
 14 15  1  0  0  0  0
 15 22  1  0  0  0  0
 15 16  2  0  0  0  0
 16 17  1  0  0  0  0
 17 18  2  0  0  0  0
 17 19  1  0  0  0  0
 19 24  1  0  0  0  0
 19 20  1  0  0  0  0
 20 21  2  0  0  0  0
 20 22  1  0  0  0  0
 22 23  1  0  0  0  0
 23 43  1  0  0  0  0
 23 44  1  0  0  0  0
 23 45  1  0  0  0  0
M  CHG  1  11   1
M  END
> <s_m_source_file>
AV-unprocessed.smi

> <i_m_source_file_index>
514

> <i_lp_mmshare_version>
43012

> <i_f3d_flags>
0

> <s_epik_input>
W0NIM11uMWMoPU8pW25IXWMoPU8pYyhjMTIpbihbQ0gyXVtDSDJdT1tDSDJdW0NIM10pYyhuMilOM1tDSDJdW0NIMl1bTkhdW0NIMl1bQ0gyXTM=

> <s_epik_cmdline>
J2VwaWtfcHl0aG9uJywgJy1waCcsICc3LjAnLCAnLXRuJywgJzgnLCAnLW1hJywgJzIwMCcsICctbWV0YWxfYmluZGluZycsICctaW1hZScsICc8aW5maWxlLm1hZT4nLCAnLW9tYWUnLCAnPG91dGZpbGUubWFlPic=

> <r_epik_Ionization_Penalty>
0.00860326

> <r_epik_Ionization_Penalty_Charging>
0.00860166

> <r_epik_Ionization_Penalty_Neutral>
1.60107e-06

> <r_epik_State_Penalty>
0.00646614

> <r_epik_Charging_Adjusted_Penalty>
0.0150678

> <i_epik_Tot_Q>
1

> <i_epik_Tot_abs_Q>
1

> <r_epik_Metal_State_Penalty>
0.0342529

> <b_epik_Metal_Only>
0

> <s_lp_Force_Field>
OPLS_2005

> <r_lp_Energy>
46.1071

> <b_lp_Chiralities_Consistent>
1

> <s_lp_Variant>
AV-unprocessed.smi:514-1

> <Gold.Version>
5.8.1

> <Gold.Id.Protein>
6NUR|6NUR_protein|mol2

> <Gold.PLP.Fitness>
37.0049

> <Gold.PLP.PLP>
-27.4975

> <Gold.PLP.part.hbond>
-3.0000

> <Gold.PLP.part.metal>
0.0000

> <Gold.PLP.part.buried>
-2.7648

> <Gold.PLP.part.nonpolar>
-21.5398

> <Gold.PLP.part.repulsive>
0.3420

> <Gold.PLP.ligand.clash>
0.0000

> <Gold.PLP.ligand.torsion>
0.2635

> <Gold.PLP.Chemscore.Hbond>
3.3360

> <Gold.PLP.Chemscore.CHOScore>
0.0000

> <Gold.PLP.Chemscore.Metal>
0.0000

> <Gold.Chemscore.Hbonds>
donor molecule, donor type, donor heavy atom, donor atom, acceptor molecule, acceptor atom, score
      L1  H    11    38       P1 10175  1.98
      L1  H    11    46       P1 10171  0.30
      P1  H  7997  8009       L1    21  1.00

> <Gold.PLP.Chemscore.Internal.Correction>
0.0265

> <Gold.Rescore>
     Score         DG    S(hbond)    S(metal)    S(lipo)     H(rot)  DE(clash)    DE(int)     intcor
     13.99     -16.10       2.72        0.00      51.41       1.75       0.46       1.65       ----

> <Gold.Chemscore.Fitness>
13.9939

> <Gold.Chemscore.DG>
-16.1047

> <Gold.Chemscore.ZeroCoef>
-5.4800

> <Gold.Chemscore.Hbond>
2.7186

> <Gold.Chemscore.Metal>
0.0000

> <Gold.Chemscore.Lipo>
51.4069

> <Gold.Chemscore.Internal_Hbond>
0.0000

> <Gold.Chemscore.DEClash>
0.4562

> <Gold.Chemscore.DEInternal>
1.6546

> <Gold.Chemscore.Rot>
1.7461

> <Gold.Chemscore.Internal.Correction>
   9.000000E+99

> <Gold.Chemscore.Hbonds>
donor molecule, donor type, donor heavy atom, donor atom, acceptor molecule, acceptor atom, score
      L1  H    11    38       P1 10175  0.92
      L1  H    11    46       P1 10171  0.29
      P1  H  7997  8009       L1    21  0.97

> <Gold.Chemscore.Hbond.Weighted>
-9.0802

> <Gold.Chemscore.Metal.Weighted>
-0.0000

> <Gold.Chemscore.Lipo.Weighted>
-6.0146

> <Gold.Chemscore.Internal_Hbond.Weighted>
0.0000

> <Gold.Chemscore.DEClash.Weighted>
0.4562

> <Gold.Chemscore.DEInternal.Weighted>
1.6546

> <Gold.Chemscore.Rot.Weighted>
4.4701

> <Gold.Chemscore.Internal.Correction.Weighted>
   9.000000E+99

> <Gold.Protein.RotatedTorsions>
[ 6907 6896 6895 6894 ] final  137.22 input  -60.11 | X-H torsion
[ 7974 7965 7964 7962 ] final  153.15 input  175.53 | X-H torsion
[ 8008 7997 7996 7995 ] final  163.32 input   59.86 | X-H torsion
[ 10167 10162 10161 10158 ] final -161.17 input  -65.29 | X-H torsion
[ 10718 10713 10712 10709 ] final  -31.12 input   66.30 | X-H torsion
[ 10763 10752 10751 10750 ] final  124.57 input  -60.55 | X-H torsion
[ 11005 11000 10999 10996 ] final   57.29 input  -57.11 | X-H torsion

> <Gold.Protein.ActiveResidues>
 VAL166  LYS551  ARG553  GLY616  TRP617  ASP618  TYR619  PRO620  LYS621  CYS622 
 ASP623  PHE694  ASN695  SER759  ASP760  ASP761  ALA762  ILE779  LEU786  VAL792 
 PHE793  MET794  SER795  GLU796  ALA797  LYS798  CYS799  TRP800  GLU811  SER814 

> <Gold.Protein.RotatedAtoms>
  152.2805  133.5466  159.5494 H   0  0  0  0  0  0  0  0  0  0  0  0  # atno 6907 bound_to 6896
  150.7194  134.0570  159.3827 H   0  0  0  0  0  0  0  0  0  0  0  0  # atno 6908 bound_to 6896
  151.8481  135.0567  160.0506 H   0  0  0  0  0  0  0  0  0  0  0  0  # atno 6909 bound_to 6896
  144.8174  139.6762  143.6115 H   0  0  0  0  0  0  0  0  0  0  0  0  # atno 7974 bound_to 7965
  156.1966  140.1727  156.7985 H   0  0  0  0  0  0  0  0  0  0  0  0  # atno 8008 bound_to 7997
  154.5537  140.0712  156.8741 H   0  0  0  0  0  0  0  0  0  0  0  0  # atno 8009 bound_to 7997
  155.2979  140.3359  155.4251 H   0  0  0  0  0  0  0  0  0  0  0  0  # atno 8010 bound_to 7997
  139.6484  144.0128  152.2144 H   0  0  0  0  0  0  0  0  0  0  0  0  # atno 10167 bound_to 10162
  156.3913  130.4373  149.7392 H   0  0  0  0  0  0  0  0  0  0  0  0  # atno 10718 bound_to 10713
  153.6635  135.3342  155.3134 H   0  0  0  0  0  0  0  0  0  0  0  0  # atno 10763 bound_to 10752
  154.8509  135.4369  154.1779 H   0  0  0  0  0  0  0  0  0  0  0  0  # atno 10764 bound_to 10752
  153.2752  135.7004  153.7516 H   0  0  0  0  0  0  0  0  0  0  0  0  # atno 10765 bound_to 10752
  140.0463  134.5800  155.9318 H   0  0  0  0  0  0  0  0  0  0  0  0  # atno 11005 bound_to 11000
  146.2478  139.6134  142.9448 LP  0  0  0  0  0  0  0  0  0  0  0  0  # atno 17320 bound_to 7965
  145.5183  141.0433  143.2449 LP  0  0  0  0  0  0  0  0  0  0  0  0  # atno 17321 bound_to 7965
  139.9836  144.6411  150.7878 LP  0  0  0  0  0  0  0  0  0  0  0  0  # atno 17342 bound_to 10162
  140.7526  143.2993  151.3122 LP  0  0  0  0  0  0  0  0  0  0  0  0  # atno 17343 bound_to 10162
  156.4445  130.7877  151.2898 LP  0  0  0  0  0  0  0  0  0  0  0  0  # atno 17370 bound_to 10713
  157.7499  131.0114  150.3346 LP  0  0  0  0  0  0  0  0  0  0  0  0  # atno 17371 bound_to 10713
  141.1909  133.6570  156.5431 LP  0  0  0  0  0  0  0  0  0  0  0  0  # atno 17394 bound_to 11000
  140.3988  134.7375  157.4767 LP  0  0  0  0  0  0  0  0  0  0  0  0  # atno 17395 bound_to 11000

$$$$
