AV-unprocessed.smi:487|AV-procd|sdf|2699|dock5
  -GOLD-   2262023133D 1   1.00000     0.00000
 Structure written by MMmdl.
 41 42  0  0  0  0  0  0  0  0  1 V2000
  152.3624  140.3294  154.9010 O   0  0  0  0  0  0  0  0  0  0  0  0
  151.3294  140.0009  155.4832 C   0  0  0  0  0  0  0  0  0  0  0  0
  150.3949  138.9715  154.8243 C   0  0  0  0  0  0  0  0  0  0  0  0
  150.5528  137.5935  155.3185 N   0  0  0  0  0  0  0  0  0  0  0  0
  150.8819  136.5710  154.4399 C   0  0  0  0  0  0  0  0  0  0  0  0
  151.0277  135.2794  154.8198 C   0  0  0  0  0  0  0  0  0  0  0  0
  150.8391  134.8940  156.2141 C   0  0  0  0  0  0  0  0  0  0  0  0
  150.9480  133.7521  156.6553 O   0  0  0  0  0  0  0  0  0  0  0  0
  150.5080  135.9505  157.0669 N   0  0  0  0  0  0  0  0  0  0  0  0
  150.3549  137.2831  156.6820 C   0  0  0  0  0  0  0  0  0  0  0  0
  150.0507  138.1361  157.5148 O   0  0  0  0  0  0  0  0  0  0  0  0
  150.9723  140.5078  156.6763 N   0  0  0  0  0  0  0  0  0  0  0  0
  151.7315  141.4808  157.4594 C   0  0  0  0  0  0  0  0  0  0  0  0
  152.1739  140.7660  158.7622 C   0  0  0  0  0  0  0  0  0  0  0  0
  153.4237  141.3382  159.4537 C   0  0  0  0  0  0  0  0  0  0  0  0
  153.1808  142.3668  160.5767 C   0  0  0  0  0  0  0  0  0  0  0  0
  152.3333  143.6015  160.2233 C   0  0  0  0  0  0  0  0  0  0  0  0
  152.6631  144.2318  158.8582 C   0  0  0  0  0  0  0  0  0  0  0  0
  151.5557  144.0875  157.8000 C   0  0  0  0  0  0  0  0  0  0  0  0
  150.8398  142.7249  157.6877 C   0  0  0  0  0  0  0  0  0  0  0  0
  150.3661  135.7311  158.0421 H   0  0  0  0  0  0  0  0  0  0  0  0
  149.3674  139.3031  154.9814 H   0  0  0  0  0  0  0  0  0  0  0  0
  150.5404  139.0092  153.7431 H   0  0  0  0  0  0  0  0  0  0  0  0
  151.0262  136.8102  153.3958 H   0  0  0  0  0  0  0  0  0  0  0  0
  151.2837  134.5271  154.0875 H   0  0  0  0  0  0  0  0  0  0  0  0
  150.1066  140.1812  157.0806 H   0  0  0  0  0  0  0  0  0  0  0  0
  152.6168  141.7614  156.8860 H   0  0  0  0  0  0  0  0  0  0  0  0
  151.3458  140.6842  159.4673 H   0  0  0  0  0  0  0  0  0  0  0  0
  152.4248  139.7355  158.5036 H   0  0  0  0  0  0  0  0  0  0  0  0
  153.9564  140.5039  159.9118 H   0  0  0  0  0  0  0  0  0  0  0  0
  154.1205  141.7230  158.7094 H   0  0  0  0  0  0  0  0  0  0  0  0
  152.7232  141.8659  161.4305 H   0  0  0  0  0  0  0  0  0  0  0  0
  154.1552  142.7080  160.9279 H   0  0  0  0  0  0  0  0  0  0  0  0
  151.2742  143.3599  160.2982 H   0  0  0  0  0  0  0  0  0  0  0  0
  152.4945  144.3489  161.0011 H   0  0  0  0  0  0  0  0  0  0  0  0
  152.8460  145.2973  159.0017 H   0  0  0  0  0  0  0  0  0  0  0  0
  153.6044  143.8506  158.4655 H   0  0  0  0  0  0  0  0  0  0  0  0
  150.7935  144.8413  158.0010 H   0  0  0  0  0  0  0  0  0  0  0  0
  151.9727  144.3506  156.8273 H   0  0  0  0  0  0  0  0  0  0  0  0
  150.1511  142.8288  156.8477 H   0  0  0  0  0  0  0  0  0  0  0  0
  150.1872  142.5587  158.5445 H   0  0  0  0  0  0  0  0  0  0  0  0
  1  2  2  0  0  0  0
  2  3  1  0  0  0  0
  2 12  1  0  0  0  0
  3  4  1  0  0  0  0
  3 22  1  0  0  0  0
  3 23  1  0  0  0  0
  4 10  1  0  0  0  0
  4  5  1  0  0  0  0
  5  6  2  0  0  0  0
  5 24  1  0  0  0  0
  6  7  1  0  0  0  0
  6 25  1  0  0  0  0
  7  8  2  0  0  0  0
  7  9  1  0  0  0  0
  9 21  1  0  0  0  0
  9 10  1  0  0  0  0
 10 11  2  0  0  0  0
 12 13  1  0  0  0  0
 12 26  1  0  0  0  0
 13 20  1  0  0  0  0
 13 14  1  0  0  0  0
 13 27  1  0  0  0  0
 14 15  1  0  0  0  0
 14 28  1  0  0  0  0
 14 29  1  0  0  0  0
 15 16  1  0  0  0  0
 15 30  1  0  0  0  0
 15 31  1  0  0  0  0
 16 17  1  0  0  0  0
 16 32  1  0  0  0  0
 16 33  1  0  0  0  0
 17 18  1  0  0  0  0
 17 34  1  0  0  0  0
 17 35  1  0  0  0  0
 18 19  1  0  0  0  0
 18 36  1  0  0  0  0
 18 37  1  0  0  0  0
 19 20  1  0  0  0  0
 19 38  1  0  0  0  0
 19 39  1  0  0  0  0
 20 40  1  0  0  0  0
 20 41  1  0  0  0  0
M  END
> <s_m_source_file>
AV-unprocessed.smi

> <i_m_source_file_index>
487

> <i_lp_mmshare_version>
43012

> <i_f3d_flags>
0

> <s_epik_input>
Tz1jMVtuSF1jKD1PKVtjSF1bY0hdbjFbQ0gyXUMoPU8pW05IXVtDSF0yW0NIMl1bQ0gyXVtDSDJdW0NIMl1bQ0gyXVtDSDJdW0NIMl0y

> <s_epik_cmdline>
J2VwaWtfcHl0aG9uJywgJy1waCcsICc3LjAnLCAnLXRuJywgJzgnLCAnLW1hJywgJzIwMCcsICctbWV0YWxfYmluZGluZycsICctaW1hZScsICc8aW5maWxlLm1hZT4nLCAnLW9tYWUnLCAnPG91dGZpbGUubWFlPic=

> <r_lp_tautomer_probability>
0.999537

> <r_epik_Ionization_Penalty>
0.00321433

> <r_epik_Ionization_Penalty_Charging>
0.00321431

> <r_epik_Ionization_Penalty_Neutral>
2.02148e-08

> <r_epik_State_Penalty>
0.00226744

> <r_epik_Charging_Adjusted_Penalty>
0.00548175

> <i_epik_Tot_Q>
0

> <i_epik_Tot_abs_Q>
0

> <r_epik_Metal_State_Penalty>
0.364272

> <b_epik_Metal_Only>
0

> <s_lp_Force_Field>
OPLS_2005

> <r_lp_Energy>
21.4809

> <b_lp_Chiralities_Consistent>
1

> <s_lp_Variant>
AV-unprocessed.smi:487-1

> <Gold.Version>
5.8.1

> <Gold.Id.Protein>
6NUR|6NUR_protein|mol2

> <Gold.PLP.Fitness>
48.6347

> <Gold.PLP.PLP>
-39.7431

> <Gold.PLP.part.hbond>
-3.0000

> <Gold.PLP.part.metal>
0.0000

> <Gold.PLP.part.buried>
-4.4892

> <Gold.PLP.part.nonpolar>
-32.7058

> <Gold.PLP.part.repulsive>
0.1688

> <Gold.PLP.ligand.clash>
0.0000

> <Gold.PLP.ligand.torsion>
0.3257

> <Gold.PLP.Chemscore.Hbond>
2.1591

> <Gold.PLP.Chemscore.CHOScore>
1.0192

> <Gold.PLP.Chemscore.Metal>
0.0000

> <Gold.Chemscore.Hbonds>
donor molecule, donor type, donor heavy atom, donor atom, acceptor molecule, acceptor atom, score
      P1  H  7989  7998       L1     1  0.50
      P1  H  7997  8008       L1     1  0.31
      L1  C     5    24       P1  7949  1.00

> <Gold.PLP.Chemscore.Internal.Correction>
0.0084

> <Gold.Rescore>
     Score         DG    S(hbond)    S(metal)    S(lipo)     H(rot)  DE(clash)    DE(int)     intcor
     18.66     -19.62       1.94        0.00     102.18       1.68       0.53       0.43       ----

> <Gold.Chemscore.Fitness>
18.6561

> <Gold.Chemscore.DG>
-19.6158

> <Gold.Chemscore.ZeroCoef>
-5.4800

> <Gold.Chemscore.Hbond>
1.9378

> <Gold.Chemscore.Metal>
0.0000

> <Gold.Chemscore.Lipo>
102.1784

> <Gold.Chemscore.Internal_Hbond>
0.0000

> <Gold.Chemscore.DEClash>
0.5250

> <Gold.Chemscore.DEInternal>
0.4347

> <Gold.Chemscore.Rot>
1.6763

> <Gold.Chemscore.Internal.Correction>
   9.000000E+99

> <Gold.Chemscore.Hbonds>
donor molecule, donor type, donor heavy atom, donor atom, acceptor molecule, acceptor atom, score
      P1  H  7989  7998       L1     1  0.11
      P1  H  7997  8008       L1     1  0.30

> <Gold.Chemscore.Hbond.Weighted>
-6.4723

> <Gold.Chemscore.Metal.Weighted>
-0.0000

> <Gold.Chemscore.Lipo.Weighted>
-11.9549

> <Gold.Chemscore.Internal_Hbond.Weighted>
0.0000

> <Gold.Chemscore.DEClash.Weighted>
0.5250

> <Gold.Chemscore.DEInternal.Weighted>
0.4347

> <Gold.Chemscore.Rot.Weighted>
4.2914

> <Gold.Chemscore.Internal.Correction.Weighted>
   9.000000E+99

> <Gold.Protein.RotatedTorsions>
[ 6907 6896 6895 6894 ] final -119.35 input  -60.11 | X-H torsion
[ 7974 7965 7964 7962 ] final   87.89 input  175.53 | X-H torsion
[ 8008 7997 7996 7995 ] final  -18.33 input   59.86 | X-H torsion
[ 10167 10162 10161 10158 ] final   36.37 input  -65.29 | X-H torsion
[ 10718 10713 10712 10709 ] final -139.88 input   66.30 | X-H torsion
[ 10763 10752 10751 10750 ] final   54.27 input  -60.55 | X-H torsion
[ 11005 11000 10999 10996 ] final  163.79 input  -57.11 | X-H torsion

> <Gold.Protein.ActiveResidues>
 VAL166  LYS551  ARG553  GLY616  TRP617  ASP618  TYR619  PRO620  LYS621  CYS622 
 ASP623  PHE694  ASN695  SER759  ASP760  ASP761  ALA762  ILE779  LEU786  VAL792 
 PHE793  MET794  SER795  GLU796  ALA797  LYS798  CYS799  TRP800  GLU811  SER814 

> <Gold.Protein.RotatedAtoms>
  150.8298  133.8110  159.3103 H   0  0  0  0  0  0  0  0  0  0  0  0  # atno 6907 bound_to 6896
  151.5844  135.1055  160.0034 H   0  0  0  0  0  0  0  0  0  0  0  0  # atno 6908 bound_to 6896
  152.4379  133.7352  159.6666 H   0  0  0  0  0  0  0  0  0  0  0  0  # atno 6909 bound_to 6896
  145.5530  139.2297  143.2502 H   0  0  0  0  0  0  0  0  0  0  0  0  # atno 7974 bound_to 7965
  154.4914  140.2118  155.9541 H   0  0  0  0  0  0  0  0  0  0  0  0  # atno 8008 bound_to 7997
  156.1310  140.3197  155.8317 H   0  0  0  0  0  0  0  0  0  0  0  0  # atno 8009 bound_to 7997
  155.4296  140.0502  157.3010 H   0  0  0  0  0  0  0  0  0  0  0  0  # atno 8010 bound_to 7997
  140.4134  144.1561  150.6141 H   0  0  0  0  0  0  0  0  0  0  0  0  # atno 10167 bound_to 10162
  156.3159  130.7507  151.1594 H   0  0  0  0  0  0  0  0  0  0  0  0  # atno 10718 bound_to 10713
  152.9803  135.5750  154.4877 H   0  0  0  0  0  0  0  0  0  0  0  0  # atno 10763 bound_to 10752
  154.4416  135.2776  155.1846 H   0  0  0  0  0  0  0  0  0  0  0  0  # atno 10764 bound_to 10752
  154.3511  135.6209  153.5697 H   0  0  0  0  0  0  0  0  0  0  0  0  # atno 10765 bound_to 10752
  140.2394  134.8062  157.3396 H   0  0  0  0  0  0  0  0  0  0  0  0  # atno 11005 bound_to 11000
  146.1904  140.6353  142.9148 LP  0  0  0  0  0  0  0  0  0  0  0  0  # atno 17320 bound_to 7965
  144.7520  140.5214  143.6795 LP  0  0  0  0  0  0  0  0  0  0  0  0  # atno 17321 bound_to 7965
  140.4613  143.2448  151.9216 LP  0  0  0  0  0  0  0  0  0  0  0  0  # atno 17342 bound_to 10162
  139.4782  144.5464  151.8451 LP  0  0  0  0  0  0  0  0  0  0  0  0  # atno 17343 bound_to 10162
  157.7401  131.0521  150.5186 LP  0  0  0  0  0  0  0  0  0  0  0  0  # atno 17370 bound_to 10713
  156.5332  130.4190  149.6191 LP  0  0  0  0  0  0  0  0  0  0  0  0  # atno 17371 bound_to 10713
  140.1669  134.4658  155.7857 LP  0  0  0  0  0  0  0  0  0  0  0  0  # atno 17394 bound_to 11000
  141.2212  133.6925  156.7640 LP  0  0  0  0  0  0  0  0  0  0  0  0  # atno 17395 bound_to 11000

$$$$
