#       Name:                AV-unprocessed.smi:3156
#       Creating user name   scv26
#       Creation time:       Fri Mar 27 17:45:15 2020


#       File generated by GOLD software.
#

@<TRIPOS>MOLECULE
AV-unprocessed.smi:3156
    44    45     1
SMALL
NO_CHARGES


@<TRIPOS>ATOM
      1 ****        -1.9178  -0.0803  -1.4215 C.3            1 S1                 0.0000
      2 ****        -1.4264  -0.1894   0.0378 C.3            1 S1                 0.0000
      3 ****         0.0539  -0.1629   0.0797 N.4            1 S1                 1.0000
      4 ****         0.6692   1.1735  -0.0644 C.3            1 S1                 0.0000
      5 ****         2.2006   1.0810  -0.0105 C.3            1 S1                 0.0000
      6 ****         2.8583   2.4746   0.0204 C.3            1 S1                 0.0000
      7 ****         4.3856   2.3522  -0.0305 C.3            1 S1                 0.0000
      8 ****         4.7949   1.4926  -1.2307 C.3            1 S1                 0.0000
      9 ****         4.0425   0.1531  -1.2084 C.3            1 S1                 0.0000
     10 ****         2.6376   0.3867  -1.1776 O.3            1 S1                 0.0000
     11 ****        -1.9469  -1.4634   0.7570 C.3            1 S1                 0.0000
     12 ****        -1.5914  -1.4817   2.2567 C.3            1 S1                 0.0000
     13 ****        -3.3822  -1.6512   0.5827 N.pl3          1 S1                 0.0000
     14 ****        -4.0377  -2.6954  -0.0370 C.2            1 S1                 0.0000
     15 ****        -5.3768  -2.4394   0.0377 C.2            1 S1                 0.0000
     16 ****        -5.4463  -1.2014   0.7350 C.2            1 S1                 0.0000
     17 ****        -4.2525  -0.7322   1.0599 N.2            1 S1                 0.0000
     18 ****        -3.0049  -0.0290  -1.4811 H              1 S1                 0.0000
     19 ****        -1.5948  -0.9383  -2.0120 H              1 S1                 0.0000
     20 ****        -1.5412   0.8172  -1.9109 H              1 S1                 0.0000
     21 ****        -1.7969   0.6783   0.5864 H              1 S1                 0.0000
     22 ****         0.3408  -0.5274   0.9768 H              1 S1                 0.0000
     23 ****         0.3602   1.6396  -0.9999 H              1 S1                 0.0000
     24 ****         0.3101   1.8096   0.7456 H              1 S1                 0.0000
     25 ****         2.4954   0.5216   0.8796 H              1 S1                 0.0000
     26 ****         2.5125   3.0644  -0.8298 H              1 S1                 0.0000
     27 ****         2.5586   3.0158   0.9185 H              1 S1                 0.0000
     28 ****         4.8454   3.3388  -0.0938 H              1 S1                 0.0000
     29 ****         4.7494   1.8945   0.8904 H              1 S1                 0.0000
     30 ****         4.5668   2.0224  -2.1566 H              1 S1                 0.0000
     31 ****         5.8720   1.3225  -1.2247 H              1 S1                 0.0000
     32 ****         4.2835  -0.4265  -2.0997 H              1 S1                 0.0000
     33 ****         4.3411  -0.4479  -0.3484 H              1 S1                 0.0000
     34 ****        -1.4651  -2.3276   0.2961 H              1 S1                 0.0000
     35 ****        -0.5129  -1.4760   2.4142 H              1 S1                 0.0000
     36 ****        -1.9828  -2.3776   2.7398 H              1 S1                 0.0000
     37 ****        -2.0060  -0.6177   2.7773 H              1 S1                 0.0000
     38 ****        -3.5033  -3.5242  -0.4778 H              1 S1                 0.0000
     39 ****        -6.1842  -3.0450  -0.3463 H              1 S1                 0.0000
     40 ****        -6.3225  -0.6333   1.0117 H              1 S1                 0.0000
     41 ****         0.4124  -0.7726  -0.6416 H              1 S1                 0.0000
     42 ****         2.3895   0.9295  -1.9800 LP             1 S1                 0.0000
     43 ****         2.1693  -0.4960  -1.2145 LP             1 S1                 0.0000
     44 ****        -4.0407   0.1138   1.5494 LP             1 S1                 0.0000
@<TRIPOS>BOND
    1    1    2 1     
    2    1   18 1     
    3    1   19 1     
    4    1   20 1     
    5    2    3 1     
    6    2   11 1     
    7    2   21 1     
    8    3    4 1     
    9    3   22 1     
   10    3   41 1     
   11    4    5 1     
   12    4   23 1     
   13    4   24 1     
   14    5   10 1     
   15    5    6 1     
   16    5   25 1     
   17    6    7 1     
   18    6   26 1     
   19    6   27 1     
   20    7    8 1     
   21    7   28 1     
   22    7   29 1     
   23    8    9 1     
   24    8   30 1     
   25    8   31 1     
   26    9   10 1     
   27    9   32 1     
   28    9   33 1     
   29   11   12 1     
   30   11   13 1     
   31   11   34 1     
   32   12   35 1     
   33   12   36 1     
   34   12   37 1     
   35   13   17 1     
   36   13   14 1     
   37   14   15 2     
   38   14   38 1     
   39   15   16 1     
   40   15   39 1     
   41   16   17 2     
   42   16   40 1     
   43   10   42 1     
   44   10   43 1     
   45   17   44 1     
@<TRIPOS>SUBSTRUCTURE
      1 S1             1
@<TRIPOS>SET
LONE_PAIRS      STATIC     ATOMS    <user>   **** ""
3 42 43 44
DONOR_HYDROGENS      STATIC     ATOMS    <user>   **** ""
2 22 41
ATOM$BLUE        STATIC     ATOMS    COLORGROUP SYSTEM
3 42 43 44
ATOM$RED        STATIC     ATOMS    COLORGROUP SYSTEM
2 22 41
