AV-unprocessed.smi:37|AV-procd|sdf|328|dock10
  -GOLD-   2262016153D 1   1.00000     0.00000
 Structure written by MMmdl.
 43 44  0  0  0  0  0  0  0  0  2 V2000
  149.9268  130.9470  154.4830 C   0  0  0  0  0  0  0  0  0  0  0  0
  150.7326  131.8722  155.4056 C   0  0  0  0  0  0  0  0  0  0  0  0
  149.8699  132.4758  156.5115 C   0  0  0  0  0  0  0  0  0  0  0  0
  150.1075  132.2649  157.7010 O   0  0  0  0  0  0  0  0  0  0  0  0
  148.8687  133.2255  156.0298 O   0  0  0  0  0  0  0  0  0  0  0  0
  147.9427  133.8302  156.9173 C   0  0  0  0  0  0  0  0  0  0  0  0
  148.6962  134.6214  157.9945 C   0  0  1  0  0  0  0  0  0  0  0  0
  149.8109  135.2782  157.4018 O   0  0  0  0  0  0  0  0  0  0  0  0
  149.9871  136.5014  158.0368 C   0  0  1  0  0  0  0  0  0  0  0  0
  150.7487  137.4451  157.1359 N   0  0  0  0  0  0  0  0  0  0  0  0
  150.4980  138.8078  157.1442 C   0  0  0  0  0  0  0  0  0  0  0  0
  151.1875  139.6485  156.3466 C   0  0  0  0  0  0  0  0  0  0  0  0
  150.9272  140.9668  156.3804 F   0  0  0  0  0  0  0  0  0  0  0  0
  152.2160  139.1180  155.4536 C   0  0  0  0  0  0  0  0  0  0  0  0
  152.8388  139.8896  154.7259 O   0  0  0  0  0  0  0  0  0  0  0  0
  152.4421  137.7721  155.4683 N   0  5  0  0  0  0  0  0  0  0  0  0
  151.7496  136.9175  156.2771 C   0  0  0  0  0  0  0  0  0  0  0  0
  151.9488  135.7028  156.3049 O   0  0  0  0  0  0  0  0  0  0  0  0
  148.5803  137.0069  158.3747 C   0  0  1  0  0  0  0  0  0  0  0  0
  147.6797  137.8641  156.8118 Br  0  0  0  0  0  0  0  0  0  0  0  0
  147.8585  135.7052  158.7022 C   0  0  2  0  0  0  0  0  0  0  0  0
  147.8888  135.4658  160.1047 O   0  0  0  0  0  0  0  0  0  0  0  0
  147.4364  136.3973  160.9646 C   0  0  0  0  0  0  0  0  0  0  0  0
  146.8974  137.4612  160.6597 O   0  0  0  0  0  0  0  0  0  0  0  0
  147.6759  136.0171  162.4240 C   0  0  0  0  0  0  0  0  0  0  0  0
  147.3140  134.5535  162.7119 C   0  0  0  0  0  0  0  0  0  0  0  0
  150.5609  130.5468  153.6918 H   0  0  0  0  0  0  0  0  0  0  0  0
  149.1030  131.4807  154.0080 H   0  0  0  0  0  0  0  0  0  0  0  0
  149.5088  130.0998  155.0273 H   0  0  0  0  0  0  0  0  0  0  0  0
  151.5538  131.3198  155.8628 H   0  0  0  0  0  0  0  0  0  0  0  0
  151.1786  132.6793  154.8241 H   0  0  0  0  0  0  0  0  0  0  0  0
  147.2794  134.4915  156.3587 H   0  0  0  0  0  0  0  0  0  0  0  0
  147.3234  133.0656  157.3885 H   0  0  0  0  0  0  0  0  0  0  0  0
  149.0879  133.9171  158.7304 H   0  0  0  0  0  0  0  0  0  0  0  0
  150.6121  136.3457  158.9186 H   0  0  0  0  0  0  0  0  0  0  0  0
  149.7486  139.2204  157.8028 H   0  0  0  0  0  0  0  0  0  0  0  0
  148.6040  137.7301  159.1907 H   0  0  0  0  0  0  0  0  0  0  0  0
  146.8290  135.7143  158.3408 H   0  0  0  0  0  0  0  0  0  0  0  0
  148.7227  136.1988  162.6676 H   0  0  0  0  0  0  0  0  0  0  0  0
  147.0843  136.6756  163.0605 H   0  0  0  0  0  0  0  0  0  0  0  0
  147.4498  134.3261  163.7694 H   0  0  0  0  0  0  0  0  0  0  0  0
  147.9428  133.8665  162.1444 H   0  0  0  0  0  0  0  0  0  0  0  0
  146.2736  134.3451  162.4602 H   0  0  0  0  0  0  0  0  0  0  0  0
  1  2  1  0  0  0  0
  1 27  1  0  0  0  0
  1 28  1  0  0  0  0
  1 29  1  0  0  0  0
  2  3  1  0  0  0  0
  2 30  1  0  0  0  0
  2 31  1  0  0  0  0
  3  4  2  0  0  0  0
  3  5  1  0  0  0  0
  5  6  1  0  0  0  0
  6  7  1  0  0  0  0
  6 32  1  0  0  0  0
  6 33  1  0  0  0  0
  7 21  1  0  0  0  0
  7  8  1  0  0  0  0
  7 34  1  0  0  0  0
  8  9  1  0  0  0  0
  9 10  1  0  0  0  0
  9 19  1  0  0  0  0
  9 35  1  0  0  0  0
 10 17  1  0  0  0  0
 10 11  1  0  0  0  0
 11 12  2  0  0  0  0
 11 36  1  0  0  0  0
 12 13  1  0  0  0  0
 12 14  1  0  0  0  0
 14 15  2  0  0  0  0
 14 16  1  0  0  0  0
 16 17  1  0  0  0  0
 17 18  2  0  0  0  0
 19 20  1  0  0  0  0
 19 21  1  0  0  0  0
 19 37  1  0  0  0  0
 21 22  1  0  0  0  0
 21 38  1  0  0  0  0
 22 23  1  0  0  0  0
 23 24  2  0  0  0  0
 23 25  1  0  0  0  0
 25 26  1  0  0  0  0
 25 39  1  0  0  0  0
 25 40  1  0  0  0  0
 26 41  1  0  0  0  0
 26 42  1  0  0  0  0
 26 43  1  0  0  0  0
M  CHG  1  16  -1
M  END
> <s_m_source_file>
AV-unprocessed.smi

> <i_m_source_file_index>
37

> <i_lp_mmshare_version>
43012

> <i_f3d_flags>
0

> <s_epik_input>
W0NIM11bQ0gyXUMoPU8pT1tDSDJdW0NAQEhdMU9bQ0BASF0objJbY0hdYyhGKWMoPU8pW25IXWMyPU8pW0NAQEhdKEJyKVtDQEhdMU9DKD1PKVtDSDJdW0NIM10=

> <s_epik_cmdline>
J2VwaWtfcHl0aG9uJywgJy1waCcsICc3LjAnLCAnLXRuJywgJzgnLCAnLW1hJywgJzIwMCcsICctbWV0YWxfYmluZGluZycsICctaW1hZScsICc8aW5maWxlLm1hZT4nLCAnLW9tYWUnLCAnPG91dGZpbGUubWFlPic=

> <r_epik_Ionization_Penalty>
1.08158

> <r_epik_Ionization_Penalty_Charging>
9.05154e-09

> <r_epik_Ionization_Penalty_Neutral>
1.08158

> <r_epik_State_Penalty>
1.13706

> <r_epik_Charging_Adjusted_Penalty>
1.13706

> <i_epik_Tot_Q>
-1

> <i_epik_Tot_abs_Q>
1

> <r_epik_Metal_State_Penalty>
0.00343535

> <b_epik_Metal_Only>
0

> <s_epik_Chemistry_Notes>
This compound has an ester and may undergo hydrolysis at high or low pH. This compound contains an acetal/aminal-like group ( X-CH(R)-Y where X, Y are N, S, or O) that may be acid/base labile, releasing an aldehyde.

> <s_lp_Force_Field>
OPLS_2005

> <r_lp_Energy>
31.9934

> <b_lp_Chiralities_Consistent>
1

> <s_lp_Variant>
AV-unprocessed.smi:37-26

> <Gold.Version>
5.8.1

> <Gold.Id.Protein>
6NUR|6NUR_protein|mol2

> <Gold.PLP.Fitness>
43.7769

> <Gold.PLP.PLP>
-35.5315

> <Gold.PLP.part.hbond>
-6.5356

> <Gold.PLP.part.metal>
0.0000

> <Gold.PLP.part.buried>
-2.5679

> <Gold.PLP.part.nonpolar>
-25.5151

> <Gold.PLP.part.repulsive>
0.0594

> <Gold.PLP.ligand.clash>
2.6778

> <Gold.PLP.ligand.torsion>
1.2166

> <Gold.PLP.Chemscore.Hbond>
4.4000

> <Gold.PLP.Chemscore.CHOScore>
0.0000

> <Gold.PLP.Chemscore.Metal>
0.0000

> <Gold.Chemscore.Hbonds>
donor molecule, donor type, donor heavy atom, donor atom, acceptor molecule, acceptor atom, score
      P1  H  6896  6908       L1     4  0.46
      P1  H  6934  6947       L1    24  1.00
      P1  H  7989  7998       L1    15  0.40
      P1  H  7997  8008       L1    15  1.00
      P1  H 10752 10765       L1    18  1.00

> <Gold.PLP.Chemscore.Internal.Correction>
0.1564

> <Gold.Rescore>
     Score         DG    S(hbond)    S(metal)    S(lipo)     H(rot)  DE(clash)    DE(int)     intcor
      8.03     -14.89       3.63        0.00      48.22       3.27       0.02       6.85       ----

> <Gold.Chemscore.Fitness>
8.0293

> <Gold.Chemscore.DG>
-14.8929

> <Gold.Chemscore.ZeroCoef>
-5.4800

> <Gold.Chemscore.Hbond>
3.6332

> <Gold.Chemscore.Metal>
0.0000

> <Gold.Chemscore.Lipo>
48.2168

> <Gold.Chemscore.Internal_Hbond>
0.0000

> <Gold.Chemscore.DEClash>
0.0179

> <Gold.Chemscore.DEInternal>
6.8457

> <Gold.Chemscore.Rot>
3.2669

> <Gold.Chemscore.Internal.Correction>
   9.000000E+99

> <Gold.Chemscore.Hbonds>
donor molecule, donor type, donor heavy atom, donor atom, acceptor molecule, acceptor atom, score
      P1  H  6896  6908       L1     4  0.44
      P1  H  6934  6947       L1    24  0.99
      P1  H  7989  7998       L1    15  0.34
      P1  H  7997  8008       L1    15  0.42
      P1  H 10752 10765       L1    18  0.54

> <Gold.Chemscore.Hbond.Weighted>
-12.1348

> <Gold.Chemscore.Metal.Weighted>
-0.0000

> <Gold.Chemscore.Lipo.Weighted>
-5.6414

> <Gold.Chemscore.Internal_Hbond.Weighted>
0.0000

> <Gold.Chemscore.DEClash.Weighted>
0.0179

> <Gold.Chemscore.DEInternal.Weighted>
6.8457

> <Gold.Chemscore.Rot.Weighted>
8.3634

> <Gold.Chemscore.Internal.Correction.Weighted>
   9.000000E+99

> <Gold.Protein.RotatedTorsions>
[ 6907 6896 6895 6894 ] final   76.00 input  -60.11 | X-H torsion
[ 7974 7965 7964 7962 ] final -137.64 input  175.53 | X-H torsion
[ 8008 7997 7996 7995 ] final   -4.20 input   59.86 | X-H torsion
[ 10167 10162 10161 10158 ] final -104.91 input  -65.29 | X-H torsion
[ 10718 10713 10712 10709 ] final  118.74 input   66.30 | X-H torsion
[ 10763 10752 10751 10750 ] final -131.09 input  -60.55 | X-H torsion
[ 11005 11000 10999 10996 ] final   -5.55 input  -57.11 | X-H torsion

> <Gold.Protein.ActiveResidues>
 VAL166  LYS551  ARG553  GLY616  TRP617  ASP618  TYR619  PRO620  LYS621  CYS622 
 ASP623  PHE694  ASN695  SER759  ASP760  ASP761  ALA762  ILE779  LEU786  VAL792 
 PHE793  MET794  SER795  GLU796  ALA797  LYS798  CYS799  TRP800  GLU811  SER814 

> <Gold.Protein.RotatedAtoms>
  152.5052  134.4035  159.9424 H   0  0  0  0  0  0  0  0  0  0  0  0  # atno 6907 bound_to 6896
  151.4000  133.3754  159.2739 H   0  0  0  0  0  0  0  0  0  0  0  0  # atno 6908 bound_to 6896
  150.9368  134.8801  159.7646 H   0  0  0  0  0  0  0  0  0  0  0  0  # atno 6909 bound_to 6896
  144.8825  140.6527  143.5197 H   0  0  0  0  0  0  0  0  0  0  0  0  # atno 7974 bound_to 7965
  154.6168  140.2490  155.7599 H   0  0  0  0  0  0  0  0  0  0  0  0  # atno 8008 bound_to 7997
  156.2404  140.2935  156.0376 H   0  0  0  0  0  0  0  0  0  0  0  0  # atno 8009 bound_to 7997
  155.1961  140.0393  157.2899 H   0  0  0  0  0  0  0  0  0  0  0  0  # atno 8010 bound_to 7997
  140.2043  143.3795  152.1104 H   0  0  0  0  0  0  0  0  0  0  0  0  # atno 10167 bound_to 10162
  157.6010  131.1051  150.7798 H   0  0  0  0  0  0  0  0  0  0  0  0  # atno 10718 bound_to 10713
  154.8752  135.3841  154.4190 H   0  0  0  0  0  0  0  0  0  0  0  0  # atno 10763 bound_to 10752
  153.4896  135.7030  153.5897 H   0  0  0  0  0  0  0  0  0  0  0  0  # atno 10764 bound_to 10752
  153.4276  135.3886  155.2118 H   0  0  0  0  0  0  0  0  0  0  0  0  # atno 10765 bound_to 10752
  140.6924  133.9060  155.8627 H   0  0  0  0  0  0  0  0  0  0  0  0  # atno 11005 bound_to 11000
  145.3929  139.1613  143.4219 LP  0  0  0  0  0  0  0  0  0  0  0  0  # atno 17320 bound_to 7965
  146.3003  140.4019  142.8706 LP  0  0  0  0  0  0  0  0  0  0  0  0  # atno 17321 bound_to 7965
  139.5205  144.7033  151.5428 LP  0  0  0  0  0  0  0  0  0  0  0  0  # atno 17342 bound_to 10162
  140.6369  143.8967  150.6655 LP  0  0  0  0  0  0  0  0  0  0  0  0  # atno 17343 bound_to 10162
  156.8197  130.4980  149.5345 LP  0  0  0  0  0  0  0  0  0  0  0  0  # atno 17370 bound_to 10713
  156.1083  130.6021  151.0006 LP  0  0  0  0  0  0  0  0  0  0  0  0  # atno 17371 bound_to 10713
  141.0231  134.0862  157.4099 LP  0  0  0  0  0  0  0  0  0  0  0  0  # atno 17394 bound_to 11000
  139.8920  135.0122  156.6820 LP  0  0  0  0  0  0  0  0  0  0  0  0  # atno 17395 bound_to 11000

$$$$
