#       Name:                AV-unprocessed.smi:2780
#       Creating user name   scv26
#       Creation time:       Fri Mar 27 15:15:19 2020


#       File generated by GOLD software.
#

@<TRIPOS>MOLECULE
AV-unprocessed.smi:2780
    49    51     1
SMALL
NO_CHARGES


@<TRIPOS>ATOM
      1 ****        -1.0495   1.6460  -2.6863 C.3            1 S1                 0.0000
      2 ****        -2.0688   1.9802  -1.6095 C.2            1 S1                 0.0000
      3 ****        -3.2567   2.5113  -1.9568 C.2            1 S1                 0.0000
      4 ****        -4.3159   2.9488  -0.9717 C.3            1 S1                 0.0000
      5 ****        -3.7122   3.1887   0.4138 C.3            1 S1                 0.0000
      6 ****        -2.8388   2.0046   0.8602 C.3            1 S1                 0.0000
      7 ****        -2.3304   2.2570   2.2932 C.3            1 S1                 0.0000
      8 ****        -1.6789   1.7113  -0.1413 C.3            1 S1                 0.0000
      9 ****        -1.1322   0.2760   0.0812 C.3            1 S1                 0.0000
     10 ****         0.2403   0.0971  -0.4357 N.4            1 S1                 1.0000
     11 ****         0.7557  -1.2798  -0.3157 C.3            1 S1                 0.0000
     12 ****         2.1817  -1.3819  -0.8733 C.3            1 S1                 0.0000
     13 ****         2.6981  -2.7350  -0.7774 N.pl3          1 S1                 0.0000
     14 ****         2.4421  -3.7820  -1.5770 C.2            1 S1                 0.0000
     15 ****         3.0758  -4.9078  -1.2529 N.2            1 S1                 0.0000
     16 ****         3.8258  -4.5765  -0.1421 N.2            1 S1                 0.0000
     17 ****         3.5578  -3.2886   0.1030 C.2            1 S1                 0.0000
     18 ****         4.1931  -2.5070   1.2086 C.3            1 S1                 0.0000
     19 ****         4.3639  -3.0980   2.5909 C.3            1 S1                 0.0000
     20 ****         3.3731  -1.9854   2.3681 C.3            1 S1                 0.0000
     21 ****        -0.0813   2.0859  -2.4465 H              1 S1                 0.0000
     22 ****        -1.3569   2.0362  -3.6573 H              1 S1                 0.0000
     23 ****        -0.9345   0.5675  -2.7930 H              1 S1                 0.0000
     24 ****        -3.4966   2.6614  -2.9997 H              1 S1                 0.0000
     25 ****        -4.7843   3.8649  -1.3329 H              1 S1                 0.0000
     26 ****        -5.0932   2.1851  -0.9311 H              1 S1                 0.0000
     27 ****        -3.1111   4.0991   0.3956 H              1 S1                 0.0000
     28 ****        -4.5148   3.3644   1.1313 H              1 S1                 0.0000
     29 ****        -3.4889   1.1286   0.8895 H              1 S1                 0.0000
     30 ****        -1.6628   3.1184   2.3293 H              1 S1                 0.0000
     31 ****        -1.7914   1.4038   2.7019 H              1 S1                 0.0000
     32 ****        -3.1605   2.4589   2.9708 H              1 S1                 0.0000
     33 ****        -0.8785   2.4195   0.0790 H              1 S1                 0.0000
     34 ****        -1.1060   0.0243   1.1402 H              1 S1                 0.0000
     35 ****        -1.7997  -0.4483  -0.3881 H              1 S1                 0.0000
     36 ****         0.2464   0.3557  -1.4122 H              1 S1                 0.0000
     37 ****         0.7372  -1.5801   0.7322 H              1 S1                 0.0000
     38 ****         0.0928  -1.9568  -0.8565 H              1 S1                 0.0000
     39 ****         2.1999  -1.0845  -1.9227 H              1 S1                 0.0000
     40 ****         2.8521  -0.7041  -0.3440 H              1 S1                 0.0000
     41 ****         1.7750  -3.7184  -2.4244 H              1 S1                 0.0000
     42 ****         4.9926  -1.8772   0.8234 H              1 S1                 0.0000
     43 ****         3.9648  -4.0943   2.7721 H              1 S1                 0.0000
     44 ****         5.2782  -2.8575   3.1293 H              1 S1                 0.0000
     45 ****         3.6246  -1.0014   2.7580 H              1 S1                 0.0000
     46 ****         2.3185  -2.2492   2.4104 H              1 S1                 0.0000
     47 ****         0.8567   0.7198   0.0667 H              1 S1                 0.0000
     48 ****         3.0206  -5.7947  -1.7116 LP             1 S1                 0.0000
     49 ****         4.4409  -5.1743   0.3720 LP             1 S1                 0.0000
@<TRIPOS>BOND
    1    1    2 1     
    2    1   21 1     
    3    1   22 1     
    4    1   23 1     
    5    2    8 1     
    6    2    3 2     
    7    3    4 1     
    8    3   24 1     
    9    4    5 1     
   10    4   25 1     
   11    4   26 1     
   12    5    6 1     
   13    5   27 1     
   14    5   28 1     
   15    6    7 1     
   16    6    8 1     
   17    6   29 1     
   18    7   30 1     
   19    7   31 1     
   20    7   32 1     
   21    8    9 1     
   22    8   33 1     
   23    9   10 1     
   24    9   34 1     
   25    9   35 1     
   26   10   11 1     
   27   10   36 1     
   28   10   47 1     
   29   11   12 1     
   30   11   37 1     
   31   11   38 1     
   32   12   13 1     
   33   12   39 1     
   34   12   40 1     
   35   13   17 1     
   36   13   14 1     
   37   14   15 2     
   38   14   41 1     
   39   15   16 1     
   40   16   17 2     
   41   17   18 1     
   42   18   20 1     
   43   18   19 1     
   44   18   42 1     
   45   19   20 1     
   46   19   43 1     
   47   19   44 1     
   48   20   45 1     
   49   20   46 1     
   50   15   48 1     
   51   16   49 1     
@<TRIPOS>SUBSTRUCTURE
      1 S1             1
@<TRIPOS>SET
LONE_PAIRS      STATIC     ATOMS    <user>   **** ""
2 48 49
DONOR_HYDROGENS      STATIC     ATOMS    <user>   **** ""
2 36 47
ATOM$BLUE        STATIC     ATOMS    COLORGROUP SYSTEM
2 48 49
ATOM$RED        STATIC     ATOMS    COLORGROUP SYSTEM
2 36 47
