AV-unprocessed.smi:499|AV-procd|sdf|2732|dock8
  -GOLD-   2262023183D 1   1.00000     0.00000
 Structure written by MMmdl.
 36 37  0  0  0  0  0  0  0  0  1 V2000
  146.1874  140.6765  155.7752 C   0  0  0  0  0  0  0  0  0  0  0  0
  146.6593  141.9595  156.4887 C   0  0  1  0  0  0  0  0  0  0  0  0
  146.3659  141.8446  157.9329 C   0  0  0  0  0  0  0  0  0  0  0  0
  146.1367  141.7549  159.0642 N   0  0  0  0  0  0  0  0  0  0  0  0
  148.0969  142.1337  156.2655 N   0  0  0  0  0  0  0  0  0  0  0  0
  149.0524  141.1908  156.3242 C   0  0  0  0  0  0  0  0  0  0  0  0
  148.8242  140.0095  156.5869 O   0  0  0  0  0  0  0  0  0  0  0  0
  150.4842  141.6762  156.0550 C   0  0  0  0  0  0  0  0  0  0  0  0
  151.2873  141.8418  157.2785 N   0  0  0  0  0  0  0  0  0  0  0  0
  151.0777  143.0157  158.0289 C   0  0  0  0  0  0  0  0  0  0  0  0
  151.7339  143.2800  159.1751 C   0  0  0  0  0  0  0  0  0  0  0  0
  151.5272  144.5795  159.9374 C   0  0  0  0  0  0  0  0  0  0  0  0
  152.2175  144.5789  161.0779 F   0  0  0  0  0  0  0  0  0  0  0  0
  151.9140  145.6314  159.2145 F   0  0  0  0  0  0  0  0  0  0  0  0
  150.2373  144.7306  160.2339 F   0  0  0  0  0  0  0  0  0  0  0  0
  152.7134  142.2989  159.5986 C   0  0  0  0  0  0  0  0  0  0  0  0
  152.9297  141.1733  158.8903 C   0  0  0  0  0  0  0  0  0  0  0  0
  152.1897  140.8882  157.6588 C   0  0  0  0  0  0  0  0  0  0  0  0
  152.3698  139.8580  157.0088 O   0  0  0  0  0  0  0  0  0  0  0  0
  145.8928  143.1454  155.9058 C   0  0  0  0  0  0  0  0  0  0  0  0
  144.4001  143.1183  155.6628 C   0  0  0  0  0  0  0  0  0  0  0  0
  145.3569  143.1504  154.4913 C   0  0  0  0  0  0  0  0  0  0  0  0
  145.1107  140.5419  155.8846 H   0  0  0  0  0  0  0  0  0  0  0  0
  146.6635  139.7843  156.1825 H   0  0  0  0  0  0  0  0  0  0  0  0
  146.4071  140.7104  154.7075 H   0  0  0  0  0  0  0  0  0  0  0  0
  148.3953  143.0731  156.0471 H   0  0  0  0  0  0  0  0  0  0  0  0
  150.9760  140.9792  155.3737 H   0  0  0  0  0  0  0  0  0  0  0  0
  150.4271  142.6170  155.5059 H   0  0  0  0  0  0  0  0  0  0  0  0
  150.3426  143.6892  157.6127 H   0  0  0  0  0  0  0  0  0  0  0  0
  153.2798  142.4668  160.5029 H   0  0  0  0  0  0  0  0  0  0  0  0
  153.6650  140.4625  159.2378 H   0  0  0  0  0  0  0  0  0  0  0  0
  146.2834  144.1027  156.2473 H   0  0  0  0  0  0  0  0  0  0  0  0
  143.8613  142.1912  155.8468 H   0  0  0  0  0  0  0  0  0  0  0  0
  143.8426  144.0270  155.8802 H   0  0  0  0  0  0  0  0  0  0  0  0
  145.4334  144.0800  153.9309 H   0  0  0  0  0  0  0  0  0  0  0  0
  145.4569  142.2437  153.8984 H   0  0  0  0  0  0  0  0  0  0  0  0
  1  2  1  0  0  0  0
  1 23  1  0  0  0  0
  1 24  1  0  0  0  0
  1 25  1  0  0  0  0
  2  3  1  0  0  0  0
  2  5  1  0  0  0  0
  2 20  1  0  0  0  0
  3  4  3  0  0  0  0
  5  6  1  0  0  0  0
  5 26  1  0  0  0  0
  6  7  2  0  0  0  0
  6  8  1  0  0  0  0
  8  9  1  0  0  0  0
  8 27  1  0  0  0  0
  8 28  1  0  0  0  0
  9 18  1  0  0  0  0
  9 10  1  0  0  0  0
 10 11  2  0  0  0  0
 10 29  1  0  0  0  0
 11 12  1  0  0  0  0
 11 16  1  0  0  0  0
 12 13  1  0  0  0  0
 12 14  1  0  0  0  0
 12 15  1  0  0  0  0
 16 17  2  0  0  0  0
 16 30  1  0  0  0  0
 17 18  1  0  0  0  0
 17 31  1  0  0  0  0
 18 19  2  0  0  0  0
 20 22  1  0  0  0  0
 20 21  1  0  0  0  0
 20 32  1  0  0  0  0
 21 22  1  0  0  0  0
 21 33  1  0  0  0  0
 21 34  1  0  0  0  0
 22 35  1  0  0  0  0
 22 36  1  0  0  0  0
M  END
> <s_m_source_file>
AV-unprocessed.smi

> <i_m_source_file_index>
499

> <i_lp_mmshare_version>
43012

> <i_f3d_flags>
0

> <s_epik_input>
W0NIMl0xW0NIMl1bQ0hdMVtDQF0oW0NIM10pKEMjTilbTkhdQyg9TylbQ0gyXW4yW2NIXWMoQyhGKShGKUYpW2NIXVtjSF1jMj1P

> <s_epik_cmdline>
J2VwaWtfcHl0aG9uJywgJy1waCcsICc3LjAnLCAnLXRuJywgJzgnLCAnLW1hJywgJzIwMCcsICctbWV0YWxfYmluZGluZycsICctaW1hZScsICc8aW5maWxlLm1hZT4nLCAnLW9tYWUnLCAnPG91dGZpbGUubWFlPic=

> <r_lp_tautomer_probability>
1

> <r_epik_Ionization_Penalty>
4.79953e-07

> <r_epik_Ionization_Penalty_Charging>
1.46911e-08

> <r_epik_Ionization_Penalty_Neutral>
4.65262e-07

> <r_epik_State_Penalty>
-0

> <r_epik_Charging_Adjusted_Penalty>
1.46911e-08

> <i_epik_Tot_Q>
0

> <i_epik_Tot_abs_Q>
0

> <r_epik_Metal_State_Penalty>
-0

> <b_epik_Metal_Only>
0

> <s_lp_Force_Field>
OPLS_2005

> <r_lp_Energy>
24.0499

> <b_lp_Chiralities_Consistent>
1

> <s_lp_Variant>
AV-unprocessed.smi:499-1

> <Gold.Version>
5.8.1

> <Gold.Id.Protein>
6NUR|6NUR_protein|mol2

> <Gold.PLP.Fitness>
51.3527

> <Gold.PLP.PLP>
-42.5375

> <Gold.PLP.part.hbond>
-3.0000

> <Gold.PLP.part.metal>
0.0000

> <Gold.PLP.part.buried>
-6.2393

> <Gold.PLP.part.nonpolar>
-32.5260

> <Gold.PLP.part.repulsive>
0.0333

> <Gold.PLP.ligand.clash>
0.0000

> <Gold.PLP.ligand.torsion>
1.7514

> <Gold.PLP.Chemscore.Hbond>
2.8223

> <Gold.PLP.Chemscore.CHOScore>
0.7425

> <Gold.PLP.Chemscore.Metal>
0.0000

> <Gold.Chemscore.Hbonds>
donor molecule, donor type, donor heavy atom, donor atom, acceptor molecule, acceptor atom, score
      L1  H     5    26       P1  8028  1.00
      P1  H  6934  6946       L1     4  0.91
      P1  H  7997  8008       L1    19  0.86
      L1  C    10    29       P1  8028  0.76

> <Gold.PLP.Chemscore.Internal.Correction>
1.6238

> <Gold.Rescore>
     Score         DG    S(hbond)    S(metal)    S(lipo)     H(rot)  DE(clash)    DE(int)     intcor
     15.03     -18.22       2.69        0.00      73.62       1.90       0.27       2.92       ----

> <Gold.Chemscore.Fitness>
15.0328

> <Gold.Chemscore.DG>
-18.2221

> <Gold.Chemscore.ZeroCoef>
-5.4800

> <Gold.Chemscore.Hbond>
2.6949

> <Gold.Chemscore.Metal>
0.0000

> <Gold.Chemscore.Lipo>
73.6154

> <Gold.Chemscore.Internal_Hbond>
0.0000

> <Gold.Chemscore.DEClash>
0.2735

> <Gold.Chemscore.DEInternal>
2.9158

> <Gold.Chemscore.Rot>
1.9030

> <Gold.Chemscore.Internal.Correction>
   9.000000E+99

> <Gold.Chemscore.Hbonds>
donor molecule, donor type, donor heavy atom, donor atom, acceptor molecule, acceptor atom, score
      L1  H     5    26       P1  8028  0.91
      P1  H  6934  6946       L1     4  0.83
      P1  H  7997  8008       L1    19  0.16

> <Gold.Chemscore.Hbond.Weighted>
-9.0009

> <Gold.Chemscore.Metal.Weighted>
-0.0000

> <Gold.Chemscore.Lipo.Weighted>
-8.6130

> <Gold.Chemscore.Internal_Hbond.Weighted>
0.0000

> <Gold.Chemscore.DEClash.Weighted>
0.2735

> <Gold.Chemscore.DEInternal.Weighted>
2.9158

> <Gold.Chemscore.Rot.Weighted>
4.8718

> <Gold.Chemscore.Internal.Correction.Weighted>
   9.000000E+99

> <Gold.Protein.RotatedTorsions>
[ 6907 6896 6895 6894 ] final  151.51 input  -60.11 | X-H torsion
[ 7974 7965 7964 7962 ] final -131.80 input  175.53 | X-H torsion
[ 8008 7997 7996 7995 ] final  -59.54 input   59.86 | X-H torsion
[ 10167 10162 10161 10158 ] final  170.70 input  -65.29 | X-H torsion
[ 10718 10713 10712 10709 ] final -116.74 input   66.30 | X-H torsion
[ 10763 10752 10751 10750 ] final -166.58 input  -60.55 | X-H torsion
[ 11005 11000 10999 10996 ] final  -33.60 input  -57.11 | X-H torsion

> <Gold.Protein.ActiveResidues>
 VAL166  LYS551  ARG553  GLY616  TRP617  ASP618  TYR619  PRO620  LYS621  CYS622 
 ASP623  PHE694  ASN695  SER759  ASP760  ASP761  ALA762  ILE779  LEU786  VAL792 
 PHE793  MET794  SER795  GLU796  ALA797  LYS798  CYS799  TRP800  GLU811  SER814 

> <Gold.Protein.RotatedAtoms>
  152.0997  133.4243  159.4581 H   0  0  0  0  0  0  0  0  0  0  0  0  # atno 6907 bound_to 6896
  150.6864  134.2775  159.4622 H   0  0  0  0  0  0  0  0  0  0  0  0  # atno 6908 bound_to 6896
  152.0634  134.9579  160.0625 H   0  0  0  0  0  0  0  0  0  0  0  0  # atno 6909 bound_to 6896
  144.9345  140.7167  143.4885 H   0  0  0  0  0  0  0  0  0  0  0  0  # atno 7974 bound_to 7965
  154.4357  140.1059  156.6132 H   0  0  0  0  0  0  0  0  0  0  0  0  # atno 8008 bound_to 7997
  155.5787  140.3490  155.4516 H   0  0  0  0  0  0  0  0  0  0  0  0  # atno 8009 bound_to 7997
  156.0335  140.1266  157.0222 H   0  0  0  0  0  0  0  0  0  0  0  0  # atno 8010 bound_to 7997
  139.5026  144.3567  151.9867 H   0  0  0  0  0  0  0  0  0  0  0  0  # atno 10167 bound_to 10162
  156.0985  130.6152  150.9075 H   0  0  0  0  0  0  0  0  0  0  0  0  # atno 10718 bound_to 10713
  154.6818  135.2956  154.9602 H   0  0  0  0  0  0  0  0  0  0  0  0  # atno 10763 bound_to 10752
  154.0594  135.6633  153.4814 H   0  0  0  0  0  0  0  0  0  0  0  0  # atno 10764 bound_to 10752
  153.0552  135.5149  154.7865 H   0  0  0  0  0  0  0  0  0  0  0  0  # atno 10765 bound_to 10752
  140.9648  133.7143  156.1427 H   0  0  0  0  0  0  0  0  0  0  0  0  # atno 11005 bound_to 11000
  145.3089  139.1825  143.4649 LP  0  0  0  0  0  0  0  0  0  0  0  0  # atno 17320 bound_to 7965
  146.3261  140.3090  142.8625 LP  0  0  0  0  0  0  0  0  0  0  0  0  # atno 17321 bound_to 7965
  140.3004  144.3653  150.6062 LP  0  0  0  0  0  0  0  0  0  0  0  0  # atno 17342 bound_to 10162
  140.5878  143.2169  151.7309 LP  0  0  0  0  0  0  0  0  0  0  0  0  # atno 17343 bound_to 10162
  157.6151  131.0934  150.8726 LP  0  0  0  0  0  0  0  0  0  0  0  0  # atno 17370 bound_to 10713
  156.8859  130.5195  149.5288 LP  0  0  0  0  0  0  0  0  0  0  0  0  # atno 17371 bound_to 10713
  140.7415  134.4144  157.5554 LP  0  0  0  0  0  0  0  0  0  0  0  0  # atno 17394 bound_to 11000
  139.8890  134.8840  156.2441 LP  0  0  0  0  0  0  0  0  0  0  0  0  # atno 17395 bound_to 11000

$$$$
