AV-unprocessed.smi:255|AV-procd|sdf|1956|dock6
  -GOLD-   2262021 93D 1   1.00000     0.00000
 Structure written by MMmdl.
 44 47  0  0  0  0  0  0  0  0  1 V2000
  150.9158  143.1470  156.8763 O   0  0  0  0  0  0  0  0  0  0  0  0
  150.8465  142.9308  158.2693 C   0  0  0  0  0  0  0  0  0  0  0  0
  152.2522  142.6118  158.8234 C   0  0  1  0  0  0  0  0  0  0  0  0
  152.3451  142.5344  160.3480 C   0  0  0  0  0  0  0  0  0  0  0  0
  153.7039  141.8641  160.5522 C   0  0  1  0  0  0  0  0  0  0  0  0
  153.7025  141.0704  161.6230 F   0  0  0  0  0  0  0  0  0  0  0  0
  153.9696  141.0855  159.2521 C   0  0  0  0  0  0  0  0  0  0  0  0
  152.8564  141.3667  158.3452 N   0  0  0  0  0  0  0  0  0  0  0  0
  152.0163  140.3254  158.1211 C   0  0  0  0  0  0  0  0  0  0  0  0
  151.1898  139.8745  159.1028 N   0  0  0  0  0  0  0  0  0  0  0  0
  150.3570  138.8576  158.8612 C   0  0  0  0  0  0  0  0  0  0  0  0
  150.1896  138.1655  157.7322 N   0  0  0  0  0  0  0  0  0  0  0  0
  151.0120  138.6217  156.7440 C   0  0  0  0  0  0  0  0  0  0  0  0
  151.9493  139.6861  156.8553 C   0  0  0  0  0  0  0  0  0  0  0  0
  152.6141  139.8662  155.6494 N   0  0  0  0  0  0  0  0  0  0  0  0
  152.1006  138.9555  154.8679 C   0  0  0  0  0  0  0  0  0  0  0  0
  151.1242  138.1706  155.4400 N   0  0  0  0  0  0  0  0  0  0  0  0
  150.3932  137.0872  154.8014 C   0  0  0  0  0  0  0  0  0  0  0  0
  150.4549  135.7438  155.5727 C   0  0  2  0  0  0  0  0  0  0  0  0
  151.7592  135.5435  156.0831 O   0  0  0  0  0  0  0  0  0  0  0  0
  150.0682  134.5639  154.6962 C   0  0  0  0  0  0  0  0  0  0  0  0
  148.5449  134.5444  154.8050 C   0  0  0  0  0  0  0  0  0  0  0  0
  148.2348  135.1095  156.0755 O   0  0  0  0  0  0  0  0  0  0  0  0
  149.4165  135.6089  156.6941 C   0  0  0  0  0  0  0  0  0  0  0  0
  152.9204  143.4052  158.4840 H   0  0  0  0  0  0  0  0  0  0  0  0
  154.4820  142.6126  160.7050 H   0  0  0  0  0  0  0  0  0  0  0  0
  150.2303  143.7496  156.6319 H   0  0  0  0  0  0  0  0  0  0  0  0
  150.4180  143.8145  158.7436 H   0  0  0  0  0  0  0  0  0  0  0  0
  150.1656  142.0985  158.4499 H   0  0  0  0  0  0  0  0  0  0  0  0
  152.2798  143.5100  160.8302 H   0  0  0  0  0  0  0  0  0  0  0  0
  151.5459  141.9071  160.7455 H   0  0  0  0  0  0  0  0  0  0  0  0
  154.8953  141.4277  158.7886 H   0  0  0  0  0  0  0  0  0  0  0  0
  154.0910  140.0181  159.4440 H   0  0  0  0  0  0  0  0  0  0  0  0
  149.7345  138.5567  159.6910 H   0  0  0  0  0  0  0  0  0  0  0  0
  152.4189  138.8336  153.8427 H   0  0  0  0  0  0  0  0  0  0  0  0
  149.3583  137.4090  154.6795 H   0  0  0  0  0  0  0  0  0  0  0  0
  150.7900  136.9587  153.7935 H   0  0  0  0  0  0  0  0  0  0  0  0
  151.7021  134.9865  156.8442 H   0  0  0  0  0  0  0  0  0  0  0  0
  150.4229  134.6472  153.6683 H   0  0  0  0  0  0  0  0  0  0  0  0
  150.4650  133.6352  155.1100 H   0  0  0  0  0  0  0  0  0  0  0  0
  148.0953  135.1646  154.0290 H   0  0  0  0  0  0  0  0  0  0  0  0
  148.1374  133.5378  154.7089 H   0  0  0  0  0  0  0  0  0  0  0  0
  149.7388  134.8622  157.4220 H   0  0  0  0  0  0  0  0  0  0  0  0
  149.2281  136.5305  157.2428 H   0  0  0  0  0  0  0  0  0  0  0  0
  1  2  1  0  0  0  0
  1 27  1  0  0  0  0
  2  3  1  0  0  0  0
  2 28  1  0  0  0  0
  2 29  1  0  0  0  0
  3 25  1  0  0  0  0
  3  8  1  0  0  0  0
  3  4  1  0  0  0  0
  4  5  1  0  0  0  0
  4 30  1  0  0  0  0
  4 31  1  0  0  0  0
  5 26  1  0  0  0  0
  5  6  1  0  0  0  0
  5  7  1  0  0  0  0
  7  8  1  0  0  0  0
  7 32  1  0  0  0  0
  7 33  1  0  0  0  0
  8  9  1  0  0  0  0
  9 14  1  0  0  0  0
  9 10  2  0  0  0  0
 10 11  1  0  0  0  0
 11 12  2  0  0  0  0
 11 34  1  0  0  0  0
 12 13  1  0  0  0  0
 13 17  1  0  0  0  0
 13 14  2  0  0  0  0
 14 15  1  0  0  0  0
 15 16  2  0  0  0  0
 16 17  1  0  0  0  0
 16 35  1  0  0  0  0
 17 18  1  0  0  0  0
 18 19  1  0  0  0  0
 18 36  1  0  0  0  0
 18 37  1  0  0  0  0
 19 24  1  0  0  0  0
 19 20  1  0  0  0  0
 19 21  1  0  0  0  0
 20 38  1  0  0  0  0
 21 22  1  0  0  0  0
 21 39  1  0  0  0  0
 21 40  1  0  0  0  0
 22 23  1  0  0  0  0
 22 41  1  0  0  0  0
 22 42  1  0  0  0  0
 23 24  1  0  0  0  0
 24 43  1  0  0  0  0
 24 44  1  0  0  0  0
M  END
> <s_m_source_file>
AV-unprocessed.smi

> <i_m_source_file_index>
255

> <i_lp_mmshare_version>
43012

> <i_f3d_flags>
0

> <s_epik_input>
W09IXVtDSDJdW0NAQEhdMVtDSDJdW0NASF0oRilbQ0gyXU4xYyhuW2NIXW4yKWMoYzIzKW5bY0hdbjNbQ0gyXVtDQEBdNChbT0hdKVtDSDJdW0NIMl1PW0NIMl00

> <s_epik_cmdline>
J2VwaWtfcHl0aG9uJywgJy1waCcsICc3LjAnLCAnLXRuJywgJzgnLCAnLW1hJywgJzIwMCcsICctbWV0YWxfYmluZGluZycsICctaW1hZScsICc8aW5maWxlLm1hZT4nLCAnLW9tYWUnLCAnPG91dGZpbGUubWFlPic=

> <r_lp_tautomer_probability>
1

> <r_epik_Ionization_Penalty>
0.0058098

> <r_epik_Ionization_Penalty_Charging>
0

> <r_epik_Ionization_Penalty_Neutral>
0.0058098

> <r_epik_State_Penalty>
0.00411166

> <r_epik_Charging_Adjusted_Penalty>
0.00411166

> <i_epik_Tot_Q>
0

> <i_epik_Tot_abs_Q>
0

> <r_epik_Metal_State_Penalty>
-0

> <b_epik_Metal_Only>
0

> <s_lp_Force_Field>
OPLS_2005

> <r_lp_Energy>
54.0655

> <b_lp_Chiralities_Consistent>
1

> <s_lp_Variant>
AV-unprocessed.smi:255-8

> <Gold.Version>
5.8.1

> <Gold.Id.Protein>
6NUR|6NUR_protein|mol2

> <Gold.PLP.Fitness>
41.3698

> <Gold.PLP.PLP>
-33.1958

> <Gold.PLP.part.hbond>
-3.5593

> <Gold.PLP.part.metal>
0.0000

> <Gold.PLP.part.buried>
-1.3375

> <Gold.PLP.part.nonpolar>
-28.0620

> <Gold.PLP.part.repulsive>
0.0157

> <Gold.PLP.ligand.clash>
0.0000

> <Gold.PLP.ligand.torsion>
0.4570

> <Gold.PLP.Chemscore.Hbond>
3.0000

> <Gold.PLP.Chemscore.CHOScore>
0.0000

> <Gold.PLP.Chemscore.Metal>
0.0000

> <Gold.Chemscore.Hbonds>
donor molecule, donor type, donor heavy atom, donor atom, acceptor molecule, acceptor atom, score
      L1  H     1    27       P1  8028  1.00
      P1  H  7997  8010       L1    15  1.00
      P1  H 10752 10764       L1    20  0.78

> <Gold.PLP.Chemscore.Internal.Correction>
0.0881

> <Gold.Rescore>
     Score         DG    S(hbond)    S(metal)    S(lipo)     H(rot)  DE(clash)    DE(int)     intcor
     13.55     -15.51       2.81        0.00      78.27       3.33       0.06       1.90       ----

> <Gold.Chemscore.Fitness>
13.5526

> <Gold.Chemscore.DG>
-15.5129

> <Gold.Chemscore.ZeroCoef>
-5.4800

> <Gold.Chemscore.Hbond>
2.8123

> <Gold.Chemscore.Metal>
0.0000

> <Gold.Chemscore.Lipo>
78.2709

> <Gold.Chemscore.Internal_Hbond>
0.0000

> <Gold.Chemscore.DEClash>
0.0573

> <Gold.Chemscore.DEInternal>
1.9030

> <Gold.Chemscore.Rot>
3.3273

> <Gold.Chemscore.Internal.Correction>
   9.000000E+99

> <Gold.Chemscore.Hbonds>
donor molecule, donor type, donor heavy atom, donor atom, acceptor molecule, acceptor atom, score
      L1  H     1    27       P1  8028  1.00
      P1  H  7997  8010       L1    15  0.55
      P1  H 10752 10764       L1    20  0.58

> <Gold.Chemscore.Hbond.Weighted>
-9.3932

> <Gold.Chemscore.Metal.Weighted>
-0.0000

> <Gold.Chemscore.Lipo.Weighted>
-9.1577

> <Gold.Chemscore.Internal_Hbond.Weighted>
0.0000

> <Gold.Chemscore.DEClash.Weighted>
0.0573

> <Gold.Chemscore.DEInternal.Weighted>
1.9030

> <Gold.Chemscore.Rot.Weighted>
8.5179

> <Gold.Chemscore.Internal.Correction.Weighted>
   9.000000E+99

> <Gold.Protein.RotatedTorsions>
[ 6907 6896 6895 6894 ] final  -91.79 input  -60.11 | X-H torsion
[ 7974 7965 7964 7962 ] final   80.18 input  175.53 | X-H torsion
[ 8008 7997 7996 7995 ] final   92.27 input   59.86 | X-H torsion
[ 10167 10162 10161 10158 ] final  149.64 input  -65.29 | X-H torsion
[ 10718 10713 10712 10709 ] final -106.02 input   66.30 | X-H torsion
[ 10763 10752 10751 10750 ] final   -5.66 input  -60.55 | X-H torsion
[ 11005 11000 10999 10996 ] final   64.87 input  -57.11 | X-H torsion

> <Gold.Protein.ActiveResidues>
 VAL166  LYS551  ARG553  GLY616  TRP617  ASP618  TYR619  PRO620  LYS621  CYS622 
 ASP623  PHE694  ASN695  SER759  ASP760  ASP761  ALA762  ILE779  LEU786  VAL792 
 PHE793  MET794  SER795  GLU796  ALA797  LYS798  CYS799  TRP800  GLU811  SER814 

> <Gold.Protein.RotatedAtoms>
  150.6897  134.2222  159.4401 H   0  0  0  0  0  0  0  0  0  0  0  0  # atno 6907 bound_to 6896
  152.0178  134.9837  160.0579 H   0  0  0  0  0  0  0  0  0  0  0  0  # atno 6908 bound_to 6896
  152.1426  133.4438  159.4811 H   0  0  0  0  0  0  0  0  0  0  0  0  # atno 6909 bound_to 6896
  145.6546  139.2456  143.1957 H   0  0  0  0  0  0  0  0  0  0  0  0  # atno 7974 bound_to 7965
  156.0335  140.3327  155.7165 H   0  0  0  0  0  0  0  0  0  0  0  0  # atno 8008 bound_to 7997
  155.5850  140.0640  157.2791 H   0  0  0  0  0  0  0  0  0  0  0  0  # atno 8009 bound_to 7997
  154.4363  140.1837  156.1004 H   0  0  0  0  0  0  0  0  0  0  0  0  # atno 8010 bound_to 7997
  139.4859  144.5586  151.7272 H   0  0  0  0  0  0  0  0  0  0  0  0  # atno 10167 bound_to 10162
  156.0371  130.5592  150.7621 H   0  0  0  0  0  0  0  0  0  0  0  0  # atno 10718 bound_to 10713
  153.4015  135.7005  153.6422 H   0  0  0  0  0  0  0  0  0  0  0  0  # atno 10763 bound_to 10752
  153.4954  135.3664  155.2513 H   0  0  0  0  0  0  0  0  0  0  0  0  # atno 10764 bound_to 10752
  154.8711  135.4099  154.3351 H   0  0  0  0  0  0  0  0  0  0  0  0  # atno 10765 bound_to 10752
  139.9931  134.6560  156.0057 H   0  0  0  0  0  0  0  0  0  0  0  0  # atno 11005 bound_to 11000
  146.1175  140.7350  142.9473 LP  0  0  0  0  0  0  0  0  0  0  0  0  # atno 17320 bound_to 7965
  144.7110  140.4039  143.7080 LP  0  0  0  0  0  0  0  0  0  0  0  0  # atno 17321 bound_to 7965
  140.5152  144.0964  150.6006 LP  0  0  0  0  0  0  0  0  0  0  0  0  # atno 17342 bound_to 10162
  140.3903  143.2756  152.0067 LP  0  0  0  0  0  0  0  0  0  0  0  0  # atno 17343 bound_to 10162
  157.5138  131.0927  151.0165 LP  0  0  0  0  0  0  0  0  0  0  0  0  # atno 17370 bound_to 10713
  157.0514  130.5788  149.5371 LP  0  0  0  0  0  0  0  0  0  0  0  0  # atno 17371 bound_to 10713
  141.1582  133.6541  156.4231 LP  0  0  0  0  0  0  0  0  0  0  0  0  # atno 17394 bound_to 11000
  140.4870  134.6611  157.5195 LP  0  0  0  0  0  0  0  0  0  0  0  0  # atno 17395 bound_to 11000

$$$$
