AV-unprocessed.smi:1677|AV-procd|sdf|6724|dock5
  -GOLD-   22720 7463D 1   1.00000     0.00000
 Structure written by MMmdl.
 36 37  0  0  0  0  0  0  0  0  1 V2000
  152.5487  139.5181  157.7683 C   0  0  0  0  0  0  0  0  0  0  0  0
  151.8652  140.8873  157.6523 C   0  0  2  0  0  0  0  0  0  0  0  0
  151.6133  141.5100  159.0415 C   0  0  0  0  0  0  0  0  0  0  0  0
  151.6351  142.9614  159.0157 N   0  0  0  0  0  0  0  0  0  0  0  0
  152.4288  143.8011  159.7855 C   0  0  0  0  0  0  0  0  0  0  0  0
  152.1182  145.0884  159.4099 C   0  0  0  0  0  0  0  0  0  0  0  0
  151.1380  145.0651  158.4204 N   0  0  0  0  0  0  0  0  0  0  0  0
  150.9003  143.7723  158.2419 C   0  0  0  0  0  0  0  0  0  0  0  0
  150.6095  140.7325  156.9187 N   0  0  0  0  0  0  0  0  0  0  0  0
  150.4864  140.2653  155.6657 C   0  0  0  0  0  0  0  0  0  0  0  0
  151.4396  139.8710  154.9932 O   0  0  0  0  0  0  0  0  0  0  0  0
  149.0724  140.2665  155.0720 C   0  0  2  0  0  0  0  0  0  0  0  0
  148.8711  139.0854  154.0948 C   0  0  0  0  0  0  0  0  0  0  0  0
  147.5824  139.2120  153.3018 C   0  0  0  0  0  0  0  0  0  0  0  0
  146.8851  140.3567  153.2022 C   0  0  0  0  0  0  0  0  0  0  0  0
  147.3084  141.6541  153.8681 C   0  0  0  0  0  0  0  0  0  0  0  0
  148.7638  141.6045  154.3701 C   0  0  0  0  0  0  0  0  0  0  0  0
  153.5067  139.6005  158.2824 H   0  0  0  0  0  0  0  0  0  0  0  0
  152.7410  139.0909  156.7834 H   0  0  0  0  0  0  0  0  0  0  0  0
  151.9326  138.8109  158.3250 H   0  0  0  0  0  0  0  0  0  0  0  0
  152.5434  141.5377  157.0968 H   0  0  0  0  0  0  0  0  0  0  0  0
  150.6545  141.1785  159.4434 H   0  0  0  0  0  0  0  0  0  0  0  0
  152.3780  141.1782  159.7450 H   0  0  0  0  0  0  0  0  0  0  0  0
  153.1341  143.4231  160.5107 H   0  0  0  0  0  0  0  0  0  0  0  0
  152.5220  146.0220  159.7727 H   0  0  0  0  0  0  0  0  0  0  0  0
  150.1820  143.4061  157.5229 H   0  0  0  0  0  0  0  0  0  0  0  0
  149.7693  141.0317  157.3918 H   0  0  0  0  0  0  0  0  0  0  0  0
  148.3588  140.1521  155.8904 H   0  0  0  0  0  0  0  0  0  0  0  0
  149.6950  139.0132  153.3836 H   0  0  0  0  0  0  0  0  0  0  0  0
  148.8474  138.1470  154.6499 H   0  0  0  0  0  0  0  0  0  0  0  0
  147.2367  138.3262  152.7896 H   0  0  0  0  0  0  0  0  0  0  0  0
  145.9679  140.3786  152.6322 H   0  0  0  0  0  0  0  0  0  0  0  0
  147.1867  142.4773  153.1637 H   0  0  0  0  0  0  0  0  0  0  0  0
  146.6292  141.8441  154.6998 H   0  0  0  0  0  0  0  0  0  0  0  0
  148.9511  142.4467  155.0383 H   0  0  0  0  0  0  0  0  0  0  0  0
  149.4374  141.7327  153.5210 H   0  0  0  0  0  0  0  0  0  0  0  0
  1  2  1  0  0  0  0
  1 18  1  0  0  0  0
  1 19  1  0  0  0  0
  1 20  1  0  0  0  0
  2  3  1  0  0  0  0
  2  9  1  0  0  0  0
  2 21  1  0  0  0  0
  3  4  1  0  0  0  0
  3 22  1  0  0  0  0
  3 23  1  0  0  0  0
  4  8  1  0  0  0  0
  4  5  1  0  0  0  0
  5  6  2  0  0  0  0
  5 24  1  0  0  0  0
  6  7  1  0  0  0  0
  6 25  1  0  0  0  0
  7  8  2  0  0  0  0
  8 26  1  0  0  0  0
  9 10  1  0  0  0  0
  9 27  1  0  0  0  0
 10 11  2  0  0  0  0
 10 12  1  0  0  0  0
 12 17  1  0  0  0  0
 12 13  1  0  0  0  0
 12 28  1  0  0  0  0
 13 14  1  0  0  0  0
 13 29  1  0  0  0  0
 13 30  1  0  0  0  0
 14 15  2  0  0  0  0
 14 31  1  0  0  0  0
 15 16  1  0  0  0  0
 15 32  1  0  0  0  0
 16 17  1  0  0  0  0
 16 33  1  0  0  0  0
 16 34  1  0  0  0  0
 17 35  1  0  0  0  0
 17 36  1  0  0  0  0
M  END
> <s_m_source_file>
AV-unprocessed.smi

> <i_m_source_file_index>
1677

> <i_lp_mmshare_version>
43012

> <i_f3d_flags>
0

> <s_epik_input>
W2NIXTFuW2NIXVtjSF1uMVtDSDJdW0NAQEhdKFtDSDNdKVtOSF1DKD1PKVtDQEBIXTJbQ0gyXVtDSF09W0NIXVtDSDJdW0NIMl0y

> <s_epik_cmdline>
J2VwaWtfcHl0aG9uJywgJy1waCcsICc3LjAnLCAnLXRuJywgJzgnLCAnLW1hJywgJzIwMCcsICctbWV0YWxfYmluZGluZycsICctaW1hZScsICc8aW5maWxlLm1hZT4nLCAnLW9tYWUnLCAnPG91dGZpbGUubWFlPic=

> <r_lp_tautomer_probability>
1

> <r_epik_Ionization_Penalty>
0.640435

> <r_epik_Ionization_Penalty_Charging>
0.640435

> <r_epik_Ionization_Penalty_Neutral>
2.11108e-08

> <r_epik_State_Penalty>
0.658069

> <r_epik_Charging_Adjusted_Penalty>
1.2985

> <i_epik_Tot_Q>
0

> <i_epik_Tot_abs_Q>
0

> <r_epik_Metal_State_Penalty>
0.311689

> <b_epik_Metal_Only>
0

> <s_lp_Force_Field>
OPLS_2005

> <r_lp_Energy>
9.8402

> <b_lp_Chiralities_Consistent>
1

> <s_lp_Variant>
AV-unprocessed.smi:1677-5

> <Gold.Version>
5.8.1

> <Gold.Id.Protein>
6NUR|6NUR_protein|mol2

> <Gold.PLP.Fitness>
39.2257

> <Gold.PLP.PLP>
-35.5688

> <Gold.PLP.part.hbond>
-1.0000

> <Gold.PLP.part.metal>
0.0000

> <Gold.PLP.part.buried>
-0.5130

> <Gold.PLP.part.nonpolar>
-32.7648

> <Gold.PLP.part.repulsive>
0.2444

> <Gold.PLP.ligand.clash>
0.0000

> <Gold.PLP.ligand.torsion>
1.1219

> <Gold.PLP.Chemscore.Hbond>
1.0000

> <Gold.PLP.Chemscore.CHOScore>
0.9586

> <Gold.PLP.Chemscore.Metal>
0.0000

> <Gold.Chemscore.Hbonds>
donor molecule, donor type, donor heavy atom, donor atom, acceptor molecule, acceptor atom, score
      P1  H  7989  7998       L1    11  1.00
      L1  C     8    26       P1  8028  0.78

> <Gold.PLP.Chemscore.Internal.Correction>
0.0248

> <Gold.Rescore>
     Score         DG    S(hbond)    S(metal)    S(lipo)     H(rot)  DE(clash)    DE(int)     intcor
     12.16     -14.25       0.88        0.00      88.09       1.75       0.19       1.90       ----

> <Gold.Chemscore.Fitness>
12.1630

> <Gold.Chemscore.DG>
-14.2548

> <Gold.Chemscore.ZeroCoef>
-5.4800

> <Gold.Chemscore.Hbond>
0.8806

> <Gold.Chemscore.Metal>
0.0000

> <Gold.Chemscore.Lipo>
88.0941

> <Gold.Chemscore.Internal_Hbond>
0.0000

> <Gold.Chemscore.DEClash>
0.1869

> <Gold.Chemscore.DEInternal>
1.9048

> <Gold.Chemscore.Rot>
1.7475

> <Gold.Chemscore.Internal.Correction>
   9.000000E+99

> <Gold.Chemscore.Hbonds>
donor molecule, donor type, donor heavy atom, donor atom, acceptor molecule, acceptor atom, score
      P1  H  7989  7998       L1    11  0.82

> <Gold.Chemscore.Hbond.Weighted>
-2.9413

> <Gold.Chemscore.Metal.Weighted>
-0.0000

> <Gold.Chemscore.Lipo.Weighted>
-10.3070

> <Gold.Chemscore.Internal_Hbond.Weighted>
0.0000

> <Gold.Chemscore.DEClash.Weighted>
0.1869

> <Gold.Chemscore.DEInternal.Weighted>
1.9048

> <Gold.Chemscore.Rot.Weighted>
4.4735

> <Gold.Chemscore.Internal.Correction.Weighted>
   9.000000E+99

> <Gold.Protein.RotatedTorsions>
[ 6907 6896 6895 6894 ] final  -16.30 input  -60.11 | X-H torsion
[ 7974 7965 7964 7962 ] final  -95.93 input  175.53 | X-H torsion
[ 8008 7997 7996 7995 ] final  117.11 input   59.86 | X-H torsion
[ 10167 10162 10161 10158 ] final -159.07 input  -65.29 | X-H torsion
[ 10718 10713 10712 10709 ] final -134.60 input   66.30 | X-H torsion
[ 10763 10752 10751 10750 ] final -165.56 input  -60.55 | X-H torsion
[ 11005 11000 10999 10996 ] final   83.12 input  -57.11 | X-H torsion

> <Gold.Protein.ActiveResidues>
 VAL166  LYS551  ARG553  GLY616  TRP617  ASP618  TYR619  PRO620  LYS621  CYS622 
 ASP623  PHE694  ASN695  SER759  ASP760  ASP761  ALA762  ILE779  LEU786  VAL792 
 PHE793  MET794  SER795  GLU796  ALA797  LYS798  CYS799  TRP800  GLU811  SER814 

> <Gold.Protein.RotatedAtoms>
  151.3107  135.0793  159.9271 H   0  0  0  0  0  0  0  0  0  0  0  0  # atno 6907 bound_to 6896
  152.5278  133.9739  159.7785 H   0  0  0  0  0  0  0  0  0  0  0  0  # atno 6908 bound_to 6896
  151.0042  133.5975  159.2721 H   0  0  0  0  0  0  0  0  0  0  0  0  # atno 6909 bound_to 6896
  145.3535  140.9480  143.2541 H   0  0  0  0  0  0  0  0  0  0  0  0  # atno 7974 bound_to 7965
  156.2476  140.2903  156.0627 H   0  0  0  0  0  0  0  0  0  0  0  0  # atno 8008 bound_to 7997
  155.1758  140.0403  157.2889 H   0  0  0  0  0  0  0  0  0  0  0  0  # atno 8009 bound_to 7997
  154.6294  140.2495  155.7459 H   0  0  0  0  0  0  0  0  0  0  0  0  # atno 8010 bound_to 7997
  139.6643  143.9857  152.2245 H   0  0  0  0  0  0  0  0  0  0  0  0  # atno 10167 bound_to 10162
  156.2572  130.7188  151.1109 H   0  0  0  0  0  0  0  0  0  0  0  0  # atno 10718 bound_to 10713
  154.6920  135.2972  154.9466 H   0  0  0  0  0  0  0  0  0  0  0  0  # atno 10763 bound_to 10752
  154.0426  135.6655  153.4795 H   0  0  0  0  0  0  0  0  0  0  0  0  # atno 10764 bound_to 10752
  153.0619  135.5111  154.8017 H   0  0  0  0  0  0  0  0  0  0  0  0  # atno 10765 bound_to 10752
  139.9041  134.8121  156.2266 H   0  0  0  0  0  0  0  0  0  0  0  0  # atno 11005 bound_to 11000
  144.8700  139.5052  143.6772 LP  0  0  0  0  0  0  0  0  0  0  0  0  # atno 17320 bound_to 7965
  146.2958  139.7273  142.9128 LP  0  0  0  0  0  0  0  0  0  0  0  0  # atno 17321 bound_to 7965
  139.9604  144.6561  150.8085 LP  0  0  0  0  0  0  0  0  0  0  0  0  # atno 17342 bound_to 10162
  140.7593  143.3126  151.2809 LP  0  0  0  0  0  0  0  0  0  0  0  0  # atno 17343 bound_to 10162
  157.7237  131.0664  150.6026 LP  0  0  0  0  0  0  0  0  0  0  0  0  # atno 17370 bound_to 10713
  156.6110  130.4380  149.5859 LP  0  0  0  0  0  0  0  0  0  0  0  0  # atno 17371 bound_to 10713
  141.0372  133.6957  156.1533 LP  0  0  0  0  0  0  0  0  0  0  0  0  # atno 17394 bound_to 11000
  140.7009  134.4565  157.5586 LP  0  0  0  0  0  0  0  0  0  0  0  0  # atno 17395 bound_to 11000

$$$$
