AV-unprocessed.smi:1920|AV-procd|sdf|7777|dock2
  -GOLD-   22720 9523D 1   1.00000     0.00000
 Structure written by MMmdl.
 37 38  0  0  0  0  0  0  0  0  2 V2000
  151.5677  138.7561  155.6186 C   0  0  0  0  0  0  0  0  0  0  0  0
  150.4788  139.8353  155.5505 C   0  0  2  0  0  0  0  0  0  0  0  0
  149.9185  139.9749  154.1181 C   0  0  0  0  0  0  0  0  0  0  0  0
  148.6065  140.6305  154.0772 N   0  0  0  0  0  0  0  0  0  0  0  0
  148.2934  141.8883  154.5246 C   0  0  0  0  0  0  0  0  0  0  0  0
  146.9600  142.0748  154.2651 C   0  0  0  0  0  0  0  0  0  0  0  0
  146.5145  140.9217  153.6765 N   0  3  0  0  0  0  0  0  0  0  0  0
  147.5160  140.0429  153.5669 C   0  0  0  0  0  0  0  0  0  0  0  0
  151.0385  141.1017  156.0213 N   0  0  0  0  0  0  0  0  0  0  0  0
  150.6550  141.7668  157.1228 C   0  0  0  0  0  0  0  0  0  0  0  0
  149.7846  141.3590  157.8916 O   0  0  0  0  0  0  0  0  0  0  0  0
  151.3525  143.1030  157.3889 C   0  0  0  0  0  0  0  0  0  0  0  0
  151.0050  143.6854  158.7746 C   0  0  2  0  0  0  0  0  0  0  0  0
  151.3229  145.1547  158.8765 C   0  0  0  0  0  0  0  0  0  0  0  0
  152.0116  145.4576  159.9747 C   0  0  0  0  0  0  0  0  0  0  0  0
  152.2942  144.2512  160.8256 C   0  0  0  0  0  0  0  0  0  0  0  0
  151.7910  143.0722  159.9648 C   0  0  0  0  0  0  0  0  0  0  0  0
  151.1791  137.7861  155.3076 H   0  0  0  0  0  0  0  0  0  0  0  0
  151.9490  138.6455  156.6345 H   0  0  0  0  0  0  0  0  0  0  0  0
  152.4106  138.9994  154.9707 H   0  0  0  0  0  0  0  0  0  0  0  0
  149.6722  139.5202  156.2153 H   0  0  0  0  0  0  0  0  0  0  0  0
  150.6085  140.5314  153.4815 H   0  0  0  0  0  0  0  0  0  0  0  0
  149.7960  138.9907  153.6640 H   0  0  0  0  0  0  0  0  0  0  0  0
  149.0254  142.5431  154.9747 H   0  0  0  0  0  0  0  0  0  0  0  0
  146.3128  142.9198  154.4493 H   0  0  0  0  0  0  0  0  0  0  0  0
  147.4572  139.0584  153.1382 H   0  0  0  0  0  0  0  0  0  0  0  0
  151.7689  141.5113  155.4566 H   0  0  0  0  0  0  0  0  0  0  0  0
  152.4302  142.9587  157.3011 H   0  0  0  0  0  0  0  0  0  0  0  0
  151.0768  143.8146  156.6090 H   0  0  0  0  0  0  0  0  0  0  0  0
  149.9335  143.5831  158.9532 H   0  0  0  0  0  0  0  0  0  0  0  0
  150.9972  145.8673  158.1330 H   0  0  0  0  0  0  0  0  0  0  0  0
  152.3292  146.4504  160.2578 H   0  0  0  0  0  0  0  0  0  0  0  0
  153.3588  144.1694  161.0464 H   0  0  0  0  0  0  0  0  0  0  0  0
  151.7460  144.3289  161.7648 H   0  0  0  0  0  0  0  0  0  0  0  0
  151.1775  142.3804  160.5422 H   0  0  0  0  0  0  0  0  0  0  0  0
  152.6537  142.5104  159.6047 H   0  0  0  0  0  0  0  0  0  0  0  0
  145.5653  140.7567  153.3656 H   0  0  0  0  0  0  0  0  0  0  0  0
  1  2  1  0  0  0  0
  1 18  1  0  0  0  0
  1 19  1  0  0  0  0
  1 20  1  0  0  0  0
  2  3  1  0  0  0  0
  2  9  1  0  0  0  0
  2 21  1  0  0  0  0
  3  4  1  0  0  0  0
  3 22  1  0  0  0  0
  3 23  1  0  0  0  0
  4  8  1  0  0  0  0
  4  5  1  0  0  0  0
  5  6  2  0  0  0  0
  5 24  1  0  0  0  0
  6  7  1  0  0  0  0
  6 25  1  0  0  0  0
  7  8  2  0  0  0  0
  7 37  1  0  0  0  0
  8 26  1  0  0  0  0
  9 10  1  0  0  0  0
  9 27  1  0  0  0  0
 10 11  2  0  0  0  0
 10 12  1  0  0  0  0
 12 13  1  0  0  0  0
 12 28  1  0  0  0  0
 12 29  1  0  0  0  0
 13 17  1  0  0  0  0
 13 14  1  0  0  0  0
 13 30  1  0  0  0  0
 14 15  2  0  0  0  0
 14 31  1  0  0  0  0
 15 16  1  0  0  0  0
 15 32  1  0  0  0  0
 16 17  1  0  0  0  0
 16 33  1  0  0  0  0
 16 34  1  0  0  0  0
 17 35  1  0  0  0  0
 17 36  1  0  0  0  0
M  CHG  1   7   1
M  END
> <s_m_source_file>
AV-unprocessed.smi

> <i_m_source_file_index>
1920

> <i_lp_mmshare_version>
43012

> <i_f3d_flags>
0

> <s_epik_input>
W2NIXTFuW2NIXVtjSF1uMVtDSDJdW0NAQEhdKFtDSDNdKVtOSF1DKD1PKVtDSDJdW0NAQEhdMltDSF09W0NIXVtDSDJdW0NIMl0y

> <s_epik_cmdline>
J2VwaWtfcHl0aG9uJywgJy1waCcsICc3LjAnLCAnLXRuJywgJzgnLCAnLW1hJywgJzIwMCcsICctbWV0YWxfYmluZGluZycsICctaW1hZScsICc8aW5maWxlLm1hZT4nLCAnLW9tYWUnLCAnPG91dGZpbGUubWFlPic=

> <r_lp_tautomer_probability>
1

> <r_epik_Ionization_Penalty>
0.24816

> <r_epik_Ionization_Penalty_Charging>
0

> <r_epik_Ionization_Penalty_Neutral>
0.24816

> <r_epik_State_Penalty>
0.2394

> <r_epik_Charging_Adjusted_Penalty>
0.2394

> <i_epik_Tot_Q>
1

> <i_epik_Tot_abs_Q>
1

> <r_epik_Metal_State_Penalty>
0.531457

> <b_epik_Metal_Only>
0

> <s_lp_Force_Field>
OPLS_2005

> <r_lp_Energy>
18.7284

> <b_lp_Chiralities_Consistent>
1

> <s_lp_Variant>
AV-unprocessed.smi:1920-1

> <Gold.Version>
5.8.1

> <Gold.Id.Protein>
6NUR|6NUR_protein|mol2

> <Gold.PLP.Fitness>
46.7185

> <Gold.PLP.PLP>
-38.5368

> <Gold.PLP.part.hbond>
-1.0000

> <Gold.PLP.part.metal>
0.0000

> <Gold.PLP.part.buried>
0.6533

> <Gold.PLP.part.nonpolar>
-37.6714

> <Gold.PLP.part.repulsive>
0.2107

> <Gold.PLP.ligand.clash>
0.0000

> <Gold.PLP.ligand.torsion>
0.4297

> <Gold.PLP.Chemscore.Hbond>
2.0000

> <Gold.PLP.Chemscore.CHOScore>
1.0000

> <Gold.PLP.Chemscore.Metal>
0.0000

> <Gold.Chemscore.Hbonds>
donor molecule, donor type, donor heavy atom, donor atom, acceptor molecule, acceptor atom, score
      L1  H     7    37       P1 10175  1.69
      L1  C     5    24       P1  8028  1.00

> <Gold.PLP.Chemscore.Internal.Correction>
0.0412

> <Gold.Rescore>
     Score         DG    S(hbond)    S(metal)    S(lipo)     H(rot)  DE(clash)    DE(int)     intcor
     14.40     -15.39       0.98        0.00     100.85       2.01       0.51       0.48       ----

> <Gold.Chemscore.Fitness>
14.4020

> <Gold.Chemscore.DG>
-15.3868

> <Gold.Chemscore.ZeroCoef>
-5.4800

> <Gold.Chemscore.Hbond>
0.9761

> <Gold.Chemscore.Metal>
0.0000

> <Gold.Chemscore.Lipo>
100.8532

> <Gold.Chemscore.Internal_Hbond>
0.0000

> <Gold.Chemscore.DEClash>
0.5061

> <Gold.Chemscore.DEInternal>
0.4787

> <Gold.Chemscore.Rot>
2.0130

> <Gold.Chemscore.Internal.Correction>
   9.000000E+99

> <Gold.Chemscore.Hbonds>
donor molecule, donor type, donor heavy atom, donor atom, acceptor molecule, acceptor atom, score
      L1  H     7    37       P1 10175  0.68

> <Gold.Chemscore.Hbond.Weighted>
-3.2602

> <Gold.Chemscore.Metal.Weighted>
-0.0000

> <Gold.Chemscore.Lipo.Weighted>
-11.7998

> <Gold.Chemscore.Internal_Hbond.Weighted>
0.0000

> <Gold.Chemscore.DEClash.Weighted>
0.5061

> <Gold.Chemscore.DEInternal.Weighted>
0.4787

> <Gold.Chemscore.Rot.Weighted>
5.1533

> <Gold.Chemscore.Internal.Correction.Weighted>
   9.000000E+99

> <Gold.Protein.RotatedTorsions>
[ 6907 6896 6895 6894 ] final   35.70 input  -60.11 | X-H torsion
[ 7974 7965 7964 7962 ] final -100.48 input  175.53 | X-H torsion
[ 8008 7997 7996 7995 ] final  -49.63 input   59.86 | X-H torsion
[ 10167 10162 10161 10158 ] final    7.54 input  -65.29 | X-H torsion
[ 10718 10713 10712 10709 ] final  -44.32 input   66.30 | X-H torsion
[ 10763 10752 10751 10750 ] final  135.68 input  -60.55 | X-H torsion
[ 11005 11000 10999 10996 ] final   94.94 input  -57.11 | X-H torsion

> <Gold.Protein.ActiveResidues>
 VAL166  LYS551  ARG553  GLY616  TRP617  ASP618  TYR619  PRO620  LYS621  CYS622 
 ASP623  PHE694  ASN695  SER759  ASP760  ASP761  ALA762  ILE779  LEU786  VAL792 
 PHE793  MET794  SER795  GLU796  ALA797  LYS798  CYS799  TRP800  GLU811  SER814 

> <Gold.Protein.RotatedAtoms>
  152.1197  134.9215  160.0563 H   0  0  0  0  0  0  0  0  0  0  0  0  # atno 6907 bound_to 6896
  152.0360  133.3952  159.4325 H   0  0  0  0  0  0  0  0  0  0  0  0  # atno 6908 bound_to 6896
  150.6848  134.3388  159.4903 H   0  0  0  0  0  0  0  0  0  0  0  0  # atno 6909 bound_to 6896
  145.2941  140.9360  143.2861 H   0  0  0  0  0  0  0  0  0  0  0  0  # atno 7974 bound_to 7965
  154.4047  140.1292  156.4533 H   0  0  0  0  0  0  0  0  0  0  0  0  # atno 8008 bound_to 7997
  155.7344  140.3491  155.5055 H   0  0  0  0  0  0  0  0  0  0  0  0  # atno 8009 bound_to 7997
  155.9097  140.1033  157.1279 H   0  0  0  0  0  0  0  0  0  0  0  0  # atno 8010 bound_to 7997
  140.6366  143.7872  150.7368 H   0  0  0  0  0  0  0  0  0  0  0  0  # atno 10167 bound_to 10162
  156.2397  130.4179  149.8775 H   0  0  0  0  0  0  0  0  0  0  0  0  # atno 10718 bound_to 10713
  153.8441  135.3087  155.3428 H   0  0  0  0  0  0  0  0  0  0  0  0  # atno 10763 bound_to 10752
  154.7920  135.4777  154.0077 H   0  0  0  0  0  0  0  0  0  0  0  0  # atno 10764 bound_to 10752
  153.1558  135.6852  153.8907 H   0  0  0  0  0  0  0  0  0  0  0  0  # atno 10765 bound_to 10752
  139.8793  134.8872  156.3938 H   0  0  0  0  0  0  0  0  0  0  0  0  # atno 11005 bound_to 11000
  144.9148  139.4483  143.6569 LP  0  0  0  0  0  0  0  0  0  0  0  0  # atno 17320 bound_to 7965
  146.3175  139.7977  142.8972 LP  0  0  0  0  0  0  0  0  0  0  0  0  # atno 17321 bound_to 7965
  140.1495  143.4370  152.2141 LP  0  0  0  0  0  0  0  0  0  0  0  0  # atno 17342 bound_to 10162
  139.5576  144.7384  151.4248 LP  0  0  0  0  0  0  0  0  0  0  0  0  # atno 17343 bound_to 10162
  156.6360  130.8685  151.3505 LP  0  0  0  0  0  0  0  0  0  0  0  0  # atno 17370 bound_to 10713
  157.7170  130.9510  150.1292 LP  0  0  0  0  0  0  0  0  0  0  0  0  # atno 17371 bound_to 10713
  140.9314  133.7576  156.0030 LP  0  0  0  0  0  0  0  0  0  0  0  0  # atno 17394 bound_to 11000
  140.8326  134.3161  157.5343 LP  0  0  0  0  0  0  0  0  0  0  0  0  # atno 17395 bound_to 11000

$$$$
