#       Name:                AV-unprocessed.smi:59
#       Creating user name   scv26
#       Creation time:       Thu Mar 26 16:48:45 2020


#       File generated by GOLD software.
#

@<TRIPOS>MOLECULE
AV-unprocessed.smi:59
    38    39     1
SMALL
NO_CHARGES


@<TRIPOS>ATOM
      1 ****        -0.9185   2.4558  -0.9098 C.3            1 S1                 0.0000
      2 ****        -1.2819   1.3148  -0.0752 N.am           1 S1                 0.0000
      3 ****        -2.2347   1.3283   0.8649 C.2            1 S1                 0.0000
      4 ****        -2.8874   2.3101   1.2192 O.2            1 S1                 0.0000
      5 ****        -2.4649  -0.0634   1.4317 C.3            1 S1                 0.0000
      6 ****        -3.7121  -0.5499   0.9657 O.3            1 S1                 0.0000
      7 ****        -1.2238  -0.8352   0.9233 C.3            1 S1                 0.0000
      8 ****        -1.4573  -2.3325   0.6306 C.2            1 S1                 0.0000
      9 ****        -1.0903  -2.7898  -0.4749 O.co2          1 S1                 0.0000
     10 ****        -1.9717  -3.0105   1.5475 O.co2          1 S1                -1.0000
     11 ****        -0.6797  -0.0023  -0.2657 C.3            1 S1                 0.0000
     12 ****         0.8332  -0.0015  -0.3023 C.2            1 S1                 0.0000
     13 ****         1.7412   0.9082   0.3147 C.2            1 S1                 0.0000
     14 ****         3.0094   0.6074   0.0885 N.2            1 S1                 0.0000
     15 ****         2.9576  -0.5055  -0.6714 N.pl3          1 S1                 0.0000
     16 ****         4.1873  -1.1306  -1.1081 C.3            1 S1                 0.0000
     17 ****         1.6602  -0.8974  -0.9191 C.2            1 S1                 0.0000
     18 ****        -2.4796  -0.0262   2.5215 H              1 S1                 0.0000
     19 ****        -0.4889  -0.7938   1.7297 H              1 S1                 0.0000
     20 ****        -1.0819  -0.3728  -1.2103 H              1 S1                 0.0000
     21 ****        -1.8082   2.9313  -1.3244 H              1 S1                 0.0000
     22 ****        -0.2863   2.1509  -1.7444 H              1 S1                 0.0000
     23 ****        -0.3747   3.1969  -0.3235 H              1 S1                 0.0000
     24 ****        -4.3975  -0.0185   1.3406 H              1 S1                 0.0000
     25 ****         1.5150   1.7746   0.9183 H              1 S1                 0.0000
     26 ****         3.9774  -1.8530  -1.8975 H              1 S1                 0.0000
     27 ****         4.6542  -1.6464  -0.2688 H              1 S1                 0.0000
     28 ****         4.8736  -0.3756  -1.4930 H              1 S1                 0.0000
     29 ****         1.4313  -1.7745  -1.5064 H              1 S1                 0.0000
     30 ****        -2.7241   3.1996   0.7924 LP             1 S1                 0.0000
     31 ****        -3.5809   2.2182   1.9337 LP             1 S1                 0.0000
     32 ****        -3.8302  -1.5020   1.2477 LP             1 S1                 0.0000
     33 ****        -3.7464  -0.4911  -0.0320 LP             1 S1                 0.0000
     34 ****        -1.2009  -3.7633  -0.6749 LP             1 S1                 0.0000
     35 ****        -0.6865  -2.1817  -1.1584 LP             1 S1                 0.0000
     36 ****        -2.1153  -3.9923   1.4231 LP             1 S1                 0.0000
     37 ****        -2.2394  -2.5706   2.4047 LP             1 S1                 0.0000
     38 ****         3.8220   1.0947   0.4083 LP             1 S1                 0.0000
@<TRIPOS>BOND
    1    1    2 1     
    2    1   21 1     
    3    1   22 1     
    4    1   23 1     
    5    2   11 1     
    6    2    3 am    
    7    3    4 2     
    8    3    5 1     
    9    5   18 1     
   10    5    6 1     
   11    5    7 1     
   12    6   24 1     
   13    7   19 1     
   14    7    8 1     
   15    7   11 1     
   16    8    9 ar    
   17    8   10 ar    
   18   11   20 1     
   19   11   12 1     
   20   12   17 2     
   21   12   13 1     
   22   13   14 2     
   23   13   25 1     
   24   14   15 1     
   25   15   16 1     
   26   15   17 1     
   27   16   26 1     
   28   16   27 1     
   29   16   28 1     
   30   17   29 1     
   31    4   30 1     
   32    4   31 1     
   33    6   32 1     
   34    6   33 1     
   35    9   34 1     
   36    9   35 1     
   37   10   36 1     
   38   10   37 1     
   39   14   38 1     
@<TRIPOS>SUBSTRUCTURE
      1 S1             1
@<TRIPOS>SET
LONE_PAIRS      STATIC     ATOMS    <user>   **** ""
9 30 31 32 33 34 35 36 37 38
DONOR_HYDROGENS      STATIC     ATOMS    <user>   **** ""
1 24
ATOM$BLUE        STATIC     ATOMS    COLORGROUP SYSTEM
9 30 31 32 33 34 35 36 37 38
ATOM$RED        STATIC     ATOMS    COLORGROUP SYSTEM
1 24
