AV-unprocessed.smi:3108|AV-procd|sdf|11826|dock4
  -GOLD-   2272017203D 1   1.00000     0.00000
 Structure written by MMmdl.
 37 38  0  0  0  0  0  0  0  0  2 V2000
  153.6214  142.2849  162.5888 C   0  0  0  0  0  0  0  0  0  0  0  0
  152.9445  142.9727  161.4384 C   0  0  0  0  0  0  0  0  0  0  0  0
  152.2082  144.1915  161.4575 C   0  0  0  0  0  0  0  0  0  0  0  0
  151.7375  144.5264  160.2669 N   0  0  0  0  0  0  0  0  0  0  0  0
  152.1573  143.5387  159.4486 N   0  0  0  0  0  0  0  0  0  0  0  0
  151.8168  143.5785  158.0397 C   0  0  0  0  0  0  0  0  0  0  0  0
  150.7144  142.5677  157.6924 C   0  0  0  0  0  0  0  0  0  0  0  0
  150.5661  142.4254  156.2315 N   0  3  0  0  0  0  0  0  0  0  0  0
  149.8450  141.2055  155.8181 C   0  0  0  0  0  0  0  0  0  0  0  0
  150.7315  140.3002  154.9477 C   0  0  0  0  0  0  0  0  0  0  0  0
  150.0871  138.9614  154.5713 C   0  0  0  0  0  0  0  0  0  0  0  0
  151.2557  138.0374  154.2074 C   0  0  0  0  0  0  0  0  0  0  0  0
  152.5078  138.6479  154.8553 C   0  0  0  0  0  0  0  0  0  0  0  0
  152.0278  139.8728  155.6395 C   0  0  0  0  0  0  0  0  0  0  0  0
  152.8851  142.5861  160.1294 C   0  0  0  0  0  0  0  0  0  0  0  0
  153.3314  142.7168  163.5470 H   0  0  0  0  0  0  0  0  0  0  0  0
  154.7067  142.3590  162.5183 H   0  0  0  0  0  0  0  0  0  0  0  0
  153.3723  141.2243  162.6271 H   0  0  0  0  0  0  0  0  0  0  0  0
  152.0029  144.8389  162.2974 H   0  0  0  0  0  0  0  0  0  0  0  0
  151.4965  144.5909  157.7896 H   0  0  0  0  0  0  0  0  0  0  0  0
  152.7189  143.3783  157.4595 H   0  0  0  0  0  0  0  0  0  0  0  0
  150.9472  141.5931  158.1244 H   0  0  0  0  0  0  0  0  0  0  0  0
  149.7641  142.8917  158.1189 H   0  0  0  0  0  0  0  0  0  0  0  0
  150.0641  143.2285  155.8802 H   0  0  0  0  0  0  0  0  0  0  0  0
  149.5346  140.6643  156.7128 H   0  0  0  0  0  0  0  0  0  0  0  0
  148.9364  141.4799  155.2800 H   0  0  0  0  0  0  0  0  0  0  0  0
  150.9986  140.8294  154.0310 H   0  0  0  0  0  0  0  0  0  0  0  0
  149.5569  138.5492  155.4311 H   0  0  0  0  0  0  0  0  0  0  0  0
  149.3674  139.0572  153.7576 H   0  0  0  0  0  0  0  0  0  0  0  0
  151.0748  137.0195  154.5548 H   0  0  0  0  0  0  0  0  0  0  0  0
  151.3830  137.9935  153.1250 H   0  0  0  0  0  0  0  0  0  0  0  0
  153.0257  137.9369  155.4999 H   0  0  0  0  0  0  0  0  0  0  0  0
  153.2099  138.9546  154.0789 H   0  0  0  0  0  0  0  0  0  0  0  0
  152.7726  140.6692  155.6632 H   0  0  0  0  0  0  0  0  0  0  0  0
  151.8214  139.5843  156.6713 H   0  0  0  0  0  0  0  0  0  0  0  0
  153.2981  141.7205  159.6323 H   0  0  0  0  0  0  0  0  0  0  0  0
  151.4858  142.4107  155.8141 H   0  0  0  0  0  0  0  0  0  0  0  0
  1  2  1  0  0  0  0
  1 16  1  0  0  0  0
  1 17  1  0  0  0  0
  1 18  1  0  0  0  0
  2 15  2  0  0  0  0
  2  3  1  0  0  0  0
  3  4  2  0  0  0  0
  3 19  1  0  0  0  0
  4  5  1  0  0  0  0
  5  6  1  0  0  0  0
  5 15  1  0  0  0  0
  6  7  1  0  0  0  0
  6 20  1  0  0  0  0
  6 21  1  0  0  0  0
  7  8  1  0  0  0  0
  7 22  1  0  0  0  0
  7 23  1  0  0  0  0
  8  9  1  0  0  0  0
  8 24  1  0  0  0  0
  8 37  1  0  0  0  0
  9 10  1  0  0  0  0
  9 25  1  0  0  0  0
  9 26  1  0  0  0  0
 10 14  1  0  0  0  0
 10 11  1  0  0  0  0
 10 27  1  0  0  0  0
 11 12  1  0  0  0  0
 11 28  1  0  0  0  0
 11 29  1  0  0  0  0
 12 13  1  0  0  0  0
 12 30  1  0  0  0  0
 12 31  1  0  0  0  0
 13 14  1  0  0  0  0
 13 32  1  0  0  0  0
 13 33  1  0  0  0  0
 14 34  1  0  0  0  0
 14 35  1  0  0  0  0
 15 36  1  0  0  0  0
M  CHG  1   8   1
M  END
> <s_m_source_file>
AV-unprocessed.smi

> <i_m_source_file_index>
3108

> <i_lp_mmshare_version>
43012

> <i_f3d_flags>
0

> <s_epik_input>
W0NIM11jMVtjSF1ubihbY0hdMSlbQ0gyXVtDSDJdW05IXVtDSDJdW0NIXTJbQ0gyXVtDSDJdW0NIMl1bQ0gyXTI=

> <s_epik_cmdline>
J2VwaWtfcHl0aG9uJywgJy1waCcsICc3LjAnLCAnLXRuJywgJzgnLCAnLW1hJywgJzIwMCcsICctbWV0YWxfYmluZGluZycsICctaW1hZScsICc8aW5maWxlLm1hZT4nLCAnLW9tYWUnLCAnPG91dGZpbGUubWFlPic=

> <r_lp_tautomer_probability>
1

> <r_epik_Ionization_Penalty>
0.00170215

> <r_epik_Ionization_Penalty_Charging>
0.00169627

> <r_epik_Ionization_Penalty_Neutral>
5.87243e-06

> <r_epik_State_Penalty>
-0

> <r_epik_Charging_Adjusted_Penalty>
0.00169627

> <i_epik_Tot_Q>
1

> <i_epik_Tot_abs_Q>
1

> <r_epik_Metal_State_Penalty>
-0

> <b_epik_Metal_Only>
0

> <s_lp_Force_Field>
OPLS_2005

> <r_lp_Energy>
23.864

> <b_lp_Chiralities_Consistent>
1

> <s_lp_Variant>
AV-unprocessed.smi:3108-1

> <Gold.Version>
5.8.1

> <Gold.Id.Protein>
6NUR|6NUR_protein|mol2

> <Gold.PLP.Fitness>
47.7938

> <Gold.PLP.PLP>
-43.1079

> <Gold.PLP.part.hbond>
-1.0000

> <Gold.PLP.part.metal>
0.0000

> <Gold.PLP.part.buried>
-2.0024

> <Gold.PLP.part.nonpolar>
-39.5920

> <Gold.PLP.part.repulsive>
0.1913

> <Gold.PLP.ligand.clash>
0.0000

> <Gold.PLP.ligand.torsion>
0.6706

> <Gold.PLP.Chemscore.Hbond>
2.0000

> <Gold.PLP.Chemscore.CHOScore>
0.0000

> <Gold.PLP.Chemscore.Metal>
0.0000

> <Gold.Chemscore.Hbonds>
donor molecule, donor type, donor heavy atom, donor atom, acceptor molecule, acceptor atom, score
      L1  H     8    24       P1  8028  2.00

> <Gold.PLP.Chemscore.Internal.Correction>
0.0271

> <Gold.Rescore>
     Score         DG    S(hbond)    S(metal)    S(lipo)     H(rot)  DE(clash)    DE(int)     intcor
     16.98     -18.06       1.00        0.00     112.30       1.52       0.63       0.46       ----

> <Gold.Chemscore.Fitness>
16.9800

> <Gold.Chemscore.DG>
-18.0617

> <Gold.Chemscore.ZeroCoef>
-5.4800

> <Gold.Chemscore.Hbond>
0.9998

> <Gold.Chemscore.Metal>
0.0000

> <Gold.Chemscore.Lipo>
112.3001

> <Gold.Chemscore.Internal_Hbond>
0.0000

> <Gold.Chemscore.DEClash>
0.6264

> <Gold.Chemscore.DEInternal>
0.4554

> <Gold.Chemscore.Rot>
1.5222

> <Gold.Chemscore.Internal.Correction>
   9.000000E+99

> <Gold.Chemscore.Hbonds>
donor molecule, donor type, donor heavy atom, donor atom, acceptor molecule, acceptor atom, score
      L1  H     8    24       P1  8028  1.00

> <Gold.Chemscore.Hbond.Weighted>
-3.3395

> <Gold.Chemscore.Metal.Weighted>
-0.0000

> <Gold.Chemscore.Lipo.Weighted>
-13.1391

> <Gold.Chemscore.Internal_Hbond.Weighted>
0.0000

> <Gold.Chemscore.DEClash.Weighted>
0.6264

> <Gold.Chemscore.DEInternal.Weighted>
0.4554

> <Gold.Chemscore.Rot.Weighted>
3.8969

> <Gold.Chemscore.Internal.Correction.Weighted>
   9.000000E+99

> <Gold.Protein.RotatedTorsions>
[ 6907 6896 6895 6894 ] final -178.22 input  -60.11 | X-H torsion
[ 7974 7965 7964 7962 ] final   41.62 input  175.53 | X-H torsion
[ 8008 7997 7996 7995 ] final -141.25 input   59.86 | X-H torsion
[ 10167 10162 10161 10158 ] final  -97.80 input  -65.29 | X-H torsion
[ 10718 10713 10712 10709 ] final   16.39 input   66.30 | X-H torsion
[ 10763 10752 10751 10750 ] final -173.70 input  -60.55 | X-H torsion
[ 11005 11000 10999 10996 ] final  -91.86 input  -57.11 | X-H torsion

> <Gold.Protein.ActiveResidues>
 VAL166  LYS551  ARG553  GLY616  TRP617  ASP618  TYR619  PRO620  LYS621  CYS622 
 ASP623  PHE694  ASN695  SER759  ASP760  ASP761  ALA762  ILE779  LEU786  VAL792 
 PHE793  MET794  SER795  GLU796  ALA797  LYS798  CYS799  TRP800  GLU811  SER814 

> <Gold.Protein.RotatedAtoms>
  151.6337  133.3330  159.3114 H   0  0  0  0  0  0  0  0  0  0  0  0  # atno 6907 bound_to 6896
  150.8043  134.7162  159.6641 H   0  0  0  0  0  0  0  0  0  0  0  0  # atno 6908 bound_to 6896
  152.4138  134.6082  160.0070 H   0  0  0  0  0  0  0  0  0  0  0  0  # atno 6909 bound_to 6896
  146.0808  139.5395  142.9538 H   0  0  0  0  0  0  0  0  0  0  0  0  # atno 7974 bound_to 7965
  155.4747  140.0555  157.2975 H   0  0  0  0  0  0  0  0  0  0  0  0  # atno 8008 bound_to 7997
  154.4684  140.2029  156.0011 H   0  0  0  0  0  0  0  0  0  0  0  0  # atno 8009 bound_to 7997
  156.1014  140.3218  155.7952 H   0  0  0  0  0  0  0  0  0  0  0  0  # atno 8010 bound_to 7997
  140.2797  143.3290  152.0454 H   0  0  0  0  0  0  0  0  0  0  0  0  # atno 10167 bound_to 10162
  157.0672  130.6333  149.5798 H   0  0  0  0  0  0  0  0  0  0  0  0  # atno 10718 bound_to 10713
  154.6048  135.2858  155.0497 H   0  0  0  0  0  0  0  0  0  0  0  0  # atno 10763 bound_to 10752
  154.1748  135.6466  153.5022 H   0  0  0  0  0  0  0  0  0  0  0  0  # atno 10764 bound_to 10752
  153.0171  135.5409  154.6780 H   0  0  0  0  0  0  0  0  0  0  0  0  # atno 10765 bound_to 10752
  141.1535  133.7783  156.9939 H   0  0  0  0  0  0  0  0  0  0  0  0  # atno 11005 bound_to 11000
  145.6221  141.0320  143.1909 LP  0  0  0  0  0  0  0  0  0  0  0  0  # atno 17320 bound_to 7965
  144.7292  139.7778  143.7353 LP  0  0  0  0  0  0  0  0  0  0  0  0  # atno 17321 bound_to 7965
  139.4966  144.6600  151.6485 LP  0  0  0  0  0  0  0  0  0  0  0  0  # atno 17342 bound_to 10162
  140.5822  143.9926  150.6275 LP  0  0  0  0  0  0  0  0  0  0  0  0  # atno 17343 bound_to 10162
  155.9961  130.5029  150.7484 LP  0  0  0  0  0  0  0  0  0  0  0  0  # atno 17370 bound_to 10713
  157.4907  131.0910  151.0430 LP  0  0  0  0  0  0  0  0  0  0  0  0  # atno 17371 bound_to 10713
  140.0984  134.9550  157.1886 LP  0  0  0  0  0  0  0  0  0  0  0  0  # atno 17394 bound_to 11000
  140.3351  134.2766  155.7221 LP  0  0  0  0  0  0  0  0  0  0  0  0  # atno 17395 bound_to 11000

$$$$
