AV-unprocessed.smi:3280|AV-procd|sdf|12555|dock1
  -GOLD-   2272018473D 1   1.00000     0.00000
 Structure written by MMmdl.
 38 39  0  0  0  0  0  0  0  0  1 V2000
  153.6309  135.9785  164.1458 C   0  0  0  0  0  0  0  0  0  0  0  0
  154.7459  137.0332  164.0955 C   0  0  0  0  0  0  0  0  0  0  0  0
  154.7952  137.9135  165.3531 C   0  0  0  0  0  0  0  0  0  0  0  0
  154.6763  137.8549  162.8446 C   0  0  0  0  0  0  0  0  0  0  0  0
  155.6040  138.7636  162.5662 N   0  0  0  0  0  0  0  0  0  0  0  0
  155.1884  139.2862  161.3334 O   0  0  0  0  0  0  0  0  0  0  0  0
  154.0415  138.6356  161.0240 C   0  0  0  0  0  0  0  0  0  0  0  0
  153.3666  138.9415  159.7288 C   0  0  0  0  0  0  0  0  0  0  0  0
  152.8185  140.3734  159.6823 C   0  0  0  0  0  0  0  0  0  0  0  0
  153.9064  141.3191  159.8914 N   0  0  0  0  0  0  0  0  0  0  0  0
  153.4206  142.6821  160.0763 C   0  0  1  0  0  0  0  0  0  0  0  0
  152.7604  143.1225  158.7548 C   0  0  0  0  0  0  0  0  0  0  0  0
  152.2634  144.5764  158.7981 C   0  0  0  0  0  0  0  0  0  0  0  0
  151.1946  144.7959  159.8774 C   0  0  0  0  0  0  0  0  0  0  0  0
  151.8549  144.4558  161.5311 S   0  0  0  0  0  0  0  0  0  0  0  0
  152.4260  142.7564  161.2546 C   0  0  0  0  0  0  0  0  0  0  0  0
  153.6850  137.7181  161.9192 N   0  0  0  0  0  0  0  0  0  0  0  0
  153.6713  135.3234  163.2749 H   0  0  0  0  0  0  0  0  0  0  0  0
  152.6448  136.4434  164.1681 H   0  0  0  0  0  0  0  0  0  0  0  0
  153.7229  135.3527  165.0338 H   0  0  0  0  0  0  0  0  0  0  0  0
  155.6881  136.4830  164.0699 H   0  0  0  0  0  0  0  0  0  0  0  0
  155.6408  138.6009  165.3177 H   0  0  0  0  0  0  0  0  0  0  0  0
  154.9007  137.3069  166.2529 H   0  0  0  0  0  0  0  0  0  0  0  0
  153.8866  138.5072  165.4580 H   0  0  0  0  0  0  0  0  0  0  0  0
  154.0798  138.7822  158.9188 H   0  0  0  0  0  0  0  0  0  0  0  0
  152.5589  138.2228  159.5824 H   0  0  0  0  0  0  0  0  0  0  0  0
  152.3382  140.5499  158.7205 H   0  0  0  0  0  0  0  0  0  0  0  0
  152.0616  140.5050  160.4567 H   0  0  0  0  0  0  0  0  0  0  0  0
  154.4218  141.0411  160.7145 H   0  0  0  0  0  0  0  0  0  0  0  0
  154.2712  143.3377  160.2692 H   0  0  0  0  0  0  0  0  0  0  0  0
  153.4753  143.0225  157.9367 H   0  0  0  0  0  0  0  0  0  0  0  0
  151.9266  142.4612  158.5136 H   0  0  0  0  0  0  0  0  0  0  0  0
  153.1038  145.2505  158.9682 H   0  0  0  0  0  0  0  0  0  0  0  0
  151.8501  144.8437  157.8251 H   0  0  0  0  0  0  0  0  0  0  0  0
  150.8352  145.8247  159.8499 H   0  0  0  0  0  0  0  0  0  0  0  0
  150.3336  144.1512  159.6979 H   0  0  0  0  0  0  0  0  0  0  0  0
  151.5602  142.1197  161.0675 H   0  0  0  0  0  0  0  0  0  0  0  0
  152.8792  142.4118  162.1834 H   0  0  0  0  0  0  0  0  0  0  0  0
  1  2  1  0  0  0  0
  1 18  1  0  0  0  0
  1 19  1  0  0  0  0
  1 20  1  0  0  0  0
  2  3  1  0  0  0  0
  2  4  1  0  0  0  0
  2 21  1  0  0  0  0
  3 22  1  0  0  0  0
  3 23  1  0  0  0  0
  3 24  1  0  0  0  0
  4 17  1  0  0  0  0
  4  5  2  0  0  0  0
  5  6  1  0  0  0  0
  6  7  1  0  0  0  0
  7  8  1  0  0  0  0
  7 17  2  0  0  0  0
  8  9  1  0  0  0  0
  8 25  1  0  0  0  0
  8 26  1  0  0  0  0
  9 10  1  0  0  0  0
  9 27  1  0  0  0  0
  9 28  1  0  0  0  0
 10 11  1  0  0  0  0
 10 29  1  0  0  0  0
 11 16  1  0  0  0  0
 11 12  1  0  0  0  0
 11 30  1  0  0  0  0
 12 13  1  0  0  0  0
 12 31  1  0  0  0  0
 12 32  1  0  0  0  0
 13 14  1  0  0  0  0
 13 33  1  0  0  0  0
 13 34  1  0  0  0  0
 14 15  1  0  0  0  0
 14 35  1  0  0  0  0
 14 36  1  0  0  0  0
 15 16  1  0  0  0  0
 16 37  1  0  0  0  0
 16 38  1  0  0  0  0
M  END
> <s_m_source_file>
AV-unprocessed.smi

> <i_m_source_file_index>
3280

> <i_lp_mmshare_version>
43012

> <i_f3d_flags>
0

> <s_epik_input>
W0NIM11bQ0hdKFtDSDNdKWMxbm9jKG4xKVtDSDJdW0NIMl1bTkhdW0NAQEhdMltDSDJdW0NIMl1bQ0gyXVNbQ0gyXTI=

> <s_epik_cmdline>
J2VwaWtfcHl0aG9uJywgJy1waCcsICc3LjAnLCAnLXRuJywgJzgnLCAnLW1hJywgJzIwMCcsICctbWV0YWxfYmluZGluZycsICctaW1hZScsICc8aW5maWxlLm1hZT4nLCAnLW9tYWUnLCAnPG91dGZpbGUubWFlPic=

> <r_lp_tautomer_probability>
1

> <r_epik_Ionization_Penalty>
2.40576

> <r_epik_Ionization_Penalty_Charging>
0

> <r_epik_Ionization_Penalty_Neutral>
2.40576

> <r_epik_State_Penalty>
2.56401

> <r_epik_Charging_Adjusted_Penalty>
2.56401

> <i_epik_Tot_Q>
0

> <i_epik_Tot_abs_Q>
0

> <r_epik_Metal_State_Penalty>
2.56401

> <b_epik_Metal_Only>
0

> <s_lp_Force_Field>
OPLS_2005

> <r_lp_Energy>
1.02241

> <b_lp_Chiralities_Consistent>
1

> <s_lp_Variant>
AV-unprocessed.smi:3280-4

> <Gold.Version>
5.8.1

> <Gold.Id.Protein>
6NUR|6NUR_protein|mol2

> <Gold.PLP.Fitness>
39.5169

> <Gold.PLP.PLP>
-39.5703

> <Gold.PLP.part.hbond>
0.0000

> <Gold.PLP.part.metal>
0.0000

> <Gold.PLP.part.buried>
-4.1949

> <Gold.PLP.part.nonpolar>
-36.0132

> <Gold.PLP.part.repulsive>
0.0000

> <Gold.PLP.ligand.clash>
0.0000

> <Gold.PLP.ligand.torsion>
0.0878

> <Gold.PLP.Chemscore.Hbond>
0.0000

> <Gold.PLP.Chemscore.CHOScore>
0.0000

> <Gold.PLP.Chemscore.Metal>
0.0000

> <Gold.PLP.Chemscore.Internal.Correction>
0.1222

> <Gold.Rescore>
     Score         DG    S(hbond)    S(metal)    S(lipo)     H(rot)  DE(clash)    DE(int)     intcor
     14.19     -14.34       0.00        0.00     112.53       1.68       0.03       0.11       ----

> <Gold.Chemscore.Fitness>
14.1947

> <Gold.Chemscore.DG>
-14.3372

> <Gold.Chemscore.ZeroCoef>
-5.4800

> <Gold.Chemscore.Hbond>
0.0000

> <Gold.Chemscore.Metal>
0.0000

> <Gold.Chemscore.Lipo>
112.5330

> <Gold.Chemscore.Internal_Hbond>
0.0000

> <Gold.Chemscore.DEClash>
0.0318

> <Gold.Chemscore.DEInternal>
0.1106

> <Gold.Chemscore.Rot>
1.6833

> <Gold.Chemscore.Internal.Correction>
   9.000000E+99

> <Gold.Chemscore.Hbond.Weighted>
-0.0000

> <Gold.Chemscore.Metal.Weighted>
-0.0000

> <Gold.Chemscore.Lipo.Weighted>
-13.1664

> <Gold.Chemscore.Internal_Hbond.Weighted>
0.0000

> <Gold.Chemscore.DEClash.Weighted>
0.0318

> <Gold.Chemscore.DEInternal.Weighted>
0.1106

> <Gold.Chemscore.Rot.Weighted>
4.3092

> <Gold.Chemscore.Internal.Correction.Weighted>
   9.000000E+99

> <Gold.Protein.RotatedTorsions>
[ 6907 6896 6895 6894 ] final  -81.22 input  -60.11 | X-H torsion
[ 7974 7965 7964 7962 ] final  124.41 input  175.53 | X-H torsion
[ 8008 7997 7996 7995 ] final  -99.41 input   59.86 | X-H torsion
[ 10167 10162 10161 10158 ] final -143.38 input  -65.29 | X-H torsion
[ 10718 10713 10712 10709 ] final   69.21 input   66.30 | X-H torsion
[ 10763 10752 10751 10750 ] final  177.25 input  -60.55 | X-H torsion
[ 11005 11000 10999 10996 ] final   93.29 input  -57.11 | X-H torsion

> <Gold.Protein.ActiveResidues>
 VAL166  LYS551  ARG553  GLY616  TRP617  ASP618  TYR619  PRO620  LYS621  CYS622 
 ASP623  PHE694  ASN695  SER759  ASP760  ASP761  ALA762  ILE779  LEU786  VAL792 
 PHE793  MET794  SER795  GLU796  ALA797  LYS798  CYS799  TRP800  GLU811  SER814 

> <Gold.Protein.RotatedAtoms>
  150.6915  134.3850  159.5050 H   0  0  0  0  0  0  0  0  0  0  0  0  # atno 6907 bound_to 6896
  152.1647  134.8881  160.0548 H   0  0  0  0  0  0  0  0  0  0  0  0  # atno 6908 bound_to 6896
  151.9930  133.3763  159.4188 H   0  0  0  0  0  0  0  0  0  0  0  0  # atno 6909 bound_to 6896
  145.0847  139.3631  143.4891 H   0  0  0  0  0  0  0  0  0  0  0  0  # atno 7974 bound_to 7965
  154.8145  140.0448  157.1366 H   0  0  0  0  0  0  0  0  0  0  0  0  # atno 8008 bound_to 7997
  154.9330  140.3042  155.5138 H   0  0  0  0  0  0  0  0  0  0  0  0  # atno 8009 bound_to 7997
  156.2975  140.2319  156.4392 H   0  0  0  0  0  0  0  0  0  0  0  0  # atno 8010 bound_to 7997
  139.7999  143.7848  152.2657 H   0  0  0  0  0  0  0  0  0  0  0  0  # atno 10167 bound_to 10162
  157.6333  130.9414  150.0483 H   0  0  0  0  0  0  0  0  0  0  0  0  # atno 10718 bound_to 10713
  154.4919  135.2779  155.1490 H   0  0  0  0  0  0  0  0  0  0  0  0  # atno 10763 bound_to 10752
  154.3158  135.6220  153.5489 H   0  0  0  0  0  0  0  0  0  0  0  0  # atno 10764 bound_to 10752
  152.9889  135.5730  154.5342 H   0  0  0  0  0  0  0  0  0  0  0  0  # atno 10765 bound_to 10752
  139.8812  134.8782  156.3697 H   0  0  0  0  0  0  0  0  0  0  0  0  # atno 11005 bound_to 11000
  146.3531  140.0654  142.8626 LP  0  0  0  0  0  0  0  0  0  0  0  0  # atno 17320 bound_to 7965
  145.1136  140.9420  143.4642 LP  0  0  0  0  0  0  0  0  0  0  0  0  # atno 17321 bound_to 7965
  139.7965  144.7390  150.9883 LP  0  0  0  0  0  0  0  0  0  0  0  0  # atno 17342 bound_to 10162
  140.7820  143.4389  151.0582 LP  0  0  0  0  0  0  0  0  0  0  0  0  # atno 17343 bound_to 10162
  156.1553  130.3643  149.9378 LP  0  0  0  0  0  0  0  0  0  0  0  0  # atno 17370 bound_to 10713
  156.7389  130.9072  151.3631 LP  0  0  0  0  0  0  0  0  0  0  0  0  # atno 17371 bound_to 10713
  140.9473  133.7474  156.0225 LP  0  0  0  0  0  0  0  0  0  0  0  0  # atno 17394 bound_to 11000
  140.8148  134.3357  157.5400 LP  0  0  0  0  0  0  0  0  0  0  0  0  # atno 17395 bound_to 11000

$$$$
