#       Name:                AV-unprocessed.smi:117
#       Creating user name   scv26
#       Creation time:       Thu Mar 26 18:25:41 2020


#       File generated by GOLD software.
#

@<TRIPOS>MOLECULE
AV-unprocessed.smi:117
    63    65     1
SMALL
NO_CHARGES


@<TRIPOS>ATOM
      1 ****        -4.9087  -6.3792  -0.7993 C.3            1 S1                 0.0000
      2 ****        -4.5451  -5.0157  -1.3632 C.ar           1 S1                 0.0000
      3 ****        -5.5784  -4.2069  -1.8785 C.ar           1 S1                 0.0000
      4 ****        -5.2887  -2.9498  -2.4330 C.ar           1 S1                 0.0000
      5 ****        -3.9621  -2.4892  -2.4743 C.ar           1 S1                 0.0000
      6 ****        -2.9110  -3.2752  -1.9431 C.ar           1 S1                 0.0000
      7 ****        -1.5507  -2.8535  -1.9994 N.am           1 S1                 0.0000
      8 ****        -1.0483  -1.6053  -2.0401 C.2            1 S1                 0.0000
      9 ****        -1.7265  -0.5772  -2.0294 O.2            1 S1                 0.0000
     10 ****         0.4844  -1.5302  -2.0868 C.3            1 S1                 0.0000
     11 ****         1.0101  -0.1665  -2.0879 N.am           1 S1                 0.0000
     12 ****         1.1903   0.5989  -1.0001 C.2            1 S1                 0.0000
     13 ****         0.9349   0.2163   0.1424 O.2            1 S1                 0.0000
     14 ****         1.7615   2.0019  -1.2553 C.3            1 S1                 0.0000
     15 ****         1.4488   2.9683  -0.1797 N.am           1 S1                 0.0000
     16 ****         0.2167   3.6656  -0.2395 C.2            1 S1                 0.0000
     17 ****        -0.5740   3.4867  -1.1671 O.2            1 S1                 0.0000
     18 ****        -0.0411   4.5844   0.8633 C.2            1 S1                 0.0000
     19 ****        -1.1896   5.2814   0.8955 F              1 S1                 0.0000
     20 ****         0.8566   4.7453   1.8568 C.2            1 S1                 0.0000
     21 ****         2.0628   4.0741   1.8943 N.am           1 S1                 0.0000
     22 ****         2.9831   4.2771   3.0757 C.3            1 S1                 0.0000
     23 ****         4.3936   4.7578   2.6851 C.3            1 S1                 0.0000
     24 ****         5.2927   3.6736   3.2563 C.3            1 S1                 0.0000
     25 ****         4.4143   3.0319   4.3247 C.3            1 S1                 0.0000
     26 ****         3.1190   3.0625   3.7466 O.3            1 S1                 0.0000
     27 ****         2.3725   3.1384   0.8799 C.2            1 S1                 0.0000
     28 ****         3.4143   2.4818   0.9187 O.2            1 S1                 0.0000
     29 ****        -3.2029  -4.5506  -1.3881 C.ar           1 S1                 0.0000
     30 ****        -2.0706  -5.4125  -0.8338 C.3            1 S1                 0.0000
     31 ****        -5.9602  -6.6131  -0.9688 H              1 S1                 0.0000
     32 ****        -4.7315  -6.4074   0.2760 H              1 S1                 0.0000
     33 ****        -4.3164  -7.1620  -1.2740 H              1 S1                 0.0000
     34 ****        -6.6019  -4.5522  -1.8607 H              1 S1                 0.0000
     35 ****        -6.0838  -2.3416  -2.8385 H              1 S1                 0.0000
     36 ****        -3.7739  -1.5327  -2.9364 H              1 S1                 0.0000
     37 ****        -0.8696  -3.5948  -1.9228 H              1 S1                 0.0000
     38 ****         0.9017  -2.0928  -1.2498 H              1 S1                 0.0000
     39 ****         0.8283  -2.0238  -2.9960 H              1 S1                 0.0000
     40 ****         1.2418   0.2292  -2.9871 H              1 S1                 0.0000
     41 ****         2.8378   1.9067  -1.4048 H              1 S1                 0.0000
     42 ****         1.3944   2.3685  -2.2155 H              1 S1                 0.0000
     43 ****         0.6144   5.4342   2.6528 H              1 S1                 0.0000
     44 ****         2.4811   4.9924   3.7291 H              1 S1                 0.0000
     45 ****         4.5104   4.8859   1.6086 H              1 S1                 0.0000
     46 ****         4.5797   5.7170   3.1694 H              1 S1                 0.0000
     47 ****         5.5353   2.9414   2.4859 H              1 S1                 0.0000
     48 ****         6.2288   4.0638   3.6558 H              1 S1                 0.0000
     49 ****         4.7219   2.0150   4.5687 H              1 S1                 0.0000
     50 ****         4.4189   3.6248   5.2408 H              1 S1                 0.0000
     51 ****        -1.3503  -4.8090  -0.2809 H              1 S1                 0.0000
     52 ****        -1.5453  -5.9071  -1.6511 H              1 S1                 0.0000
     53 ****        -2.4177  -6.1787  -0.1429 H              1 S1                 0.0000
     54 ****        -2.7239  -0.6365  -1.9880 LP             1 S1                 0.0000
     55 ****        -1.2798   0.3169  -2.0620 LP             1 S1                 0.0000
     56 ****         0.5750  -0.7045   0.2926 LP             1 S1                 0.0000
     57 ****         1.0873   0.8265   0.9199 LP             1 S1                 0.0000
     58 ****        -0.3513   2.8395  -1.8961 LP             1 S1                 0.0000
     59 ****        -1.4386   3.9887  -1.1910 LP             1 S1                 0.0000
     60 ****         3.0153   2.3044   3.1029 LP             1 S1                 0.0000
     61 ****         2.4246   2.9893   4.4625 LP             1 S1                 0.0000
     62 ****         3.6152   1.8198   0.1967 LP             1 S1                 0.0000
     63 ****         4.0589   2.6109   1.6723 LP             1 S1                 0.0000
@<TRIPOS>BOND
    1    1    2 1     
    2    1   31 1     
    3    1   32 1     
    4    1   33 1     
    5    2   29 ar    
    6    2    3 ar    
    7    3    4 ar    
    8    3   34 1     
    9    4    5 ar    
   10    4   35 1     
   11    5    6 ar    
   12    5   36 1     
   13    6    7 1     
   14    6   29 ar    
   15    7    8 am    
   16    7   37 1     
   17    8    9 2     
   18    8   10 1     
   19   10   11 1     
   20   10   38 1     
   21   10   39 1     
   22   11   12 am    
   23   11   40 1     
   24   12   13 2     
   25   12   14 1     
   26   14   15 1     
   27   14   41 1     
   28   14   42 1     
   29   15   27 am    
   30   15   16 am    
   31   16   17 2     
   32   16   18 1     
   33   18   19 1     
   34   18   20 2     
   35   20   21 1     
   36   20   43 1     
   37   21   22 1     
   38   21   27 am    
   39   22   26 1     
   40   22   23 1     
   41   22   44 1     
   42   23   24 1     
   43   23   45 1     
   44   23   46 1     
   45   24   25 1     
   46   24   47 1     
   47   24   48 1     
   48   25   26 1     
   49   25   49 1     
   50   25   50 1     
   51   27   28 2     
   52   29   30 1     
   53   30   51 1     
   54   30   52 1     
   55   30   53 1     
   56    9   54 1     
   57    9   55 1     
   58   13   56 1     
   59   13   57 1     
   60   17   58 1     
   61   17   59 1     
   62   26   60 1     
   63   26   61 1     
   64   28   62 1     
   65   28   63 1     
@<TRIPOS>SUBSTRUCTURE
      1 S1             1
@<TRIPOS>SET
LONE_PAIRS      STATIC     ATOMS    <user>   **** ""
10 54 55 56 57 58 59 60 61 62 63
DONOR_HYDROGENS      STATIC     ATOMS    <user>   **** ""
2 37 40
ATOM$BLUE        STATIC     ATOMS    COLORGROUP SYSTEM
10 54 55 56 57 58 59 60 61 62 63
ATOM$RED        STATIC     ATOMS    COLORGROUP SYSTEM
2 37 40
