AV-unprocessed.smi:3303|AV-procd|sdf|12683|dock3
  -GOLD-   2272019 23D 1   1.00000     0.00000
 Structure written by MMmdl.
 44 45  0  0  0  0  0  0  0  0  2 V2000
  153.1351  138.4198  155.3671 C   0  0  0  0  0  0  0  0  0  0  0  0
  151.5976  138.4669  155.4120 C   0  0  2  0  0  0  0  0  0  0  0  0
  151.0135  137.5601  154.3043 C   0  0  0  0  0  0  0  0  0  0  0  0
  149.5290  137.5899  154.2635 N   0  3  1  0  0  0  0  0  0  0  0  0
  148.9050  136.8307  155.3768 C   0  0  0  0  0  0  0  0  0  0  0  0
  149.0179  138.9763  154.0649 C   0  0  1  0  0  0  0  0  0  0  0  0
  147.4903  139.0332  153.8912 C   0  0  0  0  0  0  0  0  0  0  0  0
  149.5199  139.9196  155.1753 C   0  0  0  0  0  0  0  0  0  0  0  0
  151.0574  139.9104  155.2739 C   0  0  1  0  0  0  0  0  0  0  0  0
  151.4280  140.6852  156.4522 N   0  0  0  0  0  0  0  0  0  0  0  0
  150.8490  140.1216  157.6619 C   0  0  0  0  0  0  0  0  0  0  0  0
  151.6502  140.5926  158.8833 C   0  0  0  0  0  0  0  0  0  0  0  0
  151.8642  142.0944  158.8848 C   0  0  0  0  0  0  0  0  0  0  0  0
  152.5737  142.7203  159.9319 C   0  0  0  0  0  0  0  0  0  0  0  0
  152.7438  144.1175  159.8857 C   0  0  0  0  0  0  0  0  0  0  0  0
  152.1991  144.8318  158.8014 C   0  0  0  0  0  0  0  0  0  0  0  0
  151.5062  144.1137  157.8064 C   0  0  0  0  0  0  0  0  0  0  0  0
  151.3382  142.7739  157.8406 N   0  0  0  0  0  0  0  0  0  0  0  0
  153.5169  138.8296  154.4314 H   0  0  0  0  0  0  0  0  0  0  0  0
  153.4988  137.3956  155.4542 H   0  0  0  0  0  0  0  0  0  0  0  0
  153.5784  138.9897  156.1841 H   0  0  0  0  0  0  0  0  0  0  0  0
  151.2852  138.0682  156.3783 H   0  0  0  0  0  0  0  0  0  0  0  0
  151.3874  137.8842  153.3319 H   0  0  0  0  0  0  0  0  0  0  0  0
  151.3561  136.5324  154.4313 H   0  0  0  0  0  0  0  0  0  0  0  0
  149.0417  137.3248  156.3386 H   0  0  0  0  0  0  0  0  0  0  0  0
  149.3419  135.8344  155.4492 H   0  0  0  0  0  0  0  0  0  0  0  0
  147.8365  136.6932  155.2131 H   0  0  0  0  0  0  0  0  0  0  0  0
  149.4458  139.3245  153.1232 H   0  0  0  0  0  0  0  0  0  0  0  0
  147.1743  140.0331  153.5926 H   0  0  0  0  0  0  0  0  0  0  0  0
  146.9637  138.7935  154.8151 H   0  0  0  0  0  0  0  0  0  0  0  0
  147.1541  138.3399  153.1195 H   0  0  0  0  0  0  0  0  0  0  0  0
  149.1753  140.9352  154.9745 H   0  0  0  0  0  0  0  0  0  0  0  0
  149.0768  139.6355  156.1309 H   0  0  0  0  0  0  0  0  0  0  0  0
  151.4690  140.3557  154.3661 H   0  0  0  0  0  0  0  0  0  0  0  0
  152.4335  140.7210  156.5410 H   0  0  0  0  0  0  0  0  0  0  0  0
  149.8090  140.4383  157.7521 H   0  0  0  0  0  0  0  0  0  0  0  0
  150.8591  139.0326  157.6011 H   0  0  0  0  0  0  0  0  0  0  0  0
  151.1377  140.3036  159.8019 H   0  0  0  0  0  0  0  0  0  0  0  0
  152.6234  140.0995  158.9067 H   0  0  0  0  0  0  0  0  0  0  0  0
  152.9793  142.1456  160.7517 H   0  0  0  0  0  0  0  0  0  0  0  0
  153.2825  144.6318  160.6678 H   0  0  0  0  0  0  0  0  0  0  0  0
  152.3098  145.9040  158.7338 H   0  0  0  0  0  0  0  0  0  0  0  0
  151.0756  144.6289  156.9606 H   0  0  0  0  0  0  0  0  0  0  0  0
  149.2733  137.0816  153.4288 H   0  0  0  0  0  0  0  0  0  0  0  0
  1  2  1  0  0  0  0
  1 19  1  0  0  0  0
  1 20  1  0  0  0  0
  1 21  1  0  0  0  0
  2  9  1  0  0  0  0
  2  3  1  0  0  0  0
  2 22  1  0  0  0  0
  3  4  1  0  0  0  0
  3 23  1  0  0  0  0
  3 24  1  0  0  0  0
  4  5  1  0  0  0  0
  4  6  1  0  0  0  0
  4 44  1  0  0  0  0
  5 25  1  0  0  0  0
  5 26  1  0  0  0  0
  5 27  1  0  0  0  0
  6  7  1  0  0  0  0
  6  8  1  0  0  0  0
  6 28  1  0  0  0  0
  7 29  1  0  0  0  0
  7 30  1  0  0  0  0
  7 31  1  0  0  0  0
  8  9  1  0  0  0  0
  8 32  1  0  0  0  0
  8 33  1  0  0  0  0
  9 10  1  0  0  0  0
  9 34  1  0  0  0  0
 10 11  1  0  0  0  0
 10 35  1  0  0  0  0
 11 12  1  0  0  0  0
 11 36  1  0  0  0  0
 11 37  1  0  0  0  0
 12 13  1  0  0  0  0
 12 38  1  0  0  0  0
 12 39  1  0  0  0  0
 13 18  1  0  0  0  0
 13 14  2  0  0  0  0
 14 15  1  0  0  0  0
 14 40  1  0  0  0  0
 15 16  2  0  0  0  0
 15 41  1  0  0  0  0
 16 17  1  0  0  0  0
 16 42  1  0  0  0  0
 17 18  2  0  0  0  0
 17 43  1  0  0  0  0
M  CHG  1   4   1
M  END
> <s_m_source_file>
AV-unprocessed.smi

> <i_m_source_file_index>
3303

> <i_lp_mmshare_version>
43012

> <i_f3d_flags>
0

> <s_epik_input>
W0NIM11bQ0BASF0xW0NIMl1OKFtDSDNdKVtDQEBIXShbQ0gzXSlbQ0gyXVtDQEhdMVtOSF1bQ0gyXVtDSDJdYzJbY0hdW2NIXVtjSF1bY0hdbjI=

> <s_epik_cmdline>
J2VwaWtfcHl0aG9uJywgJy1waCcsICc3LjAnLCAnLXRuJywgJzgnLCAnLW1hJywgJzIwMCcsICctbWV0YWxfYmluZGluZycsICctaW1hZScsICc8aW5maWxlLm1hZT4nLCAnLW9tYWUnLCAnPG91dGZpbGUubWFlPic=

> <r_epik_Ionization_Penalty>
2.31085

> <r_epik_Ionization_Penalty_Charging>
0.000313057

> <r_epik_Ionization_Penalty_Neutral>
2.31054

> <r_epik_State_Penalty>
2.4087

> <r_epik_Charging_Adjusted_Penalty>
2.40902

> <i_epik_Tot_Q>
1

> <i_epik_Tot_abs_Q>
1

> <r_epik_Metal_State_Penalty>
2.30979

> <b_epik_Metal_Only>
0

> <s_lp_Force_Field>
OPLS_2005

> <r_lp_Energy>
25.8109

> <b_lp_Chiralities_Consistent>
1

> <s_lp_Variant>
AV-unprocessed.smi:3303-27

> <Gold.Version>
5.8.1

> <Gold.Id.Protein>
6NUR|6NUR_protein|mol2

> <Gold.PLP.Fitness>
46.6865

> <Gold.PLP.PLP>
-37.9157

> <Gold.PLP.part.hbond>
-1.0000

> <Gold.PLP.part.metal>
0.0000

> <Gold.PLP.part.buried>
-2.4749

> <Gold.PLP.part.nonpolar>
-35.0113

> <Gold.PLP.part.repulsive>
0.0819

> <Gold.PLP.ligand.clash>
0.0000

> <Gold.PLP.ligand.torsion>
0.1353

> <Gold.PLP.Chemscore.Hbond>
2.0000

> <Gold.PLP.Chemscore.CHOScore>
1.0000

> <Gold.PLP.Chemscore.Metal>
0.0000

> <Gold.Chemscore.Hbonds>
donor molecule, donor type, donor heavy atom, donor atom, acceptor molecule, acceptor atom, score
      L1  H     4    44       P1  7948  2.00
      L1  C    17    43       P1  8028  1.00

> <Gold.PLP.Chemscore.Internal.Correction>
0.0413

> <Gold.Rescore>
     Score         DG    S(hbond)    S(metal)    S(lipo)     H(rot)  DE(clash)    DE(int)     intcor
     17.29     -19.35       1.00        0.00     119.15       1.33       0.20       1.86       ----

> <Gold.Chemscore.Fitness>
17.2932

> <Gold.Chemscore.DG>
-19.3520

> <Gold.Chemscore.ZeroCoef>
-5.4800

> <Gold.Chemscore.Hbond>
0.9969

> <Gold.Chemscore.Metal>
0.0000

> <Gold.Chemscore.Lipo>
119.1465

> <Gold.Chemscore.Internal_Hbond>
0.0000

> <Gold.Chemscore.DEClash>
0.1955

> <Gold.Chemscore.DEInternal>
1.8633

> <Gold.Chemscore.Rot>
1.3272

> <Gold.Chemscore.Internal.Correction>
   9.000000E+99

> <Gold.Chemscore.Hbonds>
donor molecule, donor type, donor heavy atom, donor atom, acceptor molecule, acceptor atom, score
      L1  H     4    44       P1  7948  0.98

> <Gold.Chemscore.Hbond.Weighted>
-3.3295

> <Gold.Chemscore.Metal.Weighted>
-0.0000

> <Gold.Chemscore.Lipo.Weighted>
-13.9401

> <Gold.Chemscore.Internal_Hbond.Weighted>
0.0000

> <Gold.Chemscore.DEClash.Weighted>
0.1955

> <Gold.Chemscore.DEInternal.Weighted>
1.8633

> <Gold.Chemscore.Rot.Weighted>
3.3976

> <Gold.Chemscore.Internal.Correction.Weighted>
   9.000000E+99

> <Gold.Protein.RotatedTorsions>
[ 6907 6896 6895 6894 ] final  -55.30 input  -60.11 | X-H torsion
[ 7974 7965 7964 7962 ] final -129.27 input  175.53 | X-H torsion
[ 8008 7997 7996 7995 ] final  -92.60 input   59.86 | X-H torsion
[ 10167 10162 10161 10158 ] final   80.69 input  -65.29 | X-H torsion
[ 10718 10713 10712 10709 ] final -106.51 input   66.30 | X-H torsion
[ 10763 10752 10751 10750 ] final  -60.88 input  -60.55 | X-H torsion
[ 11005 11000 10999 10996 ] final  129.05 input  -57.11 | X-H torsion

> <Gold.Protein.ActiveResidues>
 VAL166  LYS551  ARG553  GLY616  TRP617  ASP618  TYR619  PRO620  LYS621  CYS622 
 ASP623  PHE694  ASN695  SER759  ASP760  ASP761  ALA762  ILE779  LEU786  VAL792 
 PHE793  MET794  SER795  GLU796  ALA797  LYS798  CYS799  TRP800  GLU811  SER814 

> <Gold.Protein.RotatedAtoms>
  150.8263  134.7496  159.6815 H   0  0  0  0  0  0  0  0  0  0  0  0  # atno 6907 bound_to 6896
  152.4373  134.5657  159.9916 H   0  0  0  0  0  0  0  0  0  0  0  0  # atno 6908 bound_to 6896
  151.5828  133.3338  159.3048 H   0  0  0  0  0  0  0  0  0  0  0  0  # atno 6909 bound_to 6896
  144.9588  140.7424  143.4742 H   0  0  0  0  0  0  0  0  0  0  0  0  # atno 7974 bound_to 7965
  154.7251  140.0507  157.0675 H   0  0  0  0  0  0  0  0  0  0  0  0  # atno 8008 bound_to 7997
  155.0375  140.3165  155.4717 H   0  0  0  0  0  0  0  0  0  0  0  0  # atno 8009 bound_to 7997
  156.2827  140.2139  156.5498 H   0  0  0  0  0  0  0  0  0  0  0  0  # atno 8010 bound_to 7997
  139.9471  144.6051  150.8196 H   0  0  0  0  0  0  0  0  0  0  0  0  # atno 10167 bound_to 10162
  156.0393  130.5616  150.7690 H   0  0  0  0  0  0  0  0  0  0  0  0  # atno 10718 bound_to 10713
  154.2760  135.6281  153.5328 H   0  0  0  0  0  0  0  0  0  0  0  0  # atno 10763 bound_to 10752
  152.9873  135.5621  154.5548 H   0  0  0  0  0  0  0  0  0  0  0  0  # atno 10764 bound_to 10752
  154.5128  135.2878  155.1303 H   0  0  0  0  0  0  0  0  0  0  0  0  # atno 10765 bound_to 10752
  139.9594  134.9606  156.9091 H   0  0  0  0  0  0  0  0  0  0  0  0  # atno 11005 bound_to 11000
  145.2731  139.1947  143.4831 LP  0  0  0  0  0  0  0  0  0  0  0  0  # atno 17320 bound_to 7965
  146.3346  140.2681  142.8604 LP  0  0  0  0  0  0  0  0  0  0  0  0  # atno 17321 bound_to 7965
  140.7594  143.3128  151.2805 LP  0  0  0  0  0  0  0  0  0  0  0  0  # atno 17342 bound_to 10162
  139.6658  144.0108  152.2722 LP  0  0  0  0  0  0  0  0  0  0  0  0  # atno 17343 bound_to 10162
  157.5189  131.0930  151.0103 LP  0  0  0  0  0  0  0  0  0  0  0  0  # atno 17370 bound_to 10713
  157.0439  130.5760  149.5360 LP  0  0  0  0  0  0  0  0  0  0  0  0  # atno 17371 bound_to 10713
  140.5535  134.0604  155.7376 LP  0  0  0  0  0  0  0  0  0  0  0  0  # atno 17394 bound_to 11000
  141.1269  133.9367  157.2616 LP  0  0  0  0  0  0  0  0  0  0  0  0  # atno 17395 bound_to 11000

$$$$
