AV-unprocessed.smi:152|AV-procd|sdf|1246|dock6
  -GOLD-   2262018473D 1   1.00000     0.00000
 Structure written by MMmdl.
 58 61  0  0  0  0  0  0  0  0  2 V2000
  152.2788  144.4736  158.2854 C   0  0  0  0  0  0  0  0  0  0  0  0
  152.3644  144.5774  159.8146 C   0  0  0  0  0  0  0  0  0  0  0  0
  151.7827  143.4010  160.5117 N   0  3  2  0  0  0  0  0  0  0  0  0
  151.6918  143.5946  161.9793 C   0  0  0  0  0  0  0  0  0  0  0  0
  152.6894  142.6247  162.6035 C   0  0  0  0  0  0  0  0  0  0  0  0
  152.6508  141.4516  161.6394 C   0  0  0  0  0  0  0  0  0  0  0  0
  152.4910  142.1149  160.2623 C   0  0  1  0  0  0  0  0  0  0  0  0
  151.7184  141.2391  159.2504 C   0  0  0  0  0  0  0  0  0  0  0  0
  152.5871  140.3874  158.4374 N   0  0  0  0  0  0  0  0  0  0  0  0
  153.2681  139.2840  159.1095 C   0  0  0  0  0  0  0  0  0  0  0  0
  152.3223  140.2621  157.1083 C   0  0  0  0  0  0  0  0  0  0  0  0
  153.2096  139.5966  156.3207 N   0  0  0  0  0  0  0  0  0  0  0  0
  152.9742  139.4337  155.0160 C   0  0  0  0  0  0  0  0  0  0  0  0
  151.9305  139.8518  154.2998 N   0  0  0  0  0  0  0  0  0  0  0  0
  151.0402  140.5321  155.0761 C   0  0  0  0  0  0  0  0  0  0  0  0
  151.1551  140.7818  156.4743 C   0  0  0  0  0  0  0  0  0  0  0  0
  150.0565  141.5164  156.9070 N   0  0  0  0  0  0  0  0  0  0  0  0
  149.3337  141.6824  155.8336 C   0  0  0  0  0  0  0  0  0  0  0  0
  149.8537  141.1284  154.6870 N   0  0  0  0  0  0  0  0  0  0  0  0
  149.2659  141.1687  153.3566 C   0  0  0  0  0  0  0  0  0  0  0  0
  147.8901  141.8778  153.3006 C   0  0  0  0  0  0  0  0  0  0  0  0
  147.4213  141.8018  151.9650 O   0  0  0  0  0  0  0  0  0  0  0  0
  146.8423  141.2185  154.2242 C   0  0  0  0  0  0  0  0  0  0  0  0
  145.5487  142.0474  154.3162 C   0  0  0  0  0  0  0  0  0  0  0  0
  145.8458  143.3762  154.7279 O   0  0  0  0  0  0  0  0  0  0  0  0
  146.6717  144.0689  153.7995 C   0  0  0  0  0  0  0  0  0  0  0  0
  148.0350  143.3651  153.6806 C   0  0  0  0  0  0  0  0  0  0  0  0
  152.6350  145.3922  157.8190 H   0  0  0  0  0  0  0  0  0  0  0  0
  151.2517  144.3142  157.9562 H   0  0  0  0  0  0  0  0  0  0  0  0
  152.8907  143.6582  157.9000 H   0  0  0  0  0  0  0  0  0  0  0  0
  153.3997  144.7221  160.1275 H   0  0  0  0  0  0  0  0  0  0  0  0
  151.8186  145.4699  160.1233 H   0  0  0  0  0  0  0  0  0  0  0  0
  151.8683  144.6234  162.2970 H   0  0  0  0  0  0  0  0  0  0  0  0
  150.6805  143.3290  162.2887 H   0  0  0  0  0  0  0  0  0  0  0  0
  153.6864  143.0666  162.6142 H   0  0  0  0  0  0  0  0  0  0  0  0
  152.4286  142.3461  163.6250 H   0  0  0  0  0  0  0  0  0  0  0  0
  153.5398  140.8236  161.7060 H   0  0  0  0  0  0  0  0  0  0  0  0
  151.7844  140.8293  161.8681 H   0  0  0  0  0  0  0  0  0  0  0  0
  153.4883  142.3377  159.8789 H   0  0  0  0  0  0  0  0  0  0  0  0
  150.9523  140.6635  159.7645 H   0  0  0  0  0  0  0  0  0  0  0  0
  151.1669  141.8783  158.5618 H   0  0  0  0  0  0  0  0  0  0  0  0
  154.1566  138.9809  158.5544 H   0  0  0  0  0  0  0  0  0  0  0  0
  152.6089  138.4209  159.2070 H   0  0  0  0  0  0  0  0  0  0  0  0
  153.5879  139.5800  160.1087 H   0  0  0  0  0  0  0  0  0  0  0  0
  153.7299  138.8899  154.4682 H   0  0  0  0  0  0  0  0  0  0  0  0
  148.3991  142.2243  155.8461 H   0  0  0  0  0  0  0  0  0  0  0  0
  149.9704  141.6685  152.6907 H   0  0  0  0  0  0  0  0  0  0  0  0
  149.1800  140.1445  152.9907 H   0  0  0  0  0  0  0  0  0  0  0  0
  146.5305  142.1170  151.9415 H   0  0  0  0  0  0  0  0  0  0  0  0
  146.6057  140.2082  153.8879 H   0  0  0  0  0  0  0  0  0  0  0  0
  147.2609  141.1176  155.2264 H   0  0  0  0  0  0  0  0  0  0  0  0
  145.0210  142.0604  153.3613 H   0  0  0  0  0  0  0  0  0  0  0  0
  144.8713  141.5990  155.0431 H   0  0  0  0  0  0  0  0  0  0  0  0
  146.1754  144.1340  152.8302 H   0  0  0  0  0  0  0  0  0  0  0  0
  146.8107  145.0915  154.1507 H   0  0  0  0  0  0  0  0  0  0  0  0
  148.5463  143.4431  154.6410 H   0  0  0  0  0  0  0  0  0  0  0  0
  148.6640  143.8863  152.9576 H   0  0  0  0  0  0  0  0  0  0  0  0
  150.8347  143.2971  160.1788 H   0  0  0  0  0  0  0  0  0  0  0  0
  1  2  1  0  0  0  0
  1 28  1  0  0  0  0
  1 29  1  0  0  0  0
  1 30  1  0  0  0  0
  2  3  1  0  0  0  0
  2 31  1  0  0  0  0
  2 32  1  0  0  0  0
  3  7  1  0  0  0  0
  3  4  1  0  0  0  0
  3 58  1  0  0  0  0
  4  5  1  0  0  0  0
  4 33  1  0  0  0  0
  4 34  1  0  0  0  0
  5  6  1  0  0  0  0
  5 35  1  0  0  0  0
  5 36  1  0  0  0  0
  6  7  1  0  0  0  0
  6 37  1  0  0  0  0
  6 38  1  0  0  0  0
  7  8  1  0  0  0  0
  7 39  1  0  0  0  0
  8  9  1  0  0  0  0
  8 40  1  0  0  0  0
  8 41  1  0  0  0  0
  9 10  1  0  0  0  0
  9 11  1  0  0  0  0
 10 42  1  0  0  0  0
 10 43  1  0  0  0  0
 10 44  1  0  0  0  0
 11 16  1  0  0  0  0
 11 12  2  0  0  0  0
 12 13  1  0  0  0  0
 13 14  2  0  0  0  0
 13 45  1  0  0  0  0
 14 15  1  0  0  0  0
 15 19  1  0  0  0  0
 15 16  2  0  0  0  0
 16 17  1  0  0  0  0
 17 18  2  0  0  0  0
 18 19  1  0  0  0  0
 18 46  1  0  0  0  0
 19 20  1  0  0  0  0
 20 21  1  0  0  0  0
 20 47  1  0  0  0  0
 20 48  1  0  0  0  0
 21 27  1  0  0  0  0
 21 22  1  0  0  0  0
 21 23  1  0  0  0  0
 22 49  1  0  0  0  0
 23 24  1  0  0  0  0
 23 50  1  0  0  0  0
 23 51  1  0  0  0  0
 24 25  1  0  0  0  0
 24 52  1  0  0  0  0
 24 53  1  0  0  0  0
 25 26  1  0  0  0  0
 26 27  1  0  0  0  0
 26 54  1  0  0  0  0
 26 55  1  0  0  0  0
 27 56  1  0  0  0  0
 27 57  1  0  0  0  0
M  CHG  1   3   1
M  END
> <s_m_source_file>
AV-unprocessed.smi

> <i_m_source_file_index>
152

> <i_lp_mmshare_version>
43012

> <i_f3d_flags>
0

> <s_epik_input>
W0NIM11bQ0gyXU4xW0NIMl1bQ0gyXVtDSDJdW0NASF0xW0NIMl1OKFtDSDNdKWMobltjSF1uMiljKGMyMyluW2NIXW4zW0NIMl1DNChbT0hdKVtDSDJdW0NIMl1PW0NIMl1bQ0gyXTQ=

> <s_epik_cmdline>
J2VwaWtfcHl0aG9uJywgJy1waCcsICc3LjAnLCAnLXRuJywgJzgnLCAnLW1hJywgJzIwMCcsICctbWV0YWxfYmluZGluZycsICctaW1hZScsICc8aW5maWxlLm1hZT4nLCAnLW9tYWUnLCAnPG91dGZpbGUubWFlPic=

> <r_lp_tautomer_probability>
1

> <r_epik_Ionization_Penalty>
0.00152183

> <r_epik_Ionization_Penalty_Charging>
0.00112577

> <r_epik_Ionization_Penalty_Neutral>
0.000396066

> <r_epik_State_Penalty>
-0

> <r_epik_Charging_Adjusted_Penalty>
0.00112577

> <i_epik_Tot_Q>
1

> <i_epik_Tot_abs_Q>
1

> <r_epik_Metal_State_Penalty>
-0

> <b_epik_Metal_Only>
0

> <s_lp_Force_Field>
OPLS_2005

> <r_lp_Energy>
43.1926

> <b_lp_Chiralities_Consistent>
1

> <s_lp_Variant>
AV-unprocessed.smi:152-1

> <Gold.Version>
5.8.1

> <Gold.Id.Protein>
6NUR|6NUR_protein|mol2

> <Gold.PLP.Fitness>
60.9567

> <Gold.PLP.PLP>
-54.7987

> <Gold.PLP.part.hbond>
-3.0000

> <Gold.PLP.part.metal>
0.0000

> <Gold.PLP.part.buried>
-4.2958

> <Gold.PLP.part.nonpolar>
-49.1305

> <Gold.PLP.part.repulsive>
0.3788

> <Gold.PLP.ligand.clash>
0.0000

> <Gold.PLP.ligand.torsion>
0.8565

> <Gold.PLP.Chemscore.Hbond>
2.4420

> <Gold.PLP.Chemscore.CHOScore>
0.0000

> <Gold.PLP.Chemscore.Metal>
0.0000

> <Gold.Chemscore.Hbonds>
donor molecule, donor type, donor heavy atom, donor atom, acceptor molecule, acceptor atom, score
      P1  H  7989  7998       L1    14  0.02
      P1  H  7997  8009       L1    12  0.28
      L1  C    18    46       P1  8028  0.58

> <Gold.PLP.Chemscore.Internal.Correction>
0.5449

> <Gold.Rescore>
     Score         DG    S(hbond)    S(metal)    S(lipo)     H(rot)  DE(clash)    DE(int)     intcor
     14.87     -18.79       1.55        0.00     123.39       2.46       0.35       3.57       ----

> <Gold.Chemscore.Fitness>
14.8728

> <Gold.Chemscore.DG>
-18.7852

> <Gold.Chemscore.ZeroCoef>
-5.4800

> <Gold.Chemscore.Hbond>
1.5478

> <Gold.Chemscore.Metal>
0.0000

> <Gold.Chemscore.Lipo>
123.3910

> <Gold.Chemscore.Internal_Hbond>
0.0000

> <Gold.Chemscore.DEClash>
0.3452

> <Gold.Chemscore.DEInternal>
3.5672

> <Gold.Chemscore.Rot>
2.4614

> <Gold.Chemscore.Internal.Correction>
   9.000000E+99

> <Gold.Chemscore.Hbonds>
donor molecule, donor type, donor heavy atom, donor atom, acceptor molecule, acceptor atom, score
      P1  H  7997  8009       L1    12  0.11

> <Gold.Chemscore.Hbond.Weighted>
-5.1696

> <Gold.Chemscore.Metal.Weighted>
-0.0000

> <Gold.Chemscore.Lipo.Weighted>
-14.4367

> <Gold.Chemscore.Internal_Hbond.Weighted>
0.0000

> <Gold.Chemscore.DEClash.Weighted>
0.3452

> <Gold.Chemscore.DEInternal.Weighted>
3.5672

> <Gold.Chemscore.Rot.Weighted>
6.3012

> <Gold.Chemscore.Internal.Correction.Weighted>
   9.000000E+99

> <Gold.Protein.RotatedTorsions>
[ 6907 6896 6895 6894 ] final  171.74 input  -60.11 | X-H torsion
[ 7974 7965 7964 7962 ] final   22.95 input  175.53 | X-H torsion
[ 8008 7997 7996 7995 ] final -165.76 input   59.86 | X-H torsion
[ 10167 10162 10161 10158 ] final  -52.04 input  -65.29 | X-H torsion
[ 10718 10713 10712 10709 ] final -127.03 input   66.30 | X-H torsion
[ 10763 10752 10751 10750 ] final   88.04 input  -60.55 | X-H torsion
[ 11005 11000 10999 10996 ] final -155.20 input  -57.11 | X-H torsion

> <Gold.Protein.ActiveResidues>
 VAL166  LYS551  ARG553  GLY616  TRP617  ASP618  TYR619  PRO620  LYS621  CYS622 
 ASP623  PHE694  ASN695  SER759  ASP760  ASP761  ALA762  ILE779  LEU786  VAL792 
 PHE793  MET794  SER795  GLU796  ALA797  LYS798  CYS799  TRP800  GLU811  SER814 

> <Gold.Protein.RotatedAtoms>
  151.7955  133.3364  159.3511 H   0  0  0  0  0  0  0  0  0  0  0  0  # atno 6907 bound_to 6896
  150.7377  134.5803  159.5944 H   0  0  0  0  0  0  0  0  0  0  0  0  # atno 6908 bound_to 6896
  152.3180  134.7417  160.0372 H   0  0  0  0  0  0  0  0  0  0  0  0  # atno 6909 bound_to 6896
  146.2006  139.7813  142.8764 H   0  0  0  0  0  0  0  0  0  0  0  0  # atno 7974 bound_to 7965
  155.8543  140.0968  157.1655 H   0  0  0  0  0  0  0  0  0  0  0  0  # atno 8008 bound_to 7997
  154.3987  140.1377  156.3945 H   0  0  0  0  0  0  0  0  0  0  0  0  # atno 8009 bound_to 7997
  155.7927  140.3455  155.5360 H   0  0  0  0  0  0  0  0  0  0  0  0  # atno 8010 bound_to 7997
  140.6558  143.2598  151.4591 H   0  0  0  0  0  0  0  0  0  0  0  0  # atno 10167 bound_to 10162
  156.1819  130.6737  151.0315 H   0  0  0  0  0  0  0  0  0  0  0  0  # atno 10718 bound_to 10713
  153.1729  135.4521  154.9926 H   0  0  0  0  0  0  0  0  0  0  0  0  # atno 10763 bound_to 10752
  154.7978  135.3244  154.7627 H   0  0  0  0  0  0  0  0  0  0  0  0  # atno 10764 bound_to 10752
  153.8101  135.6955  153.4897 H   0  0  0  0  0  0  0  0  0  0  0  0  # atno 10765 bound_to 10752
  140.6891  134.4061  157.5221 H   0  0  0  0  0  0  0  0  0  0  0  0  # atno 11005 bound_to 11000
  145.3496  141.0304  143.3346 LP  0  0  0  0  0  0  0  0  0  0  0  0  # atno 17320 bound_to 7965
  144.8676  139.5086  143.6783 LP  0  0  0  0  0  0  0  0  0  0  0  0  # atno 17321 bound_to 7965
  139.5780  144.1775  152.1929 LP  0  0  0  0  0  0  0  0  0  0  0  0  # atno 17342 bound_to 10162
  140.1091  144.5473  150.6937 LP  0  0  0  0  0  0  0  0  0  0  0  0  # atno 17343 bound_to 10162
  157.6874  131.0821  150.7205 LP  0  0  0  0  0  0  0  0  0  0  0  0  # atno 17370 bound_to 10713
  156.7262  130.4696  149.5510 LP  0  0  0  0  0  0  0  0  0  0  0  0  # atno 17371 bound_to 10713
  139.8929  134.8744  156.2250 LP  0  0  0  0  0  0  0  0  0  0  0  0  # atno 17394 bound_to 11000
  141.0256  133.7017  156.1342 LP  0  0  0  0  0  0  0  0  0  0  0  0  # atno 17395 bound_to 11000

$$$$
