#       Name:                AV-unprocessed.smi:2341
#       Creating user name   scv26
#       Creation time:       Fri Mar 27 12:57:24 2020


#       File generated by GOLD software.
#

@<TRIPOS>MOLECULE
AV-unprocessed.smi:2341
    55    57     1
SMALL
NO_CHARGES


@<TRIPOS>ATOM
      1 ****        -9.1384  -1.7823   1.3490 C.3            1 S1                 0.0000
      2 ****        -7.6565  -1.7464   1.0403 C.ar           1 S1                 0.0000
      3 ****        -6.9032  -2.9315   0.9394 C.ar           1 S1                 0.0000
      4 ****        -5.5281  -2.8388   0.6509 C.ar           1 S1                 0.0000
      5 ****        -4.9391  -1.5670   0.4713 C.ar           1 S1                 0.0000
      6 ****        -3.5480  -1.5843   0.1849 N.am           1 S1                 0.0000
      7 ****        -2.7320  -0.5387  -0.0361 C.2            1 S1                 0.0000
      8 ****        -3.0693   0.6455  -0.0235 O.2            1 S1                 0.0000
      9 ****        -1.4765  -0.9446  -0.2761 N.am           1 S1                 0.0000
     10 ****        -0.3508  -0.0604  -0.5636 C.3            1 S1                 0.0000
     11 ****         0.7493  -0.8354  -1.3001 C.3            1 S1                 0.0000
     12 ****         1.9874   0.0429  -1.5515 C.3            1 S1                 0.0000
     13 ****         2.5259   0.6145  -0.2825 N.4            1 S1                 1.0000
     14 ****         3.8056   1.3878  -0.4046 C.3            1 S1                 0.0000
     15 ****         4.7463   0.8993  -1.5392 C.3            1 S1                 0.0000
     16 ****         6.0551   1.7036  -1.5966 C.3            1 S1                 0.0000
     17 ****         6.7959   1.6617  -0.2549 C.3            1 S1                 0.0000
     18 ****         5.8898   2.1582   0.8782 C.3            1 S1                 0.0000
     19 ****         4.5796   1.3568   0.9375 C.3            1 S1                 0.0000
     20 ****         1.4707   1.3896   0.4313 C.3            1 S1                 0.0000
     21 ****         0.2326   0.5299   0.7301 C.3            1 S1                 0.0000
     22 ****        -5.6731  -0.4308   0.5715 N.ar           1 S1                 0.0000
     23 ****        -6.9910  -0.5204   0.8477 C.ar           1 S1                 0.0000
     24 ****        -9.5295  -2.7985   1.2931 H              1 S1                 0.0000
     25 ****        -9.6896  -1.1665   0.6380 H              1 S1                 0.0000
     26 ****        -9.3233  -1.3986   2.3524 H              1 S1                 0.0000
     27 ****        -7.3667  -3.8970   1.0801 H              1 S1                 0.0000
     28 ****        -4.9357  -3.7386   0.5697 H              1 S1                 0.0000
     29 ****        -3.1267  -2.5003   0.1420 H              1 S1                 0.0000
     30 ****        -1.2880  -1.9366  -0.2673 H              1 S1                 0.0000
     31 ****        -0.6907   0.7519  -1.2093 H              1 S1                 0.0000
     32 ****         1.0414  -1.7097  -0.7161 H              1 S1                 0.0000
     33 ****         0.3687  -1.2128  -2.2501 H              1 S1                 0.0000
     34 ****         2.7270  -0.5923  -2.0371 H              1 S1                 0.0000
     35 ****         1.7453   0.8502  -2.2446 H              1 S1                 0.0000
     36 ****         3.5457   2.4228  -0.6349 H              1 S1                 0.0000
     37 ****         4.9811  -0.1571  -1.4006 H              1 S1                 0.0000
     38 ****         4.2632   0.9942  -2.5119 H              1 S1                 0.0000
     39 ****         6.6973   1.3118  -2.3861 H              1 S1                 0.0000
     40 ****         5.8370   2.7388  -1.8622 H              1 S1                 0.0000
     41 ****         7.1228   0.6422  -0.0460 H              1 S1                 0.0000
     42 ****         7.6977   2.2726  -0.3067 H              1 S1                 0.0000
     43 ****         6.4147   2.0821   1.8309 H              1 S1                 0.0000
     44 ****         5.6661   3.2158   0.7327 H              1 S1                 0.0000
     45 ****         3.9776   1.7566   1.7519 H              1 S1                 0.0000
     46 ****         4.8023   0.3229   1.2057 H              1 S1                 0.0000
     47 ****         1.8462   1.7851   1.3734 H              1 S1                 0.0000
     48 ****         1.1837   2.2519  -0.1728 H              1 S1                 0.0000
     49 ****        -0.5171   1.1373   1.2385 H              1 S1                 0.0000
     50 ****         0.5021  -0.2710   1.4205 H              1 S1                 0.0000
     51 ****        -7.5281   0.4141   0.9172 H              1 S1                 0.0000
     52 ****         2.7434  -0.1830   0.2980 H              1 S1                 0.0000
     53 ****        -4.0203   0.8926   0.1626 LP             1 S1                 0.0000
     54 ****        -2.3923   1.3602  -0.1994 LP             1 S1                 0.0000
     55 ****        -5.2428   0.4626   0.4422 LP             1 S1                 0.0000
@<TRIPOS>BOND
    1    1    2 1     
    2    1   24 1     
    3    1   25 1     
    4    1   26 1     
    5    2   23 ar    
    6    2    3 ar    
    7    3    4 ar    
    8    3   27 1     
    9    4    5 ar    
   10    4   28 1     
   11    5    6 1     
   12    5   22 ar    
   13    6    7 am    
   14    6   29 1     
   15    7    8 2     
   16    7    9 am    
   17    9   10 1     
   18    9   30 1     
   19   10   21 1     
   20   10   11 1     
   21   10   31 1     
   22   11   12 1     
   23   11   32 1     
   24   11   33 1     
   25   12   13 1     
   26   12   34 1     
   27   12   35 1     
   28   13   14 1     
   29   13   20 1     
   30   13   52 1     
   31   14   19 1     
   32   14   15 1     
   33   14   36 1     
   34   15   16 1     
   35   15   37 1     
   36   15   38 1     
   37   16   17 1     
   38   16   39 1     
   39   16   40 1     
   40   17   18 1     
   41   17   41 1     
   42   17   42 1     
   43   18   19 1     
   44   18   43 1     
   45   18   44 1     
   46   19   45 1     
   47   19   46 1     
   48   20   21 1     
   49   20   47 1     
   50   20   48 1     
   51   21   49 1     
   52   21   50 1     
   53   22   23 ar    
   54   23   51 1     
   55    8   53 1     
   56    8   54 1     
   57   22   55 1     
@<TRIPOS>SUBSTRUCTURE
      1 S1             1
@<TRIPOS>SET
LONE_PAIRS      STATIC     ATOMS    <user>   **** ""
3 53 54 55
DONOR_HYDROGENS      STATIC     ATOMS    <user>   **** ""
3 29 30 52
ATOM$BLUE        STATIC     ATOMS    COLORGROUP SYSTEM
3 53 54 55
ATOM$RED        STATIC     ATOMS    COLORGROUP SYSTEM
3 29 30 52
