AV-unprocessed.smi:887|AV-procd|sdf|4053|dock8
  -GOLD-   22720 1543D 1   1.00000     0.00000
 Structure written by MMmdl.
 31 32  0  0  0  0  0  0  0  0  1 V2000
  149.5275  136.2077  155.3416 C   0  0  0  0  0  0  0  0  0  0  0  0
  150.4047  137.3282  155.0390 N   0  0  0  0  0  0  0  0  0  0  0  0
  151.7201  137.3502  155.3021 C   0  0  0  0  0  0  0  0  0  0  0  0
  152.3201  136.4116  155.8258 O   0  0  0  0  0  0  0  0  0  0  0  0
  152.4789  138.6188  154.9077 C   0  0  0  0  0  0  0  0  0  0  0  0
  151.9186  139.8137  155.6110 C   0  0  0  0  0  0  0  0  0  0  0  0
  150.8921  140.4917  155.1114 N   0  0  0  0  0  0  0  0  0  0  0  0
  150.6745  141.4977  156.0633 O   0  0  0  0  0  0  0  0  0  0  0  0
  151.6251  141.3237  157.0133 C   0  0  0  0  0  0  0  0  0  0  0  0
  151.5982  142.2006  158.2258 C   0  0  1  0  0  0  0  0  0  0  0  0
  152.7013  141.8143  159.2356 C   0  0  0  0  0  0  0  0  0  0  0  0
  152.9036  142.8632  160.3155 C   0  0  0  0  0  0  0  0  0  0  0  0
  152.3743  144.0974  160.2632 C   0  0  0  0  0  0  0  0  0  0  0  0
  151.5190  144.5912  159.1116 C   0  0  0  0  0  0  0  0  0  0  0  0
  151.6530  143.6976  157.8652 C   0  0  0  0  0  0  0  0  0  0  0  0
  152.4023  140.2627  156.8024 N   0  0  0  0  0  0  0  0  0  0  0  0
  148.5228  136.4107  154.9709 H   0  0  0  0  0  0  0  0  0  0  0  0
  149.4673  136.0436  156.4181 H   0  0  0  0  0  0  0  0  0  0  0  0
  149.8860  135.2923  154.8688 H   0  0  0  0  0  0  0  0  0  0  0  0
  149.9864  138.1409  154.6094 H   0  0  0  0  0  0  0  0  0  0  0  0
  153.5361  138.5091  155.1543 H   0  0  0  0  0  0  0  0  0  0  0  0
  152.4199  138.7649  153.8283 H   0  0  0  0  0  0  0  0  0  0  0  0
  150.6369  142.0316  158.7141 H   0  0  0  0  0  0  0  0  0  0  0  0
  152.4679  140.8542  159.6970 H   0  0  0  0  0  0  0  0  0  0  0  0
  153.6570  141.6945  158.7238 H   0  0  0  0  0  0  0  0  0  0  0  0
  153.5152  142.5786  161.1591 H   0  0  0  0  0  0  0  0  0  0  0  0
  152.5425  144.7886  161.0762 H   0  0  0  0  0  0  0  0  0  0  0  0
  150.4824  144.6182  159.4482 H   0  0  0  0  0  0  0  0  0  0  0  0
  151.8008  145.6154  158.8660 H   0  0  0  0  0  0  0  0  0  0  0  0
  152.5987  143.9155  157.3668 H   0  0  0  0  0  0  0  0  0  0  0  0
  150.8647  143.9461  157.1535 H   0  0  0  0  0  0  0  0  0  0  0  0
  1  2  1  0  0  0  0
  1 17  1  0  0  0  0
  1 18  1  0  0  0  0
  1 19  1  0  0  0  0
  2  3  1  0  0  0  0
  2 20  1  0  0  0  0
  3  4  2  0  0  0  0
  3  5  1  0  0  0  0
  5  6  1  0  0  0  0
  5 21  1  0  0  0  0
  5 22  1  0  0  0  0
  6 16  1  0  0  0  0
  6  7  2  0  0  0  0
  7  8  1  0  0  0  0
  8  9  1  0  0  0  0
  9 10  1  0  0  0  0
  9 16  2  0  0  0  0
 10 15  1  0  0  0  0
 10 11  1  0  0  0  0
 10 23  1  0  0  0  0
 11 12  1  0  0  0  0
 11 24  1  0  0  0  0
 11 25  1  0  0  0  0
 12 13  2  0  0  0  0
 12 26  1  0  0  0  0
 13 14  1  0  0  0  0
 13 27  1  0  0  0  0
 14 15  1  0  0  0  0
 14 28  1  0  0  0  0
 14 29  1  0  0  0  0
 15 30  1  0  0  0  0
 15 31  1  0  0  0  0
M  END
> <s_m_source_file>
AV-unprocessed.smi

> <i_m_source_file_index>
887

> <i_lp_mmshare_version>
43012

> <i_f3d_flags>
0

> <s_epik_input>
W0NIM11bTkhdQyg9TylbQ0gyXWMxbm9jKG4xKVtDQEBIXTJbQ0gyXVtDSF09W0NIXVtDSDJdW0NIMl0y

> <s_epik_cmdline>
J2VwaWtfcHl0aG9uJywgJy1waCcsICc3LjAnLCAnLXRuJywgJzgnLCAnLW1hJywgJzIwMCcsICctbWV0YWxfYmluZGluZycsICctaW1hZScsICc8aW5maWxlLm1hZT4nLCAnLW9tYWUnLCAnPG91dGZpbGUubWFlPic=

> <r_lp_tautomer_probability>
1

> <r_epik_Ionization_Penalty>
1.02915e-07

> <r_epik_Ionization_Penalty_Charging>
0

> <r_epik_Ionization_Penalty_Neutral>
1.02915e-07

> <r_epik_State_Penalty>
-0

> <r_epik_Charging_Adjusted_Penalty>
0

> <i_epik_Tot_Q>
0

> <i_epik_Tot_abs_Q>
0

> <r_epik_Metal_State_Penalty>
-0

> <b_epik_Metal_Only>
0

> <s_lp_Force_Field>
OPLS_2005

> <r_lp_Energy>
6.05076

> <b_lp_Chiralities_Consistent>
1

> <s_lp_Variant>
AV-unprocessed.smi:887-2

> <Gold.Version>
5.8.1

> <Gold.Id.Protein>
6NUR|6NUR_protein|mol2

> <Gold.PLP.Fitness>
42.6181

> <Gold.PLP.PLP>
-34.4037

> <Gold.PLP.part.hbond>
-3.0000

> <Gold.PLP.part.metal>
0.0000

> <Gold.PLP.part.buried>
-3.8779

> <Gold.PLP.part.nonpolar>
-27.2975

> <Gold.PLP.part.repulsive>
0.1867

> <Gold.PLP.ligand.clash>
0.0000

> <Gold.PLP.ligand.torsion>
0.4463

> <Gold.PLP.Chemscore.Hbond>
3.0000

> <Gold.PLP.Chemscore.CHOScore>
0.0000

> <Gold.PLP.Chemscore.Metal>
0.0000

> <Gold.Chemscore.Hbonds>
donor molecule, donor type, donor heavy atom, donor atom, acceptor molecule, acceptor atom, score
      P1  H  7989  7998       L1     7  0.85
      P1  H  7997  8008       L1    16  1.00
      P1  H 10752 10764       L1     4  0.89

> <Gold.PLP.Chemscore.Internal.Correction>
0.1070

> <Gold.Rescore>
     Score         DG    S(hbond)    S(metal)    S(lipo)     H(rot)  DE(clash)    DE(int)     intcor
     16.00     -16.59       1.85        0.00      77.76       1.63       0.03       0.56       ----

> <Gold.Chemscore.Fitness>
16.0009

> <Gold.Chemscore.DG>
-16.5857

> <Gold.Chemscore.ZeroCoef>
-5.4800

> <Gold.Chemscore.Hbond>
1.8513

> <Gold.Chemscore.Metal>
0.0000

> <Gold.Chemscore.Lipo>
77.7621

> <Gold.Chemscore.Internal_Hbond>
0.0000

> <Gold.Chemscore.DEClash>
0.0251

> <Gold.Chemscore.DEInternal>
0.5597

> <Gold.Chemscore.Rot>
1.6312

> <Gold.Chemscore.Internal.Correction>
   9.000000E+99

> <Gold.Chemscore.Hbonds>
donor molecule, donor type, donor heavy atom, donor atom, acceptor molecule, acceptor atom, score
      P1  H  7989  7998       L1     7  0.14
      P1  H  7997  8008       L1    16  0.37
      P1  H 10752 10764       L1     4  0.62

> <Gold.Chemscore.Hbond.Weighted>
-6.1833

> <Gold.Chemscore.Metal.Weighted>
-0.0000

> <Gold.Chemscore.Lipo.Weighted>
-9.0982

> <Gold.Chemscore.Internal_Hbond.Weighted>
0.0000

> <Gold.Chemscore.DEClash.Weighted>
0.0251

> <Gold.Chemscore.DEInternal.Weighted>
0.5597

> <Gold.Chemscore.Rot.Weighted>
4.1758

> <Gold.Chemscore.Internal.Correction.Weighted>
   9.000000E+99

> <Gold.Protein.RotatedTorsions>
[ 6907 6896 6895 6894 ] final   68.88 input  -60.11 | X-H torsion
[ 7974 7965 7964 7962 ] final  -94.20 input  175.53 | X-H torsion
[ 8008 7997 7996 7995 ] final  -55.36 input   59.86 | X-H torsion
[ 10167 10162 10161 10158 ] final  -41.03 input  -65.29 | X-H torsion
[ 10718 10713 10712 10709 ] final  142.37 input   66.30 | X-H torsion
[ 10763 10752 10751 10750 ] final  -51.78 input  -60.55 | X-H torsion
[ 11005 11000 10999 10996 ] final   21.93 input  -57.11 | X-H torsion

> <Gold.Protein.ActiveResidues>
 VAL166  LYS551  ARG553  GLY616  TRP617  ASP618  TYR619  PRO620  LYS621  CYS622 
 ASP623  PHE694  ASN695  SER759  ASP760  ASP761  ALA762  ILE779  LEU786  VAL792 
 PHE793  MET794  SER795  GLU796  ALA797  LYS798  CYS799  TRP800  GLU811  SER814 

> <Gold.Protein.RotatedAtoms>
  152.4649  134.5098  159.9749 H   0  0  0  0  0  0  0  0  0  0  0  0  # atno 6907 bound_to 6896
  151.5138  133.3474  159.2897 H   0  0  0  0  0  0  0  0  0  0  0  0  # atno 6908 bound_to 6896
  150.8629  134.8014  159.7159 H   0  0  0  0  0  0  0  0  0  0  0  0  # atno 6909 bound_to 6896
  145.3765  140.9512  143.2418 H   0  0  0  0  0  0  0  0  0  0  0  0  # atno 7974 bound_to 7965
  154.4192  140.1155  156.5464 H   0  0  0  0  0  0  0  0  0  0  0  0  # atno 8008 bound_to 7997
  155.6455  140.3496  155.4710 H   0  0  0  0  0  0  0  0  0  0  0  0  # atno 8009 bound_to 7997
  155.9835  140.1165  157.0694 H   0  0  0  0  0  0  0  0  0  0  0  0  # atno 8010 bound_to 7997
  140.7015  143.3118  151.3009 H   0  0  0  0  0  0  0  0  0  0  0  0  # atno 10167 bound_to 10162
  157.3813  131.0992  151.0736 H   0  0  0  0  0  0  0  0  0  0  0  0  # atno 10718 bound_to 10713
  154.1321  135.6518  153.4924 H   0  0  0  0  0  0  0  0  0  0  0  0  # atno 10763 bound_to 10752
  153.0192  135.5295  154.6990 H   0  0  0  0  0  0  0  0  0  0  0  0  # atno 10764 bound_to 10752
  154.6228  135.2966  155.0277 H   0  0  0  0  0  0  0  0  0  0  0  0  # atno 10765 bound_to 10752
  140.3861  134.1868  155.7663 H   0  0  0  0  0  0  0  0  0  0  0  0  # atno 11005 bound_to 11000
  144.8538  139.5280  143.6844 LP  0  0  0  0  0  0  0  0  0  0  0  0  # atno 17320 bound_to 7965
  146.2862  139.7010  142.9194 LP  0  0  0  0  0  0  0  0  0  0  0  0  # atno 17321 bound_to 7965
  139.6543  144.0304  152.2649 LP  0  0  0  0  0  0  0  0  0  0  0  0  # atno 17342 bound_to 10162
  139.9851  144.6401  150.7865 LP  0  0  0  0  0  0  0  0  0  0  0  0  # atno 17343 bound_to 10162
  157.1804  130.6307  149.5670 LP  0  0  0  0  0  0  0  0  0  0  0  0  # atno 17370 bound_to 10713
  155.9776  130.4755  150.6605 LP  0  0  0  0  0  0  0  0  0  0  0  0  # atno 17371 bound_to 10713
  141.1907  133.8212  157.0909 LP  0  0  0  0  0  0  0  0  0  0  0  0  # atno 17394 bound_to 11000
  140.0441  134.9839  157.1017 LP  0  0  0  0  0  0  0  0  0  0  0  0  # atno 17395 bound_to 11000

$$$$
