#       Name:                AV-unprocessed.smi:955
#       Creating user name   scv26
#       Creation time:       Fri Mar 27 02:17:00 2020


#       File generated by GOLD software.
#

@<TRIPOS>MOLECULE
AV-unprocessed.smi:955
    34    34     1
SMALL
NO_CHARGES


@<TRIPOS>ATOM
      1 ****        -2.5605  -0.8220  -2.0455 C.3            1 S1                 0.0000
      2 ****        -2.1191  -0.6434  -0.5834 C.3            1 S1                 0.0000
      3 ****        -0.6618  -0.7365  -0.5374 N.am           1 S1                 0.0000
      4 ****         0.0633  -1.0485   0.5495 C.2            1 S1                 0.0000
      5 ****        -0.4430  -1.3568   1.6293 O.2            1 S1                 0.0000
      6 ****         1.5896  -0.9896   0.3825 C.3            1 S1                 0.0000
      7 ****         2.3411  -1.8420   1.4259 C.3            1 S1                 0.0000
      8 ****         2.0364   0.3992   0.3740 N.pl3          1 S1                 0.0000
      9 ****         2.2965   1.1989  -0.7207 C.2            1 S1                 0.0000
     10 ****         2.6355   2.4368  -0.2554 C.2            1 S1                 0.0000
     11 ****         2.5407   2.3035   1.1573 C.2            1 S1                 0.0000
     12 ****         2.1754   1.0884   1.5308 N.2            1 S1                 0.0000
     13 ****        -2.5742   0.7492  -0.1168 C.2            1 S1                 0.0000
     14 ****        -3.6852   0.8043   0.6214 N.am           1 S1                 0.0000
     15 ****        -1.9457   1.7606  -0.4275 O.2            1 S1                 0.0000
     16 ****        -3.6456  -0.7638  -2.1415 H              1 S1                 0.0000
     17 ****        -2.2546  -1.7966  -2.4275 H              1 S1                 0.0000
     18 ****        -2.1271  -0.0623  -2.6981 H              1 S1                 0.0000
     19 ****        -2.5706  -1.4212   0.0358 H              1 S1                 0.0000
     20 ****        -0.1661  -0.4921  -1.3821 H              1 S1                 0.0000
     21 ****         1.8227  -1.4067  -0.5986 H              1 S1                 0.0000
     22 ****         2.0333  -2.8867   1.3737 H              1 S1                 0.0000
     23 ****         2.1633  -1.4968   2.4453 H              1 S1                 0.0000
     24 ****         3.4168  -1.8103   1.2504 H              1 S1                 0.0000
     25 ****         2.2168   0.8247  -1.7306 H              1 S1                 0.0000
     26 ****         2.9033   3.3070  -0.8359 H              1 S1                 0.0000
     27 ****         2.7203   3.0497   1.9170 H              1 S1                 0.0000
     28 ****        -4.0332   1.6955   0.9441 H              1 S1                 0.0000
     29 ****        -4.1799  -0.0469   0.8451 H              1 S1                 0.0000
     30 ****        -1.4380  -1.3830   1.7257 LP             1 S1                 0.0000
     31 ****         0.1409  -1.5808   2.4095 LP             1 S1                 0.0000
     32 ****         2.0332   0.7530   2.4621 LP             1 S1                 0.0000
     33 ****        -1.1242   1.6849  -0.9926 LP             1 S1                 0.0000
     34 ****        -2.2566   2.6582  -0.1149 LP             1 S1                 0.0000
@<TRIPOS>BOND
    1    1    2 1     
    2    1   16 1     
    3    1   17 1     
    4    1   18 1     
    5    2    3 1     
    6    2   13 1     
    7    2   19 1     
    8    3    4 am    
    9    3   20 1     
   10    4    5 2     
   11    4    6 1     
   12    6    7 1     
   13    6    8 1     
   14    6   21 1     
   15    7   22 1     
   16    7   23 1     
   17    7   24 1     
   18    8   12 1     
   19    8    9 1     
   20    9   10 2     
   21    9   25 1     
   22   10   11 1     
   23   10   26 1     
   24   11   12 2     
   25   11   27 1     
   26   13   14 am    
   27   13   15 2     
   28   14   28 1     
   29   14   29 1     
   30    5   30 1     
   31    5   31 1     
   32   12   32 1     
   33   15   33 1     
   34   15   34 1     
@<TRIPOS>SUBSTRUCTURE
      1 S1             1
@<TRIPOS>SET
LONE_PAIRS      STATIC     ATOMS    <user>   **** ""
5 30 31 32 33 34
DONOR_HYDROGENS      STATIC     ATOMS    <user>   **** ""
3 20 28 29
ATOM$BLUE        STATIC     ATOMS    COLORGROUP SYSTEM
5 30 31 32 33 34
ATOM$RED        STATIC     ATOMS    COLORGROUP SYSTEM
3 20 28 29
