#       Name:                AV-unprocessed.smi:1487
#       Creating user name   scv26
#       Creation time:       Fri Mar 27 06:11:56 2020


#       File generated by GOLD software.
#

@<TRIPOS>MOLECULE
AV-unprocessed.smi:1487
    53    55     1
SMALL
NO_CHARGES


@<TRIPOS>ATOM
      1 ****        -4.4839   3.8134   3.0941 C.3            1 S1                 0.0000
      2 ****        -3.7540   3.0066   2.0337 C.ar           1 S1                 0.0000
      3 ****        -3.4850   3.6174   0.7882 C.ar           1 S1                 0.0000
      4 ****        -2.8154   2.8546  -0.1611 C.ar           1 S1                 0.0000
      5 ****        -2.4084   3.1640  -1.4604 N.pl3          1 S1                 1.0000
      6 ****        -1.7816   2.0871  -2.0096 C.2            1 S1                 0.0000
      7 ****        -1.7808   1.0931  -1.0793 N.pl3          1 S1                 0.0000
      8 ****        -1.2446  -0.2738  -1.1665 C.3            1 S1                 0.0000
      9 ****         0.2597  -0.3553  -0.8397 C.3            1 S1                 0.0000
     10 ****         0.4905   0.1339   0.4671 O.3            1 S1                 0.0000
     11 ****         0.7785  -1.8051  -0.9177 C.3            1 S1                 0.0000
     12 ****         2.2505  -1.8956  -0.7375 N.4            1 S1                 1.0000
     13 ****         2.6736  -3.2107  -0.1889 C.3            1 S1                 0.0000
     14 ****         4.1799  -3.2260   0.1239 C.3            1 S1                 0.0000
     15 ****         5.0040  -2.8649  -1.1186 C.3            1 S1                 0.0000
     16 ****         4.5289  -1.5184  -1.6835 C.3            1 S1                 0.0000
     17 ****         5.2282  -1.2332  -2.8762 O.3            1 S1                 0.0000
     18 ****         3.0153  -1.5428  -1.9638 C.3            1 S1                 0.0000
     19 ****        -2.4165   1.5272   0.0910 C.ar           1 S1                 0.0000
     20 ****        -2.6739   0.9108   1.3137 C.ar           1 S1                 0.0000
     21 ****        -3.3544   1.6700   2.2924 C.ar           1 S1                 0.0000
     22 ****        -3.6496   1.0226   3.6347 C.3            1 S1                 0.0000
     23 ****        -4.6510   4.8406   2.7693 H              1 S1                 0.0000
     24 ****        -3.9058   3.8483   4.0178 H              1 S1                 0.0000
     25 ****        -5.4556   3.3683   3.3092 H              1 S1                 0.0000
     26 ****        -3.7875   4.6342   0.5837 H              1 S1                 0.0000
     27 ****        -1.3642   2.0317  -3.0049 H              1 S1                 0.0000
     28 ****        -1.8278  -0.9309  -0.5208 H              1 S1                 0.0000
     29 ****        -1.4194  -0.6196  -2.1861 H              1 S1                 0.0000
     30 ****         0.7989   0.2830  -1.5391 H              1 S1                 0.0000
     31 ****         0.1823   1.0266   0.5126 H              1 S1                 0.0000
     32 ****         0.2737  -2.3909  -0.1476 H              1 S1                 0.0000
     33 ****         0.5050  -2.2614  -1.8702 H              1 S1                 0.0000
     34 ****         2.1197  -3.4246   0.7261 H              1 S1                 0.0000
     35 ****         2.4274  -3.9999  -0.9012 H              1 S1                 0.0000
     36 ****         4.3950  -2.5173   0.9249 H              1 S1                 0.0000
     37 ****         4.4743  -4.2088   0.4934 H              1 S1                 0.0000
     38 ****         6.0639  -2.8189  -0.8654 H              1 S1                 0.0000
     39 ****         4.8935  -3.6481  -1.8701 H              1 S1                 0.0000
     40 ****         4.7510  -0.7254  -0.9679 H              1 S1                 0.0000
     41 ****         5.0776  -1.9327  -3.4939 H              1 S1                 0.0000
     42 ****         2.7886  -2.2650  -2.7503 H              1 S1                 0.0000
     43 ****         2.7052  -0.5660  -2.3341 H              1 S1                 0.0000
     44 ****        -2.3668  -0.1045   1.5162 H              1 S1                 0.0000
     45 ****        -3.3286  -0.0193   3.6546 H              1 S1                 0.0000
     46 ****        -4.7190   1.0440   3.8449 H              1 S1                 0.0000
     47 ****        -3.1280   1.5476   4.4355 H              1 S1                 0.0000
     48 ****         2.4877  -1.2110  -0.0332 H              1 S1                 0.0000
     49 ****        -2.5493   4.0442  -1.9401 H              1 S1                 0.0000
     50 ****         1.4692   0.1043   0.6703 LP             1 S1                 0.0000
     51 ****        -0.0047  -0.4279   1.1298 LP             1 S1                 0.0000
     52 ****         6.2066  -1.1610  -2.6827 LP             1 S1                 0.0000
     53 ****         4.8997  -0.3700  -3.2598 LP             1 S1                 0.0000
@<TRIPOS>BOND
    1    1    2 1     
    2    1   23 1     
    3    1   24 1     
    4    1   25 1     
    5    2   21 ar    
    6    2    3 ar    
    7    3    4 ar    
    8    3   26 1     
    9    4   19 ar    
   10    4    5 1     
   11    5    6 2     
   12    5   49 1     
   13    6    7 1     
   14    6   27 1     
   15    7    8 1     
   16    7   19 1     
   17    8    9 1     
   18    8   28 1     
   19    8   29 1     
   20    9   10 1     
   21    9   11 1     
   22    9   30 1     
   23   10   31 1     
   24   11   12 1     
   25   11   32 1     
   26   11   33 1     
   27   12   18 1     
   28   12   13 1     
   29   12   48 1     
   30   13   14 1     
   31   13   34 1     
   32   13   35 1     
   33   14   15 1     
   34   14   36 1     
   35   14   37 1     
   36   15   16 1     
   37   15   38 1     
   38   15   39 1     
   39   16   17 1     
   40   16   18 1     
   41   16   40 1     
   42   17   41 1     
   43   18   42 1     
   44   18   43 1     
   45   19   20 ar    
   46   20   21 ar    
   47   20   44 1     
   48   21   22 1     
   49   22   45 1     
   50   22   46 1     
   51   22   47 1     
   52   10   50 1     
   53   10   51 1     
   54   17   52 1     
   55   17   53 1     
@<TRIPOS>SUBSTRUCTURE
      1 S1             1
@<TRIPOS>SET
LONE_PAIRS      STATIC     ATOMS    <user>   **** ""
4 50 51 52 53
DONOR_HYDROGENS      STATIC     ATOMS    <user>   **** ""
4 49 31 48 41
ATOM$BLUE        STATIC     ATOMS    COLORGROUP SYSTEM
4 50 51 52 53
ATOM$RED        STATIC     ATOMS    COLORGROUP SYSTEM
4 49 31 48 41
