#       Name:                AV-unprocessed.smi:3080
#       Creating user name   scv26
#       Creation time:       Fri Mar 27 17:13:44 2020


#       File generated by GOLD software.
#

@<TRIPOS>MOLECULE
AV-unprocessed.smi:3080
    28    29     1
SMALL
NO_CHARGES


@<TRIPOS>ATOM
      1 ****        -2.6525   3.5382   0.3618 C.ar           1 S1                 0.0000
      2 ****        -2.5529   2.9328  -0.9057 C.ar           1 S1                 0.0000
      3 ****        -2.0560   1.6179  -0.9923 C.ar           1 S1                 0.0000
      4 ****        -1.6793   0.9616   0.1992 C.ar           1 S1                 0.0000
      5 ****        -1.1356  -0.4542   0.1652 C.3            1 S1                 0.0000
      6 ****         0.3970  -0.4890   0.2442 C.3            1 S1                 0.0000
      7 ****         0.8591  -1.8666   0.2059 N.3            1 S1                 0.0000
      8 ****         2.3067  -1.8879   0.2812 C.3            1 S1                 0.0000
      9 ****         3.0776  -1.8254  -1.0178 C.3            1 S1                 0.0000
     10 ****         3.0037  -3.1202  -0.2468 C.3            1 S1                 0.0000
     11 ****        -1.7689   1.5381   1.4192 N.ar           1 S1                 0.0000
     12 ****        -2.2473   2.7992   1.4911 C.ar           1 S1                 0.0000
     13 ****        -3.0298   4.5447   0.4663 H              1 S1                 0.0000
     14 ****        -2.8522   3.4671  -1.7954 H              1 S1                 0.0000
     15 ****        -1.9663   1.1276  -1.9505 H              1 S1                 0.0000
     16 ****        -1.5677  -1.0172   0.9940 H              1 S1                 0.0000
     17 ****        -1.4746  -0.9447  -0.7484 H              1 S1                 0.0000
     18 ****         0.8275   0.0660  -0.5905 H              1 S1                 0.0000
     19 ****         0.7374  -0.0141   1.1655 H              1 S1                 0.0000
     20 ****         0.4655  -2.3704   0.9879 H              1 S1                 0.0000
     21 ****         2.7882  -1.4187   1.1374 H              1 S1                 0.0000
     22 ****         2.5110  -1.7605  -1.9448 H              1 S1                 0.0000
     23 ****         4.0256  -1.2914  -1.0129 H              1 S1                 0.0000
     24 ****         3.9027  -3.4484   0.2709 H              1 S1                 0.0000
     25 ****         2.3902  -3.9166  -0.6641 H              1 S1                 0.0000
     26 ****        -2.3094   3.2321   2.4785 H              1 S1                 0.0000
     27 ****         0.5682  -2.3009  -0.6466 LP             1 S1                 0.0000
     28 ****        -1.4894   1.0455   2.2434 LP             1 S1                 0.0000
@<TRIPOS>BOND
    1    1   12 ar    
    2    1    2 ar    
    3    1   13 1     
    4    2    3 ar    
    5    2   14 1     
    6    3    4 ar    
    7    3   15 1     
    8    4    5 1     
    9    4   11 ar    
   10    5    6 1     
   11    5   16 1     
   12    5   17 1     
   13    6    7 1     
   14    6   18 1     
   15    6   19 1     
   16    7    8 1     
   17    7   20 1     
   18    8   10 1     
   19    8    9 1     
   20    8   21 1     
   21    9   10 1     
   22    9   22 1     
   23    9   23 1     
   24   10   24 1     
   25   10   25 1     
   26   11   12 ar    
   27   12   26 1     
   28    7   27 1     
   29   11   28 1     
@<TRIPOS>SUBSTRUCTURE
      1 S1             1
@<TRIPOS>SET
LONE_PAIRS      STATIC     ATOMS    <user>   **** ""
2 27 28
DONOR_HYDROGENS      STATIC     ATOMS    <user>   **** ""
1 20
ATOM$BLUE        STATIC     ATOMS    COLORGROUP SYSTEM
2 27 28
ATOM$RED        STATIC     ATOMS    COLORGROUP SYSTEM
1 20
