AV-unprocessed.smi:3338|AV-procd|sdf|12875|dock8
  -GOLD-   2272019273D 1   1.00000     0.00000
 Structure written by MMmdl.
 44 45  0  0  0  0  0  0  0  0  2 V2000
  148.1170  133.5322  153.2257 C   0  0  0  0  0  0  0  0  0  0  0  0
  146.5817  133.6308  153.2578 C   0  0  2  0  0  0  0  0  0  0  0  0
  145.9254  133.1588  151.9475 C   0  0  0  0  0  0  0  0  0  0  0  0
  146.1167  134.1907  150.8275 C   0  0  0  0  0  0  0  0  0  0  0  0
  145.6338  135.5808  151.2704 C   0  0  0  0  0  0  0  0  0  0  0  0
  146.3155  136.0159  152.5170 N   0  3  1  0  0  0  0  0  0  0  0  0
  145.9734  137.4145  152.8801 C   0  0  0  0  0  0  0  0  0  0  0  0
  146.5178  138.4368  151.8693 C   0  0  0  0  0  0  0  0  0  0  0  0
  147.5681  139.2420  152.4760 N   0  0  0  0  0  0  0  0  0  0  0  0
  147.4897  139.7923  153.6972 C   0  0  0  0  0  0  0  0  0  0  0  0
  146.4917  139.6889  154.4114 O   0  0  0  0  0  0  0  0  0  0  0  0
  148.7260  140.5759  154.1727 C   0  0  1  0  0  0  0  0  0  0  0  0
  148.4585  141.4178  155.4362 C   0  0  0  0  0  0  0  0  0  0  0  0
  149.8667  139.6844  154.3533 N   0  0  0  0  0  0  0  0  0  0  0  0
  149.9258  138.3237  154.1294 C   0  0  0  0  0  0  0  0  0  0  0  0
  151.1860  137.9087  154.4518 C   0  0  0  0  0  0  0  0  0  0  0  0
  151.8377  139.1013  154.8715 C   0  0  0  0  0  0  0  0  0  0  0  0
  151.0466  140.1600  154.8160 N   0  0  0  0  0  0  0  0  0  0  0  0
  146.0963  135.0480  153.6271 C   0  0  0  0  0  0  0  0  0  0  0  0
  148.5538  134.2017  152.4845 H   0  0  0  0  0  0  0  0  0  0  0  0
  148.4398  132.5181  152.9877 H   0  0  0  0  0  0  0  0  0  0  0  0
  148.5450  133.7917  154.1943 H   0  0  0  0  0  0  0  0  0  0  0  0
  146.2487  132.9556  154.0472 H   0  0  0  0  0  0  0  0  0  0  0  0
  146.3255  132.1906  151.6447 H   0  0  0  0  0  0  0  0  0  0  0  0
  144.8578  133.0087  152.1142 H   0  0  0  0  0  0  0  0  0  0  0  0
  147.1674  134.2396  150.5401 H   0  0  0  0  0  0  0  0  0  0  0  0
  145.5723  133.8753  149.9368 H   0  0  0  0  0  0  0  0  0  0  0  0
  145.8318  136.2957  150.4707 H   0  0  0  0  0  0  0  0  0  0  0  0
  144.5541  135.5730  151.4293 H   0  0  0  0  0  0  0  0  0  0  0  0
  144.8879  137.5206  152.9108 H   0  0  0  0  0  0  0  0  0  0  0  0
  146.3331  137.6334  153.8869 H   0  0  0  0  0  0  0  0  0  0  0  0
  146.9263  137.9420  150.9880 H   0  0  0  0  0  0  0  0  0  0  0  0
  145.7127  139.0908  151.5299 H   0  0  0  0  0  0  0  0  0  0  0  0
  148.4184  139.3720  151.9471 H   0  0  0  0  0  0  0  0  0  0  0  0
  148.9843  141.2707  153.3719 H   0  0  0  0  0  0  0  0  0  0  0  0
  147.6448  142.1254  155.2738 H   0  0  0  0  0  0  0  0  0  0  0  0
  149.3417  141.9952  155.7111 H   0  0  0  0  0  0  0  0  0  0  0  0
  148.1919  140.7964  156.2922 H   0  0  0  0  0  0  0  0  0  0  0  0
  149.0749  137.7687  153.7623 H   0  0  0  0  0  0  0  0  0  0  0  0
  151.5828  136.9057  154.3960 H   0  0  0  0  0  0  0  0  0  0  0  0
  152.8540  139.2283  155.2143 H   0  0  0  0  0  0  0  0  0  0  0  0
  145.0323  135.0207  153.8684 H   0  0  0  0  0  0  0  0  0  0  0  0
  146.6083  135.3750  154.5314 H   0  0  0  0  0  0  0  0  0  0  0  0
  147.3047  136.0083  152.3121 H   0  0  0  0  0  0  0  0  0  0  0  0
  1  2  1  0  0  0  0
  1 20  1  0  0  0  0
  1 21  1  0  0  0  0
  1 22  1  0  0  0  0
  2 19  1  0  0  0  0
  2  3  1  0  0  0  0
  2 23  1  0  0  0  0
  3  4  1  0  0  0  0
  3 24  1  0  0  0  0
  3 25  1  0  0  0  0
  4  5  1  0  0  0  0
  4 26  1  0  0  0  0
  4 27  1  0  0  0  0
  5  6  1  0  0  0  0
  5 28  1  0  0  0  0
  5 29  1  0  0  0  0
  6  7  1  0  0  0  0
  6 19  1  0  0  0  0
  6 44  1  0  0  0  0
  7  8  1  0  0  0  0
  7 30  1  0  0  0  0
  7 31  1  0  0  0  0
  8  9  1  0  0  0  0
  8 32  1  0  0  0  0
  8 33  1  0  0  0  0
  9 10  1  0  0  0  0
  9 34  1  0  0  0  0
 10 11  2  0  0  0  0
 10 12  1  0  0  0  0
 12 13  1  0  0  0  0
 12 14  1  0  0  0  0
 12 35  1  0  0  0  0
 13 36  1  0  0  0  0
 13 37  1  0  0  0  0
 13 38  1  0  0  0  0
 14 18  1  0  0  0  0
 14 15  1  0  0  0  0
 15 16  2  0  0  0  0
 15 39  1  0  0  0  0
 16 17  1  0  0  0  0
 16 40  1  0  0  0  0
 17 18  2  0  0  0  0
 17 41  1  0  0  0  0
 19 42  1  0  0  0  0
 19 43  1  0  0  0  0
M  CHG  1   6   1
M  END
> <s_m_source_file>
AV-unprocessed.smi

> <i_m_source_file_index>
3338

> <i_lp_mmshare_version>
43012

> <i_f3d_flags>
0

> <s_epik_input>
W0NIM11bQ0BASF0xW0NIMl1bQ0gyXVtDSDJdTihbQ0gyXTEpW0NIMl1bQ0gyXVtOSF1DKD1PKVtDQEhdKFtDSDNdKW4yW2NIXVtjSF1bY0hdbjI=

> <s_epik_cmdline>
J2VwaWtfcHl0aG9uJywgJy1waCcsICc3LjAnLCAnLXRuJywgJzgnLCAnLW1hJywgJzIwMCcsICctbWV0YWxfYmluZGluZycsICctaW1hZScsICc8aW5maWxlLm1hZT4nLCAnLW9tYWUnLCAnPG91dGZpbGUubWFlPic=

> <r_lp_tautomer_probability>
1

> <r_epik_Ionization_Penalty>
0.00225707

> <r_epik_Ionization_Penalty_Charging>
0.00223709

> <r_epik_Ionization_Penalty_Neutral>
1.99775e-05

> <r_epik_State_Penalty>
0.00153978

> <r_epik_Charging_Adjusted_Penalty>
0.00377687

> <i_epik_Tot_Q>
1

> <i_epik_Tot_abs_Q>
1

> <r_epik_Metal_State_Penalty>
-0

> <b_epik_Metal_Only>
0

> <s_lp_Force_Field>
OPLS_2005

> <r_lp_Energy>
23.0994

> <b_lp_Chiralities_Consistent>
1

> <s_lp_Variant>
AV-unprocessed.smi:3338-7

> <Gold.Version>
5.8.1

> <Gold.Id.Protein>
6NUR|6NUR_protein|mol2

> <Gold.PLP.Fitness>
50.4983

> <Gold.PLP.PLP>
-37.1102

> <Gold.PLP.part.hbond>
-3.0373

> <Gold.PLP.part.metal>
0.0000

> <Gold.PLP.part.buried>
-2.7034

> <Gold.PLP.part.nonpolar>
-32.2585

> <Gold.PLP.part.repulsive>
0.2566

> <Gold.PLP.ligand.clash>
0.0000

> <Gold.PLP.ligand.torsion>
0.7498

> <Gold.PLP.Chemscore.Hbond>
4.0000

> <Gold.PLP.Chemscore.CHOScore>
0.9192

> <Gold.PLP.Chemscore.Metal>
0.0000

> <Gold.Chemscore.Hbonds>
donor molecule, donor type, donor heavy atom, donor atom, acceptor molecule, acceptor atom, score
      L1  H     6    44       P1  7948  2.00
      L1  H     9    34       P1  7957  1.00
      P1  H  7989  7998       L1    18  1.00
      L1  C    15    39       P1  7948  0.95

> <Gold.PLP.Chemscore.Internal.Correction>
0.1302

> <Gold.Rescore>
     Score         DG    S(hbond)    S(metal)    S(lipo)     H(rot)  DE(clash)    DE(int)     intcor
     16.90     -19.32       2.82        0.00      76.10       1.76       0.04       2.37       ----

> <Gold.Chemscore.Fitness>
16.9007

> <Gold.Chemscore.DG>
-19.3169

> <Gold.Chemscore.ZeroCoef>
-5.4800

> <Gold.Chemscore.Hbond>
2.8236

> <Gold.Chemscore.Metal>
0.0000

> <Gold.Chemscore.Lipo>
76.1021

> <Gold.Chemscore.Internal_Hbond>
0.0000

> <Gold.Chemscore.DEClash>
0.0412

> <Gold.Chemscore.DEInternal>
2.3749

> <Gold.Chemscore.Rot>
1.7570

> <Gold.Chemscore.Internal.Correction>
   9.000000E+99

> <Gold.Chemscore.Hbonds>
donor molecule, donor type, donor heavy atom, donor atom, acceptor molecule, acceptor atom, score
      L1  H     6    44       P1  7948  1.00
      L1  H     9    34       P1  7957  0.95
      P1  H  7989  7998       L1    18  0.08

> <Gold.Chemscore.Hbond.Weighted>
-9.4308

> <Gold.Chemscore.Metal.Weighted>
-0.0000

> <Gold.Chemscore.Lipo.Weighted>
-8.9039

> <Gold.Chemscore.Internal_Hbond.Weighted>
0.0000

> <Gold.Chemscore.DEClash.Weighted>
0.0412

> <Gold.Chemscore.DEInternal.Weighted>
2.3749

> <Gold.Chemscore.Rot.Weighted>
4.4979

> <Gold.Chemscore.Internal.Correction.Weighted>
   9.000000E+99

> <Gold.Protein.RotatedTorsions>
[ 6907 6896 6895 6894 ] final -160.27 input  -60.11 | X-H torsion
[ 7974 7965 7964 7962 ] final  -36.21 input  175.53 | X-H torsion
[ 8008 7997 7996 7995 ] final  -45.80 input   59.86 | X-H torsion
[ 10167 10162 10161 10158 ] final  -88.60 input  -65.29 | X-H torsion
[ 10718 10713 10712 10709 ] final -113.08 input   66.30 | X-H torsion
[ 10763 10752 10751 10750 ] final  -51.03 input  -60.55 | X-H torsion
[ 11005 11000 10999 10996 ] final -135.54 input  -57.11 | X-H torsion

> <Gold.Protein.ActiveResidues>
 VAL166  LYS551  ARG553  GLY616  TRP617  ASP618  TYR619  PRO620  LYS621  CYS622 
 ASP623  PHE694  ASN695  SER759  ASP760  ASP761  ALA762  ILE779  LEU786  VAL792 
 PHE793  MET794  SER795  GLU796  ALA797  LYS798  CYS799  TRP800  GLU811  SER814 

> <Gold.Protein.RotatedAtoms>
  151.3465  133.3942  159.2675 H   0  0  0  0  0  0  0  0  0  0  0  0  # atno 6907 bound_to 6896
  150.9835  134.9186  159.7868 H   0  0  0  0  0  0  0  0  0  0  0  0  # atno 6908 bound_to 6896
  152.5225  134.3430  159.9276 H   0  0  0  0  0  0  0  0  0  0  0  0  # atno 6909 bound_to 6896
  146.0681  140.6251  142.8965 H   0  0  0  0  0  0  0  0  0  0  0  0  # atno 7974 bound_to 7965
  154.4003  140.1387  156.3907 H   0  0  0  0  0  0  0  0  0  0  0  0  # atno 8008 bound_to 7997
  155.7917  140.3478  155.5332 H   0  0  0  0  0  0  0  0  0  0  0  0  # atno 8009 bound_to 7997
  155.8573  140.0951  157.1627 H   0  0  0  0  0  0  0  0  0  0  0  0  # atno 8010 bound_to 7997
  140.3731  143.2785  151.9476 H   0  0  0  0  0  0  0  0  0  0  0  0  # atno 10167 bound_to 10162
  156.0745  130.5954  150.8594 H   0  0  0  0  0  0  0  0  0  0  0  0  # atno 10718 bound_to 10713
  154.1200  135.6536  153.4901 H   0  0  0  0  0  0  0  0  0  0  0  0  # atno 10763 bound_to 10752
  153.0228  135.5268  154.7107 H   0  0  0  0  0  0  0  0  0  0  0  0  # atno 10764 bound_to 10752
  154.6311  135.2976  155.0185 H   0  0  0  0  0  0  0  0  0  0  0  0  # atno 10765 bound_to 10752
  140.8889  134.1837  157.4541 H   0  0  0  0  0  0  0  0  0  0  0  0  # atno 11005 bound_to 11000
  144.7215  140.4387  143.7005 LP  0  0  0  0  0  0  0  0  0  0  0  0  # atno 17320 bound_to 7965
  145.6440  139.1554  143.2899 LP  0  0  0  0  0  0  0  0  0  0  0  0  # atno 17321 bound_to 7965
  139.4802  144.5888  151.7807 LP  0  0  0  0  0  0  0  0  0  0  0  0  # atno 17342 bound_to 10162
  140.5013  144.1164  150.5972 LP  0  0  0  0  0  0  0  0  0  0  0  0  # atno 17343 bound_to 10162
  157.5833  131.0946  150.9237 LP  0  0  0  0  0  0  0  0  0  0  0  0  # atno 17370 bound_to 10713
  156.9428  130.5391  149.5280 LP  0  0  0  0  0  0  0  0  0  0  0  0  # atno 17371 bound_to 10713
  139.8727  134.9850  156.5262 LP  0  0  0  0  0  0  0  0  0  0  0  0  # atno 17394 bound_to 11000
  140.8371  133.8234  155.9039 LP  0  0  0  0  0  0  0  0  0  0  0  0  # atno 17395 bound_to 11000

$$$$
