AV-unprocessed.smi:1512|AV-procd|sdf|6102|dock7
  -GOLD-   22720 6233D 1   1.00000     0.00000
 Structure written by MMmdl.
 44 46  0  0  0  0  0  0  0  0  3 V2000
  145.1489  136.2508  151.8104 C   0  0  0  0  0  0  0  0  0  0  0  0
  145.5358  134.8052  152.1685 C   0  0  2  0  0  0  0  0  0  0  0  0
  146.8030  134.7989  152.8966 N   0  0  0  0  0  0  0  0  0  0  0  0
  147.0292  134.1846  154.0678 C   0  0  0  0  0  0  0  0  0  0  0  0
  146.1630  133.5577  154.6796 O   0  0  0  0  0  0  0  0  0  0  0  0
  148.4539  134.3190  154.6258 C   0  0  0  0  0  0  0  0  0  0  0  0
  149.1233  133.0266  154.8539 N   0  0  0  0  0  0  0  0  0  0  0  0
  148.7584  131.9649  154.0051 C   0  0  0  0  0  0  0  0  0  0  0  0
  149.3087  130.7477  154.1160 C   0  0  0  0  0  0  0  0  0  0  0  0
  150.2994  130.5376  155.1429 C   0  0  0  0  0  0  0  0  0  0  0  0
  150.6685  131.5433  155.9695 C   0  0  0  0  0  0  0  0  0  0  0  0
  151.6643  131.2627  156.9784 N   0  3  0  0  0  0  0  0  0  0  0  0
  152.3114  130.2229  156.9001 O   0  0  0  0  0  0  0  0  0  0  0  0
  151.8384  132.0838  157.8743 O   0  5  0  0  0  0  0  0  0  0  0  0
  150.0666  132.8867  155.8369 C   0  0  0  0  0  0  0  0  0  0  0  0
  150.3883  133.8379  156.5517 O   0  0  0  0  0  0  0  0  0  0  0  0
  145.6635  133.9027  150.9185 C   0  0  1  0  0  0  0  0  0  0  0  0
  146.4309  132.5803  151.1498 C   0  0  0  0  0  0  0  0  0  0  0  0
  145.4962  131.5236  150.5320 C   0  0  1  0  0  0  0  0  0  0  0  0
  144.2893  131.3127  151.4642 C   0  0  0  0  0  0  0  0  0  0  0  0
  143.4792  132.6064  151.2648 C   0  0  0  0  0  0  0  0  0  0  0  0
  144.3472  133.4051  150.2704 C   0  0  2  0  0  0  0  0  0  0  0  0
  144.8676  132.2871  149.3720 C   0  0  0  0  0  0  0  0  0  0  0  0
  144.1819  136.2898  151.3092 H   0  0  0  0  0  0  0  0  0  0  0  0
  145.8863  136.7067  151.1491 H   0  0  0  0  0  0  0  0  0  0  0  0
  145.0727  136.8731  152.7028 H   0  0  0  0  0  0  0  0  0  0  0  0
  144.7693  134.3922  152.8251 H   0  0  0  0  0  0  0  0  0  0  0  0
  147.5722  135.2930  152.4677 H   0  0  0  0  0  0  0  0  0  0  0  0
  149.0454  134.9359  153.9464 H   0  0  0  0  0  0  0  0  0  0  0  0
  148.4030  134.8898  155.5541 H   0  0  0  0  0  0  0  0  0  0  0  0
  148.0152  132.2057  153.2586 H   0  0  0  0  0  0  0  0  0  0  0  0
  149.0201  129.9460  153.4522 H   0  0  0  0  0  0  0  0  0  0  0  0
  150.7391  129.5562  155.2474 H   0  0  0  0  0  0  0  0  0  0  0  0
  146.2015  134.4716  150.1574 H   0  0  0  0  0  0  0  0  0  0  0  0
  147.3923  132.6022  150.6354 H   0  0  0  0  0  0  0  0  0  0  0  0
  146.6260  132.3772  152.2038 H   0  0  0  0  0  0  0  0  0  0  0  0
  146.0029  130.5980  150.2570 H   0  0  0  0  0  0  0  0  0  0  0  0
  143.7058  130.4443  151.1563 H   0  0  0  0  0  0  0  0  0  0  0  0
  144.5882  131.1641  152.5025 H   0  0  0  0  0  0  0  0  0  0  0  0
  142.5096  132.3771  150.8205 H   0  0  0  0  0  0  0  0  0  0  0  0
  143.2867  133.1347  152.1975 H   0  0  0  0  0  0  0  0  0  0  0  0
  143.7984  134.1849  149.7418 H   0  0  0  0  0  0  0  0  0  0  0  0
  145.5944  132.6252  148.6312 H   0  0  0  0  0  0  0  0  0  0  0  0
  144.0756  131.7310  148.8668 H   0  0  0  0  0  0  0  0  0  0  0  0
  1  2  1  0  0  0  0
  1 24  1  0  0  0  0
  1 25  1  0  0  0  0
  1 26  1  0  0  0  0
  2  3  1  0  0  0  0
  2 17  1  0  0  0  0
  2 27  1  0  0  0  0
  3  4  1  0  0  0  0
  3 28  1  0  0  0  0
  4  5  2  0  0  0  0
  4  6  1  0  0  0  0
  6  7  1  0  0  0  0
  6 29  1  0  0  0  0
  6 30  1  0  0  0  0
  7 15  1  0  0  0  0
  7  8  1  0  0  0  0
  8  9  2  0  0  0  0
  8 31  1  0  0  0  0
  9 10  1  0  0  0  0
  9 32  1  0  0  0  0
 10 11  2  0  0  0  0
 10 33  1  0  0  0  0
 11 12  1  0  0  0  0
 11 15  1  0  0  0  0
 12 13  2  0  0  0  0
 12 14  1  0  0  0  0
 15 16  2  0  0  0  0
 17 22  1  0  0  0  0
 17 18  1  0  0  0  0
 17 34  1  0  0  0  0
 18 19  1  0  0  0  0
 18 35  1  0  0  0  0
 18 36  1  0  0  0  0
 19 23  1  0  0  0  0
 19 20  1  0  0  0  0
 19 37  1  0  0  0  0
 20 21  1  0  0  0  0
 20 38  1  0  0  0  0
 20 39  1  0  0  0  0
 21 22  1  0  0  0  0
 21 40  1  0  0  0  0
 21 41  1  0  0  0  0
 22 23  1  0  0  0  0
 22 42  1  0  0  0  0
 23 43  1  0  0  0  0
 23 44  1  0  0  0  0
M  CHG  1  12   1
M  CHG  1  14  -1
M  END
> <s_m_source_file>
AV-unprocessed.smi

> <i_m_source_file_index>
1512

> <i_lp_mmshare_version>
43012

> <i_f3d_flags>
0

> <s_epik_input>
W0NIMl0xW0NIMl1bQ0BIXShbQ0gyXTIpW0NAQEhdKFtDSDJdW0NAQEhdMTIpW0NASF0oW0NIM10pW05IXUMoPU8pW0NIMl1uM1tjSF1bY0hdW2NIXWMoW04rXSg9TylbTy1dKWMzPU8=

> <s_epik_cmdline>
J2VwaWtfcHl0aG9uJywgJy1waCcsICc3LjAnLCAnLXRuJywgJzgnLCAnLW1hJywgJzIwMCcsICctbWV0YWxfYmluZGluZycsICctaW1hZScsICc8aW5maWxlLm1hZT4nLCAnLW9tYWUnLCAnPG91dGZpbGUubWFlPic=

> <r_lp_tautomer_probability>
1

> <r_epik_Ionization_Penalty>
2.17697e-08

> <r_epik_Ionization_Penalty_Charging>
1.42735e-10

> <r_epik_Ionization_Penalty_Neutral>
2.16269e-08

> <r_epik_State_Penalty>
-0

> <r_epik_Charging_Adjusted_Penalty>
1.42735e-10

> <i_epik_Tot_Q>
0

> <i_epik_Tot_abs_Q>
2

> <r_epik_Metal_State_Penalty>
-0

> <b_epik_Metal_Only>
0

> <s_lp_Force_Field>
OPLS_2005

> <r_lp_Energy>
64.3295

> <b_lp_Chiralities_Consistent>
1

> <s_lp_Variant>
AV-unprocessed.smi:1512-3

> <Gold.Version>
5.8.1

> <Gold.Id.Protein>
6NUR|6NUR_protein|mol2

> <Gold.PLP.Fitness>
45.9793

> <Gold.PLP.PLP>
-41.6982

> <Gold.PLP.part.hbond>
-2.0000

> <Gold.PLP.part.metal>
0.0000

> <Gold.PLP.part.buried>
-3.0439

> <Gold.PLP.part.nonpolar>
-36.3707

> <Gold.PLP.part.repulsive>
0.0693

> <Gold.PLP.ligand.clash>
0.0000

> <Gold.PLP.ligand.torsion>
0.8718

> <Gold.PLP.Chemscore.Hbond>
2.0000

> <Gold.PLP.Chemscore.CHOScore>
0.0000

> <Gold.PLP.Chemscore.Metal>
0.0000

> <Gold.Chemscore.Hbonds>
donor molecule, donor type, donor heavy atom, donor atom, acceptor molecule, acceptor atom, score
      L1  H     3    28       P1  7948  1.00
      P1  H  6896  6907       L1    14  1.00

> <Gold.PLP.Chemscore.Internal.Correction>
0.0247

> <Gold.Rescore>
     Score         DG    S(hbond)    S(metal)    S(lipo)     H(rot)  DE(clash)    DE(int)     intcor
     17.42     -19.79       2.00        0.00     103.50       1.75       0.29       2.08       ----

> <Gold.Chemscore.Fitness>
17.4197

> <Gold.Chemscore.DG>
-19.7890

> <Gold.Chemscore.ZeroCoef>
-5.4800

> <Gold.Chemscore.Hbond>
1.9979

> <Gold.Chemscore.Metal>
0.0000

> <Gold.Chemscore.Lipo>
103.4987

> <Gold.Chemscore.Internal_Hbond>
0.0000

> <Gold.Chemscore.DEClash>
0.2917

> <Gold.Chemscore.DEInternal>
2.0776

> <Gold.Chemscore.Rot>
1.7474

> <Gold.Chemscore.Internal.Correction>
   9.000000E+99

> <Gold.Chemscore.Hbonds>
donor molecule, donor type, donor heavy atom, donor atom, acceptor molecule, acceptor atom, score
      L1  H     3    28       P1  7948  1.00
      P1  H  6896  6907       L1    14  1.00

> <Gold.Chemscore.Hbond.Weighted>
-6.6730

> <Gold.Chemscore.Metal.Weighted>
-0.0000

> <Gold.Chemscore.Lipo.Weighted>
-12.1093

> <Gold.Chemscore.Internal_Hbond.Weighted>
0.0000

> <Gold.Chemscore.DEClash.Weighted>
0.2917

> <Gold.Chemscore.DEInternal.Weighted>
2.0776

> <Gold.Chemscore.Rot.Weighted>
4.4733

> <Gold.Chemscore.Internal.Correction.Weighted>
   9.000000E+99

> <Gold.Protein.RotatedTorsions>
[ 6907 6896 6895 6894 ] final -173.77 input  -60.11 | X-H torsion
[ 7974 7965 7964 7962 ] final  140.81 input  175.53 | X-H torsion
[ 8008 7997 7996 7995 ] final   53.15 input   59.86 | X-H torsion
[ 10167 10162 10161 10158 ] final   85.35 input  -65.29 | X-H torsion
[ 10718 10713 10712 10709 ] final   92.24 input   66.30 | X-H torsion
[ 10763 10752 10751 10750 ] final   -2.42 input  -60.55 | X-H torsion
[ 11005 11000 10999 10996 ] final -140.66 input  -57.11 | X-H torsion

> <Gold.Protein.ActiveResidues>
 VAL166  LYS551  ARG553  GLY616  TRP617  ASP618  TYR619  PRO620  LYS621  CYS622 
 ASP623  PHE694  ASN695  SER759  ASP760  ASP761  ALA762  ILE779  LEU786  VAL792 
 PHE793  MET794  SER795  GLU796  ALA797  LYS798  CYS799  TRP800  GLU811  SER814 

> <Gold.Protein.RotatedAtoms>
  151.5616  133.3402  159.2971 H   0  0  0  0  0  0  0  0  0  0  0  0  # atno 6907 bound_to 6896
  150.8419  134.7717  159.6950 H   0  0  0  0  0  0  0  0  0  0  0  0  # atno 6908 bound_to 6896
  152.4485  134.5451  159.9902 H   0  0  0  0  0  0  0  0  0  0  0  0  # atno 6909 bound_to 6896
  144.9153  139.5238  143.5689 H   0  0  0  0  0  0  0  0  0  0  0  0  # atno 7974 bound_to 7965
  155.4636  140.3462  155.4316 H   0  0  0  0  0  0  0  0  0  0  0  0  # atno 8008 bound_to 7997
  156.1145  140.1470  156.9321 H   0  0  0  0  0  0  0  0  0  0  0  0  # atno 8009 bound_to 7997
  154.4779  140.0879  156.7286 H   0  0  0  0  0  0  0  0  0  0  0  0  # atno 8010 bound_to 7997
  139.8986  144.6343  150.8661 H   0  0  0  0  0  0  0  0  0  0  0  0  # atno 10167 bound_to 10162
  157.6959  131.0436  150.3851 H   0  0  0  0  0  0  0  0  0  0  0  0  # atno 10718 bound_to 10713
  153.3578  135.6989  153.6736 H   0  0  0  0  0  0  0  0  0  0  0  0  # atno 10763 bound_to 10752
  153.5437  135.3567  155.2730 H   0  0  0  0  0  0  0  0  0  0  0  0  # atno 10764 bound_to 10752
  154.8663  135.4210  154.2828 H   0  0  0  0  0  0  0  0  0  0  0  0  # atno 10765 bound_to 10752
  140.8401  134.2412  157.4814 H   0  0  0  0  0  0  0  0  0  0  0  0  # atno 11005 bound_to 11000
  146.3179  139.7991  142.8969 LP  0  0  0  0  0  0  0  0  0  0  0  0  # atno 17320 bound_to 7965
  145.3386  141.0282  143.3405 LP  0  0  0  0  0  0  0  0  0  0  0  0  # atno 17321 bound_to 7965
  140.7711  143.3454  151.2122 LP  0  0  0  0  0  0  0  0  0  0  0  0  # atno 17342 bound_to 10162
  139.7045  143.9477  152.2920 LP  0  0  0  0  0  0  0  0  0  0  0  0  # atno 17343 bound_to 10162
  156.4261  130.3962  149.6792 LP  0  0  0  0  0  0  0  0  0  0  0  0  # atno 17370 bound_to 10713
  156.4026  130.7682  151.2691 LP  0  0  0  0  0  0  0  0  0  0  0  0  # atno 17371 bound_to 10713
  139.8703  134.9631  156.4450 LP  0  0  0  0  0  0  0  0  0  0  0  0  # atno 17394 bound_to 11000
  140.8905  133.7852  155.9566 LP  0  0  0  0  0  0  0  0  0  0  0  0  # atno 17395 bound_to 11000

$$$$
