AV-unprocessed.smi:3253|AV-procd|sdf|12445|dock9
  -GOLD-   2272018343D 1   1.00000     0.00000
 Structure written by MMmdl.
 37 38  0  0  0  0  0  0  0  0  2 V2000
  150.0602  139.1303  155.9516 C   0  0  0  0  0  0  0  0  0  0  0  0
  149.7969  140.6435  156.0664 C   0  0  2  0  0  0  0  0  0  0  0  0
  149.5007  141.3105  154.7083 C   0  0  0  0  0  0  0  0  0  0  0  0
  148.0706  141.5374  154.4795 N   0  0  0  0  0  0  0  0  0  0  0  0
  147.2637  142.4615  155.0928 C   0  0  0  0  0  0  0  0  0  0  0  0
  146.0103  142.2996  154.5608 C   0  0  0  0  0  0  0  0  0  0  0  0
  146.1043  141.2826  153.6488 N   0  3  0  0  0  0  0  0  0  0  0  0
  147.3573  140.8184  153.6031 C   0  0  0  0  0  0  0  0  0  0  0  0
  150.9386  141.3097  156.6871 N   0  0  0  0  0  0  0  0  0  0  0  0
  150.9118  141.9700  157.8555 C   0  0  0  0  0  0  0  0  0  0  0  0
  149.8969  142.0825  158.5438 O   0  0  0  0  0  0  0  0  0  0  0  0
  152.2349  142.6012  158.3175 C   0  0  2  0  0  0  0  0  0  0  0  0
  152.5559  142.2311  159.7801 C   0  0  0  0  0  0  0  0  0  0  0  0
  152.4358  143.5480  160.5289 C   0  0  0  0  0  0  0  0  0  0  0  0
  152.5315  143.6324  161.7523 O   0  0  0  0  0  0  0  0  0  0  0  0
  152.2097  144.5585  159.6853 N   0  0  0  0  0  0  0  0  0  0  0  0
  152.0270  145.9543  160.0591 C   0  0  0  0  0  0  0  0  0  0  0  0
  152.1923  144.1454  158.2925 C   0  0  0  0  0  0  0  0  0  0  0  0
  149.1942  138.6025  155.5522 H   0  0  0  0  0  0  0  0  0  0  0  0
  150.2799  138.6920  156.9257 H   0  0  0  0  0  0  0  0  0  0  0  0
  150.9073  138.9244  155.2967 H   0  0  0  0  0  0  0  0  0  0  0  0
  148.9233  140.7890  156.7048 H   0  0  0  0  0  0  0  0  0  0  0  0
  150.0048  142.2756  154.6357 H   0  0  0  0  0  0  0  0  0  0  0  0
  149.8757  140.6951  153.8891 H   0  0  0  0  0  0  0  0  0  0  0  0
  147.6315  143.1496  155.8403 H   0  0  0  0  0  0  0  0  0  0  0  0
  145.0829  142.8179  154.7581 H   0  0  0  0  0  0  0  0  0  0  0  0
  147.7215  140.0220  152.9787 H   0  0  0  0  0  0  0  0  0  0  0  0
  151.8172  141.2660  156.1911 H   0  0  0  0  0  0  0  0  0  0  0  0
  153.0397  142.2530  157.6675 H   0  0  0  0  0  0  0  0  0  0  0  0
  151.8780  141.4885  160.2046 H   0  0  0  0  0  0  0  0  0  0  0  0
  153.5735  141.8511  159.8751 H   0  0  0  0  0  0  0  0  0  0  0  0
  152.8923  146.3198  160.6129 H   0  0  0  0  0  0  0  0  0  0  0  0
  151.1434  146.0675  160.6880 H   0  0  0  0  0  0  0  0  0  0  0  0
  151.8987  146.5833  159.1779 H   0  0  0  0  0  0  0  0  0  0  0  0
  153.0699  144.5493  157.7858 H   0  0  0  0  0  0  0  0  0  0  0  0
  151.3097  144.5427  157.7878 H   0  0  0  0  0  0  0  0  0  0  0  0
  145.3380  140.9302  153.0888 H   0  0  0  0  0  0  0  0  0  0  0  0
  1  2  1  0  0  0  0
  1 19  1  0  0  0  0
  1 20  1  0  0  0  0
  1 21  1  0  0  0  0
  2  3  1  0  0  0  0
  2  9  1  0  0  0  0
  2 22  1  0  0  0  0
  3  4  1  0  0  0  0
  3 23  1  0  0  0  0
  3 24  1  0  0  0  0
  4  8  1  0  0  0  0
  4  5  1  0  0  0  0
  5  6  2  0  0  0  0
  5 25  1  0  0  0  0
  6  7  1  0  0  0  0
  6 26  1  0  0  0  0
  7  8  2  0  0  0  0
  7 37  1  0  0  0  0
  8 27  1  0  0  0  0
  9 10  1  0  0  0  0
  9 28  1  0  0  0  0
 10 11  2  0  0  0  0
 10 12  1  0  0  0  0
 12 18  1  0  0  0  0
 12 13  1  0  0  0  0
 12 29  1  0  0  0  0
 13 14  1  0  0  0  0
 13 30  1  0  0  0  0
 13 31  1  0  0  0  0
 14 15  2  0  0  0  0
 14 16  1  0  0  0  0
 16 17  1  0  0  0  0
 16 18  1  0  0  0  0
 17 32  1  0  0  0  0
 17 33  1  0  0  0  0
 17 34  1  0  0  0  0
 18 35  1  0  0  0  0
 18 36  1  0  0  0  0
M  CHG  1   7   1
M  END
> <s_m_source_file>
AV-unprocessed.smi

> <i_m_source_file_index>
3253

> <i_lp_mmshare_version>
43012

> <i_f3d_flags>
0

> <s_epik_input>
W2NIXTFuW2NIXVtjSF1uMVtDSDJdW0NAQEhdKFtDSDNdKVtOSF1DKD1PKVtDQEBIXTJbQ0gyXUMoPU8pTihbQ0gzXSlbQ0gyXTI=

> <s_epik_cmdline>
J2VwaWtfcHl0aG9uJywgJy1waCcsICc3LjAnLCAnLXRuJywgJzgnLCAnLW1hJywgJzIwMCcsICctbWV0YWxfYmluZGluZycsICctaW1hZScsICc8aW5maWxlLm1hZT4nLCAnLW9tYWUnLCAnPG91dGZpbGUubWFlPic=

> <r_lp_tautomer_probability>
1

> <r_epik_Ionization_Penalty>
0.251561

> <r_epik_Ionization_Penalty_Charging>
0

> <r_epik_Ionization_Penalty_Neutral>
0.251561

> <r_epik_State_Penalty>
0.242926

> <r_epik_Charging_Adjusted_Penalty>
0.242926

> <i_epik_Tot_Q>
1

> <i_epik_Tot_abs_Q>
1

> <r_epik_Metal_State_Penalty>
0.533885

> <b_epik_Metal_Only>
0

> <s_lp_Force_Field>
OPLS_2005

> <r_lp_Energy>
15.657

> <b_lp_Chiralities_Consistent>
1

> <s_lp_Variant>
AV-unprocessed.smi:3253-1

> <Gold.Version>
5.8.1

> <Gold.Id.Protein>
6NUR|6NUR_protein|mol2

> <Gold.PLP.Fitness>
51.2685

> <Gold.PLP.PLP>
-41.0347

> <Gold.PLP.part.hbond>
-1.0000

> <Gold.PLP.part.metal>
0.0000

> <Gold.PLP.part.buried>
-1.7144

> <Gold.PLP.part.nonpolar>
-37.3324

> <Gold.PLP.part.repulsive>
0.3113

> <Gold.PLP.ligand.clash>
0.0000

> <Gold.PLP.ligand.torsion>
0.8953

> <Gold.PLP.Chemscore.Hbond>
2.0000

> <Gold.PLP.Chemscore.CHOScore>
2.0000

> <Gold.PLP.Chemscore.Metal>
0.0000

> <Gold.Chemscore.Hbonds>
donor molecule, donor type, donor heavy atom, donor atom, acceptor molecule, acceptor atom, score
      L1  H     7    37       P1 10175  2.00
      L1  C     5    25       P1  8028  0.81
      L1  C     8    27       P1  7957  0.80

> <Gold.PLP.Chemscore.Internal.Correction>
0.0243

> <Gold.Rescore>
     Score         DG    S(hbond)    S(metal)    S(lipo)     H(rot)  DE(clash)    DE(int)     intcor
     11.20     -12.02       0.97        0.00      72.68       2.03       0.04       0.78       ----

> <Gold.Chemscore.Fitness>
11.1976

> <Gold.Chemscore.DG>
-12.0196

> <Gold.Chemscore.ZeroCoef>
-5.4800

> <Gold.Chemscore.Hbond>
0.9710

> <Gold.Chemscore.Metal>
0.0000

> <Gold.Chemscore.Lipo>
72.6801

> <Gold.Chemscore.Internal_Hbond>
0.0000

> <Gold.Chemscore.DEClash>
0.0436

> <Gold.Chemscore.DEInternal>
0.7784

> <Gold.Chemscore.Rot>
2.0341

> <Gold.Chemscore.Internal.Correction>
   9.000000E+99

> <Gold.Chemscore.Hbonds>
donor molecule, donor type, donor heavy atom, donor atom, acceptor molecule, acceptor atom, score
      L1  H     7    37       P1 10175  0.45

> <Gold.Chemscore.Hbond.Weighted>
-3.2432

> <Gold.Chemscore.Metal.Weighted>
-0.0000

> <Gold.Chemscore.Lipo.Weighted>
-8.5036

> <Gold.Chemscore.Internal_Hbond.Weighted>
0.0000

> <Gold.Chemscore.DEClash.Weighted>
0.0436

> <Gold.Chemscore.DEInternal.Weighted>
0.7784

> <Gold.Chemscore.Rot.Weighted>
5.2072

> <Gold.Chemscore.Internal.Correction.Weighted>
   9.000000E+99

> <Gold.Protein.RotatedTorsions>
[ 6907 6896 6895 6894 ] final  -45.33 input  -60.11 | X-H torsion
[ 7974 7965 7964 7962 ] final  166.52 input  175.53 | X-H torsion
[ 8008 7997 7996 7995 ] final  -82.72 input   59.86 | X-H torsion
[ 10167 10162 10161 10158 ] final  -34.18 input  -65.29 | X-H torsion
[ 10718 10713 10712 10709 ] final  -37.08 input   66.30 | X-H torsion
[ 10763 10752 10751 10750 ] final  -56.77 input  -60.55 | X-H torsion
[ 11005 11000 10999 10996 ] final -167.48 input  -57.11 | X-H torsion

> <Gold.Protein.ActiveResidues>
 VAL166  LYS551  ARG553  GLY616  TRP617  ASP618  TYR619  PRO620  LYS621  CYS622 
 ASP623  PHE694  ASN695  SER759  ASP760  ASP761  ALA762  ILE779  LEU786  VAL792 
 PHE793  MET794  SER795  GLU796  ALA797  LYS798  CYS799  TRP800  GLU811  SER814 

> <Gold.Protein.RotatedAtoms>
  150.9231  134.8649  159.7501 H   0  0  0  0  0  0  0  0  0  0  0  0  # atno 6907 bound_to 6896
  152.5002  134.4188  159.9483 H   0  0  0  0  0  0  0  0  0  0  0  0  # atno 6908 bound_to 6896
  151.4221  133.3655  159.2792 H   0  0  0  0  0  0  0  0  0  0  0  0  # atno 6909 bound_to 6896
  144.7459  139.8627  143.6382 H   0  0  0  0  0  0  0  0  0  0  0  0  # atno 7974 bound_to 7965
  154.6115  140.0629  156.9500 H   0  0  0  0  0  0  0  0  0  0  0  0  # atno 8008 bound_to 7997
  155.1965  140.3311  155.4331 H   0  0  0  0  0  0  0  0  0  0  0  0  # atno 8009 bound_to 7997
  156.2379  140.1872  156.7051 H   0  0  0  0  0  0  0  0  0  0  0  0  # atno 8010 bound_to 7997
  140.7190  143.3566  151.2047 H   0  0  0  0  0  0  0  0  0  0  0  0  # atno 10167 bound_to 10162
  156.3194  130.4263  149.7975 H   0  0  0  0  0  0  0  0  0  0  0  0  # atno 10718 bound_to 10713
  154.2119  135.6393  153.5118 H   0  0  0  0  0  0  0  0  0  0  0  0  # atno 10763 bound_to 10752
  152.9988  135.5476  154.6206 H   0  0  0  0  0  0  0  0  0  0  0  0  # atno 10764 bound_to 10752
  154.5645  135.2911  155.0861 H   0  0  0  0  0  0  0  0  0  0  0  0  # atno 10765 bound_to 10752
  140.5527  134.5412  157.5126 H   0  0  0  0  0  0  0  0  0  0  0  0  # atno 11005 bound_to 11000
  146.1337  139.4378  143.0152 LP  0  0  0  0  0  0  0  0  0  0  0  0  # atno 17320 bound_to 7965
  145.7124  141.0102  143.1446 LP  0  0  0  0  0  0  0  0  0  0  0  0  # atno 17321 bound_to 7965
  139.7109  143.9378  152.2947 LP  0  0  0  0  0  0  0  0  0  0  0  0  # atno 17342 bound_to 10162
  139.9103  144.6860  150.8569 LP  0  0  0  0  0  0  0  0  0  0  0  0  # atno 17343 bound_to 10162
  156.5288  130.8248  151.3230 LP  0  0  0  0  0  0  0  0  0  0  0  0  # atno 17370 bound_to 10713
  157.7408  130.9858  150.2405 LP  0  0  0  0  0  0  0  0  0  0  0  0  # atno 17371 bound_to 10713
  139.9447  134.7724  156.0592 LP  0  0  0  0  0  0  0  0  0  0  0  0  # atno 17394 bound_to 11000
  141.1162  133.6627  156.3099 LP  0  0  0  0  0  0  0  0  0  0  0  0  # atno 17395 bound_to 11000

$$$$
