AV-unprocessed.smi:77|AV-procd|sdf|774|dock8
  -GOLD-   2262017123D 1   1.00000     0.00000
 Structure written by MMmdl.
 57 61  0  0  0  0  0  0  0  0  1 V2000
  147.2678  141.9180  159.2536 O   0  0  0  0  0  0  0  0  0  0  0  0
  147.7798  142.9162  158.7443 C   0  0  0  0  0  0  0  0  0  0  0  0
  148.9529  142.7910  157.7630 C   0  0  0  0  0  0  0  0  0  0  0  0
  150.2589  143.0401  158.3870 N   0  0  0  0  0  0  0  0  0  0  0  0
  151.1301  141.9934  158.4590 C   0  0  0  0  0  0  0  0  0  0  0  0
  151.1722  141.0957  157.4370 N   0  0  0  0  0  0  0  0  0  0  0  0
  152.0085  140.0554  157.4746 C   0  0  0  0  0  0  0  0  0  0  0  0
  152.8784  139.7206  158.4272 N   0  0  0  0  0  0  0  0  0  0  0  0
  152.8482  140.6112  159.4584 C   0  0  0  0  0  0  0  0  0  0  0  0
  152.0188  141.7666  159.5530 C   0  0  0  0  0  0  0  0  0  0  0  0
  152.2927  142.4371  160.7402 N   0  0  0  0  0  0  0  0  0  0  0  0
  153.2182  141.7202  161.3143 C   0  0  0  0  0  0  0  0  0  0  0  0
  153.5923  140.5890  160.6261 N   0  0  0  0  0  0  0  0  0  0  0  0
  154.5971  139.6223  161.0353 C   0  0  0  0  0  0  0  0  0  0  0  0
  154.0569  138.1974  161.3460 C   0  0  1  0  0  0  0  0  0  0  0  0
  153.8112  137.4490  160.0132 C   0  0  0  0  0  0  0  0  0  0  0  0
  152.7190  136.5586  160.1154 O   0  0  0  0  0  0  0  0  0  0  0  0
  154.9792  137.3689  162.2909 C   0  0  1  0  0  0  0  0  0  0  0  0
  155.2498  137.9677  163.6642 C   0  0  0  0  0  0  0  0  0  0  0  0
  155.7134  136.7664  164.4797 C   0  0  0  0  0  0  0  0  0  0  0  0
  155.0548  135.6394  163.9195 O   0  0  0  0  0  0  0  0  0  0  0  0
  154.3946  136.0147  162.7170 C   0  0  0  0  0  0  0  0  0  0  0  0
  150.8097  144.3881  158.2487 C   0  0  0  0  0  0  0  0  0  0  0  0
  152.2876  144.5580  157.9733 C   0  0  0  0  0  0  0  0  0  0  0  0
  151.7252  144.9228  159.3262 C   0  0  0  0  0  0  0  0  0  0  0  0
  147.3617  144.1655  158.9920 N   0  0  0  0  0  0  0  0  0  0  0  0
  146.2864  144.5237  159.8592 C   0  0  0  0  0  0  0  0  0  0  0  0
  146.6394  145.0461  161.2350 C   0  0  0  0  0  0  0  0  0  0  0  0
  146.0572  143.6678  161.0860 C   0  0  0  0  0  0  0  0  0  0  0  0
  148.9194  141.8103  157.2860 H   0  0  0  0  0  0  0  0  0  0  0  0
  148.8010  143.5125  156.9585 H   0  0  0  0  0  0  0  0  0  0  0  0
  151.9742  139.3965  156.6199 H   0  0  0  0  0  0  0  0  0  0  0  0
  153.6448  141.9925  162.2686 H   0  0  0  0  0  0  0  0  0  0  0  0
  155.3340  139.5849  160.2328 H   0  0  0  0  0  0  0  0  0  0  0  0
  155.1207  140.0144  161.9079 H   0  0  0  0  0  0  0  0  0  0  0  0
  153.0879  138.2920  161.8368 H   0  0  0  0  0  0  0  0  0  0  0  0
  153.6289  138.1528  159.2003 H   0  0  0  0  0  0  0  0  0  0  0  0
  154.6716  136.8465  159.7262 H   0  0  0  0  0  0  0  0  0  0  0  0
  151.9347  137.0107  159.8442 H   0  0  0  0  0  0  0  0  0  0  0  0
  155.9353  137.1904  161.7961 H   0  0  0  0  0  0  0  0  0  0  0  0
  156.0065  138.7501  163.6612 H   0  0  0  0  0  0  0  0  0  0  0  0
  154.3330  138.3777  164.0902 H   0  0  0  0  0  0  0  0  0  0  0  0
  156.7894  136.6259  164.3736 H   0  0  0  0  0  0  0  0  0  0  0  0
  155.4885  136.8738  165.5410 H   0  0  0  0  0  0  0  0  0  0  0  0
  153.3284  136.1059  162.9301 H   0  0  0  0  0  0  0  0  0  0  0  0
  154.5223  135.2436  161.9569 H   0  0  0  0  0  0  0  0  0  0  0  0
  150.1506  145.1187  157.7828 H   0  0  0  0  0  0  0  0  0  0  0  0
  152.8996  143.6603  157.9111 H   0  0  0  0  0  0  0  0  0  0  0  0
  152.5829  145.3705  157.3131 H   0  0  0  0  0  0  0  0  0  0  0  0
  151.6491  145.9805  159.5696 H   0  0  0  0  0  0  0  0  0  0  0  0
  151.9760  144.2708  160.1600 H   0  0  0  0  0  0  0  0  0  0  0  0
  147.8407  144.9232  158.5272 H   0  0  0  0  0  0  0  0  0  0  0  0
  145.3957  144.9522  159.4014 H   0  0  0  0  0  0  0  0  0  0  0  0
  147.6932  145.1198  161.4975 H   0  0  0  0  0  0  0  0  0  0  0  0
  145.9997  145.8179  161.6584 H   0  0  0  0  0  0  0  0  0  0  0  0
  145.0284  143.5194  161.4079 H   0  0  0  0  0  0  0  0  0  0  0  0
  146.7219  142.8215  161.2478 H   0  0  0  0  0  0  0  0  0  0  0  0
  1  2  2  0  0  0  0
  2  3  1  0  0  0  0
  2 26  1  0  0  0  0
  3  4  1  0  0  0  0
  3 30  1  0  0  0  0
  3 31  1  0  0  0  0
  4  5  1  0  0  0  0
  4 23  1  0  0  0  0
  5 10  1  0  0  0  0
  5  6  2  0  0  0  0
  6  7  1  0  0  0  0
  7  8  2  0  0  0  0
  7 32  1  0  0  0  0
  8  9  1  0  0  0  0
  9 13  1  0  0  0  0
  9 10  2  0  0  0  0
 10 11  1  0  0  0  0
 11 12  2  0  0  0  0
 12 13  1  0  0  0  0
 12 33  1  0  0  0  0
 13 14  1  0  0  0  0
 14 15  1  0  0  0  0
 14 34  1  0  0  0  0
 14 35  1  0  0  0  0
 15 16  1  0  0  0  0
 15 18  1  0  0  0  0
 15 36  1  0  0  0  0
 16 17  1  0  0  0  0
 16 37  1  0  0  0  0
 16 38  1  0  0  0  0
 17 39  1  0  0  0  0
 18 22  1  0  0  0  0
 18 19  1  0  0  0  0
 18 40  1  0  0  0  0
 19 20  1  0  0  0  0
 19 41  1  0  0  0  0
 19 42  1  0  0  0  0
 20 21  1  0  0  0  0
 20 43  1  0  0  0  0
 20 44  1  0  0  0  0
 21 22  1  0  0  0  0
 22 45  1  0  0  0  0
 22 46  1  0  0  0  0
 23 25  1  0  0  0  0
 23 24  1  0  0  0  0
 23 47  1  0  0  0  0
 24 25  1  0  0  0  0
 24 48  1  0  0  0  0
 24 49  1  0  0  0  0
 25 50  1  0  0  0  0
 25 51  1  0  0  0  0
 26 27  1  0  0  0  0
 26 52  1  0  0  0  0
 27 29  1  0  0  0  0
 27 28  1  0  0  0  0
 27 53  1  0  0  0  0
 28 29  1  0  0  0  0
 28 54  1  0  0  0  0
 28 55  1  0  0  0  0
 29 56  1  0  0  0  0
 29 57  1  0  0  0  0
M  END
> <s_m_source_file>
AV-unprocessed.smi

> <i_m_source_file_index>
77

> <i_lp_mmshare_version>
43012

> <i_f3d_flags>
0

> <s_epik_input>
W0NIMl0xW0NIMl1bQ0hdMVtOSF1DKD1PKVtDSDJdTihbQ0hdMltDSDJdW0NIMl0yKWMobltjSF1uMyljKGMzNCluW2NIXW40W0NIMl1bQ0BIXShbQ0gyXVtPSF0pW0NAQEhdNVtDSDJdW0NIMl1PW0NIMl01

> <s_epik_cmdline>
J2VwaWtfcHl0aG9uJywgJy1waCcsICc3LjAnLCAnLXRuJywgJzgnLCAnLW1hJywgJzIwMCcsICctbWV0YWxfYmluZGluZycsICctaW1hZScsICc8aW5maWxlLm1hZT4nLCAnLW9tYWUnLCAnPG91dGZpbGUubWFlPic=

> <r_lp_tautomer_probability>
1

> <r_epik_Ionization_Penalty>
0.000703847

> <r_epik_Ionization_Penalty_Charging>
0

> <r_epik_Ionization_Penalty_Neutral>
0.000703847

> <r_epik_State_Penalty>
0.00034025

> <r_epik_Charging_Adjusted_Penalty>
0.00034025

> <i_epik_Tot_Q>
0

> <i_epik_Tot_abs_Q>
0

> <r_epik_Metal_State_Penalty>
-0

> <b_epik_Metal_Only>
0

> <s_lp_Force_Field>
OPLS_2005

> <r_lp_Energy>
54.3031

> <b_lp_Chiralities_Consistent>
1

> <s_lp_Variant>
AV-unprocessed.smi:77-4

> <Gold.Version>
5.8.1

> <Gold.Id.Protein>
6NUR|6NUR_protein|mol2

> <Gold.PLP.Fitness>
55.9724

> <Gold.PLP.PLP>
-49.9061

> <Gold.PLP.part.hbond>
-4.6465

> <Gold.PLP.part.metal>
0.0000

> <Gold.PLP.part.buried>
-3.2447

> <Gold.PLP.part.nonpolar>
-41.2457

> <Gold.PLP.part.repulsive>
0.2044

> <Gold.PLP.ligand.clash>
0.0000

> <Gold.PLP.ligand.torsion>
2.6712

> <Gold.PLP.Chemscore.Hbond>
3.2697

> <Gold.PLP.Chemscore.CHOScore>
0.0000

> <Gold.PLP.Chemscore.Metal>
0.0000

> <Gold.Chemscore.Hbonds>
donor molecule, donor type, donor heavy atom, donor atom, acceptor molecule, acceptor atom, score
      L1  H    26    52       P1  8029  0.94
      P1  H  6896  6907       L1    17  1.00
      P1  H  6934  6946       L1     1  0.54
      P1  H  7997  8009       L1     8  0.33

> <Gold.PLP.Chemscore.Internal.Correction>
1.5997

> <Gold.Rescore>
     Score         DG    S(hbond)    S(metal)    S(lipo)     H(rot)  DE(clash)    DE(int)     intcor
     12.10     -18.48       2.80        0.00     107.00       3.47       1.59       4.78       ----

> <Gold.Chemscore.Fitness>
12.1017

> <Gold.Chemscore.DG>
-18.4791

> <Gold.Chemscore.ZeroCoef>
-5.4800

> <Gold.Chemscore.Hbond>
2.8031

> <Gold.Chemscore.Metal>
0.0000

> <Gold.Chemscore.Lipo>
106.9964

> <Gold.Chemscore.Internal_Hbond>
0.0000

> <Gold.Chemscore.DEClash>
1.5934

> <Gold.Chemscore.DEInternal>
4.7839

> <Gold.Chemscore.Rot>
3.4695

> <Gold.Chemscore.Internal.Correction>
   9.000000E+99

> <Gold.Chemscore.Hbonds>
donor molecule, donor type, donor heavy atom, donor atom, acceptor molecule, acceptor atom, score
      L1  H    26    52       P1  8029  0.90
      P1  H  6896  6907       L1    17  0.30
      P1  H  6934  6946       L1     1  0.54
      P1  H  7997  8009       L1     8  0.03

> <Gold.Chemscore.Hbond.Weighted>
-9.3625

> <Gold.Chemscore.Metal.Weighted>
-0.0000

> <Gold.Chemscore.Lipo.Weighted>
-12.5186

> <Gold.Chemscore.Internal_Hbond.Weighted>
0.0000

> <Gold.Chemscore.DEClash.Weighted>
1.5934

> <Gold.Chemscore.DEInternal.Weighted>
4.7839

> <Gold.Chemscore.Rot.Weighted>
8.8820

> <Gold.Chemscore.Internal.Correction.Weighted>
   9.000000E+99

> <Gold.Protein.RotatedTorsions>
[ 6907 6896 6895 6894 ] final   39.18 input  -60.11 | X-H torsion
[ 7974 7965 7964 7962 ] final -171.38 input  175.53 | X-H torsion
[ 8008 7997 7996 7995 ] final  145.42 input   59.86 | X-H torsion
[ 10167 10162 10161 10158 ] final -145.47 input  -65.29 | X-H torsion
[ 10718 10713 10712 10709 ] final  -45.43 input   66.30 | X-H torsion
[ 10763 10752 10751 10750 ] final   34.42 input  -60.55 | X-H torsion
[ 11005 11000 10999 10996 ] final  163.73 input  -57.11 | X-H torsion

> <Gold.Protein.ActiveResidues>
 VAL166  LYS551  ARG553  GLY616  TRP617  ASP618  TYR619  PRO620  LYS621  CYS622 
 ASP623  PHE694  ASN695  SER759  ASP760  ASP761  ALA762  ILE779  LEU786  VAL792 
 PHE793  MET794  SER795  GLU796  ALA797  LYS798  CYS799  TRP800  GLU811  SER814 

> <Gold.Protein.RotatedAtoms>
  152.1662  134.8872  160.0537 H   0  0  0  0  0  0  0  0  0  0  0  0  # atno 6907 bound_to 6896
  151.9849  133.3765  159.4130 H   0  0  0  0  0  0  0  0  0  0  0  0  # atno 6908 bound_to 6896
  150.6895  134.3922  159.5125 H   0  0  0  0  0  0  0  0  0  0  0  0  # atno 6909 bound_to 6896
  144.7158  140.1931  143.6346 H   0  0  0  0  0  0  0  0  0  0  0  0  # atno 7974 bound_to 7965
  156.2883  140.2209  156.5212 H   0  0  0  0  0  0  0  0  0  0  0  0  # atno 8008 bound_to 7997
  154.7527  140.0479  157.0928 H   0  0  0  0  0  0  0  0  0  0  0  0  # atno 8009 bound_to 7997
  155.0090  140.3110  155.4840 H   0  0  0  0  0  0  0  0  0  0  0  0  # atno 8010 bound_to 7997
  139.7803  143.8111  152.2638 H   0  0  0  0  0  0  0  0  0  0  0  0  # atno 10167 bound_to 10162
  156.2285  130.4171  149.8904 H   0  0  0  0  0  0  0  0  0  0  0  0  # atno 10718 bound_to 10713
  153.0165  135.6361  154.1666 H   0  0  0  0  0  0  0  0  0  0  0  0  # atno 10763 bound_to 10752
  154.1405  135.2835  155.3163 H   0  0  0  0  0  0  0  0  0  0  0  0  # atno 10764 bound_to 10752
  154.6128  135.5551  153.7552 H   0  0  0  0  0  0  0  0  0  0  0  0  # atno 10765 bound_to 10752
  140.2387  134.8067  157.3390 H   0  0  0  0  0  0  0  0  0  0  0  0  # atno 11005 bound_to 11000
  145.8750  139.2292  143.1639 LP  0  0  0  0  0  0  0  0  0  0  0  0  # atno 17320 bound_to 7965
  146.0049  140.8487  143.0000 LP  0  0  0  0  0  0  0  0  0  0  0  0  # atno 17321 bound_to 7965
  139.8171  144.7311  150.9621 LP  0  0  0  0  0  0  0  0  0  0  0  0  # atno 17342 bound_to 10162
  140.7818  143.4194  151.0865 LP  0  0  0  0  0  0  0  0  0  0  0  0  # atno 17343 bound_to 10162
  156.6527  130.8750  151.3534 LP  0  0  0  0  0  0  0  0  0  0  0  0  # atno 17370 bound_to 10713
  157.7122  130.9453  150.1127 LP  0  0  0  0  0  0  0  0  0  0  0  0  # atno 17371 bound_to 10713
  140.1675  134.4650  155.7853 LP  0  0  0  0  0  0  0  0  0  0  0  0  # atno 17394 bound_to 11000
  141.2212  133.6927  156.7651 LP  0  0  0  0  0  0  0  0  0  0  0  0  # atno 17395 bound_to 11000

$$$$
