AV-unprocessed.smi:184|AV-procd|sdf|1462|dock1
  -GOLD-   2262019273D 1   1.00000     0.00000
 Structure written by MMmdl.
 54 58  0  0  0  0  0  0  0  0  1 V2000
  154.0813  138.8581  161.1780 O   0  0  0  0  0  0  0  0  0  0  0  0
  153.6850  139.7806  160.4694 C   0  0  0  0  0  0  0  0  0  0  0  0
  153.3020  139.5003  159.0049 C   0  0  0  0  0  0  0  0  0  0  0  0
  152.8020  140.6614  158.2489 N   0  0  0  0  0  0  0  0  0  0  0  0
  152.1874  140.2633  157.1090 C   0  0  0  0  0  0  0  0  0  0  0  0
  152.8997  139.6427  156.1313 N   0  0  0  0  0  0  0  0  0  0  0  0
  152.2967  139.2707  154.9982 C   0  0  0  0  0  0  0  0  0  0  0  0
  151.0197  139.4266  154.6421 N   0  0  0  0  0  0  0  0  0  0  0  0
  150.3058  140.0592  155.6170 C   0  0  0  0  0  0  0  0  0  0  0  0
  150.8100  140.5123  156.8681 C   0  0  0  0  0  0  0  0  0  0  0  0
  149.7964  141.1158  157.6008 N   0  0  0  0  0  0  0  0  0  0  0  0
  148.7497  141.0230  156.8263 C   0  0  0  0  0  0  0  0  0  0  0  0
  148.9626  140.3935  155.6197 N   0  0  0  0  0  0  0  0  0  0  0  0
  147.9767  140.1547  154.5751 C   0  0  0  0  0  0  0  0  0  0  0  0
  148.0047  138.7145  153.9936 C   0  0  0  0  0  0  0  0  0  0  0  0
  149.1100  138.6312  153.1128 O   0  0  0  0  0  0  0  0  0  0  0  0
  148.2195  137.6565  155.0946 C   0  0  0  0  0  0  0  0  0  0  0  0
  146.9419  137.4292  155.9227 C   0  0  0  0  0  0  0  0  0  0  0  0
  145.8620  137.0722  155.0665 O   0  0  0  0  0  0  0  0  0  0  0  0
  145.5403  138.0867  154.1213 C   0  0  0  0  0  0  0  0  0  0  0  0
  146.7411  138.3348  153.1916 C   0  0  0  0  0  0  0  0  0  0  0  0
  152.1963  141.7624  159.0082 C   0  0  2  0  0  0  0  0  0  0  0  0
  151.8685  143.0098  158.1498 C   0  0  0  0  0  0  0  0  0  0  0  0
  151.2515  144.1276  159.0083 C   0  0  0  0  0  0  0  0  0  0  0  0
  152.1612  144.5034  160.1888 C   0  0  0  0  0  0  0  0  0  0  0  0
  152.5272  143.2693  161.0291 C   0  0  0  0  0  0  0  0  0  0  0  0
  153.1553  142.1772  160.1463 C   0  0  1  0  0  0  0  0  0  0  0  0
  153.5589  141.0285  160.9473 N   0  0  0  0  0  0  0  0  0  0  0  0
  154.1818  139.1023  158.4975 H   0  0  0  0  0  0  0  0  0  0  0  0
  152.5538  138.7050  159.0088 H   0  0  0  0  0  0  0  0  0  0  0  0
  152.9278  138.7795  154.2726 H   0  0  0  0  0  0  0  0  0  0  0  0
  147.7836  141.4085  157.1186 H   0  0  0  0  0  0  0  0  0  0  0  0
  146.9909  140.3718  154.9890 H   0  0  0  0  0  0  0  0  0  0  0  0
  148.1358  140.8919  153.7886 H   0  0  0  0  0  0  0  0  0  0  0  0
  149.1768  137.7423  152.7990 H   0  0  0  0  0  0  0  0  0  0  0  0
  148.5026  136.7056  154.6404 H   0  0  0  0  0  0  0  0  0  0  0  0
  149.0463  137.9407  155.7465 H   0  0  0  0  0  0  0  0  0  0  0  0
  147.1024  136.6204  156.6358 H   0  0  0  0  0  0  0  0  0  0  0  0
  146.6817  138.3129  156.5065 H   0  0  0  0  0  0  0  0  0  0  0  0
  144.6796  137.7605  153.5376 H   0  0  0  0  0  0  0  0  0  0  0  0
  145.2414  138.9981  154.6394 H   0  0  0  0  0  0  0  0  0  0  0  0
  146.4964  139.0932  152.4480 H   0  0  0  0  0  0  0  0  0  0  0  0
  146.9278  137.4177  152.6307 H   0  0  0  0  0  0  0  0  0  0  0  0
  151.2697  141.3915  159.4518 H   0  0  0  0  0  0  0  0  0  0  0  0
  152.7764  143.3749  157.6674 H   0  0  0  0  0  0  0  0  0  0  0  0
  151.1720  142.7694  157.3473 H   0  0  0  0  0  0  0  0  0  0  0  0
  151.0617  145.0071  158.3923 H   0  0  0  0  0  0  0  0  0  0  0  0
  150.2818  143.8009  159.3862 H   0  0  0  0  0  0  0  0  0  0  0  0
  153.0724  144.9687  159.8109 H   0  0  0  0  0  0  0  0  0  0  0  0
  151.6705  145.2494  160.8147 H   0  0  0  0  0  0  0  0  0  0  0  0
  153.2186  143.5580  161.8217 H   0  0  0  0  0  0  0  0  0  0  0  0
  151.6341  142.8817  161.5216 H   0  0  0  0  0  0  0  0  0  0  0  0
  154.0702  142.5777  159.7052 H   0  0  0  0  0  0  0  0  0  0  0  0
  153.7965  141.1972  161.9141 H   0  0  0  0  0  0  0  0  0  0  0  0
  1  2  2  0  0  0  0
  2 28  1  0  0  0  0
  2  3  1  0  0  0  0
  3  4  1  0  0  0  0
  3 29  1  0  0  0  0
  3 30  1  0  0  0  0
  4  5  1  0  0  0  0
  4 22  1  0  0  0  0
  5 10  1  0  0  0  0
  5  6  2  0  0  0  0
  6  7  1  0  0  0  0
  7  8  2  0  0  0  0
  7 31  1  0  0  0  0
  8  9  1  0  0  0  0
  9 13  1  0  0  0  0
  9 10  2  0  0  0  0
 10 11  1  0  0  0  0
 11 12  2  0  0  0  0
 12 13  1  0  0  0  0
 12 32  1  0  0  0  0
 13 14  1  0  0  0  0
 14 15  1  0  0  0  0
 14 33  1  0  0  0  0
 14 34  1  0  0  0  0
 15 21  1  0  0  0  0
 15 16  1  0  0  0  0
 15 17  1  0  0  0  0
 16 35  1  0  0  0  0
 17 18  1  0  0  0  0
 17 36  1  0  0  0  0
 17 37  1  0  0  0  0
 18 19  1  0  0  0  0
 18 38  1  0  0  0  0
 18 39  1  0  0  0  0
 19 20  1  0  0  0  0
 20 21  1  0  0  0  0
 20 40  1  0  0  0  0
 20 41  1  0  0  0  0
 21 42  1  0  0  0  0
 21 43  1  0  0  0  0
 22 27  1  0  0  0  0
 22 23  1  0  0  0  0
 22 44  1  0  0  0  0
 23 24  1  0  0  0  0
 23 45  1  0  0  0  0
 23 46  1  0  0  0  0
 24 25  1  0  0  0  0
 24 47  1  0  0  0  0
 24 48  1  0  0  0  0
 25 26  1  0  0  0  0
 25 49  1  0  0  0  0
 25 50  1  0  0  0  0
 26 27  1  0  0  0  0
 26 51  1  0  0  0  0
 26 52  1  0  0  0  0
 27 28  1  0  0  0  0
 27 53  1  0  0  0  0
 28 54  1  0  0  0  0
M  END
> <s_m_source_file>
AV-unprocessed.smi

> <i_m_source_file_index>
184

> <i_lp_mmshare_version>
43012

> <i_f3d_flags>
0

> <s_epik_input>
W0NIMl0xW0NIMl1bQ0gyXVtDSDJdW0NASF0oW0NASF0xMilbTkhdQyg9TylbQ0gyXU4yYyhuW2NIXW4zKWMoYzM0KW5bY0hdbjRbQ0gyXUM1KFtPSF0pW0NIMl1bQ0gyXU9bQ0gyXVtDSDJdNQ==

> <s_epik_cmdline>
J2VwaWtfcHl0aG9uJywgJy1waCcsICc3LjAnLCAnLXRuJywgJzgnLCAnLW1hJywgJzIwMCcsICctbWV0YWxfYmluZGluZycsICctaW1hZScsICc8aW5maWxlLm1hZT4nLCAnLW9tYWUnLCAnPG91dGZpbGUubWFlPic=

> <r_lp_tautomer_probability>
1

> <r_epik_Ionization_Penalty>
0.000822761

> <r_epik_Ionization_Penalty_Charging>
0

> <r_epik_Ionization_Penalty_Neutral>
0.000822761

> <r_epik_State_Penalty>
0.000403048

> <r_epik_Charging_Adjusted_Penalty>
0.000403048

> <i_epik_Tot_Q>
0

> <i_epik_Tot_abs_Q>
0

> <r_epik_Metal_State_Penalty>
-0

> <b_epik_Metal_Only>
0

> <s_lp_Force_Field>
OPLS_2005

> <r_lp_Energy>
34.5881

> <b_lp_Chiralities_Consistent>
1

> <s_lp_Variant>
AV-unprocessed.smi:184-2

> <Gold.Version>
5.8.1

> <Gold.Id.Protein>
6NUR|6NUR_protein|mol2

> <Gold.PLP.Fitness>
48.6449

> <Gold.PLP.PLP>
-42.5197

> <Gold.PLP.part.hbond>
-4.5473

> <Gold.PLP.part.metal>
0.0000

> <Gold.PLP.part.buried>
-4.7566

> <Gold.PLP.part.nonpolar>
-33.3087

> <Gold.PLP.part.repulsive>
0.2320

> <Gold.PLP.ligand.clash>
0.0000

> <Gold.PLP.ligand.torsion>
0.7340

> <Gold.PLP.Chemscore.Hbond>
2.4000

> <Gold.PLP.Chemscore.CHOScore>
0.0000

> <Gold.PLP.Chemscore.Metal>
0.0000

> <Gold.Chemscore.Hbonds>
donor molecule, donor type, donor heavy atom, donor atom, acceptor molecule, acceptor atom, score
      L1  H    16    35       P1  7948  1.00
      P1  H  7989  7998       L1     8  0.30
      P1  H  7997  8009       L1     6  1.00

> <Gold.PLP.Chemscore.Internal.Correction>
0.3932

> <Gold.Rescore>
     Score         DG    S(hbond)    S(metal)    S(lipo)     H(rot)  DE(clash)    DE(int)     intcor
     13.73     -17.72       1.80        0.00     100.64       2.17       0.13       3.86       ----

> <Gold.Chemscore.Fitness>
13.7330

> <Gold.Chemscore.DG>
-17.7194

> <Gold.Chemscore.ZeroCoef>
-5.4800

> <Gold.Chemscore.Hbond>
1.8018

> <Gold.Chemscore.Metal>
0.0000

> <Gold.Chemscore.Lipo>
100.6383

> <Gold.Chemscore.Internal_Hbond>
0.0000

> <Gold.Chemscore.DEClash>
0.1288

> <Gold.Chemscore.DEInternal>
3.8576

> <Gold.Chemscore.Rot>
2.1693

> <Gold.Chemscore.Internal.Correction>
   9.000000E+99

> <Gold.Chemscore.Hbonds>
donor molecule, donor type, donor heavy atom, donor atom, acceptor molecule, acceptor atom, score
      L1  H    16    35       P1  7948  0.98
      P1  H  7997  8009       L1     6  0.75

> <Gold.Chemscore.Hbond.Weighted>
-6.0181

> <Gold.Chemscore.Metal.Weighted>
-0.0000

> <Gold.Chemscore.Lipo.Weighted>
-11.7747

> <Gold.Chemscore.Internal_Hbond.Weighted>
0.0000

> <Gold.Chemscore.DEClash.Weighted>
0.1288

> <Gold.Chemscore.DEInternal.Weighted>
3.8576

> <Gold.Chemscore.Rot.Weighted>
5.5533

> <Gold.Chemscore.Internal.Correction.Weighted>
   9.000000E+99

> <Gold.Protein.RotatedTorsions>
[ 6907 6896 6895 6894 ] final  108.63 input  -60.11 | X-H torsion
[ 7974 7965 7964 7962 ] final   58.21 input  175.53 | X-H torsion
[ 8008 7997 7996 7995 ] final -144.55 input   59.86 | X-H torsion
[ 10167 10162 10161 10158 ] final -162.71 input  -65.29 | X-H torsion
[ 10718 10713 10712 10709 ] final    1.28 input   66.30 | X-H torsion
[ 10763 10752 10751 10750 ] final  -45.77 input  -60.55 | X-H torsion
[ 11005 11000 10999 10996 ] final -175.85 input  -57.11 | X-H torsion

> <Gold.Protein.ActiveResidues>
 VAL166  LYS551  ARG553  GLY616  TRP617  ASP618  TYR619  PRO620  LYS621  CYS622 
 ASP623  PHE694  ASN695  SER759  ASP760  ASP761  ALA762  ILE779  LEU786  VAL792 
 PHE793  MET794  SER795  GLU796  ALA797  LYS798  CYS799  TRP800  GLU811  SER814 

> <Gold.Protein.RotatedAtoms>
  152.5104  133.9061  159.7464 H   0  0  0  0  0  0  0  0  0  0  0  0  # atno 6907 bound_to 6896
  150.9465  133.6588  159.2787 H   0  0  0  0  0  0  0  0  0  0  0  0  # atno 6908 bound_to 6896
  151.3881  135.0956  159.9570 H   0  0  0  0  0  0  0  0  0  0  0  0  # atno 6909 bound_to 6896
  145.9207  139.3727  143.0480 H   0  0  0  0  0  0  0  0  0  0  0  0  # atno 7974 bound_to 7965
  155.5287  140.0598  157.2893 H   0  0  0  0  0  0  0  0  0  0  0  0  # atno 8008 bound_to 7997
  154.4492  140.1940  156.0517 H   0  0  0  0  0  0  0  0  0  0  0  0  # atno 8009 bound_to 7997
  156.0668  140.3265  155.7531 H   0  0  0  0  0  0  0  0  0  0  0  0  # atno 8010 bound_to 7997
  139.6373  144.0326  152.2064 H   0  0  0  0  0  0  0  0  0  0  0  0  # atno 10167 bound_to 10162
  156.8459  130.5537  149.5673 H   0  0  0  0  0  0  0  0  0  0  0  0  # atno 10718 bound_to 10713
  154.0340  135.6653  153.4783 H   0  0  0  0  0  0  0  0  0  0  0  0  # atno 10763 bound_to 10752
  153.0529  135.5074  154.7906 H   0  0  0  0  0  0  0  0  0  0  0  0  # atno 10764 bound_to 10752
  154.6860  135.3053  154.9511 H   0  0  0  0  0  0  0  0  0  0  0  0  # atno 10765 bound_to 10752
  140.4586  134.6276  157.4833 H   0  0  0  0  0  0  0  0  0  0  0  0  # atno 11005 bound_to 11000
  145.8554  140.9505  143.0728 LP  0  0  0  0  0  0  0  0  0  0  0  0  # atno 17320 bound_to 7965
  144.6752  140.0461  143.7480 LP  0  0  0  0  0  0  0  0  0  0  0  0  # atno 17321 bound_to 7965
  140.0007  144.6295  150.7732 LP  0  0  0  0  0  0  0  0  0  0  0  0  # atno 17342 bound_to 10162
  140.7472  143.2902  151.3351 LP  0  0  0  0  0  0  0  0  0  0  0  0  # atno 17343 bound_to 10162
  156.0855  130.5854  150.9640 LP  0  0  0  0  0  0  0  0  0  0  0  0  # atno 17370 bound_to 10713
  157.6330  131.0919  150.8404 LP  0  0  0  0  0  0  0  0  0  0  0  0  # atno 17371 bound_to 10713
  139.9960  134.6911  155.9609 LP  0  0  0  0  0  0  0  0  0  0  0  0  # atno 17394 bound_to 11000
  141.1631  133.6538  156.4387 LP  0  0  0  0  0  0  0  0  0  0  0  0  # atno 17395 bound_to 11000

$$$$
