AV-unprocessed.smi:2319|AV-procd|sdf|9277|dock7
  -GOLD-   2272012503D 1   1.00000     0.00000
 Structure written by MMmdl.
 46 47  0  0  0  0  0  0  0  0  1 V2000
  147.7049  141.3455  153.4610 C   0  0  0  0  0  0  0  0  0  0  0  0
  147.5098  139.8390  153.2602 C   0  0  0  0  0  0  0  0  0  0  0  0
  147.2392  139.1087  154.5341 C   0  0  0  0  0  0  0  0  0  0  0  0
  147.1733  139.8489  155.6717 O   0  0  0  0  0  0  0  0  0  0  0  0
  146.9351  138.9924  156.7575 N   0  0  0  0  0  0  0  0  0  0  0  0
  146.8667  137.7637  156.2661 C   0  0  0  0  0  0  0  0  0  0  0  0
  146.6835  136.6095  157.2117 C   0  0  0  0  0  0  0  0  0  0  0  0
  147.0264  137.7994  154.8496 C   0  0  0  0  0  0  0  0  0  0  0  0
  147.0540  136.7334  153.9162 N   0  0  0  0  0  0  0  0  0  0  0  0
  146.1366  135.7656  153.7720 C   0  0  0  0  0  0  0  0  0  0  0  0
  145.1098  135.6628  154.4422 O   0  0  0  0  0  0  0  0  0  0  0  0
  146.4642  134.9290  152.7786 N   0  0  0  0  0  0  0  0  0  0  0  0
  145.6608  133.7901  152.3389 C   0  0  2  0  0  0  0  0  0  0  0  0
  146.4158  132.9234  151.3505 C   0  0  0  0  0  0  0  0  0  0  0  0
  145.2946  132.2110  150.5833 C   0  0  0  0  0  0  0  0  0  0  0  0
  145.6323  132.0262  149.0960 C   0  0  0  0  0  0  0  0  0  0  0  0
  144.9167  130.8693  151.2336 C   0  0  0  0  0  0  0  0  0  0  0  0
  144.1570  133.0667  150.6866 O   0  0  0  0  0  0  0  0  0  0  0  0
  144.4010  134.1847  151.5386 C   0  0  0  0  0  0  0  0  0  0  0  0
  143.1691  134.3693  152.4384 C   0  0  0  0  0  0  0  0  0  0  0  0
  144.5895  135.4086  150.6171 C   0  0  0  0  0  0  0  0  0  0  0  0
  147.9008  141.8424  152.5106 H   0  0  0  0  0  0  0  0  0  0  0  0
  148.5476  141.5471  154.1230 H   0  0  0  0  0  0  0  0  0  0  0  0
  146.8172  141.8030  153.8990 H   0  0  0  0  0  0  0  0  0  0  0  0
  146.6842  139.6707  152.5681 H   0  0  0  0  0  0  0  0  0  0  0  0
  148.3956  139.4212  152.7810 H   0  0  0  0  0  0  0  0  0  0  0  0
  147.2097  135.7226  156.8590 H   0  0  0  0  0  0  0  0  0  0  0  0
  145.6289  136.3558  157.3198 H   0  0  0  0  0  0  0  0  0  0  0  0
  147.0699  136.8415  158.2047 H   0  0  0  0  0  0  0  0  0  0  0  0
  147.7872  136.7703  153.2234 H   0  0  0  0  0  0  0  0  0  0  0  0
  147.3249  135.0969  152.2786 H   0  0  0  0  0  0  0  0  0  0  0  0
  145.3842  133.1669  153.1919 H   0  0  0  0  0  0  0  0  0  0  0  0
  146.9985  133.5507  150.6738 H   0  0  0  0  0  0  0  0  0  0  0  0
  147.1099  132.2351  151.8347 H   0  0  0  0  0  0  0  0  0  0  0  0
  146.5103  131.3928  148.9667 H   0  0  0  0  0  0  0  0  0  0  0  0
  145.8379  132.9831  148.6149 H   0  0  0  0  0  0  0  0  0  0  0  0
  144.8043  131.5619  148.5596 H   0  0  0  0  0  0  0  0  0  0  0  0
  145.7499  130.1667  151.2012 H   0  0  0  0  0  0  0  0  0  0  0  0
  144.0737  130.4070  150.7189 H   0  0  0  0  0  0  0  0  0  0  0  0
  144.6314  130.9975  152.2780 H   0  0  0  0  0  0  0  0  0  0  0  0
  143.2928  135.2184  153.1106 H   0  0  0  0  0  0  0  0  0  0  0  0
  142.9891  133.4844  153.0495 H   0  0  0  0  0  0  0  0  0  0  0  0
  142.2715  134.5458  151.8453 H   0  0  0  0  0  0  0  0  0  0  0  0
  144.7389  136.3237  151.1905 H   0  0  0  0  0  0  0  0  0  0  0  0
  143.7115  135.5600  149.9885 H   0  0  0  0  0  0  0  0  0  0  0  0
  145.4458  135.2867  149.9539 H   0  0  0  0  0  0  0  0  0  0  0  0
  1  2  1  0  0  0  0
  1 22  1  0  0  0  0
  1 23  1  0  0  0  0
  1 24  1  0  0  0  0
  2  3  1  0  0  0  0
  2 25  1  0  0  0  0
  2 26  1  0  0  0  0
  3  8  2  0  0  0  0
  3  4  1  0  0  0  0
  4  5  1  0  0  0  0
  5  6  2  0  0  0  0
  6  7  1  0  0  0  0
  6  8  1  0  0  0  0
  7 27  1  0  0  0  0
  7 28  1  0  0  0  0
  7 29  1  0  0  0  0
  8  9  1  0  0  0  0
  9 10  1  0  0  0  0
  9 30  1  0  0  0  0
 10 11  2  0  0  0  0
 10 12  1  0  0  0  0
 12 13  1  0  0  0  0
 12 31  1  0  0  0  0
 13 19  1  0  0  0  0
 13 14  1  0  0  0  0
 13 32  1  0  0  0  0
 14 15  1  0  0  0  0
 14 33  1  0  0  0  0
 14 34  1  0  0  0  0
 15 16  1  0  0  0  0
 15 17  1  0  0  0  0
 15 18  1  0  0  0  0
 16 35  1  0  0  0  0
 16 36  1  0  0  0  0
 16 37  1  0  0  0  0
 17 38  1  0  0  0  0
 17 39  1  0  0  0  0
 17 40  1  0  0  0  0
 18 19  1  0  0  0  0
 19 20  1  0  0  0  0
 19 21  1  0  0  0  0
 20 41  1  0  0  0  0
 20 42  1  0  0  0  0
 20 43  1  0  0  0  0
 21 44  1  0  0  0  0
 21 45  1  0  0  0  0
 21 46  1  0  0  0  0
M  END
> <s_m_source_file>
AV-unprocessed.smi

> <i_m_source_file_index>
2319

> <i_lp_mmshare_version>
43012

> <i_f3d_flags>
0

> <s_epik_input>
W0NIM11bQ0gyXWMxb25jKFtDSDNdKWMxW05IXUMoPU8pW05IXVtDQEBIXShDKE8yKShbQ0gzXSlbQ0gzXSlbQ0gyXUMyKFtDSDNdKVtDSDNd

> <s_epik_cmdline>
J2VwaWtfcHl0aG9uJywgJy1waCcsICc3LjAnLCAnLXRuJywgJzgnLCAnLW1hJywgJzIwMCcsICctbWV0YWxfYmluZGluZycsICctaW1hZScsICc8aW5maWxlLm1hZT4nLCAnLW9tYWUnLCAnPG91dGZpbGUubWFlPic=

> <r_lp_tautomer_probability>
1

> <r_epik_Ionization_Penalty>
3.17207e-05

> <r_epik_Ionization_Penalty_Charging>
0

> <r_epik_Ionization_Penalty_Neutral>
3.17207e-05

> <r_epik_State_Penalty>
-0

> <r_epik_Charging_Adjusted_Penalty>
0

> <i_epik_Tot_Q>
0

> <i_epik_Tot_abs_Q>
0

> <r_epik_Metal_State_Penalty>
-0

> <b_epik_Metal_Only>
0

> <s_lp_Force_Field>
OPLS_2005

> <r_lp_Energy>
19.5027

> <b_lp_Chiralities_Consistent>
1

> <s_lp_Variant>
AV-unprocessed.smi:2319-1

> <Gold.Version>
5.8.1

> <Gold.Id.Protein>
6NUR|6NUR_protein|mol2

> <Gold.PLP.Fitness>
33.0229

> <Gold.PLP.PLP>
-27.9198

> <Gold.PLP.part.hbond>
-2.0000

> <Gold.PLP.part.metal>
0.0000

> <Gold.PLP.part.buried>
-4.8246

> <Gold.PLP.part.nonpolar>
-21.8932

> <Gold.PLP.part.repulsive>
0.2304

> <Gold.PLP.ligand.clash>
0.0000

> <Gold.PLP.ligand.torsion>
0.5759

> <Gold.PLP.Chemscore.Hbond>
1.9913

> <Gold.PLP.Chemscore.CHOScore>
0.0000

> <Gold.PLP.Chemscore.Metal>
0.0000

> <Gold.Chemscore.Hbonds>
donor molecule, donor type, donor heavy atom, donor atom, acceptor molecule, acceptor atom, score
      L1  H     9    30       P1  7948  1.00
      L1  H    12    31       P1  7948  1.00

> <Gold.PLP.Chemscore.Internal.Correction>
0.2811

> <Gold.Rescore>
     Score         DG    S(hbond)    S(metal)    S(lipo)     H(rot)  DE(clash)    DE(int)     intcor
     17.80     -18.42       1.85        0.00      83.00       1.16       0.09       0.53       ----

> <Gold.Chemscore.Fitness>
17.8010

> <Gold.Chemscore.DG>
-18.4162

> <Gold.Chemscore.ZeroCoef>
-5.4800

> <Gold.Chemscore.Hbond>
1.8539

> <Gold.Chemscore.Metal>
0.0000

> <Gold.Chemscore.Lipo>
83.0025

> <Gold.Chemscore.Internal_Hbond>
0.0000

> <Gold.Chemscore.DEClash>
0.0896

> <Gold.Chemscore.DEInternal>
0.5256

> <Gold.Chemscore.Rot>
1.1590

> <Gold.Chemscore.Internal.Correction>
   9.000000E+99

> <Gold.Chemscore.Hbonds>
donor molecule, donor type, donor heavy atom, donor atom, acceptor molecule, acceptor atom, score
      L1  H     9    30       P1  7948  1.00
      L1  H    12    31       P1  7948  0.93

> <Gold.Chemscore.Hbond.Weighted>
-6.1920

> <Gold.Chemscore.Metal.Weighted>
-0.0000

> <Gold.Chemscore.Lipo.Weighted>
-9.7113

> <Gold.Chemscore.Internal_Hbond.Weighted>
0.0000

> <Gold.Chemscore.DEClash.Weighted>
0.0896

> <Gold.Chemscore.DEInternal.Weighted>
0.5256

> <Gold.Chemscore.Rot.Weighted>
2.9671

> <Gold.Chemscore.Internal.Correction.Weighted>
   9.000000E+99

> <Gold.Protein.RotatedTorsions>
[ 6907 6896 6895 6894 ] final -151.92 input  -60.11 | X-H torsion
[ 7974 7965 7964 7962 ] final  -92.60 input  175.53 | X-H torsion
[ 8008 7997 7996 7995 ] final  167.13 input   59.86 | X-H torsion
[ 10167 10162 10161 10158 ] final   57.50 input  -65.29 | X-H torsion
[ 10718 10713 10712 10709 ] final   46.78 input   66.30 | X-H torsion
[ 10763 10752 10751 10750 ] final  131.58 input  -60.55 | X-H torsion
[ 11005 11000 10999 10996 ] final   -1.12 input  -57.11 | X-H torsion

> <Gold.Protein.ActiveResidues>
 VAL166  LYS551  ARG553  GLY616  TRP617  ASP618  TYR619  PRO620  LYS621  CYS622 
 ASP623  PHE694  ASN695  SER759  ASP760  ASP761  ALA762  ILE779  LEU786  VAL792 
 PHE793  MET794  SER795  GLU796  ALA797  LYS798  CYS799  TRP800  GLU811  SER814 

> <Gold.Protein.RotatedAtoms>
  151.2202  133.4507  159.2600 H   0  0  0  0  0  0  0  0  0  0  0  0  # atno 6907 bound_to 6896
  151.0892  134.9906  159.8404 H   0  0  0  0  0  0  0  0  0  0  0  0  # atno 6908 bound_to 6896
  152.5433  134.2136  159.8813 H   0  0  0  0  0  0  0  0  0  0  0  0  # atno 6909 bound_to 6896
  145.3976  140.9534  143.2305 H   0  0  0  0  0  0  0  0  0  0  0  0  # atno 7974 bound_to 7965
  156.1660  140.1625  156.8531 H   0  0  0  0  0  0  0  0  0  0  0  0  # atno 8008 bound_to 7997
  154.5208  140.0779  156.8202 H   0  0  0  0  0  0  0  0  0  0  0  0  # atno 8009 bound_to 7997
  155.3611  140.3395  155.4243 H   0  0  0  0  0  0  0  0  0  0  0  0  # atno 8010 bound_to 7997
  140.1973  144.4024  150.6544 H   0  0  0  0  0  0  0  0  0  0  0  0  # atno 10167 bound_to 10162
  157.4517  130.8142  149.7795 H   0  0  0  0  0  0  0  0  0  0  0  0  # atno 10718 bound_to 10713
  153.7767  135.3174  155.3360 H   0  0  0  0  0  0  0  0  0  0  0  0  # atno 10763 bound_to 10752
  154.8176  135.4625  154.0691 H   0  0  0  0  0  0  0  0  0  0  0  0  # atno 10764 bound_to 10752
  153.1967  135.6916  153.8368 H   0  0  0  0  0  0  0  0  0  0  0  0  # atno 10765 bound_to 10752
  140.6438  133.9466  155.8341 H   0  0  0  0  0  0  0  0  0  0  0  0  # atno 11005 bound_to 11000
  144.8396  139.5493  143.6906 LP  0  0  0  0  0  0  0  0  0  0  0  0  # atno 17320 bound_to 7965
  146.2767  139.6772  142.9258 LP  0  0  0  0  0  0  0  0  0  0  0  0  # atno 17321 bound_to 7965
  140.6415  143.2204  151.6280 LP  0  0  0  0  0  0  0  0  0  0  0  0  # atno 17342 bound_to 10162
  139.5231  144.3142  152.0967 LP  0  0  0  0  0  0  0  0  0  0  0  0  # atno 17343 bound_to 10162
  155.9990  130.3891  150.2681 LP  0  0  0  0  0  0  0  0  0  0  0  0  # atno 17370 bound_to 10713
  157.0853  131.0154  151.3141 LP  0  0  0  0  0  0  0  0  0  0  0  0  # atno 17371 bound_to 10713
  141.0587  134.0378  157.3687 LP  0  0  0  0  0  0  0  0  0  0  0  0  # atno 17394 bound_to 11000
  139.9070  135.0182  156.7531 LP  0  0  0  0  0  0  0  0  0  0  0  0  # atno 17395 bound_to 11000

$$$$
