#       Name:                AV-unprocessed.smi:3071
#       Creating user name   scv26
#       Creation time:       Fri Mar 27 17:11:45 2020


#       File generated by GOLD software.
#

@<TRIPOS>MOLECULE
AV-unprocessed.smi:3071
    29    30     1
SMALL
NO_CHARGES


@<TRIPOS>ATOM
      1 ****        -1.5297   2.5990   0.9810 C.3            1 S1                 0.0000
      2 ****        -2.0433   1.1978   1.0684 C.2            1 S1                 0.0000
      3 ****        -3.3346   0.8843   1.0853 N.2            1 S1                 0.0000
      4 ****        -3.3627  -0.5024   1.1857 C.2            1 S1                 0.0000
      5 ****        -2.0758  -0.9816   1.2270 C.2            1 S1                 0.0000
      6 ****        -1.2355   0.1219   1.1440 N.pl3          1 S1                 0.0000
      7 ****         0.2181   0.0873   1.1447 C.3            1 S1                 0.0000
      8 ****         0.8075   0.0729  -0.2782 C.3            1 S1                 0.0000
      9 ****         0.3308  -1.0803  -1.1677 C.3            1 S1                 0.0000
     10 ****         1.4494  -1.1997  -2.1955 C.3            1 S1                 0.0000
     11 ****         2.7092  -0.8824  -1.3864 C.3            1 S1                 0.0000
     12 ****         2.2806  -0.0248  -0.2625 N.4            1 S1                 1.0000
     13 ****        -2.3551   3.2989   0.8466 H              1 S1                 0.0000
     14 ****        -0.8500   2.7045   0.1361 H              1 S1                 0.0000
     15 ****        -1.0005   2.8626   1.8970 H              1 S1                 0.0000
     16 ****        -4.2973  -1.0425   1.2224 H              1 S1                 0.0000
     17 ****        -1.6987  -1.9908   1.3028 H              1 S1                 0.0000
     18 ****         0.5928   0.9438   1.7063 H              1 S1                 0.0000
     19 ****         0.5367  -0.8013   1.6917 H              1 S1                 0.0000
     20 ****         0.5641   1.0091  -0.7825 H              1 S1                 0.0000
     21 ****         0.2603  -2.0038  -0.5908 H              1 S1                 0.0000
     22 ****        -0.6425  -0.8914  -1.6221 H              1 S1                 0.0000
     23 ****         1.4866  -2.1804  -2.6708 H              1 S1                 0.0000
     24 ****         1.3117  -0.4517  -2.9778 H              1 S1                 0.0000
     25 ****         3.1366  -1.7977  -0.9756 H              1 S1                 0.0000
     26 ****         3.4748  -0.3943  -1.9900 H              1 S1                 0.0000
     27 ****         2.6866   0.8967  -0.3419 H              1 S1                 0.0000
     28 ****         2.5804  -0.4536   0.6015 H              1 S1                 0.0000
     29 ****        -4.1145   1.5083   1.0366 LP             1 S1                 0.0000
@<TRIPOS>BOND
    1    1    2 1     
    2    1   13 1     
    3    1   14 1     
    4    1   15 1     
    5    2    6 1     
    6    2    3 2     
    7    3    4 1     
    8    4    5 2     
    9    4   16 1     
   10    5    6 1     
   11    5   17 1     
   12    6    7 1     
   13    7    8 1     
   14    7   18 1     
   15    7   19 1     
   16    8   12 1     
   17    8    9 1     
   18    8   20 1     
   19    9   10 1     
   20    9   21 1     
   21    9   22 1     
   22   10   11 1     
   23   10   23 1     
   24   10   24 1     
   25   11   12 1     
   26   11   25 1     
   27   11   26 1     
   28   12   27 1     
   29   12   28 1     
   30    3   29 1     
@<TRIPOS>SUBSTRUCTURE
      1 S1             1
@<TRIPOS>SET
LONE_PAIRS      STATIC     ATOMS    <user>   **** ""
1 29
DONOR_HYDROGENS      STATIC     ATOMS    <user>   **** ""
2 27 28
ATOM$BLUE        STATIC     ATOMS    COLORGROUP SYSTEM
1 29
ATOM$RED        STATIC     ATOMS    COLORGROUP SYSTEM
2 27 28
