AV-unprocessed.smi:897|AV-procd|sdf|4079|dock3
  -GOLD-   22720 1563D 1   1.00000     0.00000
 Structure written by MMmdl.
 35 37  0  0  0  0  0  0  0  0  1 V2000
  152.2099  138.3067  154.7284 C   0  0  0  0  0  0  0  0  0  0  0  0
  150.9783  139.1874  154.7171 C   0  0  0  0  0  0  0  0  0  0  0  0
  149.7760  138.7450  154.1349 C   0  0  0  0  0  0  0  0  0  0  0  0
  148.6601  139.6060  154.1504 C   0  0  0  0  0  0  0  0  0  0  0  0
  147.3569  139.1406  153.5187 C   0  0  0  0  0  0  0  0  0  0  0  0
  148.7918  140.8829  154.7565 C   0  0  0  0  0  0  0  0  0  0  0  0
  147.6570  141.8037  154.7986 C   0  0  0  0  0  0  0  0  0  0  0  0
  146.7586  142.5321  154.8317 N   0  0  0  0  0  0  0  0  0  0  0  0
  150.0492  141.2364  155.3199 C   0  0  0  0  0  0  0  0  0  0  0  0
  150.2310  142.4923  155.9290 N   0  0  0  0  0  0  0  0  0  0  0  0
  151.2983  142.7291  156.8955 C   0  0  2  0  0  0  0  0  0  0  0  0
  151.1063  141.9544  158.2059 C   0  0  0  0  0  0  0  0  0  0  0  0
  151.1311  143.0802  159.2469 C   0  0  1  0  0  0  0  0  0  0  0  0
  152.5219  143.7140  159.3866 C   0  0  0  0  0  0  0  0  0  0  0  0
  152.6292  144.5202  158.0925 C   0  0  0  0  0  0  0  0  0  0  0  0
  151.3026  144.1825  157.3989 C   0  0  2  0  0  0  0  0  0  0  0  0
  150.4508  144.0949  158.5302 O   0  0  0  0  0  0  0  0  0  0  0  0
  151.1136  140.3989  155.2926 N   0  0  0  0  0  0  0  0  0  0  0  0
  152.0462  137.3896  154.1616 H   0  0  0  0  0  0  0  0  0  0  0  0
  152.4701  138.0338  155.7516 H   0  0  0  0  0  0  0  0  0  0  0  0
  153.0571  138.8315  154.2859 H   0  0  0  0  0  0  0  0  0  0  0  0
  149.7118  137.7651  153.6847 H   0  0  0  0  0  0  0  0  0  0  0  0
  146.5624  139.1034  154.2644 H   0  0  0  0  0  0  0  0  0  0  0  0
  147.4583  138.1448  153.0867 H   0  0  0  0  0  0  0  0  0  0  0  0
  147.0536  139.8200  152.7219 H   0  0  0  0  0  0  0  0  0  0  0  0
  149.4993  143.1843  155.8529 H   0  0  0  0  0  0  0  0  0  0  0  0
  152.2584  142.4990  156.4312 H   0  0  0  0  0  0  0  0  0  0  0  0
  150.1441  141.4404  158.2332 H   0  0  0  0  0  0  0  0  0  0  0  0
  151.8889  141.2139  158.3734 H   0  0  0  0  0  0  0  0  0  0  0  0
  150.6672  142.8132  160.1968 H   0  0  0  0  0  0  0  0  0  0  0  0
  152.5641  144.3751  160.2529 H   0  0  0  0  0  0  0  0  0  0  0  0
  153.3088  142.9657  159.4874 H   0  0  0  0  0  0  0  0  0  0  0  0
  152.6899  145.5869  158.3109 H   0  0  0  0  0  0  0  0  0  0  0  0
  153.4967  144.2457  157.4912 H   0  0  0  0  0  0  0  0  0  0  0  0
  150.9992  144.9214  156.6561 H   0  0  0  0  0  0  0  0  0  0  0  0
  1  2  1  0  0  0  0
  1 19  1  0  0  0  0
  1 20  1  0  0  0  0
  1 21  1  0  0  0  0
  2 18  1  0  0  0  0
  2  3  2  0  0  0  0
  3  4  1  0  0  0  0
  3 22  1  0  0  0  0
  4  5  1  0  0  0  0
  4  6  2  0  0  0  0
  5 23  1  0  0  0  0
  5 24  1  0  0  0  0
  5 25  1  0  0  0  0
  6  7  1  0  0  0  0
  6  9  1  0  0  0  0
  7  8  3  0  0  0  0
  9 10  1  0  0  0  0
  9 18  2  0  0  0  0
 10 11  1  0  0  0  0
 10 26  1  0  0  0  0
 11 16  1  0  0  0  0
 11 12  1  0  0  0  0
 11 27  1  0  0  0  0
 12 13  1  0  0  0  0
 12 28  1  0  0  0  0
 12 29  1  0  0  0  0
 13 17  1  0  0  0  0
 13 14  1  0  0  0  0
 13 30  1  0  0  0  0
 14 15  1  0  0  0  0
 14 31  1  0  0  0  0
 14 32  1  0  0  0  0
 15 16  1  0  0  0  0
 15 33  1  0  0  0  0
 15 34  1  0  0  0  0
 16 17  1  0  0  0  0
 16 35  1  0  0  0  0
M  END
> <s_m_source_file>
AV-unprocessed.smi

> <i_m_source_file_index>
897

> <i_lp_mmshare_version>
43012

> <i_f3d_flags>
0

> <s_epik_input>
W0NIM11jMVtjSF1jKFtDSDNdKWMoQyNOKWMobjEpW05IXVtDQEhdKFtDSDJdW0NAQEhdMjMpW0NAQEhdKE8zKVtDSDJdW0NIMl0y

> <s_epik_cmdline>
J2VwaWtfcHl0aG9uJywgJy1waCcsICc3LjAnLCAnLXRuJywgJzgnLCAnLW1hJywgJzIwMCcsICctbWV0YWxfYmluZGluZycsICctaW1hZScsICc8aW5maWxlLm1hZT4nLCAnLW9tYWUnLCAnPG91dGZpbGUubWFlPic=

> <r_lp_tautomer_probability>
1

> <r_epik_Ionization_Penalty>
0.000502654

> <r_epik_Ionization_Penalty_Charging>
0

> <r_epik_Ionization_Penalty_Neutral>
0.000502654

> <r_epik_State_Penalty>
-0

> <r_epik_Charging_Adjusted_Penalty>
0

> <i_epik_Tot_Q>
0

> <i_epik_Tot_abs_Q>
0

> <r_epik_Metal_State_Penalty>
-0

> <b_epik_Metal_Only>
0

> <s_lp_Force_Field>
OPLS_2005

> <r_lp_Energy>
43.6406

> <b_lp_Chiralities_Consistent>
1

> <s_lp_Variant>
AV-unprocessed.smi:897-1

> <Gold.Version>
5.8.1

> <Gold.Id.Protein>
6NUR|6NUR_protein|mol2

> <Gold.PLP.Fitness>
43.2669

> <Gold.PLP.PLP>
-40.2924

> <Gold.PLP.part.hbond>
-2.0000

> <Gold.PLP.part.metal>
0.0000

> <Gold.PLP.part.buried>
-0.2062

> <Gold.PLP.part.nonpolar>
-37.6191

> <Gold.PLP.part.repulsive>
0.8222

> <Gold.PLP.ligand.clash>
0.0000

> <Gold.PLP.ligand.torsion>
0.1270

> <Gold.PLP.Chemscore.Hbond>
1.0694

> <Gold.PLP.Chemscore.CHOScore>
0.0000

> <Gold.PLP.Chemscore.Metal>
0.0000

> <Gold.Chemscore.Hbonds>
donor molecule, donor type, donor heavy atom, donor atom, acceptor molecule, acceptor atom, score
      L1  H    10    26       P1  8028  1.00
      P1  H  7989  7998       L1    18  0.07

> <Gold.PLP.Chemscore.Internal.Correction>
0.0202

> <Gold.Rescore>
     Score         DG    S(hbond)    S(metal)    S(lipo)     H(rot)  DE(clash)    DE(int)     intcor
     17.89     -18.59       1.00        0.00     105.46       1.00       0.48       0.22       ----

> <Gold.Chemscore.Fitness>
17.8854

> <Gold.Chemscore.DG>
-18.5921

> <Gold.Chemscore.ZeroCoef>
-5.4800

> <Gold.Chemscore.Hbond>
0.9981

> <Gold.Chemscore.Metal>
0.0000

> <Gold.Chemscore.Lipo>
105.4571

> <Gold.Chemscore.Internal_Hbond>
0.0000

> <Gold.Chemscore.DEClash>
0.4842

> <Gold.Chemscore.DEInternal>
0.2225

> <Gold.Chemscore.Rot>
1.0000

> <Gold.Chemscore.Internal.Correction>
   9.000000E+99

> <Gold.Chemscore.Hbonds>
donor molecule, donor type, donor heavy atom, donor atom, acceptor molecule, acceptor atom, score
      L1  H    10    26       P1  8028  0.98

> <Gold.Chemscore.Hbond.Weighted>
-3.3336

> <Gold.Chemscore.Metal.Weighted>
-0.0000

> <Gold.Chemscore.Lipo.Weighted>
-12.3385

> <Gold.Chemscore.Internal_Hbond.Weighted>
0.0000

> <Gold.Chemscore.DEClash.Weighted>
0.4842

> <Gold.Chemscore.DEInternal.Weighted>
0.2225

> <Gold.Chemscore.Rot.Weighted>
2.5600

> <Gold.Chemscore.Internal.Correction.Weighted>
   9.000000E+99

> <Gold.Protein.RotatedTorsions>
[ 6907 6896 6895 6894 ] final   37.99 input  -60.11 | X-H torsion
[ 7974 7965 7964 7962 ] final  -59.36 input  175.53 | X-H torsion
[ 8008 7997 7996 7995 ] final   14.71 input   59.86 | X-H torsion
[ 10167 10162 10161 10158 ] final -157.11 input  -65.29 | X-H torsion
[ 10718 10713 10712 10709 ] final -138.46 input   66.30 | X-H torsion
[ 10763 10752 10751 10750 ] final  -21.13 input  -60.55 | X-H torsion
[ 11005 11000 10999 10996 ] final -130.35 input  -57.11 | X-H torsion

> <Gold.Protein.ActiveResidues>
 VAL166  LYS551  ARG553  GLY616  TRP617  ASP618  TYR619  PRO620  LYS621  CYS622 
 ASP623  PHE694  ASN695  SER759  ASP760  ASP761  ALA762  ILE779  LEU786  VAL792 
 PHE793  MET794  SER795  GLU796  ALA797  LYS798  CYS799  TRP800  GLU811  SER814 

> <Gold.Protein.RotatedAtoms>
  152.1505  134.8992  160.0548 H   0  0  0  0  0  0  0  0  0  0  0  0  # atno 6907 bound_to 6896
  152.0026  133.3826  159.4196 H   0  0  0  0  0  0  0  0  0  0  0  0  # atno 6908 bound_to 6896
  150.6875  134.3740  159.5048 H   0  0  0  0  0  0  0  0  0  0  0  0  # atno 6909 bound_to 6896
  145.8284  140.8496  143.0096 H   0  0  0  0  0  0  0  0  0  0  0  0  # atno 7974 bound_to 7965
  154.8523  140.2931  155.5591 H   0  0  0  0  0  0  0  0  0  0  0  0  # atno 8008 bound_to 7997
  156.3017  140.2494  156.3415 H   0  0  0  0  0  0  0  0  0  0  0  0  # atno 8009 bound_to 7997
  154.9008  140.0391  157.1881 H   0  0  0  0  0  0  0  0  0  0  0  0  # atno 8010 bound_to 7997
  139.6797  143.9603  152.2330 H   0  0  0  0  0  0  0  0  0  0  0  0  # atno 10167 bound_to 10162
  156.2996  130.7421  151.1469 H   0  0  0  0  0  0  0  0  0  0  0  0  # atno 10718 bound_to 10713
  153.6313  135.6989  153.5274 H   0  0  0  0  0  0  0  0  0  0  0  0  # atno 10763 bound_to 10752
  153.2857  135.4172  155.1119 H   0  0  0  0  0  0  0  0  0  0  0  0  # atno 10764 bound_to 10752
  154.8521  135.3613  154.5856 H   0  0  0  0  0  0  0  0  0  0  0  0  # atno 10765 bound_to 10752
  140.9353  134.1265  157.4199 H   0  0  0  0  0  0  0  0  0  0  0  0  # atno 11005 bound_to 11000
  144.6742  140.0635  143.7475 LP  0  0  0  0  0  0  0  0  0  0  0  0  # atno 17320 bound_to 7965
  145.9598  139.2793  143.1162 LP  0  0  0  0  0  0  0  0  0  0  0  0  # atno 17321 bound_to 7965
  139.9389  144.6694  150.8286 LP  0  0  0  0  0  0  0  0  0  0  0  0  # atno 17342 bound_to 10162
  140.7648  143.3257  151.2520 LP  0  0  0  0  0  0  0  0  0  0  0  0  # atno 17343 bound_to 10162
  157.7364  131.0562  150.5414 LP  0  0  0  0  0  0  0  0  0  0  0  0  # atno 17370 bound_to 10713
  156.5539  130.4238  149.6094 LP  0  0  0  0  0  0  0  0  0  0  0  0  # atno 17371 bound_to 10713
  139.8806  135.0019  156.6093 LP  0  0  0  0  0  0  0  0  0  0  0  0  # atno 17394 bound_to 11000
  140.7807  133.8662  155.8565 LP  0  0  0  0  0  0  0  0  0  0  0  0  # atno 17395 bound_to 11000

$$$$
