AV-unprocessed.smi:3285|AV-procd|sdf|12580|dock1
  -GOLD-   2272018503D 1   1.00000     0.00000
 Structure written by MMmdl.
 45 46  0  0  0  0  0  0  0  0  2 V2000
  150.1870  139.8793  154.2237 C   0  0  0  0  0  0  0  0  0  0  0  0
  148.8945  140.6359  154.3372 C   0  0  0  0  0  0  0  0  0  0  0  0
  148.0478  140.6401  153.3216 N   0  0  0  0  0  0  0  0  0  0  0  0
  146.9611  141.4184  153.7312 O   0  0  0  0  0  0  0  0  0  0  0  0
  147.1998  141.8590  154.9924 C   0  0  0  0  0  0  0  0  0  0  0  0
  146.1472  142.7140  155.6129 C   0  0  0  0  0  0  0  0  0  0  0  0
  148.4094  141.4002  155.4369 C   0  0  0  0  0  0  0  0  0  0  0  0
  149.0756  141.6401  156.7646 C   0  0  0  0  0  0  0  0  0  0  0  0
  150.6023  141.6996  156.6256 C   0  0  0  0  0  0  0  0  0  0  0  0
  151.0792  143.0983  156.6254 N   0  3  0  0  0  0  0  0  0  0  0  0
  151.6571  143.5684  157.9041 C   0  0  2  0  0  0  0  0  0  0  0  0
  152.5284  142.4582  158.5186 C   0  0  0  0  0  0  0  0  0  0  0  0
  153.1167  142.8785  159.8748 C   0  0  0  0  0  0  0  0  0  0  0  0
  152.0105  143.3035  160.8597 C   0  0  1  0  0  0  0  0  0  0  0  0
  152.5778  143.6404  162.2483 C   0  0  0  0  0  0  0  0  0  0  0  0
  151.1234  144.4282  160.2681 C   0  0  1  0  0  0  0  0  0  0  0  0
  151.8157  145.8039  160.1864 C   0  0  0  0  0  0  0  0  0  0  0  0
  150.5548  143.9951  158.8999 C   0  0  0  0  0  0  0  0  0  0  0  0
  151.0393  140.5574  154.2661 H   0  0  0  0  0  0  0  0  0  0  0  0
  150.2511  139.3251  153.2864 H   0  0  0  0  0  0  0  0  0  0  0  0
  150.2917  139.1621  155.0377 H   0  0  0  0  0  0  0  0  0  0  0  0
  146.5938  143.5274  156.1843 H   0  0  0  0  0  0  0  0  0  0  0  0
  145.5243  142.1279  156.2885 H   0  0  0  0  0  0  0  0  0  0  0  0
  145.5011  143.1540  154.8531 H   0  0  0  0  0  0  0  0  0  0  0  0
  148.7180  142.5714  157.2055 H   0  0  0  0  0  0  0  0  0  0  0  0
  148.8084  140.8566  157.4747 H   0  0  0  0  0  0  0  0  0  0  0  0
  151.0723  141.1598  157.4488 H   0  0  0  0  0  0  0  0  0  0  0  0
  150.9040  141.2057  155.7022 H   0  0  0  0  0  0  0  0  0  0  0  0
  151.7668  143.2164  155.8951 H   0  0  0  0  0  0  0  0  0  0  0  0
  152.3024  144.4205  157.6863 H   0  0  0  0  0  0  0  0  0  0  0  0
  151.9341  141.5528  158.6511 H   0  0  0  0  0  0  0  0  0  0  0  0
  153.3383  142.1973  157.8362 H   0  0  0  0  0  0  0  0  0  0  0  0
  153.6846  142.0471  160.2938 H   0  0  0  0  0  0  0  0  0  0  0  0
  153.8293  143.6915  159.7330 H   0  0  0  0  0  0  0  0  0  0  0  0
  151.3628  142.4365  161.0007 H   0  0  0  0  0  0  0  0  0  0  0  0
  153.3126  144.4444  162.2016 H   0  0  0  0  0  0  0  0  0  0  0  0
  153.0728  142.7733  162.6867 H   0  0  0  0  0  0  0  0  0  0  0  0
  151.7868  143.9470  162.9335 H   0  0  0  0  0  0  0  0  0  0  0  0
  150.2719  144.5561  160.9381 H   0  0  0  0  0  0  0  0  0  0  0  0
  152.7205  145.7762  159.5803 H   0  0  0  0  0  0  0  0  0  0  0  0
  152.0907  146.1722  161.1746 H   0  0  0  0  0  0  0  0  0  0  0  0
  151.1499  146.5476  159.7473 H   0  0  0  0  0  0  0  0  0  0  0  0
  149.9529  144.8053  158.4889 H   0  0  0  0  0  0  0  0  0  0  0  0
  149.8680  143.1606  159.0513 H   0  0  0  0  0  0  0  0  0  0  0  0
  150.2848  143.6853  156.4138 H   0  0  0  0  0  0  0  0  0  0  0  0
  1  2  1  0  0  0  0
  1 19  1  0  0  0  0
  1 20  1  0  0  0  0
  1 21  1  0  0  0  0
  2  7  1  0  0  0  0
  2  3  2  0  0  0  0
  3  4  1  0  0  0  0
  4  5  1  0  0  0  0
  5  6  1  0  0  0  0
  5  7  2  0  0  0  0
  6 22  1  0  0  0  0
  6 23  1  0  0  0  0
  6 24  1  0  0  0  0
  7  8  1  0  0  0  0
  8  9  1  0  0  0  0
  8 25  1  0  0  0  0
  8 26  1  0  0  0  0
  9 10  1  0  0  0  0
  9 27  1  0  0  0  0
  9 28  1  0  0  0  0
 10 11  1  0  0  0  0
 10 29  1  0  0  0  0
 10 45  1  0  0  0  0
 11 18  1  0  0  0  0
 11 12  1  0  0  0  0
 11 30  1  0  0  0  0
 12 13  1  0  0  0  0
 12 31  1  0  0  0  0
 12 32  1  0  0  0  0
 13 14  1  0  0  0  0
 13 33  1  0  0  0  0
 13 34  1  0  0  0  0
 14 15  1  0  0  0  0
 14 16  1  0  0  0  0
 14 35  1  0  0  0  0
 15 36  1  0  0  0  0
 15 37  1  0  0  0  0
 15 38  1  0  0  0  0
 16 17  1  0  0  0  0
 16 18  1  0  0  0  0
 16 39  1  0  0  0  0
 17 40  1  0  0  0  0
 17 41  1  0  0  0  0
 17 42  1  0  0  0  0
 18 43  1  0  0  0  0
 18 44  1  0  0  0  0
M  CHG  1  10   1
M  END
> <s_m_source_file>
AV-unprocessed.smi

> <i_m_source_file_index>
3285

> <i_lp_mmshare_version>
43012

> <i_f3d_flags>
0

> <s_epik_input>
W0NIM11jMW5vYyhbQ0gzXSljMVtDSDJdW0NIMl1bTkhdW0NAQEhdMltDSDJdW0NIMl1bQ0BASF0oW0NIM10pW0NAQEhdKFtDSDNdKVtDSDJdMg==

> <s_epik_cmdline>
J2VwaWtfcHl0aG9uJywgJy1waCcsICc3LjAnLCAnLXRuJywgJzgnLCAnLW1hJywgJzIwMCcsICctbWV0YWxfYmluZGluZycsICctaW1hZScsICc8aW5maWxlLm1hZT4nLCAnLW9tYWUnLCAnPG91dGZpbGUubWFlPic=

> <r_lp_tautomer_probability>
1

> <r_epik_Ionization_Penalty>
0.000204615

> <r_epik_Ionization_Penalty_Charging>
0.000204615

> <r_epik_Ionization_Penalty_Neutral>
9.28663e-11

> <r_epik_State_Penalty>
-0

> <r_epik_Charging_Adjusted_Penalty>
0.000204615

> <i_epik_Tot_Q>
1

> <i_epik_Tot_abs_Q>
1

> <r_epik_Metal_State_Penalty>
-0

> <b_epik_Metal_Only>
0

> <s_lp_Force_Field>
OPLS_2005

> <r_lp_Energy>
12.1865

> <b_lp_Chiralities_Consistent>
1

> <s_lp_Variant>
AV-unprocessed.smi:3285-1

> <Gold.Version>
5.8.1

> <Gold.Id.Protein>
6NUR|6NUR_protein|mol2

> <Gold.PLP.Fitness>
45.1627

> <Gold.PLP.PLP>
-41.4313

> <Gold.PLP.part.hbond>
-1.0000

> <Gold.PLP.part.metal>
0.0000

> <Gold.PLP.part.buried>
-4.7912

> <Gold.PLP.part.nonpolar>
-36.2290

> <Gold.PLP.part.repulsive>
1.2933

> <Gold.PLP.ligand.clash>
0.0000

> <Gold.PLP.ligand.torsion>
1.1419

> <Gold.PLP.Chemscore.Hbond>
2.0000

> <Gold.PLP.Chemscore.CHOScore>
0.0000

> <Gold.PLP.Chemscore.Metal>
0.0000

> <Gold.Chemscore.Hbonds>
donor molecule, donor type, donor heavy atom, donor atom, acceptor molecule, acceptor atom, score
      L1  H    10    45       P1  8028  2.00

> <Gold.PLP.Chemscore.Internal.Correction>
0.0152

> <Gold.Rescore>
     Score         DG    S(hbond)    S(metal)    S(lipo)     H(rot)  DE(clash)    DE(int)     intcor
     18.99     -20.14       1.00        0.00     126.24       1.35       0.10       1.04       ----

> <Gold.Chemscore.Fitness>
18.9936

> <Gold.Chemscore.DG>
-20.1354

> <Gold.Chemscore.ZeroCoef>
-5.4800

> <Gold.Chemscore.Hbond>
0.9975

> <Gold.Chemscore.Metal>
0.0000

> <Gold.Chemscore.Lipo>
126.2449

> <Gold.Chemscore.Internal_Hbond>
0.0000

> <Gold.Chemscore.DEClash>
0.1030

> <Gold.Chemscore.DEInternal>
1.0389

> <Gold.Chemscore.Rot>
1.3465

> <Gold.Chemscore.Internal.Correction>
   9.000000E+99

> <Gold.Chemscore.Hbonds>
donor molecule, donor type, donor heavy atom, donor atom, acceptor molecule, acceptor atom, score
      L1  H    10    45       P1  8028  1.00

> <Gold.Chemscore.Hbond.Weighted>
-3.3318

> <Gold.Chemscore.Metal.Weighted>
-0.0000

> <Gold.Chemscore.Lipo.Weighted>
-14.7706

> <Gold.Chemscore.Internal_Hbond.Weighted>
0.0000

> <Gold.Chemscore.DEClash.Weighted>
0.1030

> <Gold.Chemscore.DEInternal.Weighted>
1.0389

> <Gold.Chemscore.Rot.Weighted>
3.4470

> <Gold.Chemscore.Internal.Correction.Weighted>
   9.000000E+99

> <Gold.Protein.RotatedTorsions>
[ 6907 6896 6895 6894 ] final -102.22 input  -60.11 | X-H torsion
[ 7974 7965 7964 7962 ] final  -33.77 input  175.53 | X-H torsion
[ 8008 7997 7996 7995 ] final  145.12 input   59.86 | X-H torsion
[ 10167 10162 10161 10158 ] final   62.55 input  -65.29 | X-H torsion
[ 10718 10713 10712 10709 ] final  -28.39 input   66.30 | X-H torsion
[ 10763 10752 10751 10750 ] final  -41.38 input  -60.55 | X-H torsion
[ 11005 11000 10999 10996 ] final -168.80 input  -57.11 | X-H torsion

> <Gold.Protein.ActiveResidues>
 VAL166  LYS551  ARG553  GLY616  TRP617  ASP618  TYR619  PRO620  LYS621  CYS622 
 ASP623  PHE694  ASN695  SER759  ASP760  ASP761  ALA762  ILE779  LEU786  VAL792 
 PHE793  MET794  SER795  GLU796  ALA797  LYS798  CYS799  TRP800  GLU811  SER814 

> <Gold.Protein.RotatedAtoms>
  150.7187  134.0615  159.3832 H   0  0  0  0  0  0  0  0  0  0  0  0  # atno 6907 bound_to 6896
  151.8595  135.0527  160.0477 H   0  0  0  0  0  0  0  0  0  0  0  0  # atno 6908 bound_to 6896
  152.2728  133.5362  159.5486 H   0  0  0  0  0  0  0  0  0  0  0  0  # atno 6909 bound_to 6896
  146.0884  140.5957  142.8876 H   0  0  0  0  0  0  0  0  0  0  0  0  # atno 7974 bound_to 7965
  156.2891  140.2217  156.5164 H   0  0  0  0  0  0  0  0  0  0  0  0  # atno 8008 bound_to 7997
  154.7565  140.0476  157.0959 H   0  0  0  0  0  0  0  0  0  0  0  0  # atno 8009 bound_to 7997
  155.0044  140.3105  155.4858 H   0  0  0  0  0  0  0  0  0  0  0  0  # atno 8010 bound_to 7997
  140.1427  144.4538  150.6802 H   0  0  0  0  0  0  0  0  0  0  0  0  # atno 10167 bound_to 10162
  156.4259  130.4435  149.7151 H   0  0  0  0  0  0  0  0  0  0  0  0  # atno 10718 bound_to 10713
  153.9615  135.6739  153.4745 H   0  0  0  0  0  0  0  0  0  0  0  0  # atno 10763 bound_to 10752
  153.0836  135.4911  154.8548 H   0  0  0  0  0  0  0  0  0  0  0  0  # atno 10764 bound_to 10752
  154.7270  135.3129  154.8915 H   0  0  0  0  0  0  0  0  0  0  0  0  # atno 10765 bound_to 10752
  140.5379  134.5551  157.5092 H   0  0  0  0  0  0  0  0  0  0  0  0  # atno 11005 bound_to 11000
  144.7342  140.4760  143.6916 LP  0  0  0  0  0  0  0  0  0  0  0  0  # atno 17320 bound_to 7965
  145.6087  139.1511  143.3088 LP  0  0  0  0  0  0  0  0  0  0  0  0  # atno 17321 bound_to 7965
  140.6751  143.2301  151.5528 LP  0  0  0  0  0  0  0  0  0  0  0  0  # atno 17342 bound_to 10162
  139.5464  144.2509  152.1450 LP  0  0  0  0  0  0  0  0  0  0  0  0  # atno 17343 bound_to 10162
  156.4073  130.7704  151.2716 LP  0  0  0  0  0  0  0  0  0  0  0  0  # atno 17370 bound_to 10713
  157.7508  131.0222  150.3781 LP  0  0  0  0  0  0  0  0  0  0  0  0  # atno 17371 bound_to 10713
  139.9519  134.7601  156.0428 LP  0  0  0  0  0  0  0  0  0  0  0  0  # atno 17394 bound_to 11000
  141.1244  133.6603  156.3298 LP  0  0  0  0  0  0  0  0  0  0  0  0  # atno 17395 bound_to 11000

$$$$
