AV-unprocessed.smi:690|AV-procd|sdf|3362|dock2
  -GOLD-   22720 0343D 1   1.00000     0.00000
 Structure written by MMmdl.
 46 48  0  0  0  0  0  0  0  0  1 V2000
  150.9888  143.3309  157.1873 C   0  0  0  0  0  0  0  0  0  0  0  0
  151.4812  142.0100  157.7819 C   0  0  0  0  0  0  0  0  0  0  0  0
  151.4335  141.0116  156.7771 O   0  0  0  0  0  0  0  0  0  0  0  0
  150.2258  140.2672  156.7954 C   0  0  2  0  0  0  0  0  0  0  0  0
  149.7928  139.7797  158.1816 C   0  0  0  0  0  0  0  0  0  0  0  0
  149.3330  138.5055  157.4663 C   0  0  2  0  0  0  0  0  0  0  0  0
  149.5641  137.2945  158.2446 N   0  0  0  0  0  0  0  0  0  0  0  0
  148.6252  136.3798  158.5232 C   0  0  0  0  0  0  0  0  0  0  0  0
  147.4551  136.4817  158.1525 O   0  0  0  0  0  0  0  0  0  0  0  0
  149.0811  135.1826  159.3687 C   0  0  0  0  0  0  0  0  0  0  0  0
  148.3850  135.0905  160.6626 N   0  0  0  0  0  0  0  0  0  0  0  0
  147.9122  133.8206  161.0499 C   0  0  0  0  0  0  0  0  0  0  0  0
  147.2681  133.6270  162.2116 C   0  0  0  0  0  0  0  0  0  0  0  0
  147.0626  134.7649  163.0761 C   0  0  0  0  0  0  0  0  0  0  0  0
  147.5127  135.9836  162.7163 C   0  0  0  0  0  0  0  0  0  0  0  0
  148.2183  136.1995  161.4480 C   0  0  0  0  0  0  0  0  0  0  0  0
  148.6331  137.3091  161.1117 O   0  0  0  0  0  0  0  0  0  0  0  0
  150.4073  138.7840  156.3862 C   0  0  0  0  0  0  0  0  0  0  0  0
  151.8077  138.1766  156.5445 C   0  0  0  0  0  0  0  0  0  0  0  0
  152.5201  138.3645  155.2038 C   0  0  0  0  0  0  0  0  0  0  0  0
  151.4049  138.4654  154.1576 C   0  0  0  0  0  0  0  0  0  0  0  0
  150.0872  138.4229  154.9397 C   0  0  0  0  0  0  0  0  0  0  0  0
  151.0048  144.1246  157.9342 H   0  0  0  0  0  0  0  0  0  0  0  0
  149.9665  143.2369  156.8204 H   0  0  0  0  0  0  0  0  0  0  0  0
  151.6175  143.6431  156.3532 H   0  0  0  0  0  0  0  0  0  0  0  0
  152.5000  142.1259  158.1540 H   0  0  0  0  0  0  0  0  0  0  0  0
  150.8511  141.7246  158.6255 H   0  0  0  0  0  0  0  0  0  0  0  0
  149.4141  140.7518  156.2474 H   0  0  0  0  0  0  0  0  0  0  0  0
  150.6297  139.6250  158.8655 H   0  0  0  0  0  0  0  0  0  0  0  0
  148.9929  140.3601  158.6416 H   0  0  0  0  0  0  0  0  0  0  0  0
  148.3180  138.5955  157.0713 H   0  0  0  0  0  0  0  0  0  0  0  0
  150.5005  137.1411  158.5897 H   0  0  0  0  0  0  0  0  0  0  0  0
  148.9414  134.2591  158.8031 H   0  0  0  0  0  0  0  0  0  0  0  0
  150.1586  135.2654  159.5171 H   0  0  0  0  0  0  0  0  0  0  0  0
  148.1120  133.0215  160.3508 H   0  0  0  0  0  0  0  0  0  0  0  0
  146.9164  132.6457  162.4940 H   0  0  0  0  0  0  0  0  0  0  0  0
  146.5469  134.6381  164.0167 H   0  0  0  0  0  0  0  0  0  0  0  0
  147.3509  136.8231  163.3765 H   0  0  0  0  0  0  0  0  0  0  0  0
  152.3746  138.6191  157.3641 H   0  0  0  0  0  0  0  0  0  0  0  0
  151.7393  137.1079  156.7517 H   0  0  0  0  0  0  0  0  0  0  0  0
  153.0983  139.2891  155.2154 H   0  0  0  0  0  0  0  0  0  0  0  0
  153.2114  137.5477  154.9942 H   0  0  0  0  0  0  0  0  0  0  0  0
  151.4938  139.4048  153.6107 H   0  0  0  0  0  0  0  0  0  0  0  0
  151.4570  137.6560  153.4290 H   0  0  0  0  0  0  0  0  0  0  0  0
  149.6722  137.4150  154.8947 H   0  0  0  0  0  0  0  0  0  0  0  0
  149.3436  139.0872  154.4983 H   0  0  0  0  0  0  0  0  0  0  0  0
  1  2  1  0  0  0  0
  1 23  1  0  0  0  0
  1 24  1  0  0  0  0
  1 25  1  0  0  0  0
  2  3  1  0  0  0  0
  2 26  1  0  0  0  0
  2 27  1  0  0  0  0
  3  4  1  0  0  0  0
  4 18  1  0  0  0  0
  4  5  1  0  0  0  0
  4 28  1  0  0  0  0
  5  6  1  0  0  0  0
  5 29  1  0  0  0  0
  5 30  1  0  0  0  0
  6  7  1  0  0  0  0
  6 18  1  0  0  0  0
  6 31  1  0  0  0  0
  7  8  1  0  0  0  0
  7 32  1  0  0  0  0
  8  9  2  0  0  0  0
  8 10  1  0  0  0  0
 10 11  1  0  0  0  0
 10 33  1  0  0  0  0
 10 34  1  0  0  0  0
 11 16  1  0  0  0  0
 11 12  1  0  0  0  0
 12 13  2  0  0  0  0
 12 35  1  0  0  0  0
 13 14  1  0  0  0  0
 13 36  1  0  0  0  0
 14 15  2  0  0  0  0
 14 37  1  0  0  0  0
 15 16  1  0  0  0  0
 15 38  1  0  0  0  0
 16 17  2  0  0  0  0
 18 22  1  0  0  0  0
 18 19  1  0  0  0  0
 19 20  1  0  0  0  0
 19 39  1  0  0  0  0
 19 40  1  0  0  0  0
 20 21  1  0  0  0  0
 20 41  1  0  0  0  0
 20 42  1  0  0  0  0
 21 22  1  0  0  0  0
 21 43  1  0  0  0  0
 21 44  1  0  0  0  0
 22 45  1  0  0  0  0
 22 46  1  0  0  0  0
M  END
> <s_m_source_file>
AV-unprocessed.smi

> <i_m_source_file_index>
690

> <i_lp_mmshare_version>
43012

> <i_f3d_flags>
0

> <s_epik_input>
W0NIMl0xW0NIMl1bQ0gyXVtDSDJdQzEyW0NASF0oT1tDSDJdW0NIM10pW0NIMl1bQ0BIXTJbTkhdQyg9TylbQ0gyXW4zW2NIXVtjSF1bY0hdW2NIXWMzPU8=

> <s_epik_cmdline>
J2VwaWtfcHl0aG9uJywgJy1waCcsICc3LjAnLCAnLXRuJywgJzgnLCAnLW1hJywgJzIwMCcsICctbWV0YWxfYmluZGluZycsICctaW1hZScsICc8aW5maWxlLm1hZT4nLCAnLW9tYWUnLCAnPG91dGZpbGUubWFlPic=

> <r_lp_tautomer_probability>
1

> <r_epik_Ionization_Penalty>
4.11691e-07

> <r_epik_Ionization_Penalty_Charging>
3.92797e-07

> <r_epik_Ionization_Penalty_Neutral>
1.88943e-08

> <r_epik_State_Penalty>
-0

> <r_epik_Charging_Adjusted_Penalty>
3.92797e-07

> <i_epik_Tot_Q>
0

> <i_epik_Tot_abs_Q>
0

> <r_epik_Metal_State_Penalty>
-0

> <b_epik_Metal_Only>
0

> <s_lp_Force_Field>
OPLS_2005

> <r_lp_Energy>
45.5322

> <b_lp_Chiralities_Consistent>
1

> <s_lp_Variant>
AV-unprocessed.smi:690-3

> <Gold.Version>
5.8.1

> <Gold.Id.Protein>
6NUR|6NUR_protein|mol2

> <Gold.PLP.Fitness>
36.8075

> <Gold.PLP.PLP>
-34.3323

> <Gold.PLP.part.hbond>
-1.6735

> <Gold.PLP.part.metal>
0.0000

> <Gold.PLP.part.buried>
-3.4475

> <Gold.PLP.part.nonpolar>
-28.7502

> <Gold.PLP.part.repulsive>
0.1106

> <Gold.PLP.ligand.clash>
0.0000

> <Gold.PLP.ligand.torsion>
0.7803

> <Gold.PLP.Chemscore.Hbond>
1.2189

> <Gold.PLP.Chemscore.CHOScore>
0.0000

> <Gold.PLP.Chemscore.Metal>
0.0000

> <Gold.Chemscore.Hbonds>
donor molecule, donor type, donor heavy atom, donor atom, acceptor molecule, acceptor atom, score
      P1  H  6931  6943       L1    17  0.38
      P1  H  6934  6947       L1    17  0.20

> <Gold.PLP.Chemscore.Internal.Correction>
0.3791

> <Gold.Rescore>
     Score         DG    S(hbond)    S(metal)    S(lipo)     H(rot)  DE(clash)    DE(int)     intcor
     15.02     -16.91       1.67        0.00      86.92       1.69       0.01       1.88       ----

> <Gold.Chemscore.Fitness>
15.0209

> <Gold.Chemscore.DG>
-16.9137

> <Gold.Chemscore.ZeroCoef>
-5.4800

> <Gold.Chemscore.Hbond>
1.6738

> <Gold.Chemscore.Metal>
0.0000

> <Gold.Chemscore.Lipo>
86.9218

> <Gold.Chemscore.Internal_Hbond>
0.0000

> <Gold.Chemscore.DEClash>
0.0088

> <Gold.Chemscore.DEInternal>
1.8840

> <Gold.Chemscore.Rot>
1.6900

> <Gold.Chemscore.Internal.Correction>
   9.000000E+99

> <Gold.Chemscore.Hbonds>
donor molecule, donor type, donor heavy atom, donor atom, acceptor molecule, acceptor atom, score
      P1  H  6931  6943       L1    17  0.36
      P1  H  6934  6947       L1    17  0.20

> <Gold.Chemscore.Hbond.Weighted>
-5.5903

> <Gold.Chemscore.Metal.Weighted>
-0.0000

> <Gold.Chemscore.Lipo.Weighted>
-10.1698

> <Gold.Chemscore.Internal_Hbond.Weighted>
0.0000

> <Gold.Chemscore.DEClash.Weighted>
0.0088

> <Gold.Chemscore.DEInternal.Weighted>
1.8840

> <Gold.Chemscore.Rot.Weighted>
4.3265

> <Gold.Chemscore.Internal.Correction.Weighted>
   9.000000E+99

> <Gold.Protein.RotatedTorsions>
[ 6907 6896 6895 6894 ] final  -60.84 input  -60.11 | X-H torsion
[ 7974 7965 7964 7962 ] final   20.72 input  175.53 | X-H torsion
[ 8008 7997 7996 7995 ] final  -81.84 input   59.86 | X-H torsion
[ 10167 10162 10161 10158 ] final  -70.68 input  -65.29 | X-H torsion
[ 10718 10713 10712 10709 ] final -146.81 input   66.30 | X-H torsion
[ 10763 10752 10751 10750 ] final -139.74 input  -60.55 | X-H torsion
[ 11005 11000 10999 10996 ] final  150.78 input  -57.11 | X-H torsion

> <Gold.Protein.ActiveResidues>
 VAL166  LYS551  ARG553  GLY616  TRP617  ASP618  TYR619  PRO620  LYS621  CYS622 
 ASP623  PHE694  ASN695  SER759  ASP760  ASP761  ALA762  ILE779  LEU786  VAL792 
 PHE793  MET794  SER795  GLU796  ALA797  LYS798  CYS799  TRP800  GLU811  SER814 

> <Gold.Protein.RotatedAtoms>
  150.7827  134.6783  159.6429 H   0  0  0  0  0  0  0  0  0  0  0  0  # atno 6907 bound_to 6896
  152.3915  134.6430  160.0114 H   0  0  0  0  0  0  0  0  0  0  0  0  # atno 6908 bound_to 6896
  151.6729  133.3277  159.3237 H   0  0  0  0  0  0  0  0  0  0  0  0  # atno 6909 bound_to 6896
  146.2100  139.8129  142.8696 H   0  0  0  0  0  0  0  0  0  0  0  0  # atno 7974 bound_to 7965
  154.6025  140.0642  156.9387 H   0  0  0  0  0  0  0  0  0  0  0  0  # atno 8008 bound_to 7997
  155.2109  140.3322  155.4311 H   0  0  0  0  0  0  0  0  0  0  0  0  # atno 8009 bound_to 7997
  156.2327  140.1848  156.7185 H   0  0  0  0  0  0  0  0  0  0  0  0  # atno 8010 bound_to 7997
  140.5333  143.2320  151.7223 H   0  0  0  0  0  0  0  0  0  0  0  0  # atno 10167 bound_to 10162
  156.3997  130.7927  151.2137 H   0  0  0  0  0  0  0  0  0  0  0  0  # atno 10718 bound_to 10713
  154.8600  135.3573  154.5595 H   0  0  0  0  0  0  0  0  0  0  0  0  # atno 10763 bound_to 10752
  153.6210  135.7006  153.5315 H   0  0  0  0  0  0  0  0  0  0  0  0  # atno 10764 bound_to 10752
  153.3129  135.4173  155.1311 H   0  0  0  0  0  0  0  0  0  0  0  0  # atno 10765 bound_to 10752
  140.1161  134.8893  157.2006 H   0  0  0  0  0  0  0  0  0  0  0  0  # atno 11005 bound_to 11000
  145.3177  141.0236  143.3518 LP  0  0  0  0  0  0  0  0  0  0  0  0  # atno 17320 bound_to 7965
  144.8890  139.4801  143.6687 LP  0  0  0  0  0  0  0  0  0  0  0  0  # atno 17321 bound_to 7965
  139.4962  144.4081  152.0110 LP  0  0  0  0  0  0  0  0  0  0  0  0  # atno 17342 bound_to 10162
  140.3185  144.3456  150.6015 LP  0  0  0  0  0  0  0  0  0  0  0  0  # atno 17343 bound_to 10162
  157.7503  131.0290  150.4076 LP  0  0  0  0  0  0  0  0  0  0  0  0  # atno 17370 bound_to 10713
  156.4353  130.3980  149.6733 LP  0  0  0  0  0  0  0  0  0  0  0  0  # atno 17371 bound_to 10713
  140.3026  134.3114  155.7286 LP  0  0  0  0  0  0  0  0  0  0  0  0  # atno 17394 bound_to 11000
  141.2141  133.7601  156.9662 LP  0  0  0  0  0  0  0  0  0  0  0  0  # atno 17395 bound_to 11000

$$$$
