AV-unprocessed.smi:2442|AV-procd|sdf|9623|dock1
  -GOLD-   2272013253D 1   1.00000     0.00000
 Structure written by MMmdl.
 46 47  0  0  0  0  0  0  0  0  1 V2000
  151.8468  138.0488  154.5174 C   0  0  0  0  0  0  0  0  0  0  0  0
  150.4496  138.1341  154.7476 O   0  0  0  0  0  0  0  0  0  0  0  0
  149.8730  139.3762  154.3613 C   0  0  2  0  0  0  0  0  0  0  0  0
  150.3594  140.4982  155.3029 C   0  0  0  0  0  0  0  0  0  0  0  0
  149.6516  141.8304  155.0052 C   0  0  0  0  0  0  0  0  0  0  0  0
  148.1240  141.6829  155.0844 C   0  0  0  0  0  0  0  0  0  0  0  0
  147.6254  140.5739  154.1456 C   0  0  0  0  0  0  0  0  0  0  0  0
  148.3341  139.2348  154.4448 C   0  0  1  0  0  0  0  0  0  0  0  0
  147.8148  138.1467  153.6127 N   0  0  0  0  0  0  0  0  0  0  0  0
  146.5307  137.8008  153.4342 C   0  0  0  0  0  0  0  0  0  0  0  0
  145.5730  138.3955  153.9288 O   0  0  0  0  0  0  0  0  0  0  0  0
  146.4169  136.7028  152.6727 N   0  0  0  0  0  0  0  0  0  0  0  0
  145.1631  136.0209  152.3587 C   0  0  0  0  0  0  0  0  0  0  0  0
  145.1394  134.5583  152.8529 C   0  0  0  0  0  0  0  0  0  0  0  0
  144.8691  133.5283  151.7613 C   0  0  0  0  0  0  0  0  0  0  0  0
  143.5648  133.4034  151.2358 C   0  0  0  0  0  0  0  0  0  0  0  0
  143.3340  132.4757  150.2022 C   0  0  0  0  0  0  0  0  0  0  0  0
  144.2989  131.6883  149.6853 N   0  0  0  0  0  0  0  0  0  0  0  0
  145.5436  131.8024  150.1939 C   0  0  0  0  0  0  0  0  0  0  0  0
  145.8877  132.6977  151.2301 C   0  0  0  0  0  0  0  0  0  0  0  0
  147.3213  132.7537  151.7263 C   0  0  0  0  0  0  0  0  0  0  0  0
  152.2070  137.0693  154.8314 H   0  0  0  0  0  0  0  0  0  0  0  0
  152.3977  138.8018  155.0801 H   0  0  0  0  0  0  0  0  0  0  0  0
  152.0775  138.1641  153.4574 H   0  0  0  0  0  0  0  0  0  0  0  0
  150.1592  139.6246  153.3383 H   0  0  0  0  0  0  0  0  0  0  0  0
  150.1735  140.2127  156.3391 H   0  0  0  0  0  0  0  0  0  0  0  0
  151.4363  140.6361  155.2104 H   0  0  0  0  0  0  0  0  0  0  0  0
  149.9871  142.5937  155.7079 H   0  0  0  0  0  0  0  0  0  0  0  0
  149.9339  142.1794  154.0112 H   0  0  0  0  0  0  0  0  0  0  0  0
  147.8312  141.4543  156.1099 H   0  0  0  0  0  0  0  0  0  0  0  0
  147.6452  142.6288  154.8292 H   0  0  0  0  0  0  0  0  0  0  0  0
  146.5462  140.4595  154.2539 H   0  0  0  0  0  0  0  0  0  0  0  0
  147.8005  140.8771  153.1129 H   0  0  0  0  0  0  0  0  0  0  0  0
  148.0842  138.9557  155.4693 H   0  0  0  0  0  0  0  0  0  0  0  0
  148.5107  137.5831  153.1471 H   0  0  0  0  0  0  0  0  0  0  0  0
  147.2628  136.2873  152.3111 H   0  0  0  0  0  0  0  0  0  0  0  0
  144.3198  136.5764  152.7697 H   0  0  0  0  0  0  0  0  0  0  0  0
  145.0302  136.0386  151.2770 H   0  0  0  0  0  0  0  0  0  0  0  0
  146.0771  134.3220  153.3553 H   0  0  0  0  0  0  0  0  0  0  0  0
  144.3704  134.4573  153.6198 H   0  0  0  0  0  0  0  0  0  0  0  0
  142.7563  134.0169  151.6051 H   0  0  0  0  0  0  0  0  0  0  0  0
  142.3475  132.3659  149.7768 H   0  0  0  0  0  0  0  0  0  0  0  0
  146.2903  131.1568  149.7554 H   0  0  0  0  0  0  0  0  0  0  0  0
  147.9170  131.9491  151.2940 H   0  0  0  0  0  0  0  0  0  0  0  0
  147.3639  132.6488  152.8101 H   0  0  0  0  0  0  0  0  0  0  0  0
  147.7866  133.6980  151.4456 H   0  0  0  0  0  0  0  0  0  0  0  0
  1  2  1  0  0  0  0
  1 22  1  0  0  0  0
  1 23  1  0  0  0  0
  1 24  1  0  0  0  0
  2  3  1  0  0  0  0
  3  8  1  0  0  0  0
  3  4  1  0  0  0  0
  3 25  1  0  0  0  0
  4  5  1  0  0  0  0
  4 26  1  0  0  0  0
  4 27  1  0  0  0  0
  5  6  1  0  0  0  0
  5 28  1  0  0  0  0
  5 29  1  0  0  0  0
  6  7  1  0  0  0  0
  6 30  1  0  0  0  0
  6 31  1  0  0  0  0
  7  8  1  0  0  0  0
  7 32  1  0  0  0  0
  7 33  1  0  0  0  0
  8  9  1  0  0  0  0
  8 34  1  0  0  0  0
  9 10  1  0  0  0  0
  9 35  1  0  0  0  0
 10 11  2  0  0  0  0
 10 12  1  0  0  0  0
 12 13  1  0  0  0  0
 12 36  1  0  0  0  0
 13 14  1  0  0  0  0
 13 37  1  0  0  0  0
 13 38  1  0  0  0  0
 14 15  1  0  0  0  0
 14 39  1  0  0  0  0
 14 40  1  0  0  0  0
 15 20  1  0  0  0  0
 15 16  2  0  0  0  0
 16 17  1  0  0  0  0
 16 41  1  0  0  0  0
 17 18  2  0  0  0  0
 17 42  1  0  0  0  0
 18 19  1  0  0  0  0
 19 20  2  0  0  0  0
 19 43  1  0  0  0  0
 20 21  1  0  0  0  0
 21 44  1  0  0  0  0
 21 45  1  0  0  0  0
 21 46  1  0  0  0  0
M  END
> <s_m_source_file>
AV-unprocessed.smi

> <i_m_source_file_index>
2442

> <i_lp_mmshare_version>
43012

> <i_f3d_flags>
0

> <s_epik_input>
W0NIM11PW0NAQEhdMVtDSDJdW0NIMl1bQ0gyXVtDSDJdW0NASF0xW05IXUMoPU8pW05IXVtDSDJdW0NIMl1jMltjSF1bY0hdbltjSF1jMltDSDNd

> <s_epik_cmdline>
J2VwaWtfcHl0aG9uJywgJy1waCcsICc3LjAnLCAnLXRuJywgJzgnLCAnLW1hJywgJzIwMCcsICctbWV0YWxfYmluZGluZycsICctaW1hZScsICc8aW5maWxlLm1hZT4nLCAnLW9tYWUnLCAnPG91dGZpbGUubWFlPic=

> <r_epik_Ionization_Penalty>
0.106136

> <r_epik_Ionization_Penalty_Charging>
0

> <r_epik_Ionization_Penalty_Neutral>
0.106136

> <r_epik_State_Penalty>
0.0959393

> <r_epik_Charging_Adjusted_Penalty>
0.0959393

> <i_epik_Tot_Q>
0

> <i_epik_Tot_abs_Q>
0

> <r_epik_Metal_State_Penalty>
0.0812517

> <b_epik_Metal_Only>
0

> <s_lp_Force_Field>
OPLS_2005

> <r_lp_Energy>
10.1716

> <b_lp_Chiralities_Consistent>
1

> <s_lp_Variant>
AV-unprocessed.smi:2442-1

> <Gold.Version>
5.8.1

> <Gold.Id.Protein>
6NUR|6NUR_protein|mol2

> <Gold.PLP.Fitness>
46.7171

> <Gold.PLP.PLP>
-33.5788

> <Gold.PLP.part.hbond>
-3.0000

> <Gold.PLP.part.metal>
0.0000

> <Gold.PLP.part.buried>
0.7694

> <Gold.PLP.part.nonpolar>
-32.3038

> <Gold.PLP.part.repulsive>
0.4960

> <Gold.PLP.ligand.clash>
0.0000

> <Gold.PLP.ligand.torsion>
0.6306

> <Gold.PLP.Chemscore.Hbond>
2.2893

> <Gold.PLP.Chemscore.CHOScore>
2.4729

> <Gold.PLP.Chemscore.Metal>
0.0000

> <Gold.Chemscore.Hbonds>
donor molecule, donor type, donor heavy atom, donor atom, acceptor molecule, acceptor atom, score
      L1  H     9    35       P1  7948  1.00
      L1  H    12    36       P1  7948  1.00
      P1  H 10785 10796       L1    18  0.46
      L1  C    17    42       P1 10186  0.75
      L1  C    17    42       P1 10952  1.00
      L1  C    19    43       P1 10747  0.49

> <Gold.PLP.Chemscore.Internal.Correction>
0.1130

> <Gold.Rescore>
     Score         DG    S(hbond)    S(metal)    S(lipo)     H(rot)  DE(clash)    DE(int)     intcor
     19.55     -21.54       2.54        0.00     100.63       1.64       1.40       0.60       ----

> <Gold.Chemscore.Fitness>
19.5474

> <Gold.Chemscore.DG>
-21.5397

> <Gold.Chemscore.ZeroCoef>
-5.4800

> <Gold.Chemscore.Hbond>
2.5387

> <Gold.Chemscore.Metal>
0.0000

> <Gold.Chemscore.Lipo>
100.6298

> <Gold.Chemscore.Internal_Hbond>
0.0000

> <Gold.Chemscore.DEClash>
1.3960

> <Gold.Chemscore.DEInternal>
0.5963

> <Gold.Chemscore.Rot>
1.6380

> <Gold.Chemscore.Internal.Correction>
   9.000000E+99

> <Gold.Chemscore.Hbonds>
donor molecule, donor type, donor heavy atom, donor atom, acceptor molecule, acceptor atom, score
      L1  H     9    35       P1  7948  0.94
      L1  H    12    36       P1  7948  0.99
      P1  H 10785 10796       L1    18  0.20

> <Gold.Chemscore.Hbond.Weighted>
-8.4794

> <Gold.Chemscore.Metal.Weighted>
-0.0000

> <Gold.Chemscore.Lipo.Weighted>
-11.7737

> <Gold.Chemscore.Internal_Hbond.Weighted>
0.0000

> <Gold.Chemscore.DEClash.Weighted>
1.3960

> <Gold.Chemscore.DEInternal.Weighted>
0.5963

> <Gold.Chemscore.Rot.Weighted>
4.1934

> <Gold.Chemscore.Internal.Correction.Weighted>
   9.000000E+99

> <Gold.Protein.RotatedTorsions>
[ 6907 6896 6895 6894 ] final    3.80 input  -60.11 | X-H torsion
[ 7974 7965 7964 7962 ] final   94.89 input  175.53 | X-H torsion
[ 8008 7997 7996 7995 ] final   20.07 input   59.86 | X-H torsion
[ 10167 10162 10161 10158 ] final -173.15 input  -65.29 | X-H torsion
[ 10718 10713 10712 10709 ] final  -13.21 input   66.30 | X-H torsion
[ 10763 10752 10751 10750 ] final  -25.88 input  -60.55 | X-H torsion
[ 11005 11000 10999 10996 ] final   70.10 input  -57.11 | X-H torsion

> <Gold.Protein.ActiveResidues>
 VAL166  LYS551  ARG553  GLY616  TRP617  ASP618  TYR619  PRO620  LYS621  CYS622 
 ASP623  PHE694  ASN695  SER759  ASP760  ASP761  ALA762  ILE779  LEU786  VAL792 
 PHE793  MET794  SER795  GLU796  ALA797  LYS798  CYS799  TRP800  GLU811  SER814 

> <Gold.Protein.RotatedAtoms>
  151.6309  135.1023  160.0121 H   0  0  0  0  0  0  0  0  0  0  0  0  # atno 6907 bound_to 6896
  152.4107  133.6954  159.6403 H   0  0  0  0  0  0  0  0  0  0  0  0  # atno 6908 bound_to 6896
  150.7997  133.8547  159.3256 H   0  0  0  0  0  0  0  0  0  0  0  0  # atno 6909 bound_to 6896
  145.4595  139.2288  143.2995 H   0  0  0  0  0  0  0  0  0  0  0  0  # atno 7974 bound_to 7965
  154.9302  140.3039  155.5172 H   0  0  0  0  0  0  0  0  0  0  0  0  # atno 8008 bound_to 7997
  156.3004  140.2355  156.4297 H   0  0  0  0  0  0  0  0  0  0  0  0  # atno 8009 bound_to 7997
  154.8245  140.0421  157.1423 H   0  0  0  0  0  0  0  0  0  0  0  0  # atno 8010 bound_to 7997
  139.5704  144.1655  152.1375 H   0  0  0  0  0  0  0  0  0  0  0  0  # atno 10167 bound_to 10162
  156.6335  130.4908  149.6120 H   0  0  0  0  0  0  0  0  0  0  0  0  # atno 10718 bound_to 10713
  153.7069  135.6953  153.5048 H   0  0  0  0  0  0  0  0  0  0  0  0  # atno 10763 bound_to 10752
  153.2301  135.4340  155.0585 H   0  0  0  0  0  0  0  0  0  0  0  0  # atno 10764 bound_to 10752
  154.8327  135.3482  154.6607 H   0  0  0  0  0  0  0  0  0  0  0  0  # atno 10765 bound_to 10752
  139.9617  134.7050  156.0633 H   0  0  0  0  0  0  0  0  0  0  0  0  # atno 11005 bound_to 11000
  146.2459  140.5363  142.8914 LP  0  0  0  0  0  0  0  0  0  0  0  0  # atno 17320 bound_to 7965
  144.8011  140.6215  143.6477 LP  0  0  0  0  0  0  0  0  0  0  0  0  # atno 17321 bound_to 7965
  140.1187  144.5393  150.6877 LP  0  0  0  0  0  0  0  0  0  0  0  0  # atno 17342 bound_to 10162
  140.6988  143.2421  151.4923 LP  0  0  0  0  0  0  0  0  0  0  0  0  # atno 17343 bound_to 10162
  156.2216  130.6740  151.1373 LP  0  0  0  0  0  0  0  0  0  0  0  0  # atno 17370 bound_to 10713
  157.7193  131.0691  150.6202 LP  0  0  0  0  0  0  0  0  0  0  0  0  # atno 17371 bound_to 10713
  141.1294  133.6590  156.3424 LP  0  0  0  0  0  0  0  0  0  0  0  0  # atno 17394 bound_to 11000
  140.5486  134.6049  157.5401 LP  0  0  0  0  0  0  0  0  0  0  0  0  # atno 17395 bound_to 11000

$$$$
