AV-unprocessed.smi:2850|AV-procd|sdf|10970|dock6
  -GOLD-   2272015423D 1   1.00000     0.00000
 Structure written by MMmdl.
 44 45  0  0  0  0  0  0  0  0  1 V2000
  142.7035  136.5474  153.0686 C   0  0  0  0  0  0  0  0  0  0  0  0
  144.2302  136.1125  153.9482 S   0  0  0  0  0  0  0  0  0  0  0  0
  145.3753  137.4344  153.6923 C   0  0  0  0  0  0  0  0  0  0  0  0
  145.7822  137.7897  152.3936 C   0  0  0  0  0  0  0  0  0  0  0  0
  146.6951  138.8527  152.2790 C   0  0  0  0  0  0  0  0  0  0  0  0
  147.1292  139.4747  153.4673 C   0  0  0  0  0  0  0  0  0  0  0  0
  148.0362  140.5395  153.3844 N   0  0  0  0  0  0  0  0  0  0  0  0
  148.2763  141.3940  154.5391 C   0  0  0  0  0  0  0  0  0  0  0  0
  149.7285  141.3001  155.0256 C   0  0  1  0  0  0  0  0  0  0  0  0
  149.8574  141.7360  156.4982 C   0  0  0  0  0  0  0  0  0  0  0  0
  151.2174  141.5839  157.0043 N   0  0  0  0  0  0  0  0  0  0  0  0
  151.3020  142.0163  158.4005 C   0  0  0  0  0  0  0  0  0  0  0  0
  152.5462  142.8498  158.7749 C   0  0  0  0  0  0  0  0  0  0  0  0
  152.7815  142.8071  160.2920 C   0  0  0  0  0  0  0  0  0  0  0  0
  152.4252  144.3039  158.2906 C   0  0  0  0  0  0  0  0  0  0  0  0
  151.6396  140.1980  156.8151 C   0  0  0  0  0  0  0  0  0  0  0  0
  151.4999  139.7511  155.3500 C   0  0  0  0  0  0  0  0  0  0  0  0
  150.1573  139.9446  154.9177 O   0  0  0  0  0  0  0  0  0  0  0  0
  146.6900  139.0751  154.6882 N   0  0  0  0  0  0  0  0  0  0  0  0
  145.8215  138.0644  154.8024 N   0  0  0  0  0  0  0  0  0  0  0  0
  141.9596  135.7617  153.1991 H   0  0  0  0  0  0  0  0  0  0  0  0
  142.8968  136.6647  152.0022 H   0  0  0  0  0  0  0  0  0  0  0  0
  142.2911  137.4797  153.4549 H   0  0  0  0  0  0  0  0  0  0  0  0
  145.4107  137.2709  151.5222 H   0  0  0  0  0  0  0  0  0  0  0  0
  147.0484  139.1776  151.3111 H   0  0  0  0  0  0  0  0  0  0  0  0
  148.6535  140.6141  152.5888 H   0  0  0  0  0  0  0  0  0  0  0  0
  148.0559  142.4245  154.2575 H   0  0  0  0  0  0  0  0  0  0  0  0
  147.5913  141.1261  155.3446 H   0  0  0  0  0  0  0  0  0  0  0  0
  150.3627  141.9350  154.4037 H   0  0  0  0  0  0  0  0  0  0  0  0
  149.5464  142.7772  156.5914 H   0  0  0  0  0  0  0  0  0  0  0  0
  149.1694  141.1507  157.1106 H   0  0  0  0  0  0  0  0  0  0  0  0
  150.4206  142.6134  158.6396 H   0  0  0  0  0  0  0  0  0  0  0  0
  151.2471  141.1402  159.0488 H   0  0  0  0  0  0  0  0  0  0  0  0
  153.4287  142.4109  158.3105 H   0  0  0  0  0  0  0  0  0  0  0  0
  151.9406  143.2385  160.8359 H   0  0  0  0  0  0  0  0  0  0  0  0
  153.6774  143.3644  160.5677 H   0  0  0  0  0  0  0  0  0  0  0  0
  152.9127  141.7824  160.6408 H   0  0  0  0  0  0  0  0  0  0  0  0
  151.5565  144.7964  158.7283 H   0  0  0  0  0  0  0  0  0  0  0  0
  152.3244  144.3533  157.2061 H   0  0  0  0  0  0  0  0  0  0  0  0
  153.3082  144.8833  158.5616 H   0  0  0  0  0  0  0  0  0  0  0  0
  152.6786  140.0719  157.1167 H   0  0  0  0  0  0  0  0  0  0  0  0
  151.0453  139.5395  157.4506 H   0  0  0  0  0  0  0  0  0  0  0  0
  152.1809  140.3118  154.7078 H   0  0  0  0  0  0  0  0  0  0  0  0
  151.7589  138.6972  155.2489 H   0  0  0  0  0  0  0  0  0  0  0  0
  1  2  1  0  0  0  0
  1 21  1  0  0  0  0
  1 22  1  0  0  0  0
  1 23  1  0  0  0  0
  2  3  1  0  0  0  0
  3 20  1  0  0  0  0
  3  4  2  0  0  0  0
  4  5  1  0  0  0  0
  4 24  1  0  0  0  0
  5  6  2  0  0  0  0
  5 25  1  0  0  0  0
  6  7  1  0  0  0  0
  6 19  1  0  0  0  0
  7  8  1  0  0  0  0
  7 26  1  0  0  0  0
  8  9  1  0  0  0  0
  8 27  1  0  0  0  0
  8 28  1  0  0  0  0
  9 18  1  0  0  0  0
  9 10  1  0  0  0  0
  9 29  1  0  0  0  0
 10 11  1  0  0  0  0
 10 30  1  0  0  0  0
 10 31  1  0  0  0  0
 11 12  1  0  0  0  0
 11 16  1  0  0  0  0
 12 13  1  0  0  0  0
 12 32  1  0  0  0  0
 12 33  1  0  0  0  0
 13 14  1  0  0  0  0
 13 15  1  0  0  0  0
 13 34  1  0  0  0  0
 14 35  1  0  0  0  0
 14 36  1  0  0  0  0
 14 37  1  0  0  0  0
 15 38  1  0  0  0  0
 15 39  1  0  0  0  0
 15 40  1  0  0  0  0
 16 17  1  0  0  0  0
 16 41  1  0  0  0  0
 16 42  1  0  0  0  0
 17 18  1  0  0  0  0
 17 43  1  0  0  0  0
 17 44  1  0  0  0  0
 19 20  2  0  0  0  0
M  END
> <s_m_source_file>
AV-unprocessed.smi

> <i_m_source_file_index>
2850

> <i_lp_mmshare_version>
43012

> <i_f3d_flags>
0

> <s_epik_input>
W0NIM11TYzFbY0hdW2NIXWMobm4xKVtOSF1bQ0gyXVtDQEBIXTJbQ0gyXU4oW0NIMl1bQ0gyXU8yKVtDSDJdW0NIXShbQ0gzXSlbQ0gzXQ==

> <s_epik_cmdline>
J2VwaWtfcHl0aG9uJywgJy1waCcsICc3LjAnLCAnLXRuJywgJzgnLCAnLW1hJywgJzIwMCcsICctbWV0YWxfYmluZGluZycsICctaW1hZScsICc8aW5maWxlLm1hZT4nLCAnLW9tYWUnLCAnPG91dGZpbGUubWFlPic=

> <r_lp_tautomer_probability>
0.999978

> <r_epik_Ionization_Penalty>
1.20939

> <r_epik_Ionization_Penalty_Charging>
0

> <r_epik_Ionization_Penalty_Neutral>
1.20939

> <r_epik_State_Penalty>
1.27042

> <r_epik_Charging_Adjusted_Penalty>
1.27042

> <i_epik_Tot_Q>
0

> <i_epik_Tot_abs_Q>
0

> <r_epik_Metal_State_Penalty>
1.26998

> <b_epik_Metal_Only>
0

> <s_lp_Force_Field>
OPLS_2005

> <r_lp_Energy>
30.7386

> <b_lp_Chiralities_Consistent>
1

> <s_lp_Variant>
AV-unprocessed.smi:2850-6

> <Gold.Version>
5.8.1

> <Gold.Id.Protein>
6NUR|6NUR_protein|mol2

> <Gold.PLP.Fitness>
40.9310

> <Gold.PLP.PLP>
-39.8590

> <Gold.PLP.part.hbond>
-1.4670

> <Gold.PLP.part.metal>
0.0000

> <Gold.PLP.part.buried>
-3.0089

> <Gold.PLP.part.nonpolar>
-35.9496

> <Gold.PLP.part.repulsive>
0.4005

> <Gold.PLP.ligand.clash>
0.0000

> <Gold.PLP.ligand.torsion>
1.0047

> <Gold.PLP.Chemscore.Hbond>
1.0000

> <Gold.PLP.Chemscore.CHOScore>
0.0000

> <Gold.PLP.Chemscore.Metal>
0.0000

> <Gold.Chemscore.Hbonds>
donor molecule, donor type, donor heavy atom, donor atom, acceptor molecule, acceptor atom, score
      L1  H     7    26       P1  7957  1.00

> <Gold.PLP.Chemscore.Internal.Correction>
0.0814

> <Gold.Rescore>
     Score         DG    S(hbond)    S(metal)    S(lipo)     H(rot)  DE(clash)    DE(int)     intcor
     15.74     -17.22       0.99        0.00     105.98       1.55       0.26       1.23       ----

> <Gold.Chemscore.Fitness>
15.7370

> <Gold.Chemscore.DG>
-17.2225

> <Gold.Chemscore.ZeroCoef>
-5.4800

> <Gold.Chemscore.Hbond>
0.9890

> <Gold.Chemscore.Metal>
0.0000

> <Gold.Chemscore.Lipo>
105.9840

> <Gold.Chemscore.Internal_Hbond>
0.0000

> <Gold.Chemscore.DEClash>
0.2582

> <Gold.Chemscore.DEInternal>
1.2273

> <Gold.Chemscore.Rot>
1.5473

> <Gold.Chemscore.Internal.Correction>
   9.000000E+99

> <Gold.Chemscore.Hbonds>
donor molecule, donor type, donor heavy atom, donor atom, acceptor molecule, acceptor atom, score
      L1  H     7    26       P1  7957  0.99

> <Gold.Chemscore.Hbond.Weighted>
-3.3033

> <Gold.Chemscore.Metal.Weighted>
-0.0000

> <Gold.Chemscore.Lipo.Weighted>
-12.4001

> <Gold.Chemscore.Internal_Hbond.Weighted>
0.0000

> <Gold.Chemscore.DEClash.Weighted>
0.2582

> <Gold.Chemscore.DEInternal.Weighted>
1.2273

> <Gold.Chemscore.Rot.Weighted>
3.9610

> <Gold.Chemscore.Internal.Correction.Weighted>
   9.000000E+99

> <Gold.Protein.RotatedTorsions>
[ 6907 6896 6895 6894 ] final   62.71 input  -60.11 | X-H torsion
[ 7974 7965 7964 7962 ] final   90.60 input  175.53 | X-H torsion
[ 8008 7997 7996 7995 ] final -115.90 input   59.86 | X-H torsion
[ 10167 10162 10161 10158 ] final  -44.08 input  -65.29 | X-H torsion
[ 10718 10713 10712 10709 ] final  116.50 input   66.30 | X-H torsion
[ 10763 10752 10751 10750 ] final  164.61 input  -60.55 | X-H torsion
[ 11005 11000 10999 10996 ] final   69.69 input  -57.11 | X-H torsion

> <Gold.Protein.ActiveResidues>
 VAL166  LYS551  ARG553  GLY616  TRP617  ASP618  TYR619  PRO620  LYS621  CYS622 
 ASP623  PHE694  ASN695  SER759  ASP760  ASP761  ALA762  ILE779  LEU786  VAL792 
 PHE793  MET794  SER795  GLU796  ALA797  LYS798  CYS799  TRP800  GLU811  SER814 

> <Gold.Protein.RotatedAtoms>
  152.4194  134.5982  159.9992 H   0  0  0  0  0  0  0  0  0  0  0  0  # atno 6907 bound_to 6896
  151.6136  133.3339  159.3081 H   0  0  0  0  0  0  0  0  0  0  0  0  # atno 6908 bound_to 6896
  150.8082  134.7259  159.6730 H   0  0  0  0  0  0  0  0  0  0  0  0  # atno 6909 bound_to 6896
  145.5169  139.2278  143.2693 H   0  0  0  0  0  0  0  0  0  0  0  0  # atno 7974 bound_to 7965
  155.0594  140.0393  157.2571 H   0  0  0  0  0  0  0  0  0  0  0  0  # atno 8008 bound_to 7997
  154.7072  140.2685  155.6639 H   0  0  0  0  0  0  0  0  0  0  0  0  # atno 8009 bound_to 7997
  156.2778  140.2729  156.1702 H   0  0  0  0  0  0  0  0  0  0  0  0  # atno 8010 bound_to 7997
  140.6910  143.2949  151.3444 H   0  0  0  0  0  0  0  0  0  0  0  0  # atno 10167 bound_to 10162
  157.6156  131.1026  150.7482 H   0  0  0  0  0  0  0  0  0  0  0  0  # atno 10718 bound_to 10713
  154.3115  135.2757  155.2563 H   0  0  0  0  0  0  0  0  0  0  0  0  # atno 10763 bound_to 10752
  154.4956  135.5822  153.6496 H   0  0  0  0  0  0  0  0  0  0  0  0  # atno 10764 bound_to 10752
  152.9887  135.6145  154.3293 H   0  0  0  0  0  0  0  0  0  0  0  0  # atno 10765 bound_to 10752
  139.9639  134.7014  156.0587 H   0  0  0  0  0  0  0  0  0  0  0  0  # atno 11005 bound_to 11000
  146.2131  140.5978  142.9050 LP  0  0  0  0  0  0  0  0  0  0  0  0  # atno 17320 bound_to 7965
  144.7697  140.5610  143.6678 LP  0  0  0  0  0  0  0  0  0  0  0  0  # atno 17321 bound_to 7965
  139.6313  144.0714  152.2479 LP  0  0  0  0  0  0  0  0  0  0  0  0  # atno 17342 bound_to 10162
  140.0190  144.6167  150.7582 LP  0  0  0  0  0  0  0  0  0  0  0  0  # atno 17343 bound_to 10162
  156.7850  130.4871  149.5394 LP  0  0  0  0  0  0  0  0  0  0  0  0  # atno 17370 bound_to 10713
  156.1277  130.6155  151.0288 LP  0  0  0  0  0  0  0  0  0  0  0  0  # atno 17371 bound_to 10713
  141.1318  133.6584  156.3485 LP  0  0  0  0  0  0  0  0  0  0  0  0  # atno 17394 bound_to 11000
  140.5439  134.6093  157.5388 LP  0  0  0  0  0  0  0  0  0  0  0  0  # atno 17395 bound_to 11000

$$$$
