AV-unprocessed.smi:99|AV-procd|sdf|867|dock2
  -GOLD-   2262017323D 1   1.00000     0.00000
 Structure written by MMmdl.
 53 56  0  0  0  0  0  0  0  0  1 V2000
  149.4237  135.8490  159.0931 O   0  0  0  0  0  0  0  0  0  0  0  0
  148.3524  136.4094  159.3318 C   0  0  0  0  0  0  0  0  0  0  0  0
  147.9444  137.5367  158.7176 O   0  0  0  0  0  0  0  0  0  0  0  0
  148.6602  138.0603  157.6099 C   0  0  0  0  0  0  0  0  0  0  0  0
  148.0351  139.4033  157.2121 C   0  0  2  0  0  0  0  0  0  0  0  0
  146.9076  139.1939  156.3662 O   0  0  0  0  0  0  0  0  0  0  0  0
  146.7584  140.2708  155.4828 C   0  0  2  0  0  0  0  0  0  0  0  0
  146.7553  139.7494  154.0626 N   0  0  0  0  0  0  0  0  0  0  0  0
  146.6446  138.3930  153.7829 C   0  0  0  0  0  0  0  0  0  0  0  0
  146.6546  137.8956  152.5237 C   0  0  0  0  0  0  0  0  0  0  0  0
  146.7920  138.7866  151.3762 C   0  0  0  0  0  0  0  0  0  0  0  0
  146.8069  138.4305  150.2000 O   0  0  0  0  0  0  0  0  0  0  0  0
  146.9165  140.1396  151.7042 N   0  0  0  0  0  0  0  0  0  0  0  0
  146.9129  140.6636  152.9978 C   0  0  0  0  0  0  0  0  0  0  0  0
  147.0517  141.8735  153.1725 O   0  0  0  0  0  0  0  0  0  0  0  0
  147.9456  141.2253  155.6920 C   0  0  1  0  0  0  0  0  0  0  0  0
  147.5638  142.3113  156.5166 O   0  0  0  0  0  0  0  0  0  0  0  0
  148.9413  140.3018  156.3724 C   0  0  1  0  0  0  0  0  0  0  0  0
  149.9188  141.0228  157.1173 O   0  0  0  0  0  0  0  0  0  0  0  0
  150.9640  140.3913  157.6966 C   0  0  0  0  0  0  0  0  0  0  0  0
  151.2715  139.2200  157.4674 O   0  0  0  0  0  0  0  0  0  0  0  0
  151.6865  141.2502  158.6773 C   0  0  0  0  0  0  0  0  0  0  0  0
  151.3765  142.6284  158.7496 C   0  0  0  0  0  0  0  0  0  0  0  0
  152.0614  143.4712  159.6461 C   0  0  0  0  0  0  0  0  0  0  0  0
  153.0630  142.9455  160.4828 C   0  0  0  0  0  0  0  0  0  0  0  0
  153.3787  141.5757  160.4222 C   0  0  0  0  0  0  0  0  0  0  0  0
  152.6957  140.7312  159.5255 C   0  0  0  0  0  0  0  0  0  0  0  0
  147.3774  135.9263  160.3521 C   0  0  0  0  0  0  0  0  0  0  0  0
  147.6296  134.7129  161.0334 C   0  0  0  0  0  0  0  0  0  0  0  0
  146.7374  134.2439  162.0172 C   0  0  0  0  0  0  0  0  0  0  0  0
  145.5819  134.9824  162.3317 C   0  0  0  0  0  0  0  0  0  0  0  0
  145.3173  136.1890  161.6584 C   0  0  0  0  0  0  0  0  0  0  0  0
  146.2072  136.6583  160.6730 C   0  0  0  0  0  0  0  0  0  0  0  0
  147.0232  140.7921  150.9410 H   0  0  0  0  0  0  0  0  0  0  0  0
  149.7171  138.1977  157.8430 H   0  0  0  0  0  0  0  0  0  0  0  0
  148.5948  137.3515  156.7840 H   0  0  0  0  0  0  0  0  0  0  0  0
  147.6884  139.9384  158.0978 H   0  0  0  0  0  0  0  0  0  0  0  0
  145.7799  140.7276  155.6443 H   0  0  0  0  0  0  0  0  0  0  0  0
  146.5501  137.6849  154.5930 H   0  0  0  0  0  0  0  0  0  0  0  0
  146.5626  136.8310  152.3636 H   0  0  0  0  0  0  0  0  0  0  0  0
  148.3212  141.6146  154.7447 H   0  0  0  0  0  0  0  0  0  0  0  0
  148.0144  143.0862  156.2174 H   0  0  0  0  0  0  0  0  0  0  0  0
  149.4045  139.6946  155.5934 H   0  0  0  0  0  0  0  0  0  0  0  0
  150.6171  143.0566  158.1114 H   0  0  0  0  0  0  0  0  0  0  0  0
  151.8203  144.5230  159.6882 H   0  0  0  0  0  0  0  0  0  0  0  0
  153.5892  143.5923  161.1692 H   0  0  0  0  0  0  0  0  0  0  0  0
  154.1486  141.1717  161.0628 H   0  0  0  0  0  0  0  0  0  0  0  0
  152.9667  139.6859  159.5002 H   0  0  0  0  0  0  0  0  0  0  0  0
  148.5133  134.1315  160.8130 H   0  0  0  0  0  0  0  0  0  0  0  0
  146.9419  133.3171  162.5328 H   0  0  0  0  0  0  0  0  0  0  0  0
  144.8998  134.6241  163.0887 H   0  0  0  0  0  0  0  0  0  0  0  0
  144.4328  136.7595  161.9010 H   0  0  0  0  0  0  0  0  0  0  0  0
  145.9768  137.5921  160.1812 H   0  0  0  0  0  0  0  0  0  0  0  0
  1  2  2  0  0  0  0
  2  3  1  0  0  0  0
  2 28  1  0  0  0  0
  3  4  1  0  0  0  0
  4  5  1  0  0  0  0
  4 35  1  0  0  0  0
  4 36  1  0  0  0  0
  5 18  1  0  0  0  0
  5  6  1  0  0  0  0
  5 37  1  0  0  0  0
  6  7  1  0  0  0  0
  7  8  1  0  0  0  0
  7 16  1  0  0  0  0
  7 38  1  0  0  0  0
  8 14  1  0  0  0  0
  8  9  1  0  0  0  0
  9 10  2  0  0  0  0
  9 39  1  0  0  0  0
 10 11  1  0  0  0  0
 10 40  1  0  0  0  0
 11 12  2  0  0  0  0
 11 13  1  0  0  0  0
 13 34  1  0  0  0  0
 13 14  1  0  0  0  0
 14 15  2  0  0  0  0
 16 17  1  0  0  0  0
 16 18  1  0  0  0  0
 16 41  1  0  0  0  0
 17 42  1  0  0  0  0
 18 19  1  0  0  0  0
 18 43  1  0  0  0  0
 19 20  1  0  0  0  0
 20 21  2  0  0  0  0
 20 22  1  0  0  0  0
 22 27  1  0  0  0  0
 22 23  2  0  0  0  0
 23 24  1  0  0  0  0
 23 44  1  0  0  0  0
 24 25  2  0  0  0  0
 24 45  1  0  0  0  0
 25 26  1  0  0  0  0
 25 46  1  0  0  0  0
 26 27  2  0  0  0  0
 26 47  1  0  0  0  0
 27 48  1  0  0  0  0
 28 33  1  0  0  0  0
 28 29  2  0  0  0  0
 29 30  1  0  0  0  0
 29 49  1  0  0  0  0
 30 31  2  0  0  0  0
 30 50  1  0  0  0  0
 31 32  1  0  0  0  0
 31 51  1  0  0  0  0
 32 33  2  0  0  0  0
 32 52  1  0  0  0  0
 33 53  1  0  0  0  0
M  END
> <s_m_source_file>
AV-unprocessed.smi

> <i_m_source_file_index>
99

> <i_lp_mmshare_version>
43012

> <i_f3d_flags>
0

> <s_epik_input>
W2NIXTFbY0hdW2NIXVtjSF1bY0hdYzFDKD1PKU9bQ0gyXVtDQEBIXTJPW0NAQEhdKG4zW2NIXVtjSF1jKD1PKVtuSF1jMz1PKVtDQEBIXShbT0hdKVtDQEhdMk9DKD1PKWM0W2NIXVtjSF1bY0hdW2NIXVtjSF00

> <s_epik_cmdline>
J2VwaWtfcHl0aG9uJywgJy1waCcsICc3LjAnLCAnLXRuJywgJzgnLCAnLW1hJywgJzIwMCcsICctbWV0YWxfYmluZGluZycsICctaW1hZScsICc8aW5maWxlLm1hZT4nLCAnLW9tYWUnLCAnPG91dGZpbGUubWFlPic=

> <r_lp_tautomer_probability>
1

> <r_epik_Ionization_Penalty>
0.00454555

> <r_epik_Ionization_Penalty_Charging>
0.0045191

> <r_epik_Ionization_Penalty_Neutral>
2.64449e-05

> <r_epik_State_Penalty>
-0

> <r_epik_Charging_Adjusted_Penalty>
0.0045191

> <i_epik_Tot_Q>
0

> <i_epik_Tot_abs_Q>
0

> <r_epik_Metal_State_Penalty>
1.27877

> <b_epik_Metal_Only>
0

> <s_epik_Chemistry_Notes>
This compound has an ester and may undergo hydrolysis at high or low pH. This compound contains an acetal/aminal-like group ( X-CH(R)-Y where X, Y are N, S, or O) that may be acid/base labile, releasing an aldehyde.

> <s_lp_Force_Field>
OPLS_2005

> <r_lp_Energy>
37.3594

> <b_lp_Chiralities_Consistent>
1

> <s_lp_Variant>
AV-unprocessed.smi:99-3

> <Gold.Version>
5.8.1

> <Gold.Id.Protein>
6NUR|6NUR_protein|mol2

> <Gold.PLP.Fitness>
57.3855

> <Gold.PLP.PLP>
-49.7098

> <Gold.PLP.part.hbond>
-5.4037

> <Gold.PLP.part.metal>
0.0000

> <Gold.PLP.part.buried>
-5.3557

> <Gold.PLP.part.nonpolar>
-41.1197

> <Gold.PLP.part.repulsive>
1.9343

> <Gold.PLP.ligand.clash>
0.0000

> <Gold.PLP.ligand.torsion>
0.7504

> <Gold.PLP.Chemscore.Hbond>
2.9120

> <Gold.PLP.Chemscore.CHOScore>
0.0000

> <Gold.PLP.Chemscore.Metal>
0.0000

> <Gold.Chemscore.Hbonds>
donor molecule, donor type, donor heavy atom, donor atom, acceptor molecule, acceptor atom, score
      L1  H    17    42       P1  8028  1.00
      P1  H  6896  6907       L1     1  1.00
      P1  H  7954  7966       L1    12  0.59

> <Gold.PLP.Chemscore.Internal.Correction>
0.4406

> <Gold.Rescore>
     Score         DG    S(hbond)    S(metal)    S(lipo)     H(rot)  DE(clash)    DE(int)     intcor
     14.76     -19.95       2.67        0.00     117.18       3.19       1.64       3.55       ----

> <Gold.Chemscore.Fitness>
14.7569

> <Gold.Chemscore.DG>
-19.9502

> <Gold.Chemscore.ZeroCoef>
-5.4800

> <Gold.Chemscore.Hbond>
2.6729

> <Gold.Chemscore.Metal>
0.0000

> <Gold.Chemscore.Lipo>
117.1769

> <Gold.Chemscore.Internal_Hbond>
0.0000

> <Gold.Chemscore.DEClash>
1.6434

> <Gold.Chemscore.DEInternal>
3.5499

> <Gold.Chemscore.Rot>
3.1903

> <Gold.Chemscore.Internal.Correction>
   9.000000E+99

> <Gold.Chemscore.Hbonds>
donor molecule, donor type, donor heavy atom, donor atom, acceptor molecule, acceptor atom, score
      L1  H    17    42       P1  8028  0.45
      P1  H  6896  6907       L1     1  1.00
      P1  H  7954  7966       L1    12  0.42

> <Gold.Chemscore.Hbond.Weighted>
-8.9276

> <Gold.Chemscore.Metal.Weighted>
-0.0000

> <Gold.Chemscore.Lipo.Weighted>
-13.7097

> <Gold.Chemscore.Internal_Hbond.Weighted>
0.0000

> <Gold.Chemscore.DEClash.Weighted>
1.6434

> <Gold.Chemscore.DEInternal.Weighted>
3.5499

> <Gold.Chemscore.Rot.Weighted>
8.1671

> <Gold.Chemscore.Internal.Correction.Weighted>
   9.000000E+99

> <Gold.Protein.RotatedTorsions>
[ 6907 6896 6895 6894 ] final  -71.95 input  -60.11 | X-H torsion
[ 7974 7965 7964 7962 ] final  104.50 input  175.53 | X-H torsion
[ 8008 7997 7996 7995 ] final  125.30 input   59.86 | X-H torsion
[ 10167 10162 10161 10158 ] final  127.15 input  -65.29 | X-H torsion
[ 10718 10713 10712 10709 ] final   61.66 input   66.30 | X-H torsion
[ 10763 10752 10751 10750 ] final   64.76 input  -60.55 | X-H torsion
[ 11005 11000 10999 10996 ] final  -58.30 input  -57.11 | X-H torsion

> <Gold.Protein.ActiveResidues>
 VAL166  LYS551  ARG553  GLY616  TRP617  ASP618  TYR619  PRO620  LYS621  CYS622 
 ASP623  PHE694  ASN695  SER759  ASP760  ASP761  ALA762  ILE779  LEU786  VAL792 
 PHE793  MET794  SER795  GLU796  ALA797  LYS798  CYS799  TRP800  GLU811  SER814 

> <Gold.Protein.RotatedAtoms>
  150.7190  134.5233  159.5664 H   0  0  0  0  0  0  0  0  0  0  0  0  # atno 6907 bound_to 6896
  152.2783  134.7853  160.0410 H   0  0  0  0  0  0  0  0  0  0  0  0  # atno 6908 bound_to 6896
  151.8509  133.3404  159.3709 H   0  0  0  0  0  0  0  0  0  0  0  0  # atno 6909 bound_to 6896
  145.3320  139.2484  143.3655 H   0  0  0  0  0  0  0  0  0  0  0  0  # atno 7974 bound_to 7965
  156.2830  140.2719  156.1927 H   0  0  0  0  0  0  0  0  0  0  0  0  # atno 8008 bound_to 7997
  155.0441  140.0386  157.2538 H   0  0  0  0  0  0  0  0  0  0  0  0  # atno 8009 bound_to 7997
  154.7249  140.2695  155.6513 H   0  0  0  0  0  0  0  0  0  0  0  0  # atno 8010 bound_to 7997
  139.5593  144.6871  151.4089 H   0  0  0  0  0  0  0  0  0  0  0  0  # atno 10167 bound_to 10162
  157.5844  130.9007  149.9489 H   0  0  0  0  0  0  0  0  0  0  0  0  # atno 10718 bound_to 10713
  153.0069  135.5381  154.6561 H   0  0  0  0  0  0  0  0  0  0  0  0  # atno 10763 bound_to 10752
  154.5781  135.2847  155.0762 H   0  0  0  0  0  0  0  0  0  0  0  0  # atno 10764 bound_to 10752
  154.1902  135.6501  153.5110 H   0  0  0  0  0  0  0  0  0  0  0  0  # atno 10765 bound_to 10752
  141.1201  133.6612  156.4899 H   0  0  0  0  0  0  0  0  0  0  0  0  # atno 11005 bound_to 11000
  146.3042  140.3900  142.8693 LP  0  0  0  0  0  0  0  0  0  0  0  0  # atno 17320 bound_to 7965
  144.8857  140.7458  143.5959 LP  0  0  0  0  0  0  0  0  0  0  0  0  # atno 17321 bound_to 7965
  140.6871  143.7949  150.7201 LP  0  0  0  0  0  0  0  0  0  0  0  0  # atno 17342 bound_to 10162
  140.1420  143.4433  152.2187 LP  0  0  0  0  0  0  0  0  0  0  0  0  # atno 17343 bound_to 10162
  156.0892  130.3665  150.0428 LP  0  0  0  0  0  0  0  0  0  0  0  0  # atno 17370 bound_to 10713
  156.8561  130.9476  151.3622 LP  0  0  0  0  0  0  0  0  0  0  0  0  # atno 17371 bound_to 10713
  140.4531  134.6910  157.5049 LP  0  0  0  0  0  0  0  0  0  0  0  0  # atno 17394 bound_to 11000
  140.0152  134.6629  155.9320 LP  0  0  0  0  0  0  0  0  0  0  0  0  # atno 17395 bound_to 11000

$$$$
