AV-unprocessed.smi:1254|AV-procd|sdf|5276|dock5
  -GOLD-   22720 4393D 1   1.00000     0.00000
 Structure written by MMmdl.
 45 46  0  0  0  0  0  0  0  0  3 V2000
  151.5664  140.9384  156.2301 C   0  0  0  0  0  0  0  0  0  0  0  0
  151.7545  139.5683  155.6737 C   0  0  0  0  0  0  0  0  0  0  0  0
  150.9131  138.5017  155.5300 C   0  0  0  0  0  0  0  0  0  0  0  0
  151.7426  137.5113  154.9365 C   0  0  0  0  0  0  0  0  0  0  0  0
  151.3655  136.2719  154.5856 N   0  5  0  0  0  0  0  0  0  0  0  0
  150.3600  135.6540  155.2463 C   0  0  0  0  0  0  0  0  0  0  0  0
  150.0482  135.8182  156.4280 O   0  0  0  0  0  0  0  0  0  0  0  0
  149.6732  134.7875  154.4912 N   0  0  0  0  0  0  0  0  0  0  0  0
  148.5578  133.9741  154.9552 C   0  0  0  0  0  0  0  0  0  0  0  0
  147.3462  134.1374  154.0277 C   0  0  1  0  0  0  0  0  0  0  0  0
  146.2576  133.0835  154.3183 C   0  0  0  0  0  0  0  0  0  0  0  0
  145.0609  133.2934  153.4673 N   0  3  2  0  0  0  0  0  0  0  0  0
  145.2308  132.8186  152.0672 C   0  0  0  0  0  0  0  0  0  0  0  0
  144.1419  133.3603  151.1161 C   0  0  0  0  0  0  0  0  0  0  0  0
  143.8711  132.3969  149.9481 C   0  0  0  0  0  0  0  0  0  0  0  0
  144.5292  134.7487  150.5858 C   0  0  0  0  0  0  0  0  0  0  0  0
  144.5716  134.6898  153.5943 C   0  0  0  0  0  0  0  0  0  0  0  0
  145.7041  135.7088  153.3634 C   0  0  0  0  0  0  0  0  0  0  0  0
  146.7875  135.4303  154.2409 O   0  0  0  0  0  0  0  0  0  0  0  0
  152.9736  137.9449  154.7222 N   0  0  0  0  0  0  0  0  0  0  0  0
  152.9916  139.2609  155.1996 O   0  0  0  0  0  0  0  0  0  0  0  0
  150.6929  141.4177  155.7882 H   0  0  0  0  0  0  0  0  0  0  0  0
  152.4339  141.5674  156.0287 H   0  0  0  0  0  0  0  0  0  0  0  0
  151.4215  140.8987  157.3097 H   0  0  0  0  0  0  0  0  0  0  0  0
  149.8719  138.4376  155.8088 H   0  0  0  0  0  0  0  0  0  0  0  0
  149.9533  134.6836  153.5269 H   0  0  0  0  0  0  0  0  0  0  0  0
  148.8669  132.9278  154.9763 H   0  0  0  0  0  0  0  0  0  0  0  0
  148.2989  134.2553  155.9771 H   0  0  0  0  0  0  0  0  0  0  0  0
  147.6811  134.0476  152.9924 H   0  0  0  0  0  0  0  0  0  0  0  0
  146.6467  132.0731  154.1856 H   0  0  0  0  0  0  0  0  0  0  0  0
  145.9504  133.1563  155.3628 H   0  0  0  0  0  0  0  0  0  0  0  0
  146.2226  133.0854  151.7019 H   0  0  0  0  0  0  0  0  0  0  0  0
  145.1885  131.7288  152.0436 H   0  0  0  0  0  0  0  0  0  0  0  0
  143.2119  133.4842  151.6699 H   0  0  0  0  0  0  0  0  0  0  0  0
  144.7690  132.2344  149.3510 H   0  0  0  0  0  0  0  0  0  0  0  0
  143.1001  132.7915  149.2857 H   0  0  0  0  0  0  0  0  0  0  0  0
  143.5261  131.4254  150.3021 H   0  0  0  0  0  0  0  0  0  0  0  0
  145.4519  134.7097  150.0056 H   0  0  0  0  0  0  0  0  0  0  0  0
  144.6793  135.4552  151.4026 H   0  0  0  0  0  0  0  0  0  0  0  0
  143.7491  135.1554  149.9415 H   0  0  0  0  0  0  0  0  0  0  0  0
  143.7397  134.8816  152.9180 H   0  0  0  0  0  0  0  0  0  0  0  0
  144.1779  134.8181  154.6034 H   0  0  0  0  0  0  0  0  0  0  0  0
  146.0472  135.7009  152.3280 H   0  0  0  0  0  0  0  0  0  0  0  0
  145.3424  136.7175  153.5638 H   0  0  0  0  0  0  0  0  0  0  0  0
  144.3432  132.6989  153.8568 H   0  0  0  0  0  0  0  0  0  0  0  0
  1  2  1  0  0  0  0
  1 22  1  0  0  0  0
  1 23  1  0  0  0  0
  1 24  1  0  0  0  0
  2 21  1  0  0  0  0
  2  3  2  0  0  0  0
  3  4  1  0  0  0  0
  3 25  1  0  0  0  0
  4  5  1  0  0  0  0
  4 20  2  0  0  0  0
  5  6  1  0  0  0  0
  6  7  2  0  0  0  0
  6  8  1  0  0  0  0
  8  9  1  0  0  0  0
  8 26  1  0  0  0  0
  9 10  1  0  0  0  0
  9 27  1  0  0  0  0
  9 28  1  0  0  0  0
 10 19  1  0  0  0  0
 10 11  1  0  0  0  0
 10 29  1  0  0  0  0
 11 12  1  0  0  0  0
 11 30  1  0  0  0  0
 11 31  1  0  0  0  0
 12 13  1  0  0  0  0
 12 17  1  0  0  0  0
 12 45  1  0  0  0  0
 13 14  1  0  0  0  0
 13 32  1  0  0  0  0
 13 33  1  0  0  0  0
 14 15  1  0  0  0  0
 14 16  1  0  0  0  0
 14 34  1  0  0  0  0
 15 35  1  0  0  0  0
 15 36  1  0  0  0  0
 15 37  1  0  0  0  0
 16 38  1  0  0  0  0
 16 39  1  0  0  0  0
 16 40  1  0  0  0  0
 17 18  1  0  0  0  0
 17 41  1  0  0  0  0
 17 42  1  0  0  0  0
 18 19  1  0  0  0  0
 18 43  1  0  0  0  0
 18 44  1  0  0  0  0
 20 21  1  0  0  0  0
M  CHG  1   5  -1
M  CHG  1  12   1
M  END
> <s_m_source_file>
AV-unprocessed.smi

> <i_m_source_file_index>
1254

> <i_lp_mmshare_version>
43012

> <i_f3d_flags>
0

> <s_epik_input>
W0NIM11jMVtjSF1jKG5vMSlbTkhdQyg9TylbTkhdW0NIMl1bQ0BASF0yW0NIMl1OKFtDSDJdW0NIMl1PMilbQ0gyXVtDSF0oW0NIM10pW0NIM10=

> <s_epik_cmdline>
J2VwaWtfcHl0aG9uJywgJy1waCcsICc3LjAnLCAnLXRuJywgJzgnLCAnLW1hJywgJzIwMCcsICctbWV0YWxfYmluZGluZycsICctaW1hZScsICc8aW5maWxlLm1hZT4nLCAnLW9tYWUnLCAnPG91dGZpbGUubWFlPic=

> <r_epik_Ionization_Penalty>
6.33139

> <r_epik_Ionization_Penalty_Charging>
6.33128

> <r_epik_Ionization_Penalty_Neutral>
0.000104968

> <r_epik_State_Penalty>
6.32522

> <r_epik_Charging_Adjusted_Penalty>
12.6565

> <i_epik_Tot_Q>
0

> <i_epik_Tot_abs_Q>
2

> <r_epik_Metal_State_Penalty>
2.26285

> <b_epik_Metal_Only>
1

> <s_lp_Force_Field>
OPLS_2005

> <r_lp_Energy>
8.57964

> <b_lp_Chiralities_Consistent>
1

> <s_lp_Variant>
AV-unprocessed.smi:1254-8

> <Gold.Version>
5.8.1

> <Gold.Id.Protein>
6NUR|6NUR_protein|mol2

> <Gold.PLP.Fitness>
45.3316

> <Gold.PLP.PLP>
-32.0271

> <Gold.PLP.part.hbond>
-5.5461

> <Gold.PLP.part.metal>
0.0000

> <Gold.PLP.part.buried>
-6.6776

> <Gold.PLP.part.nonpolar>
-21.9311

> <Gold.PLP.part.repulsive>
0.8779

> <Gold.PLP.ligand.clash>
0.0000

> <Gold.PLP.ligand.torsion>
0.9394

> <Gold.PLP.Chemscore.Hbond>
5.0010

> <Gold.PLP.Chemscore.CHOScore>
0.0000

> <Gold.PLP.Chemscore.Metal>
0.0000

> <Gold.Chemscore.Hbonds>
donor molecule, donor type, donor heavy atom, donor atom, acceptor molecule, acceptor atom, score
      L1  H    12    45       P1 10957  1.56
      P1  H  7997  8009       L1    21  1.00
      P1  H 10752 10765       L1     5  1.70

> <Gold.PLP.Chemscore.Internal.Correction>
0.1803

> <Gold.Rescore>
     Score         DG    S(hbond)    S(metal)    S(lipo)     H(rot)  DE(clash)    DE(int)     intcor
     12.70     -15.16       2.21        0.00      56.68       1.69       0.02       2.44       ----

> <Gold.Chemscore.Fitness>
12.6971

> <Gold.Chemscore.DG>
-15.1563

> <Gold.Chemscore.ZeroCoef>
-5.4800

> <Gold.Chemscore.Hbond>
2.2089

> <Gold.Chemscore.Metal>
0.0000

> <Gold.Chemscore.Lipo>
56.6804

> <Gold.Chemscore.Internal_Hbond>
0.0000

> <Gold.Chemscore.DEClash>
0.0174

> <Gold.Chemscore.DEInternal>
2.4418

> <Gold.Chemscore.Rot>
1.6926

> <Gold.Chemscore.Internal.Correction>
   9.000000E+99

> <Gold.Chemscore.Hbonds>
donor molecule, donor type, donor heavy atom, donor atom, acceptor molecule, acceptor atom, score
      L1  H    12    45       P1 10957  0.54
      P1  H  7997  8009       L1    21  0.97
      P1  H 10752 10765       L1     5  0.15

> <Gold.Chemscore.Hbond.Weighted>
-7.3778

> <Gold.Chemscore.Metal.Weighted>
-0.0000

> <Gold.Chemscore.Lipo.Weighted>
-6.6316

> <Gold.Chemscore.Internal_Hbond.Weighted>
0.0000

> <Gold.Chemscore.DEClash.Weighted>
0.0174

> <Gold.Chemscore.DEInternal.Weighted>
2.4418

> <Gold.Chemscore.Rot.Weighted>
4.3330

> <Gold.Chemscore.Internal.Correction.Weighted>
   9.000000E+99

> <Gold.Protein.RotatedTorsions>
[ 6907 6896 6895 6894 ] final  113.37 input  -60.11 | X-H torsion
[ 7974 7965 7964 7962 ] final  -83.92 input  175.53 | X-H torsion
[ 8008 7997 7996 7995 ] final -133.21 input   59.86 | X-H torsion
[ 10167 10162 10161 10158 ] final   57.06 input  -65.29 | X-H torsion
[ 10718 10713 10712 10709 ] final   66.49 input   66.30 | X-H torsion
[ 10763 10752 10751 10750 ] final  164.58 input  -60.55 | X-H torsion
[ 11005 11000 10999 10996 ] final   96.50 input  -57.11 | X-H torsion

> <Gold.Protein.ActiveResidues>
 VAL166  LYS551  ARG553  GLY616  TRP617  ASP618  TYR619  PRO620  LYS621  CYS622 
 ASP623  PHE694  ASN695  SER759  ASP760  ASP761  ALA762  ILE779  LEU786  VAL792 
 PHE793  MET794  SER795  GLU796  ALA797  LYS798  CYS799  TRP800  GLU811  SER814 

> <Gold.Protein.RotatedAtoms>
  152.4865  133.8385  159.7140 H   0  0  0  0  0  0  0  0  0  0  0  0  # atno 6907 bound_to 6896
  150.8955  133.7177  159.2899 H   0  0  0  0  0  0  0  0  0  0  0  0  # atno 6908 bound_to 6896
  151.4635  135.1044  159.9784 H   0  0  0  0  0  0  0  0  0  0  0  0  # atno 6909 bound_to 6896
  145.5135  140.9538  143.1694 H   0  0  0  0  0  0  0  0  0  0  0  0  # atno 7974 bound_to 7965
  155.3416  140.0472  157.3045 H   0  0  0  0  0  0  0  0  0  0  0  0  # atno 8008 bound_to 7997
  154.5274  140.2245  155.8830 H   0  0  0  0  0  0  0  0  0  0  0  0  # atno 8009 bound_to 7997
  156.1753  140.3086  155.9055 H   0  0  0  0  0  0  0  0  0  0  0  0  # atno 8010 bound_to 7997
  140.2020  144.3978  150.6525 H   0  0  0  0  0  0  0  0  0  0  0  0  # atno 10167 bound_to 10162
  157.6172  130.9271  150.0116 H   0  0  0  0  0  0  0  0  0  0  0  0  # atno 10718 bound_to 10713
  154.3111  135.2757  155.2565 H   0  0  0  0  0  0  0  0  0  0  0  0  # atno 10763 bound_to 10752
  154.4960  135.5821  153.6498 H   0  0  0  0  0  0  0  0  0  0  0  0  # atno 10764 bound_to 10752
  152.9888  135.6146  154.3288 H   0  0  0  0  0  0  0  0  0  0  0  0  # atno 10765 bound_to 10752
  139.8781  134.8953  156.4167 H   0  0  0  0  0  0  0  0  0  0  0  0  # atno 11005 bound_to 11000
  144.7714  139.6726  143.7193 LP  0  0  0  0  0  0  0  0  0  0  0  0  # atno 17320 bound_to 7965
  146.2151  139.5535  142.9655 LP  0  0  0  0  0  0  0  0  0  0  0  0  # atno 17321 bound_to 7965
  140.6383  143.2199  151.6345 LP  0  0  0  0  0  0  0  0  0  0  0  0  # atno 17342 bound_to 10162
  139.5213  144.3196  152.0922 LP  0  0  0  0  0  0  0  0  0  0  0  0  # atno 17343 bound_to 10162
  156.1300  130.3643  149.9747 LP  0  0  0  0  0  0  0  0  0  0  0  0  # atno 17370 bound_to 10713
  156.7810  130.9221  151.3646 LP  0  0  0  0  0  0  0  0  0  0  0  0  # atno 17371 bound_to 10713
  140.9162  133.7677  155.9851 LP  0  0  0  0  0  0  0  0  0  0  0  0  # atno 17394 bound_to 11000
  140.8491  134.2976  157.5283 LP  0  0  0  0  0  0  0  0  0  0  0  0  # atno 17395 bound_to 11000

$$$$
