AV-unprocessed.smi:2831|AV-procd|sdf|10909|dock5
  -GOLD-   2272015353D 1   1.00000     0.00000
 Structure written by MMmdl.
 30 31  0  0  0  0  0  0  0  0  1 V2000
  139.6456  138.8383  153.5873 C   0  0  0  0  0  0  0  0  0  0  0  0
  140.2224  137.4645  153.6304 C   0  0  0  0  0  0  0  0  0  0  0  0
  139.5154  136.3975  154.0218 N   0  0  0  0  0  0  0  0  0  0  0  0
  140.2597  135.2270  153.9746 N   0  0  0  0  0  0  0  0  0  0  0  0
  141.5103  135.4466  153.5459 C   0  0  0  0  0  0  0  0  0  0  0  0
  142.4856  134.4249  153.3999 N   0  0  0  0  0  0  0  0  0  0  0  0
  143.4889  134.3523  152.5078 C   0  0  0  0  0  0  0  0  0  0  0  0
  143.7244  135.1877  151.6347 O   0  0  0  0  0  0  0  0  0  0  0  0
  144.2163  133.2375  152.6890 N   0  0  0  0  0  0  0  0  0  0  0  0
  145.4056  132.8190  151.9384 C   0  0  2  0  0  0  0  0  0  0  0  0
  146.6935  133.2222  152.6895 C   0  0  0  0  0  0  0  0  0  0  0  0
  145.4030  133.3358  150.4881 C   0  0  0  0  0  0  0  0  0  0  0  0
  145.3846  132.0782  149.6207 C   0  0  0  0  0  0  0  0  0  0  0  0
  145.9273  131.0796  150.4647 O   0  0  0  0  0  0  0  0  0  0  0  0
  145.3607  131.2933  151.7456 C   0  0  0  0  0  0  0  0  0  0  0  0
  141.8838  137.1188  153.1645 S   0  0  0  0  0  0  0  0  0  0  0  0
  139.0256  139.0154  154.4666 H   0  0  0  0  0  0  0  0  0  0  0  0
  139.0313  138.9567  152.6946 H   0  0  0  0  0  0  0  0  0  0  0  0
  140.4412  139.5833  153.5665 H   0  0  0  0  0  0  0  0  0  0  0  0
  142.4177  133.6650  154.0607 H   0  0  0  0  0  0  0  0  0  0  0  0
  143.9288  132.6180  153.4324 H   0  0  0  0  0  0  0  0  0  0  0  0
  147.5793  132.8305  152.1881 H   0  0  0  0  0  0  0  0  0  0  0  0
  146.6960  132.8332  153.7084 H   0  0  0  0  0  0  0  0  0  0  0  0
  146.8088  134.3044  152.7494 H   0  0  0  0  0  0  0  0  0  0  0  0
  144.5552  133.9781  150.2478 H   0  0  0  0  0  0  0  0  0  0  0  0
  146.3062  133.9123  150.2838 H   0  0  0  0  0  0  0  0  0  0  0  0
  144.3622  131.8084  149.3504 H   0  0  0  0  0  0  0  0  0  0  0  0
  145.9637  132.1896  148.7037 H   0  0  0  0  0  0  0  0  0  0  0  0
  145.9033  130.7450  152.5166 H   0  0  0  0  0  0  0  0  0  0  0  0
  144.3347  130.9193  151.7347 H   0  0  0  0  0  0  0  0  0  0  0  0
  1  2  1  0  0  0  0
  1 17  1  0  0  0  0
  1 18  1  0  0  0  0
  1 19  1  0  0  0  0
  2 16  1  0  0  0  0
  2  3  2  0  0  0  0
  3  4  1  0  0  0  0
  4  5  2  0  0  0  0
  5  6  1  0  0  0  0
  5 16  1  0  0  0  0
  6  7  1  0  0  0  0
  6 20  1  0  0  0  0
  7  8  2  0  0  0  0
  7  9  1  0  0  0  0
  9 10  1  0  0  0  0
  9 21  1  0  0  0  0
 10 15  1  0  0  0  0
 10 11  1  0  0  0  0
 10 12  1  0  0  0  0
 11 22  1  0  0  0  0
 11 23  1  0  0  0  0
 11 24  1  0  0  0  0
 12 13  1  0  0  0  0
 12 25  1  0  0  0  0
 12 26  1  0  0  0  0
 13 14  1  0  0  0  0
 13 27  1  0  0  0  0
 13 28  1  0  0  0  0
 14 15  1  0  0  0  0
 15 29  1  0  0  0  0
 15 30  1  0  0  0  0
M  END
> <s_m_source_file>
AV-unprocessed.smi

> <i_m_source_file_index>
2831

> <i_lp_mmshare_version>
43012

> <i_f3d_flags>
0

> <s_epik_input>
W0NIM11jMW5uYyhzMSlbTkhdQyg9TylbTkhdW0NAQF0yKFtDSDNdKVtDSDJdW0NIMl1PW0NIMl0y

> <s_epik_cmdline>
J2VwaWtfcHl0aG9uJywgJy1waCcsICc3LjAnLCAnLXRuJywgJzgnLCAnLW1hJywgJzIwMCcsICctbWV0YWxfYmluZGluZycsICctaW1hZScsICc8aW5maWxlLm1hZT4nLCAnLW9tYWUnLCAnPG91dGZpbGUubWFlPic=

> <r_lp_tautomer_probability>
1

> <r_epik_Ionization_Penalty>
0.00277018

> <r_epik_Ionization_Penalty_Charging>
0

> <r_epik_Ionization_Penalty_Neutral>
0.00277018

> <r_epik_State_Penalty>
-0

> <r_epik_Charging_Adjusted_Penalty>
0

> <i_epik_Tot_Q>
0

> <i_epik_Tot_abs_Q>
0

> <r_epik_Metal_State_Penalty>
0.356997

> <b_epik_Metal_Only>
0

> <s_lp_Force_Field>
OPLS_2005

> <r_lp_Energy>
14.9894

> <b_lp_Chiralities_Consistent>
1

> <s_lp_Variant>
AV-unprocessed.smi:2831-2

> <Gold.Version>
5.8.1

> <Gold.Id.Protein>
6NUR|6NUR_protein|mol2

> <Gold.PLP.Fitness>
34.8248

> <Gold.PLP.PLP>
-27.3061

> <Gold.PLP.part.hbond>
-4.0000

> <Gold.PLP.part.metal>
0.0000

> <Gold.PLP.part.buried>
-6.8241

> <Gold.PLP.part.nonpolar>
-18.6870

> <Gold.PLP.part.repulsive>
1.0126

> <Gold.PLP.ligand.clash>
0.0028

> <Gold.PLP.ligand.torsion>
0.7168

> <Gold.PLP.Chemscore.Hbond>
2.9750

> <Gold.PLP.Chemscore.CHOScore>
0.0000

> <Gold.PLP.Chemscore.Metal>
0.0000

> <Gold.Chemscore.Hbonds>
donor molecule, donor type, donor heavy atom, donor atom, acceptor molecule, acceptor atom, score
      L1  H     6    20       P1 10957  0.98
      L1  H     9    21       P1 10957  1.00
      P1  H 11000 11005       L1     4  1.00

> <Gold.PLP.Chemscore.Internal.Correction>
0.0300

> <Gold.Rescore>
     Score         DG    S(hbond)    S(metal)    S(lipo)     H(rot)  DE(clash)    DE(int)     intcor
     14.16     -17.22       2.40        0.00      53.76       1.00       0.02       3.04       ----

> <Gold.Chemscore.Fitness>
14.1574

> <Gold.Chemscore.DG>
-17.2218

> <Gold.Chemscore.ZeroCoef>
-5.4800

> <Gold.Chemscore.Hbond>
2.3987

> <Gold.Chemscore.Metal>
0.0000

> <Gold.Chemscore.Lipo>
53.7624

> <Gold.Chemscore.Internal_Hbond>
0.0000

> <Gold.Chemscore.DEClash>
0.0197

> <Gold.Chemscore.DEInternal>
3.0448

> <Gold.Chemscore.Rot>
1.0000

> <Gold.Chemscore.Internal.Correction>
   9.000000E+99

> <Gold.Chemscore.Hbonds>
donor molecule, donor type, donor heavy atom, donor atom, acceptor molecule, acceptor atom, score
      L1  H     6    20       P1 10957  0.91
      L1  H     9    21       P1 10957  0.37
      P1  H 11000 11005       L1     4  0.40

> <Gold.Chemscore.Hbond.Weighted>
-8.0116

> <Gold.Chemscore.Metal.Weighted>
-0.0000

> <Gold.Chemscore.Lipo.Weighted>
-6.2902

> <Gold.Chemscore.Internal_Hbond.Weighted>
0.0000

> <Gold.Chemscore.DEClash.Weighted>
0.0197

> <Gold.Chemscore.DEInternal.Weighted>
3.0448

> <Gold.Chemscore.Rot.Weighted>
2.5600

> <Gold.Chemscore.Internal.Correction.Weighted>
   9.000000E+99

> <Gold.Protein.RotatedTorsions>
[ 6907 6896 6895 6894 ] final   10.71 input  -60.11 | X-H torsion
[ 7974 7965 7964 7962 ] final  124.78 input  175.53 | X-H torsion
[ 8008 7997 7996 7995 ] final  -74.77 input   59.86 | X-H torsion
[ 10167 10162 10161 10158 ] final -153.80 input  -65.29 | X-H torsion
[ 10718 10713 10712 10709 ] final   29.69 input   66.30 | X-H torsion
[ 10763 10752 10751 10750 ] final   11.85 input  -60.55 | X-H torsion
[ 11005 11000 10999 10996 ] final   48.53 input  -57.11 | X-H torsion

> <Gold.Protein.ActiveResidues>
 VAL166  LYS551  ARG553  GLY616  TRP617  ASP618  TYR619  PRO620  LYS621  CYS622 
 ASP623  PHE694  ASN695  SER759  ASP760  ASP761  ALA762  ILE779  LEU786  VAL792 
 PHE793  MET794  SER795  GLU796  ALA797  LYS798  CYS799  TRP800  GLU811  SER814 

> <Gold.Protein.RotatedAtoms>
  151.7427  135.0850  160.0317 H   0  0  0  0  0  0  0  0  0  0  0  0  # atno 6907 bound_to 6896
  152.3469  133.6128  159.5925 H   0  0  0  0  0  0  0  0  0  0  0  0  # atno 6908 bound_to 6896
  150.7514  133.9551  159.3539 H   0  0  0  0  0  0  0  0  0  0  0  0  # atno 6909 bound_to 6896
  145.0805  139.3661  143.4911 H   0  0  0  0  0  0  0  0  0  0  0  0  # atno 7974 bound_to 7965
  154.5359  140.0755  156.8427 H   0  0  0  0  0  0  0  0  0  0  0  0  # atno 8008 bound_to 7997
  155.3279  140.3400  155.4222 H   0  0  0  0  0  0  0  0  0  0  0  0  # atno 8009 bound_to 7997
  156.1828  140.1658  156.8229 H   0  0  0  0  0  0  0  0  0  0  0  0  # atno 8010 bound_to 7997
  139.7066  143.9176  152.2451 H   0  0  0  0  0  0  0  0  0  0  0  0  # atno 10167 bound_to 10162
  157.2498  130.7109  149.6400 H   0  0  0  0  0  0  0  0  0  0  0  0  # atno 10718 bound_to 10713
  153.1883  135.6838  153.8386 H   0  0  0  0  0  0  0  0  0  0  0  0  # atno 10763 bound_to 10752
  153.7694  135.3198  155.3350 H   0  0  0  0  0  0  0  0  0  0  0  0  # atno 10764 bound_to 10752
  154.8102  135.4722  154.0594 H   0  0  0  0  0  0  0  0  0  0  0  0  # atno 10765 bound_to 10752
  140.1182  134.4864  155.8619 H   0  0  0  0  0  0  0  0  0  0  0  0  # atno 11005 bound_to 11000
  146.3531  140.0593  142.8630 LP  0  0  0  0  0  0  0  0  0  0  0  0  # atno 17320 bound_to 7965
  145.1184  140.9447  143.4615 LP  0  0  0  0  0  0  0  0  0  0  0  0  # atno 17321 bound_to 7965
  139.9033  144.6899  150.8641 LP  0  0  0  0  0  0  0  0  0  0  0  0  # atno 17342 bound_to 10162
  140.7723  143.3497  151.2039 LP  0  0  0  0  0  0  0  0  0  0  0  0  # atno 17343 bound_to 10162
  155.9666  130.4431  150.5408 LP  0  0  0  0  0  0  0  0  0  0  0  0  # atno 17370 bound_to 10713
  157.3290  131.0696  151.1875 LP  0  0  0  0  0  0  0  0  0  0  0  0  # atno 17371 bound_to 10713
  141.2146  133.6751  156.6837 LP  0  0  0  0  0  0  0  0  0  0  0  0  # atno 17394 bound_to 11000
  140.3000  134.8171  157.4089 LP  0  0  0  0  0  0  0  0  0  0  0  0  # atno 17395 bound_to 11000

$$$$
