AV-unprocessed.smi:2340|AV-procd|sdf|9349|dock4
  -GOLD-   2272012573D 1   1.00000     0.00000
 Structure written by MMmdl.
 40 41  0  0  0  0  0  0  0  0  1 V2000
  145.5234  130.1222  151.7942 C   0  0  0  0  0  0  0  0  0  0  0  0
  145.1827  131.4737  151.2502 C   0  0  0  0  0  0  0  0  0  0  0  0
  144.6069  131.7556  150.0367 C   0  0  0  0  0  0  0  0  0  0  0  0
  144.3823  133.4677  149.8070 S   0  0  0  0  0  0  0  0  0  0  0  0
  145.0915  133.7442  151.3958 C   0  0  0  0  0  0  0  0  0  0  0  0
  145.2555  135.1039  152.0066 C   0  0  1  0  0  0  0  0  0  0  0  0
  143.9504  135.9109  151.9626 C   0  0  0  0  0  0  0  0  0  0  0  0
  145.8667  135.0566  153.4246 C   0  0  0  0  0  0  0  0  0  0  0  0
  147.0400  135.9146  153.5655 N   0  0  0  0  0  0  0  0  0  0  0  0
  147.1504  136.9284  154.4340 C   0  0  0  0  0  0  0  0  0  0  0  0
  146.2798  137.2376  155.2474 O   0  0  0  0  0  0  0  0  0  0  0  0
  148.3226  137.5647  154.3041 N   0  0  0  0  0  0  0  0  0  0  0  0
  148.7484  138.7263  155.0847 C   0  0  2  0  0  0  0  0  0  0  0  0
  148.0926  139.9985  154.5507 C   0  0  0  0  0  0  0  0  0  0  0  0
  149.2517  140.9756  154.3863 C   0  0  0  0  0  0  0  0  0  0  0  0
  150.3521  140.1306  154.1016 O   0  0  0  0  0  0  0  0  0  0  0  0
  150.2633  139.0197  154.9818 C   0  0  2  0  0  0  0  0  0  0  0  0
  151.1764  137.8840  154.4924 C   0  0  0  0  0  0  0  0  0  0  0  0
  145.4525  132.6142  152.0111 N   0  0  0  0  0  0  0  0  0  0  0  0
  145.3030  129.3345  151.0733 H   0  0  0  0  0  0  0  0  0  0  0  0
  144.9550  129.9084  152.6998 H   0  0  0  0  0  0  0  0  0  0  0  0
  146.5827  130.0532  152.0428 H   0  0  0  0  0  0  0  0  0  0  0  0
  144.3012  131.0629  149.2666 H   0  0  0  0  0  0  0  0  0  0  0  0
  145.9654  135.6428  151.3768 H   0  0  0  0  0  0  0  0  0  0  0  0
  143.5832  136.0071  150.9404 H   0  0  0  0  0  0  0  0  0  0  0  0
  144.0984  136.9170  152.3560 H   0  0  0  0  0  0  0  0  0  0  0  0
  143.1677  135.4357  152.5542 H   0  0  0  0  0  0  0  0  0  0  0  0
  145.1179  135.3188  154.1738 H   0  0  0  0  0  0  0  0  0  0  0  0
  146.1838  134.0385  153.6524 H   0  0  0  0  0  0  0  0  0  0  0  0
  147.8109  135.7391  152.9378 H   0  0  0  0  0  0  0  0  0  0  0  0
  148.9705  137.2273  153.6075 H   0  0  0  0  0  0  0  0  0  0  0  0
  148.4808  138.5950  156.1349 H   0  0  0  0  0  0  0  0  0  0  0  0
  147.6312  139.8226  153.5777 H   0  0  0  0  0  0  0  0  0  0  0  0
  147.3200  140.3845  155.2160 H   0  0  0  0  0  0  0  0  0  0  0  0
  149.0825  141.7006  153.5898 H   0  0  0  0  0  0  0  0  0  0  0  0
  149.4384  141.5191  155.3140 H   0  0  0  0  0  0  0  0  0  0  0  0
  150.6165  139.3526  155.9595 H   0  0  0  0  0  0  0  0  0  0  0  0
  151.1090  137.0154  155.1479 H   0  0  0  0  0  0  0  0  0  0  0  0
  152.2177  138.2057  154.4781 H   0  0  0  0  0  0  0  0  0  0  0  0
  150.9187  137.5674  153.4815 H   0  0  0  0  0  0  0  0  0  0  0  0
  1  2  1  0  0  0  0
  1 20  1  0  0  0  0
  1 21  1  0  0  0  0
  1 22  1  0  0  0  0
  2 19  1  0  0  0  0
  2  3  2  0  0  0  0
  3  4  1  0  0  0  0
  3 23  1  0  0  0  0
  4  5  1  0  0  0  0
  5  6  1  0  0  0  0
  5 19  2  0  0  0  0
  6  7  1  0  0  0  0
  6  8  1  0  0  0  0
  6 24  1  0  0  0  0
  7 25  1  0  0  0  0
  7 26  1  0  0  0  0
  7 27  1  0  0  0  0
  8  9  1  0  0  0  0
  8 28  1  0  0  0  0
  8 29  1  0  0  0  0
  9 10  1  0  0  0  0
  9 30  1  0  0  0  0
 10 11  2  0  0  0  0
 10 12  1  0  0  0  0
 12 13  1  0  0  0  0
 12 31  1  0  0  0  0
 13 17  1  0  0  0  0
 13 14  1  0  0  0  0
 13 32  1  0  0  0  0
 14 15  1  0  0  0  0
 14 33  1  0  0  0  0
 14 34  1  0  0  0  0
 15 16  1  0  0  0  0
 15 35  1  0  0  0  0
 15 36  1  0  0  0  0
 16 17  1  0  0  0  0
 17 18  1  0  0  0  0
 17 37  1  0  0  0  0
 18 38  1  0  0  0  0
 18 39  1  0  0  0  0
 18 40  1  0  0  0  0
M  END
> <s_m_source_file>
AV-unprocessed.smi

> <i_m_source_file_index>
2340

> <i_lp_mmshare_version>
43012

> <i_f3d_flags>
0

> <s_epik_input>
W0NIM11jMVtjSF1zYyhuMSlbQ0BIXShbQ0gzXSlbQ0gyXVtOSF1DKD1PKVtOSF1bQ0BASF0yW0NIMl1bQ0gyXU9bQ0BIXTJbQ0gzXQ==

> <s_epik_cmdline>
J2VwaWtfcHl0aG9uJywgJy1waCcsICc3LjAnLCAnLXRuJywgJzgnLCAnLW1hJywgJzIwMCcsICctbWV0YWxfYmluZGluZycsICctaW1hZScsICc8aW5maWxlLm1hZT4nLCAnLW9tYWUnLCAnPG91dGZpbGUubWFlPic=

> <r_epik_Ionization_Penalty>
0.00156622

> <r_epik_Ionization_Penalty_Charging>
0

> <r_epik_Ionization_Penalty_Neutral>
0.00156622

> <r_epik_State_Penalty>
0.00101902

> <r_epik_Charging_Adjusted_Penalty>
0.00101902

> <i_epik_Tot_Q>
0

> <i_epik_Tot_abs_Q>
0

> <r_epik_Metal_State_Penalty>
-0

> <b_epik_Metal_Only>
0

> <s_lp_Force_Field>
OPLS_2005

> <r_lp_Energy>
5.61614

> <b_lp_Chiralities_Consistent>
1

> <s_lp_Variant>
AV-unprocessed.smi:2340-6

> <Gold.Version>
5.8.1

> <Gold.Id.Protein>
6NUR|6NUR_protein|mol2

> <Gold.PLP.Fitness>
37.3070

> <Gold.PLP.PLP>
-30.6347

> <Gold.PLP.part.hbond>
-2.9798

> <Gold.PLP.part.metal>
0.0000

> <Gold.PLP.part.buried>
-3.9356

> <Gold.PLP.part.nonpolar>
-25.0308

> <Gold.PLP.part.repulsive>
0.9525

> <Gold.PLP.ligand.clash>
0.0000

> <Gold.PLP.ligand.torsion>
0.9903

> <Gold.PLP.Chemscore.Hbond>
2.8480

> <Gold.PLP.Chemscore.CHOScore>
0.0000

> <Gold.PLP.Chemscore.Metal>
0.0000

> <Gold.Chemscore.Hbonds>
donor molecule, donor type, donor heavy atom, donor atom, acceptor molecule, acceptor atom, score
      L1  H     9    30       P1  7948  1.00
      L1  H    12    31       P1  7948  0.82
      P1  H  7989  7998       L1    16  1.00

> <Gold.PLP.Chemscore.Internal.Correction>
0.1089

> <Gold.Rescore>
     Score         DG    S(hbond)    S(metal)    S(lipo)     H(rot)  DE(clash)    DE(int)     intcor
     19.30     -20.43       2.67        0.00      85.05       1.53       0.15       0.98       ----

> <Gold.Chemscore.Fitness>
19.2992

> <Gold.Chemscore.DG>
-20.4313

> <Gold.Chemscore.ZeroCoef>
-5.4800

> <Gold.Chemscore.Hbond>
2.6718

> <Gold.Chemscore.Metal>
0.0000

> <Gold.Chemscore.Lipo>
85.0489

> <Gold.Chemscore.Internal_Hbond>
0.0000

> <Gold.Chemscore.DEClash>
0.1477

> <Gold.Chemscore.DEInternal>
0.9844

> <Gold.Chemscore.Rot>
1.5325

> <Gold.Chemscore.Internal.Correction>
   9.000000E+99

> <Gold.Chemscore.Hbonds>
donor molecule, donor type, donor heavy atom, donor atom, acceptor molecule, acceptor atom, score
      L1  H     9    30       P1  7948  0.96
      L1  H    12    31       P1  7948  0.79
      P1  H  7989  7998       L1    16  0.85

> <Gold.Chemscore.Hbond.Weighted>
-8.9239

> <Gold.Chemscore.Metal.Weighted>
-0.0000

> <Gold.Chemscore.Lipo.Weighted>
-9.9507

> <Gold.Chemscore.Internal_Hbond.Weighted>
0.0000

> <Gold.Chemscore.DEClash.Weighted>
0.1477

> <Gold.Chemscore.DEInternal.Weighted>
0.9844

> <Gold.Chemscore.Rot.Weighted>
3.9233

> <Gold.Chemscore.Internal.Correction.Weighted>
   9.000000E+99

> <Gold.Protein.RotatedTorsions>
[ 6907 6896 6895 6894 ] final -141.84 input  -60.11 | X-H torsion
[ 7974 7965 7964 7962 ] final -140.20 input  175.53 | X-H torsion
[ 8008 7997 7996 7995 ] final -154.68 input   59.86 | X-H torsion
[ 10167 10162 10161 10158 ] final -176.61 input  -65.29 | X-H torsion
[ 10718 10713 10712 10709 ] final   32.53 input   66.30 | X-H torsion
[ 10763 10752 10751 10750 ] final  -20.11 input  -60.55 | X-H torsion
[ 11005 11000 10999 10996 ] final -166.04 input  -57.11 | X-H torsion

> <Gold.Protein.ActiveResidues>
 VAL166  LYS551  ARG553  GLY616  TRP617  ASP618  TYR619  PRO620  LYS621  CYS622 
 ASP623  PHE694  ASN695  SER759  ASP760  ASP761  ALA762  ILE779  LEU786  VAL792 
 PHE793  MET794  SER795  GLU796  ALA797  LYS798  CYS799  TRP800  GLU811  SER814 

> <Gold.Protein.RotatedAtoms>
  151.0791  133.5404  159.2621 H   0  0  0  0  0  0  0  0  0  0  0  0  # atno 6907 bound_to 6896
  151.2314  135.0555  159.8999 H   0  0  0  0  0  0  0  0  0  0  0  0  # atno 6908 bound_to 6896
  152.5421  134.0579  159.8193 H   0  0  0  0  0  0  0  0  0  0  0  0  # atno 6909 bound_to 6896
  144.8616  140.6228  143.5325 H   0  0  0  0  0  0  0  0  0  0  0  0  # atno 7974 bound_to 7965
  155.6901  140.0754  157.2451 H   0  0  0  0  0  0  0  0  0  0  0  0  # atno 8008 bound_to 7997
  154.4090  140.1666  156.2130 H   0  0  0  0  0  0  0  0  0  0  0  0  # atno 8009 bound_to 7997
  155.9459  140.3381  155.6369 H   0  0  0  0  0  0  0  0  0  0  0  0  # atno 8010 bound_to 7997
  139.5521  144.2082  152.1095 H   0  0  0  0  0  0  0  0  0  0  0  0  # atno 10167 bound_to 10162
  157.2864  130.7281  149.6586 H   0  0  0  0  0  0  0  0  0  0  0  0  # atno 10718 bound_to 10713
  153.6153  135.6995  153.5331 H   0  0  0  0  0  0  0  0  0  0  0  0  # atno 10763 bound_to 10752
  153.2983  135.4136  155.1229 H   0  0  0  0  0  0  0  0  0  0  0  0  # atno 10764 bound_to 10752
  154.8555  135.3642  154.5692 H   0  0  0  0  0  0  0  0  0  0  0  0  # atno 10765 bound_to 10752
  140.5689  134.5257  157.5158 H   0  0  0  0  0  0  0  0  0  0  0  0  # atno 11005 bound_to 11000
  145.4302  139.1550  143.4026 LP  0  0  0  0  0  0  0  0  0  0  0  0  # atno 17320 bound_to 7965
  146.2864  140.4417  142.8756 LP  0  0  0  0  0  0  0  0  0  0  0  0  # atno 17321 bound_to 7965
  140.1579  144.5053  150.6649 LP  0  0  0  0  0  0  0  0  0  0  0  0  # atno 17342 bound_to 10162
  140.6786  143.2316  151.5443 LP  0  0  0  0  0  0  0  0  0  0  0  0  # atno 17343 bound_to 10162
  155.9665  130.4322  150.4953 LP  0  0  0  0  0  0  0  0  0  0  0  0  # atno 17370 bound_to 10713
  157.2907  131.0625  151.2135 LP  0  0  0  0  0  0  0  0  0  0  0  0  # atno 17371 bound_to 10713
  139.9371  134.7855  156.0774 LP  0  0  0  0  0  0  0  0  0  0  0  0  # atno 17394 bound_to 11000
  141.1068  133.6657  156.2883 LP  0  0  0  0  0  0  0  0  0  0  0  0  # atno 17395 bound_to 11000

$$$$
