AV-unprocessed.smi:1824|AV-procd|sdf|7406|dock8
  -GOLD-   22720 9 83D 1   1.00000     0.00000
 Structure written by MMmdl.
 45 47  0  0  0  0  0  0  0  0  2 V2000
  145.5699  141.9235  155.0415 C   0  0  0  0  0  0  0  0  0  0  0  0
  146.6009  141.9945  153.9009 C   0  0  1  0  0  0  0  0  0  0  0  0
  148.0516  142.1627  154.3928 C   0  0  0  0  0  0  0  0  0  0  0  0
  148.5634  140.8997  154.9789 N   0  3  2  0  0  0  0  0  0  0  0  0
  149.9330  141.0148  155.5420 C   0  0  0  0  0  0  0  0  0  0  0  0
  150.0109  142.0448  156.6863 C   0  0  1  0  0  0  0  0  0  0  0  0
  149.1860  141.6070  157.7499 O   0  0  0  0  0  0  0  0  0  0  0  0
  151.4530  142.2313  157.1965 C   0  0  0  0  0  0  0  0  0  0  0  0
  151.5160  143.0547  158.3913 N   0  0  0  0  0  0  0  0  0  0  0  0
  150.9858  144.2820  158.5568 C   0  0  0  0  0  0  0  0  0  0  0  0
  151.1546  144.8643  159.7401 N   0  0  0  0  0  0  0  0  0  0  0  0
  151.8789  143.9036  160.4244 C   0  0  0  0  0  0  0  0  0  0  0  0
  152.3792  143.9006  161.7461 C   0  0  0  0  0  0  0  0  0  0  0  0
  153.0978  142.7902  162.2360 C   0  0  0  0  0  0  0  0  0  0  0  0
  153.5674  142.8026  163.5061 F   0  0  0  0  0  0  0  0  0  0  0  0
  153.3284  141.6686  161.4122 C   0  0  0  0  0  0  0  0  0  0  0  0
  154.0181  140.6062  161.8907 F   0  0  0  0  0  0  0  0  0  0  0  0
  152.8416  141.6496  160.0911 C   0  0  0  0  0  0  0  0  0  0  0  0
  152.1233  142.7586  159.6073 C   0  0  0  0  0  0  0  0  0  0  0  0
  148.4348  139.7934  154.0032 C   0  0  0  0  0  0  0  0  0  0  0  0
  146.9693  139.6424  153.5559 C   0  0  2  0  0  0  0  0  0  0  0  0
  146.8044  138.5647  152.4785 C   0  0  0  0  0  0  0  0  0  0  0  0
  146.5082  140.8783  153.0155 O   0  0  0  0  0  0  0  0  0  0  0  0
  145.5731  142.8457  155.6230 H   0  0  0  0  0  0  0  0  0  0  0  0
  145.7703  141.1056  155.7332 H   0  0  0  0  0  0  0  0  0  0  0  0
  144.5626  141.7889  154.6465 H   0  0  0  0  0  0  0  0  0  0  0  0
  146.3498  142.8731  153.3059 H   0  0  0  0  0  0  0  0  0  0  0  0
  148.6895  142.4496  153.5550 H   0  0  0  0  0  0  0  0  0  0  0  0
  148.1003  142.9772  155.1146 H   0  0  0  0  0  0  0  0  0  0  0  0
  150.2583  140.0459  155.9247 H   0  0  0  0  0  0  0  0  0  0  0  0
  150.6292  141.2740  154.7428 H   0  0  0  0  0  0  0  0  0  0  0  0
  149.6393  143.0122  156.3495 H   0  0  0  0  0  0  0  0  0  0  0  0
  148.2987  141.5269  157.4339 H   0  0  0  0  0  0  0  0  0  0  0  0
  151.9150  141.2665  157.4106 H   0  0  0  0  0  0  0  0  0  0  0  0
  152.0644  142.7041  156.4267 H   0  0  0  0  0  0  0  0  0  0  0  0
  150.4424  144.7748  157.7637 H   0  0  0  0  0  0  0  0  0  0  0  0
  152.2088  144.7537  162.3861 H   0  0  0  0  0  0  0  0  0  0  0  0
  153.0169  140.7914  159.4599 H   0  0  0  0  0  0  0  0  0  0  0  0
  149.0792  139.9876  153.1439 H   0  0  0  0  0  0  0  0  0  0  0  0
  148.7747  138.8605  154.4549 H   0  0  0  0  0  0  0  0  0  0  0  0
  146.3532  139.3611  154.4103 H   0  0  0  0  0  0  0  0  0  0  0  0
  147.1333  137.5911  152.8425 H   0  0  0  0  0  0  0  0  0  0  0  0
  147.3858  138.8027  151.5873 H   0  0  0  0  0  0  0  0  0  0  0  0
  145.7603  138.4705  152.1783 H   0  0  0  0  0  0  0  0  0  0  0  0
  147.9593  140.6645  155.7539 H   0  0  0  0  0  0  0  0  0  0  0  0
  1  2  1  0  0  0  0
  1 24  1  0  0  0  0
  1 25  1  0  0  0  0
  1 26  1  0  0  0  0
  2 23  1  0  0  0  0
  2  3  1  0  0  0  0
  2 27  1  0  0  0  0
  3  4  1  0  0  0  0
  3 28  1  0  0  0  0
  3 29  1  0  0  0  0
  4  5  1  0  0  0  0
  4 20  1  0  0  0  0
  4 45  1  0  0  0  0
  5  6  1  0  0  0  0
  5 30  1  0  0  0  0
  5 31  1  0  0  0  0
  6  7  1  0  0  0  0
  6  8  1  0  0  0  0
  6 32  1  0  0  0  0
  7 33  1  0  0  0  0
  8  9  1  0  0  0  0
  8 34  1  0  0  0  0
  8 35  1  0  0  0  0
  9 19  1  0  0  0  0
  9 10  1  0  0  0  0
 10 11  2  0  0  0  0
 10 36  1  0  0  0  0
 11 12  1  0  0  0  0
 12 19  2  0  0  0  0
 12 13  1  0  0  0  0
 13 14  2  0  0  0  0
 13 37  1  0  0  0  0
 14 15  1  0  0  0  0
 14 16  1  0  0  0  0
 16 17  1  0  0  0  0
 16 18  2  0  0  0  0
 18 19  1  0  0  0  0
 18 38  1  0  0  0  0
 20 21  1  0  0  0  0
 20 39  1  0  0  0  0
 20 40  1  0  0  0  0
 21 22  1  0  0  0  0
 21 23  1  0  0  0  0
 21 41  1  0  0  0  0
 22 42  1  0  0  0  0
 22 43  1  0  0  0  0
 22 44  1  0  0  0  0
M  CHG  1   4   1
M  END
> <s_m_source_file>
AV-unprocessed.smi

> <i_m_source_file_index>
1824

> <i_lp_mmshare_version>
43012

> <i_f3d_flags>
0

> <s_epik_input>
W0NIM11bQ0BASF0xW0NIMl1OKFtDSDJdW0NASF0oTzEpW0NIM10pW0NIMl1bQ0BIXShbT0hdKVtDSDJdbihbY0hdbjIpYyhjMjMpW2NIXWMoRiljKEYpW2NIXTM=

> <s_epik_cmdline>
J2VwaWtfcHl0aG9uJywgJy1waCcsICc3LjAnLCAnLXRuJywgJzgnLCAnLW1hJywgJzIwMCcsICctbWV0YWxfYmluZGluZycsICctaW1hZScsICc8aW5maWxlLm1hZT4nLCAnLW9tYWUnLCAnPG91dGZpbGUubWFlPic=

> <r_epik_Ionization_Penalty>
0.61967

> <r_epik_Ionization_Penalty_Charging>
0.608065

> <r_epik_Ionization_Penalty_Neutral>
0.0116057

> <r_epik_State_Penalty>
0.664205

> <r_epik_Charging_Adjusted_Penalty>
1.27227

> <i_epik_Tot_Q>
1

> <i_epik_Tot_abs_Q>
1

> <r_epik_Metal_State_Penalty>
0.654947

> <b_epik_Metal_Only>
0

> <s_lp_Force_Field>
OPLS_2005

> <r_lp_Energy>
22.8883

> <b_lp_Chiralities_Consistent>
1

> <s_lp_Variant>
AV-unprocessed.smi:1824-14

> <Gold.Version>
5.8.1

> <Gold.Id.Protein>
6NUR|6NUR_protein|mol2

> <Gold.PLP.Fitness>
52.8565

> <Gold.PLP.PLP>
-50.1381

> <Gold.PLP.part.hbond>
0.0000

> <Gold.PLP.part.metal>
0.0000

> <Gold.PLP.part.buried>
0.2462

> <Gold.PLP.part.nonpolar>
-50.9554

> <Gold.PLP.part.repulsive>
1.9396

> <Gold.PLP.ligand.clash>
0.0000

> <Gold.PLP.ligand.torsion>
0.1044

> <Gold.PLP.Chemscore.Hbond>
0.0000

> <Gold.PLP.Chemscore.CHOScore>
0.9587

> <Gold.PLP.Chemscore.Metal>
0.0000

> <Gold.Chemscore.Hbonds>
donor molecule, donor type, donor heavy atom, donor atom, acceptor molecule, acceptor atom, score
      L1  C    10    36       P1  8028  0.80
      L1  C    10    36       P1  8029  0.09

> <Gold.PLP.Chemscore.Internal.Correction>
0.0511

> <Gold.Rescore>
     Score         DG    S(hbond)    S(metal)    S(lipo)     H(rot)  DE(clash)    DE(int)     intcor
     12.73     -13.84       0.00        0.00     122.36       2.33       0.98       0.13       ----

> <Gold.Chemscore.Fitness>
12.7321

> <Gold.Chemscore.DG>
-13.8443

> <Gold.Chemscore.ZeroCoef>
-5.4800

> <Gold.Chemscore.Hbond>
0.0000

> <Gold.Chemscore.Metal>
0.0000

> <Gold.Chemscore.Lipo>
122.3644

> <Gold.Chemscore.Internal_Hbond>
0.0000

> <Gold.Chemscore.DEClash>
0.9793

> <Gold.Chemscore.DEInternal>
0.1330

> <Gold.Chemscore.Rot>
2.3251

> <Gold.Chemscore.Internal.Correction>
   9.000000E+99

> <Gold.Chemscore.Hbond.Weighted>
-0.0000

> <Gold.Chemscore.Metal.Weighted>
-0.0000

> <Gold.Chemscore.Lipo.Weighted>
-14.3166

> <Gold.Chemscore.Internal_Hbond.Weighted>
0.0000

> <Gold.Chemscore.DEClash.Weighted>
0.9793

> <Gold.Chemscore.DEInternal.Weighted>
0.1330

> <Gold.Chemscore.Rot.Weighted>
5.9523

> <Gold.Chemscore.Internal.Correction.Weighted>
   9.000000E+99

> <Gold.Protein.RotatedTorsions>
[ 6907 6896 6895 6894 ] final  -52.48 input  -60.11 | X-H torsion
[ 7974 7965 7964 7962 ] final    6.18 input  175.53 | X-H torsion
[ 8008 7997 7996 7995 ] final -118.91 input   59.86 | X-H torsion
[ 10167 10162 10161 10158 ] final -126.90 input  -65.29 | X-H torsion
[ 10718 10713 10712 10709 ] final  -57.28 input   66.30 | X-H torsion
[ 10763 10752 10751 10750 ] final   86.27 input  -60.55 | X-H torsion
[ 11005 11000 10999 10996 ] final   32.11 input  -57.11 | X-H torsion

> <Gold.Protein.ActiveResidues>
 VAL166  LYS551  ARG553  GLY616  TRP617  ASP618  TYR619  PRO620  LYS621  CYS622 
 ASP623  PHE694  ASN695  SER759  ASP760  ASP761  ALA762  ILE779  LEU786  VAL792 
 PHE793  MET794  SER795  GLU796  ALA797  LYS798  CYS799  TRP800  GLU811  SER814 

> <Gold.Protein.RotatedAtoms>
  150.8514  134.7839  159.7011 H   0  0  0  0  0  0  0  0  0  0  0  0  # atno 6907 bound_to 6896
  152.4577  134.5250  159.9804 H   0  0  0  0  0  0  0  0  0  0  0  0  # atno 6908 bound_to 6896
  151.5371  133.3401  159.2964 H   0  0  0  0  0  0  0  0  0  0  0  0  # atno 6909 bound_to 6896
  146.2436  140.0273  142.8393 H   0  0  0  0  0  0  0  0  0  0  0  0  # atno 7974 bound_to 7965
  155.1072  140.0397  157.2714 H   0  0  0  0  0  0  0  0  0  0  0  0  # atno 8008 bound_to 7997
  154.6713  140.2613  155.6979 H   0  0  0  0  0  0  0  0  0  0  0  0  # atno 8009 bound_to 7997
  156.2659  140.2797  156.1222 H   0  0  0  0  0  0  0  0  0  0  0  0  # atno 8010 bound_to 7997
  139.9666  143.5891  152.2427 H   0  0  0  0  0  0  0  0  0  0  0  0  # atno 10167 bound_to 10162
  156.1223  130.4165  150.0419 H   0  0  0  0  0  0  0  0  0  0  0  0  # atno 10718 bound_to 10713
  153.1555  135.4586  154.9697 H   0  0  0  0  0  0  0  0  0  0  0  0  # atno 10763 bound_to 10752
  154.7858  135.3203  154.7893 H   0  0  0  0  0  0  0  0  0  0  0  0  # atno 10764 bound_to 10752
  153.8391  135.6932  153.4859 H   0  0  0  0  0  0  0  0  0  0  0  0  # atno 10765 bound_to 10752
  140.2769  134.3017  155.7811 H   0  0  0  0  0  0  0  0  0  0  0  0  # atno 11005 bound_to 11000
  145.1187  140.9449  143.4613 LP  0  0  0  0  0  0  0  0  0  0  0  0  # atno 17320 bound_to 7965
  145.0503  139.3187  143.5932 LP  0  0  0  0  0  0  0  0  0  0  0  0  # atno 17321 bound_to 7965
  139.6513  144.7661  151.2142 LP  0  0  0  0  0  0  0  0  0  0  0  0  # atno 17342 bound_to 10162
  140.7536  143.6156  150.8563 LP  0  0  0  0  0  0  0  0  0  0  0  0  # atno 17343 bound_to 10162
  156.8354  130.9407  151.3635 LP  0  0  0  0  0  0  0  0  0  0  0  0  # atno 17370 bound_to 10713
  157.6406  130.8802  149.9441 LP  0  0  0  0  0  0  0  0  0  0  0  0  # atno 17371 bound_to 10713
  141.2169  133.7501  156.9421 LP  0  0  0  0  0  0  0  0  0  0  0  0  # atno 17394 bound_to 11000
  140.1320  134.9350  157.2350 LP  0  0  0  0  0  0  0  0  0  0  0  0  # atno 17395 bound_to 11000

$$$$
