#       Name:                AV-unprocessed.smi:1837
#       Creating user name   scv26
#       Creation time:       Fri Mar 27 09:17:56 2020


#       File generated by GOLD software.
#

@<TRIPOS>MOLECULE
AV-unprocessed.smi:1837
    51    54     1
SMALL
NO_CHARGES


@<TRIPOS>ATOM
      1 ****         0.5937   0.6454   1.1695 O.2            1 S1                 0.0000
      2 ****         1.0851  -0.1151   0.3348 C.2            1 S1                 0.0000
      3 ****         2.5955  -0.3902   0.3236 C.3            1 S1                 0.0000
      4 ****         3.3843   0.6715   0.9711 N.am           1 S1                 0.0000
      5 ****         3.7619   0.4623   2.3124 C.2            1 S1                 0.0000
      6 ****         4.4794   1.3694   3.0039 C.2            1 S1                 0.0000
      7 ****         4.8531   1.1413   4.3825 N.pl3          1 S1                 1.0000
      8 ****         5.5013   2.0036   4.9669 O.2            1 S1                 0.0000
      9 ****         4.5134   0.0948   4.9265 O.2            1 S1                -1.0000
     10 ****         4.8626   2.5892   2.3198 C.2            1 S1                 0.0000
     11 ****         4.5005   2.7974   1.0385 C.2            1 S1                 0.0000
     12 ****         3.7155   1.8109   0.2895 C.2            1 S1                 0.0000
     13 ****         3.3768   1.9977  -0.8793 O.2            1 S1                 0.0000
     14 ****         0.3692  -0.7662  -0.5982 N.am           1 S1                 0.0000
     15 ****        -1.0766  -0.7110  -0.8388 C.3            1 S1                 0.0000
     16 ****        -1.8793  -1.2205   0.3896 C.3            1 S1                 0.0000
     17 ****        -3.3903  -1.2073   0.0707 C.3            1 S1                 0.0000
     18 ****        -3.8347   0.2311  -0.2735 C.3            1 S1                 0.0000
     19 ****        -3.0537   0.7282  -1.5096 C.3            1 S1                 0.0000
     20 ****        -3.3389  -0.2000  -2.7086 C.3            1 S1                 0.0000
     21 ****        -2.8916  -1.6341  -2.3574 C.3            1 S1                 0.0000
     22 ****        -3.6757  -2.1365  -1.1274 C.3            1 S1                 0.0000
     23 ****        -1.3807  -1.6389  -2.0426 C.3            1 S1                 0.0000
     24 ****        -1.5409   0.7271  -1.1995 C.3            1 S1                 0.0000
     25 ****         2.7691  -1.3497   0.8126 H              1 S1                 0.0000
     26 ****         2.9316  -0.5313  -0.7057 H              1 S1                 0.0000
     27 ****         3.4212  -0.4726   2.7334 H              1 S1                 0.0000
     28 ****         5.4409   3.3453   2.8303 H              1 S1                 0.0000
     29 ****         4.7957   3.7141   0.5490 H              1 S1                 0.0000
     30 ****         0.8872  -1.3681  -1.2219 H              1 S1                 0.0000
     31 ****        -1.5633  -2.2296   0.6576 H              1 S1                 0.0000
     32 ****        -1.6937  -0.5996   1.2661 H              1 S1                 0.0000
     33 ****        -3.9458  -1.5586   0.9408 H              1 S1                 0.0000
     34 ****        -4.9075   0.2575  -0.4692 H              1 S1                 0.0000
     35 ****        -3.6604   0.8935   0.5752 H              1 S1                 0.0000
     36 ****        -3.3713   1.7422  -1.7545 H              1 S1                 0.0000
     37 ****        -4.4013  -0.1846  -2.9554 H              1 S1                 0.0000
     38 ****        -2.8114   0.1543  -3.5952 H              1 S1                 0.0000
     39 ****        -3.0875  -2.2919  -3.2047 H              1 S1                 0.0000
     40 ****        -3.3889  -3.1611  -0.8878 H              1 S1                 0.0000
     41 ****        -4.7446  -2.1574  -1.3434 H              1 S1                 0.0000
     42 ****        -0.8208  -1.3157  -2.9217 H              1 S1                 0.0000
     43 ****        -1.0520  -2.6573  -1.8295 H              1 S1                 0.0000
     44 ****        -1.3440   1.4207  -0.3820 H              1 S1                 0.0000
     45 ****        -0.9837   1.1017  -2.0593 H              1 S1                 0.0000
     46 ****         1.1795   1.0895   1.8474 LP             1 S1                 0.0000
     47 ****        -0.3911   0.8188   1.1694 LP             1 S1                 0.0000
     48 ****         5.7606   2.8433   4.4899 LP             1 S1                 0.0000
     49 ****         5.7704   1.8666   5.9203 LP             1 S1                 0.0000
     50 ****         2.8417   1.3042  -1.3617 LP             1 S1                 0.0000
     51 ****         3.6369   2.8428  -1.3462 LP             1 S1                 0.0000
@<TRIPOS>BOND
    1    1    2 2     
    2    2    3 1     
    3    2   14 am    
    4    3    4 1     
    5    3   25 1     
    6    3   26 1     
    7    4   12 am    
    8    4    5 1     
    9    5    6 2     
   10    5   27 1     
   11    6    7 1     
   12    6   10 1     
   13    7    8 2     
   14    7    9 1     
   15   10   11 2     
   16   10   28 1     
   17   11   12 1     
   18   11   29 1     
   19   12   13 2     
   20   14   15 1     
   21   14   30 1     
   22   15   23 1     
   23   15   24 1     
   24   15   16 1     
   25   16   17 1     
   26   16   31 1     
   27   16   32 1     
   28   17   22 1     
   29   17   18 1     
   30   17   33 1     
   31   18   19 1     
   32   18   34 1     
   33   18   35 1     
   34   19   20 1     
   35   19   24 1     
   36   19   36 1     
   37   20   21 1     
   38   20   37 1     
   39   20   38 1     
   40   21   22 1     
   41   21   23 1     
   42   21   39 1     
   43   22   40 1     
   44   22   41 1     
   45   23   42 1     
   46   23   43 1     
   47   24   44 1     
   48   24   45 1     
   49    1   46 1     
   50    1   47 1     
   51    8   48 1     
   52    8   49 1     
   53   13   50 1     
   54   13   51 1     
@<TRIPOS>SUBSTRUCTURE
      1 S1             1
@<TRIPOS>SET
LONE_PAIRS      STATIC     ATOMS    <user>   **** ""
7 46 47 48 49 9 50 51
DONOR_HYDROGENS      STATIC     ATOMS    <user>   **** ""
1 30
ATOM$BLUE        STATIC     ATOMS    COLORGROUP SYSTEM
7 46 47 48 49 9 50 51
ATOM$RED        STATIC     ATOMS    COLORGROUP SYSTEM
1 30
