AV-unprocessed.smi:266|AV-procd|sdf|2037|dock4
  -GOLD-   2262021253D 1   1.00000     0.00000
 Structure written by MMmdl.
 52 55  0  0  0  0  0  0  0  0  1 V2000
  144.0003  134.8490  151.7108 C   0  0  0  0  0  0  0  0  0  0  0  0
  145.1911  133.9199  151.4174 C   0  0  2  0  0  0  0  0  0  0  0  0
  144.7202  132.9265  150.5045 O   0  0  0  0  0  0  0  0  0  0  0  0
  145.0196  131.6240  150.9855 C   0  0  0  0  0  0  0  0  0  0  0  0
  145.0765  131.7969  152.4953 C   0  0  0  0  0  0  0  0  0  0  0  0
  145.7620  133.1514  152.6366 C   0  0  2  0  0  0  0  0  0  0  0  0
  145.3860  133.7287  153.8747 O   0  0  0  0  0  0  0  0  0  0  0  0
  147.3122  133.0878  152.5772 C   0  0  0  0  0  0  0  0  0  0  0  0
  147.9319  132.4464  153.7273 N   0  0  0  0  0  0  0  0  0  0  0  0
  147.5303  131.2761  154.3296 C   0  0  0  0  0  0  0  0  0  0  0  0
  148.2506  130.9005  155.3501 N   0  0  0  0  0  0  0  0  0  0  0  0
  149.2397  131.8725  155.4496 C   0  0  0  0  0  0  0  0  0  0  0  0
  150.3511  132.0867  156.3177 C   0  0  0  0  0  0  0  0  0  0  0  0
  150.7168  131.2808  157.3444 N   0  0  0  0  0  0  0  0  0  0  0  0
  149.8723  131.4508  158.5187 C   0  0  0  0  0  0  0  0  0  0  0  0
  151.1852  129.9254  157.0565 C   0  0  0  0  0  0  0  0  0  0  0  0
  152.5372  129.8734  156.3130 C   0  0  1  0  0  0  0  0  0  0  0  0
  153.7246  130.3386  157.1807 C   0  0  0  0  0  0  0  0  0  0  0  0
  155.0280  129.9707  156.4643 C   0  0  0  0  0  0  0  0  0  0  0  0
  154.6789  128.4099  155.5717 S   0  0  0  0  0  0  0  0  0  0  0  0
  154.9940  128.5939  154.1469 O   0  0  0  0  0  0  0  0  0  0  0  0
  155.2286  127.2750  156.3286 O   0  0  0  0  0  0  0  0  0  0  0  0
  152.8621  128.4601  155.8077 C   0  0  0  0  0  0  0  0  0  0  0  0
  151.1056  133.1957  156.1116 N   0  0  0  0  0  0  0  0  0  0  0  0
  150.8137  134.0335  155.1129 C   0  0  0  0  0  0  0  0  0  0  0  0
  149.8237  133.9564  154.2223 N   0  0  0  0  0  0  0  0  0  0  0  0
  149.0509  132.8532  154.4337 C   0  0  0  0  0  0  0  0  0  0  0  0
  144.2883  135.6680  152.3703 H   0  0  0  0  0  0  0  0  0  0  0  0
  143.1792  134.3077  152.1818 H   0  0  0  0  0  0  0  0  0  0  0  0
  143.6197  135.2917  150.7900 H   0  0  0  0  0  0  0  0  0  0  0  0
  145.9738  134.5031  150.9302 H   0  0  0  0  0  0  0  0  0  0  0  0
  144.2674  130.8999  150.6720 H   0  0  0  0  0  0  0  0  0  0  0  0
  145.9855  131.3041  150.5931 H   0  0  0  0  0  0  0  0  0  0  0  0
  144.0573  131.8447  152.8825 H   0  0  0  0  0  0  0  0  0  0  0  0
  145.5769  130.9741  153.0039 H   0  0  0  0  0  0  0  0  0  0  0  0
  144.6608  133.2363  154.2279 H   0  0  0  0  0  0  0  0  0  0  0  0
  147.6346  132.5514  151.6839 H   0  0  0  0  0  0  0  0  0  0  0  0
  147.7246  134.0935  152.4844 H   0  0  0  0  0  0  0  0  0  0  0  0
  146.6737  130.7110  153.9916 H   0  0  0  0  0  0  0  0  0  0  0  0
  149.8879  132.4833  158.8696 H   0  0  0  0  0  0  0  0  0  0  0  0
  150.2183  130.8192  159.3374 H   0  0  0  0  0  0  0  0  0  0  0  0
  148.8408  131.1782  158.2921 H   0  0  0  0  0  0  0  0  0  0  0  0
  151.2829  129.3891  158.0010 H   0  0  0  0  0  0  0  0  0  0  0  0
  150.4210  129.3902  156.4934 H   0  0  0  0  0  0  0  0  0  0  0  0
  152.5033  130.5182  155.4346 H   0  0  0  0  0  0  0  0  0  0  0  0
  153.6787  131.4075  157.3917 H   0  0  0  0  0  0  0  0  0  0  0  0
  153.6912  129.8229  158.1415 H   0  0  0  0  0  0  0  0  0  0  0  0
  155.2913  130.7292  155.7269 H   0  0  0  0  0  0  0  0  0  0  0  0
  155.8682  129.8382  157.1460 H   0  0  0  0  0  0  0  0  0  0  0  0
  152.6037  127.7072  156.5530 H   0  0  0  0  0  0  0  0  0  0  0  0
  152.3537  128.2142  154.8753 H   0  0  0  0  0  0  0  0  0  0  0  0
  151.4669  134.8879  155.0128 H   0  0  0  0  0  0  0  0  0  0  0  0
  1  2  1  0  0  0  0
  1 28  1  0  0  0  0
  1 29  1  0  0  0  0
  1 30  1  0  0  0  0
  2  6  1  0  0  0  0
  2  3  1  0  0  0  0
  2 31  1  0  0  0  0
  3  4  1  0  0  0  0
  4  5  1  0  0  0  0
  4 32  1  0  0  0  0
  4 33  1  0  0  0  0
  5  6  1  0  0  0  0
  5 34  1  0  0  0  0
  5 35  1  0  0  0  0
  6  7  1  0  0  0  0
  6  8  1  0  0  0  0
  7 36  1  0  0  0  0
  8  9  1  0  0  0  0
  8 37  1  0  0  0  0
  8 38  1  0  0  0  0
  9 27  1  0  0  0  0
  9 10  1  0  0  0  0
 10 11  2  0  0  0  0
 10 39  1  0  0  0  0
 11 12  1  0  0  0  0
 12 27  2  0  0  0  0
 12 13  1  0  0  0  0
 13 14  1  0  0  0  0
 13 24  2  0  0  0  0
 14 15  1  0  0  0  0
 14 16  1  0  0  0  0
 15 40  1  0  0  0  0
 15 41  1  0  0  0  0
 15 42  1  0  0  0  0
 16 17  1  0  0  0  0
 16 43  1  0  0  0  0
 16 44  1  0  0  0  0
 17 23  1  0  0  0  0
 17 18  1  0  0  0  0
 17 45  1  0  0  0  0
 18 19  1  0  0  0  0
 18 46  1  0  0  0  0
 18 47  1  0  0  0  0
 19 20  1  0  0  0  0
 19 48  1  0  0  0  0
 19 49  1  0  0  0  0
 20 21  2  0  0  0  0
 20 22  2  0  0  0  0
 20 23  1  0  0  0  0
 23 50  1  0  0  0  0
 23 51  1  0  0  0  0
 24 25  1  0  0  0  0
 25 26  2  0  0  0  0
 25 52  1  0  0  0  0
 26 27  1  0  0  0  0
M  END
> <s_m_source_file>
AV-unprocessed.smi

> <i_m_source_file_index>
266

> <i_lp_mmshare_version>
43012

> <i_f3d_flags>
0

> <s_epik_input>
W0NIMl0xW0NIMl1PW0NAQEhdKFtDSDNdKVtDQEBdMShbT0hdKVtDSDJdbihbY0hdbjIpYyhjMjMpbltjSF1uYzNOKFtDSDNdKVtDSDJdW0NAQEhdKFtDSDJdNClbQ0gyXVtDSDJdUzQoPU8pPU8=

> <s_epik_cmdline>
J2VwaWtfcHl0aG9uJywgJy1waCcsICc3LjAnLCAnLXRuJywgJzgnLCAnLW1hJywgJzIwMCcsICctbWV0YWxfYmluZGluZycsICctaW1hZScsICc8aW5maWxlLm1hZT4nLCAnLW9tYWUnLCAnPG91dGZpbGUubWFlPic=

> <r_lp_tautomer_probability>
1

> <r_epik_Ionization_Penalty>
0.00155497

> <r_epik_Ionization_Penalty_Charging>
0

> <r_epik_Ionization_Penalty_Neutral>
0.00155497

> <r_epik_State_Penalty>
-0

> <r_epik_Charging_Adjusted_Penalty>
0

> <i_epik_Tot_Q>
0

> <i_epik_Tot_abs_Q>
0

> <r_epik_Metal_State_Penalty>
-0

> <b_epik_Metal_Only>
0

> <s_lp_Force_Field>
OPLS_2005

> <r_lp_Energy>
32.6677

> <b_lp_Chiralities_Consistent>
1

> <s_lp_Variant>
AV-unprocessed.smi:266-7

> <Gold.Version>
5.8.1

> <Gold.Id.Protein>
6NUR|6NUR_protein|mol2

> <Gold.PLP.Fitness>
44.9461

> <Gold.PLP.PLP>
-42.3397

> <Gold.PLP.part.hbond>
-1.5413

> <Gold.PLP.part.metal>
0.0000

> <Gold.PLP.part.buried>
-6.5649

> <Gold.PLP.part.nonpolar>
-35.4323

> <Gold.PLP.part.repulsive>
0.8098

> <Gold.PLP.ligand.clash>
0.0000

> <Gold.PLP.ligand.torsion>
0.7377

> <Gold.PLP.Chemscore.Hbond>
1.0000

> <Gold.PLP.Chemscore.CHOScore>
0.1307

> <Gold.PLP.Chemscore.Metal>
0.0000

> <Gold.PLP.Chemscore.Internal.Correction>
0.6898

> <Gold.Rescore>
     Score         DG    S(hbond)    S(metal)    S(lipo)     H(rot)  DE(clash)    DE(int)     intcor
      9.29     -10.01       1.00        0.00      70.66       2.76       0.13       0.59       ----

> <Gold.Chemscore.Fitness>
9.2927

> <Gold.Chemscore.DG>
-10.0091

> <Gold.Chemscore.ZeroCoef>
-5.4800

> <Gold.Chemscore.Hbond>
0.9991

> <Gold.Chemscore.Metal>
0.0000

> <Gold.Chemscore.Lipo>
70.6595

> <Gold.Chemscore.Internal_Hbond>
0.0000

> <Gold.Chemscore.DEClash>
0.1297

> <Gold.Chemscore.DEInternal>
0.5866

> <Gold.Chemscore.Rot>
2.7637

> <Gold.Chemscore.Internal.Correction>
   9.000000E+99

> <Gold.Chemscore.Hbond.Weighted>
-3.3369

> <Gold.Chemscore.Metal.Weighted>
-0.0000

> <Gold.Chemscore.Lipo.Weighted>
-8.2672

> <Gold.Chemscore.Internal_Hbond.Weighted>
0.0000

> <Gold.Chemscore.DEClash.Weighted>
0.1297

> <Gold.Chemscore.DEInternal.Weighted>
0.5866

> <Gold.Chemscore.Rot.Weighted>
7.0750

> <Gold.Chemscore.Internal.Correction.Weighted>
   9.000000E+99

> <Gold.Protein.RotatedTorsions>
[ 6907 6896 6895 6894 ] final  148.44 input  -60.11 | X-H torsion
[ 7974 7965 7964 7962 ] final  -51.14 input  175.53 | X-H torsion
[ 8008 7997 7996 7995 ] final  110.85 input   59.86 | X-H torsion
[ 10167 10162 10161 10158 ] final -157.48 input  -65.29 | X-H torsion
[ 10718 10713 10712 10709 ] final -150.28 input   66.30 | X-H torsion
[ 10763 10752 10751 10750 ] final   22.71 input  -60.55 | X-H torsion
[ 11005 11000 10999 10996 ] final  -13.87 input  -57.11 | X-H torsion

> <Gold.Protein.ActiveResidues>
 VAL166  LYS551  ARG553  GLY616  TRP617  ASP618  TYR619  PRO620  LYS621  CYS622 
 ASP623  PHE694  ASN695  SER759  ASP760  ASP761  ALA762  ILE779  LEU786  VAL792 
 PHE793  MET794  SER795  GLU796  ALA797  LYS798  CYS799  TRP800  GLU811  SER814 

> <Gold.Protein.RotatedAtoms>
  152.1414  133.4466  159.4768 H   0  0  0  0  0  0  0  0  0  0  0  0  # atno 6907 bound_to 6896
  150.6886  134.2300  159.4440 H   0  0  0  0  0  0  0  0  0  0  0  0  # atno 6908 bound_to 6896
  152.0191  134.9832  160.0621 H   0  0  0  0  0  0  0  0  0  0  0  0  # atno 6909 bound_to 6896
  145.9222  140.7823  142.9641 H   0  0  0  0  0  0  0  0  0  0  0  0  # atno 7974 bound_to 7965
  156.2082  140.3030  155.9674 H   0  0  0  0  0  0  0  0  0  0  0  0  # atno 8008 bound_to 7997
  155.2789  140.0437  157.3031 H   0  0  0  0  0  0  0  0  0  0  0  0  # atno 8009 bound_to 7997
  154.5663  140.2335  155.8268 H   0  0  0  0  0  0  0  0  0  0  0  0  # atno 8010 bound_to 7997
  139.6767  143.9651  152.2314 H   0  0  0  0  0  0  0  0  0  0  0  0  # atno 10167 bound_to 10162
  156.4440  130.8136  151.2366 H   0  0  0  0  0  0  0  0  0  0  0  0  # atno 10718 bound_to 10713
  153.0894  135.6642  153.9884 H   0  0  0  0  0  0  0  0  0  0  0  0  # atno 10763 bound_to 10752
  153.9485  135.2986  155.3441 H   0  0  0  0  0  0  0  0  0  0  0  0  # atno 10764 bound_to 10752
  154.7306  135.5124  153.9031 H   0  0  0  0  0  0  0  0  0  0  0  0  # atno 10765 bound_to 10752
  140.7806  133.8366  155.9289 H   0  0  0  0  0  0  0  0  0  0  0  0  # atno 11005 bound_to 11000
  144.6754  140.1994  143.7388 LP  0  0  0  0  0  0  0  0  0  0  0  0  # atno 17320 bound_to 7965
  145.8535  139.2187  143.1758 LP  0  0  0  0  0  0  0  0  0  0  0  0  # atno 17321 bound_to 7965
  139.9430  144.6669  150.8247 LP  0  0  0  0  0  0  0  0  0  0  0  0  # atno 17342 bound_to 10162
  140.7638  143.3232  151.2575 LP  0  0  0  0  0  0  0  0  0  0  0  0  # atno 17343 bound_to 10162
  157.7505  131.0159  150.3523 LP  0  0  0  0  0  0  0  0  0  0  0  0  # atno 17370 bound_to 10713
  156.3887  130.3894  149.7046 LP  0  0  0  0  0  0  0  0  0  0  0  0  # atno 17371 bound_to 10713
  140.9486  134.1808  157.4745 LP  0  0  0  0  0  0  0  0  0  0  0  0  # atno 17394 bound_to 11000
  139.8743  134.9900  156.5483 LP  0  0  0  0  0  0  0  0  0  0  0  0  # atno 17395 bound_to 11000

$$$$
