AV-unprocessed.smi:1971|AV-procd|sdf|7969|dock1
  -GOLD-   2272010143D 1   1.00000     0.00000
 Structure written by MMmdl.
 43 44  0  0  0  0  0  0  0  0  3 V2000
  146.1991  143.1701  154.3362 C   0  0  0  0  0  0  0  0  0  0  0  0
  146.3140  142.2866  155.5868 C   0  0  0  0  0  0  0  0  0  0  0  0
  147.7209  142.0792  156.0105 N   0  3  0  0  0  0  0  0  0  0  0  0
  148.5414  141.4392  154.9525 C   0  0  0  0  0  0  0  0  0  0  0  0
  150.0033  141.2583  155.4216 C   0  0  0  0  0  0  0  0  0  0  0  0
  150.0965  140.4569  156.6515 N   0  0  0  0  0  0  0  0  0  0  0  0
  149.7296  139.0323  156.4852 C   0  0  1  0  0  0  0  0  0  0  0  0
  150.2457  138.5057  155.1250 C   0  0  0  0  0  0  0  0  0  0  0  0
  150.2684  138.1477  157.6435 C   0  0  0  0  0  0  0  0  0  0  0  0
  149.3443  138.0827  158.7720 N   0  0  0  0  0  0  0  0  0  0  0  0
  148.9339  136.9603  159.3806 C   0  0  0  0  0  0  0  0  0  0  0  0
  149.3311  135.8629  158.9801 O   0  0  0  0  0  0  0  0  0  0  0  0
  148.0933  137.1791  160.4163 N   0  5  0  0  0  0  0  0  0  0  0  0
  147.7716  136.1732  161.2460 C   0  0  0  0  0  0  0  0  0  0  0  0
  147.4587  134.9453  160.8165 N   0  0  0  0  0  0  0  0  0  0  0  0
  147.1674  134.0532  161.8499 C   0  0  0  0  0  0  0  0  0  0  0  0
  147.2672  134.6131  163.0959 C   0  0  0  0  0  0  0  0  0  0  0  0
  147.7338  136.2876  163.0076 S   0  0  0  0  0  0  0  0  0  0  0  0
  149.3422  141.1980  157.6719 C   0  0  0  0  0  0  0  0  0  0  0  0
  147.8541  141.3392  157.2907 C   0  0  0  0  0  0  0  0  0  0  0  0
  145.1649  143.2189  153.9949 H   0  0  0  0  0  0  0  0  0  0  0  0
  146.7980  142.7729  153.5161 H   0  0  0  0  0  0  0  0  0  0  0  0
  146.5231  144.1929  154.5271 H   0  0  0  0  0  0  0  0  0  0  0  0
  145.7329  142.7062  156.4093 H   0  0  0  0  0  0  0  0  0  0  0  0
  145.8677  141.3186  155.3549 H   0  0  0  0  0  0  0  0  0  0  0  0
  148.0982  140.4888  154.6540 H   0  0  0  0  0  0  0  0  0  0  0  0
  148.5321  142.0724  154.0648 H   0  0  0  0  0  0  0  0  0  0  0  0
  150.6088  140.8338  154.6233 H   0  0  0  0  0  0  0  0  0  0  0  0
  150.4417  142.2388  155.6137 H   0  0  0  0  0  0  0  0  0  0  0  0
  148.6451  138.9402  156.4859 H   0  0  0  0  0  0  0  0  0  0  0  0
  150.0633  137.4375  155.0092 H   0  0  0  0  0  0  0  0  0  0  0  0
  151.3195  138.6646  155.0201 H   0  0  0  0  0  0  0  0  0  0  0  0
  149.7481  138.9772  154.2793 H   0  0  0  0  0  0  0  0  0  0  0  0
  150.4529  137.1328  157.2899 H   0  0  0  0  0  0  0  0  0  0  0  0
  151.2133  138.5162  158.0403 H   0  0  0  0  0  0  0  0  0  0  0  0
  148.9936  138.9597  159.1284 H   0  0  0  0  0  0  0  0  0  0  0  0
  146.8991  133.0359  161.6070 H   0  0  0  0  0  0  0  0  0  0  0  0
  147.0977  134.1462  164.0542 H   0  0  0  0  0  0  0  0  0  0  0  0
  149.4527  140.7477  158.6564 H   0  0  0  0  0  0  0  0  0  0  0  0
  149.7809  142.1914  157.7762 H   0  0  0  0  0  0  0  0  0  0  0  0
  147.3439  141.8817  158.0855 H   0  0  0  0  0  0  0  0  0  0  0  0
  147.3694  140.3645  157.2201 H   0  0  0  0  0  0  0  0  0  0  0  0
  148.1198  142.9949  156.1597 H   0  0  0  0  0  0  0  0  0  0  0  0
  1  2  1  0  0  0  0
  1 21  1  0  0  0  0
  1 22  1  0  0  0  0
  1 23  1  0  0  0  0
  2  3  1  0  0  0  0
  2 24  1  0  0  0  0
  2 25  1  0  0  0  0
  3 20  1  0  0  0  0
  3  4  1  0  0  0  0
  3 43  1  0  0  0  0
  4  5  1  0  0  0  0
  4 26  1  0  0  0  0
  4 27  1  0  0  0  0
  5  6  1  0  0  0  0
  5 28  1  0  0  0  0
  5 29  1  0  0  0  0
  6  7  1  0  0  0  0
  6 19  1  0  0  0  0
  7  8  1  0  0  0  0
  7  9  1  0  0  0  0
  7 30  1  0  0  0  0
  8 31  1  0  0  0  0
  8 32  1  0  0  0  0
  8 33  1  0  0  0  0
  9 10  1  0  0  0  0
  9 34  1  0  0  0  0
  9 35  1  0  0  0  0
 10 11  1  0  0  0  0
 10 36  1  0  0  0  0
 11 12  2  0  0  0  0
 11 13  1  0  0  0  0
 13 14  1  0  0  0  0
 14 18  1  0  0  0  0
 14 15  2  0  0  0  0
 15 16  1  0  0  0  0
 16 17  2  0  0  0  0
 16 37  1  0  0  0  0
 17 18  1  0  0  0  0
 17 38  1  0  0  0  0
 19 20  1  0  0  0  0
 19 39  1  0  0  0  0
 19 40  1  0  0  0  0
 20 41  1  0  0  0  0
 20 42  1  0  0  0  0
M  CHG  1   3   1
M  CHG  1  13  -1
M  END
> <s_m_source_file>
AV-unprocessed.smi

> <i_m_source_file_index>
1971

> <i_lp_mmshare_version>
43012

> <i_f3d_flags>
0

> <s_epik_input>
W0NIM11bQ0gyXU4xW0NIMl1bQ0gyXU4oW0NIMl1bQ0gyXTEpW0NASF0oW0NIM10pW0NIMl1bTkhdQyg9TylbTkhdYzJuW2NIXVtjSF1zMg==

> <s_epik_cmdline>
J2VwaWtfcHl0aG9uJywgJy1waCcsICc3LjAnLCAnLXRuJywgJzgnLCAnLW1hJywgJzIwMCcsICctbWV0YWxfYmluZGluZycsICctaW1hZScsICc8aW5maWxlLm1hZT4nLCAnLW9tYWUnLCAnPG91dGZpbGUubWFlPic=

> <r_lp_tautomer_probability>
0.999

> <r_epik_Ionization_Penalty>
7.06996

> <r_epik_Ionization_Penalty_Charging>
5.92347

> <r_epik_Ionization_Penalty_Neutral>
1.14649

> <r_epik_State_Penalty>
6.04391

> <r_epik_Charging_Adjusted_Penalty>
11.9674

> <i_epik_Tot_Q>
0

> <i_epik_Tot_abs_Q>
2

> <r_epik_Metal_State_Penalty>
2.01291

> <b_epik_Metal_Only>
1

> <s_lp_Force_Field>
OPLS_2005

> <r_lp_Energy>
11.7698

> <b_lp_Chiralities_Consistent>
1

> <s_lp_Variant>
AV-unprocessed.smi:1971-8

> <Gold.Version>
5.8.1

> <Gold.Id.Protein>
6NUR|6NUR_protein|mol2

> <Gold.PLP.Fitness>
49.8968

> <Gold.PLP.PLP>
-36.3877

> <Gold.PLP.part.hbond>
-4.0000

> <Gold.PLP.part.metal>
0.0000

> <Gold.PLP.part.buried>
-5.3098

> <Gold.PLP.part.nonpolar>
-29.5448

> <Gold.PLP.part.repulsive>
0.2837

> <Gold.PLP.ligand.clash>
0.0000

> <Gold.PLP.ligand.torsion>
1.1337

> <Gold.PLP.Chemscore.Hbond>
5.1984

> <Gold.PLP.Chemscore.CHOScore>
0.0000

> <Gold.PLP.Chemscore.Metal>
0.0000

> <Gold.Chemscore.Hbonds>
donor molecule, donor type, donor heavy atom, donor atom, acceptor molecule, acceptor atom, score
      L1  H     3    43       P1  8028  2.00
      P1  H  6896  6908       L1    12  1.00
      P1  H  6931  6943       L1    13  0.97
      P1  H  6934  6947       L1    13  1.15

> <Gold.PLP.Chemscore.Internal.Correction>
0.1813

> <Gold.Rescore>
     Score         DG    S(hbond)    S(metal)    S(lipo)     H(rot)  DE(clash)    DE(int)     intcor
     15.39     -18.06       2.67        0.00      69.72       1.75       0.16       2.52       ----

> <Gold.Chemscore.Fitness>
15.3901

> <Gold.Chemscore.DG>
-18.0636

> <Gold.Chemscore.ZeroCoef>
-5.4800

> <Gold.Chemscore.Hbond>
2.6671

> <Gold.Chemscore.Metal>
0.0000

> <Gold.Chemscore.Lipo>
69.7177

> <Gold.Chemscore.Internal_Hbond>
0.0000

> <Gold.Chemscore.DEClash>
0.1572

> <Gold.Chemscore.DEInternal>
2.5163

> <Gold.Chemscore.Rot>
1.7505

> <Gold.Chemscore.Internal.Correction>
   9.000000E+99

> <Gold.Chemscore.Hbonds>
donor molecule, donor type, donor heavy atom, donor atom, acceptor molecule, acceptor atom, score
      L1  H     3    43       P1  8028  0.64
      P1  H  6896  6908       L1    12  0.97
      P1  H  6931  6943       L1    13  0.04
      P1  H  6934  6947       L1    13  0.50

> <Gold.Chemscore.Hbond.Weighted>
-8.9080

> <Gold.Chemscore.Metal.Weighted>
-0.0000

> <Gold.Chemscore.Lipo.Weighted>
-8.1570

> <Gold.Chemscore.Internal_Hbond.Weighted>
0.0000

> <Gold.Chemscore.DEClash.Weighted>
0.1572

> <Gold.Chemscore.DEInternal.Weighted>
2.5163

> <Gold.Chemscore.Rot.Weighted>
4.4813

> <Gold.Chemscore.Internal.Correction.Weighted>
   9.000000E+99

> <Gold.Protein.RotatedTorsions>
[ 6907 6896 6895 6894 ] final  163.79 input  -60.11 | X-H torsion
[ 7974 7965 7964 7962 ] final  130.66 input  175.53 | X-H torsion
[ 8008 7997 7996 7995 ] final   37.34 input   59.86 | X-H torsion
[ 10167 10162 10161 10158 ] final  -13.66 input  -65.29 | X-H torsion
[ 10718 10713 10712 10709 ] final  -72.45 input   66.30 | X-H torsion
[ 10763 10752 10751 10750 ] final   35.79 input  -60.55 | X-H torsion
[ 11005 11000 10999 10996 ] final  100.70 input  -57.11 | X-H torsion

> <Gold.Protein.ActiveResidues>
 VAL166  LYS551  ARG553  GLY616  TRP617  ASP618  TYR619  PRO620  LYS621  CYS622 
 ASP623  PHE694  ASN695  SER759  ASP760  ASP761  ALA762  ILE779  LEU786  VAL792 
 PHE793  MET794  SER795  GLU796  ALA797  LYS798  CYS799  TRP800  GLU811  SER814 

> <Gold.Protein.RotatedAtoms>
  151.9198  133.3582  159.3892 H   0  0  0  0  0  0  0  0  0  0  0  0  # atno 6907 bound_to 6896
  150.7039  134.4647  159.5406 H   0  0  0  0  0  0  0  0  0  0  0  0  # atno 6908 bound_to 6896
  152.2268  134.8360  160.0529 H   0  0  0  0  0  0  0  0  0  0  0  0  # atno 6909 bound_to 6896
  145.0155  139.4180  143.5223 H   0  0  0  0  0  0  0  0  0  0  0  0  # atno 7974 bound_to 7965
  155.2022  140.3316  155.4341 H   0  0  0  0  0  0  0  0  0  0  0  0  # atno 8008 bound_to 7997
  156.2402  140.1891  156.7058 H   0  0  0  0  0  0  0  0  0  0  0  0  # atno 8009 bound_to 7997
  154.6133  140.0606  156.9508 H   0  0  0  0  0  0  0  0  0  0  0  0  # atno 8010 bound_to 7997
  140.7186  143.5403  150.9417 H   0  0  0  0  0  0  0  0  0  0  0  0  # atno 10167 bound_to 10162
  156.0320  130.4372  150.2594 H   0  0  0  0  0  0  0  0  0  0  0  0  # atno 10718 bound_to 10713
  153.0104  135.6323  154.1882 H   0  0  0  0  0  0  0  0  0  0  0  0  # atno 10763 bound_to 10752
  154.1625  135.2823  155.3106 H   0  0  0  0  0  0  0  0  0  0  0  0  # atno 10764 bound_to 10752
  154.5971  135.5599  153.7397 H   0  0  0  0  0  0  0  0  0  0  0  0  # atno 10765 bound_to 10752
  139.8771  134.9151  156.4795 H   0  0  0  0  0  0  0  0  0  0  0  0  # atno 11005 bound_to 11000
  146.3477  139.9624  142.8716 LP  0  0  0  0  0  0  0  0  0  0  0  0  # atno 17320 bound_to 7965
  145.1965  140.9835  143.4180 LP  0  0  0  0  0  0  0  0  0  0  0  0  # atno 17321 bound_to 7965
  139.9125  143.6703  152.3112 LP  0  0  0  0  0  0  0  0  0  0  0  0  # atno 17342 bound_to 10162
  139.7091  144.7623  151.1143 LP  0  0  0  0  0  0  0  0  0  0  0  0  # atno 17343 bound_to 10162
  157.0696  131.0113  151.3195 LP  0  0  0  0  0  0  0  0  0  0  0  0  # atno 17370 bound_to 10713
  157.5009  130.7879  149.7604 LP  0  0  0  0  0  0  0  0  0  0  0  0  # atno 17371 bound_to 10713
  140.8737  133.7969  155.9392 LP  0  0  0  0  0  0  0  0  0  0  0  0  # atno 17394 bound_to 11000
  140.8926  134.2477  157.5086 LP  0  0  0  0  0  0  0  0  0  0  0  0  # atno 17395 bound_to 11000

$$$$
