AV-unprocessed.smi:685|AV-procd|sdf|3336|dock9
  -GOLD-   22720 0303D 1   1.00000     0.00000
 Structure written by MMmdl.
 51 52  0  0  0  0  0  0  0  0  2 V2000
  147.8808  140.8698  153.7680 C   0  0  0  0  0  0  0  0  0  0  0  0
  149.0938  140.8963  154.6365 C   0  0  0  0  0  0  0  0  0  0  0  0
  149.4552  141.9476  155.4198 N   0  3  0  0  0  0  0  0  0  0  0  0
  150.5874  141.6654  156.0805 N   0  0  0  0  0  0  0  0  0  0  0  0
  151.1491  142.6675  156.9864 C   0  0  0  0  0  0  0  0  0  0  0  0
  151.0246  140.4159  155.7544 C   0  0  0  0  0  0  0  0  0  0  0  0
  152.2597  139.7782  156.3030 C   0  0  0  0  0  0  0  0  0  0  0  0
  150.0805  139.9253  154.8432 C   0  0  0  0  0  0  0  0  0  0  0  0
  150.1053  138.5734  154.1873 C   0  0  0  0  0  0  0  0  0  0  0  0
  150.1855  137.4106  155.2005 C   0  0  1  0  0  0  0  0  0  0  0  0
  149.2266  137.5896  156.3877 C   0  0  0  0  0  0  0  0  0  0  0  0
  149.8949  136.1411  154.5399 N   0  0  0  0  0  0  0  0  0  0  0  0
  149.9628  134.9337  155.1231 C   0  0  0  0  0  0  0  0  0  0  0  0
  150.2933  134.7722  156.2984 O   0  0  0  0  0  0  0  0  0  0  0  0
  149.5979  133.7329  154.2453 C   0  0  0  0  0  0  0  0  0  0  0  0
  148.1208  133.7378  153.8073 C   0  0  0  0  0  0  0  0  0  0  0  0
  147.7152  132.4722  153.0312 C   0  0  0  0  0  0  0  0  0  0  0  0
  146.2814  132.5193  152.4987 C   0  0  0  0  0  0  0  0  0  0  0  0
  145.9241  131.0604  152.1984 C   0  0  0  0  0  0  0  0  0  0  0  0
  146.8242  130.2047  153.1025 C   0  0  0  0  0  0  0  0  0  0  0  0
  147.7330  131.1821  153.8578 C   0  0  0  0  0  0  0  0  0  0  0  0
  147.3554  139.9211  153.8791 H   0  0  0  0  0  0  0  0  0  0  0  0
  148.1648  140.9884  152.7223 H   0  0  0  0  0  0  0  0  0  0  0  0
  147.1978  141.6761  154.0363 H   0  0  0  0  0  0  0  0  0  0  0  0
  151.5511  142.1690  157.8690 H   0  0  0  0  0  0  0  0  0  0  0  0
  150.3741  143.3710  157.2939 H   0  0  0  0  0  0  0  0  0  0  0  0
  151.9485  143.2025  156.4731 H   0  0  0  0  0  0  0  0  0  0  0  0
  152.6585  139.0453  155.6022 H   0  0  0  0  0  0  0  0  0  0  0  0
  152.0348  139.2750  157.2431 H   0  0  0  0  0  0  0  0  0  0  0  0
  153.0303  140.5279  156.4834 H   0  0  0  0  0  0  0  0  0  0  0  0
  149.2326  138.4413  153.5470 H   0  0  0  0  0  0  0  0  0  0  0  0
  150.9602  138.5294  153.5116 H   0  0  0  0  0  0  0  0  0  0  0  0
  151.1995  137.3572  155.6007 H   0  0  0  0  0  0  0  0  0  0  0  0
  149.4498  138.4985  156.9466 H   0  0  0  0  0  0  0  0  0  0  0  0
  149.3053  136.7541  157.0841 H   0  0  0  0  0  0  0  0  0  0  0  0
  148.1894  137.6483  156.0559 H   0  0  0  0  0  0  0  0  0  0  0  0
  149.6123  136.1835  153.5713 H   0  0  0  0  0  0  0  0  0  0  0  0
  150.2456  133.7442  153.3681 H   0  0  0  0  0  0  0  0  0  0  0  0
  149.8201  132.8121  154.7858 H   0  0  0  0  0  0  0  0  0  0  0  0
  147.4761  133.8575  154.6795 H   0  0  0  0  0  0  0  0  0  0  0  0
  147.9353  134.6048  153.1713 H   0  0  0  0  0  0  0  0  0  0  0  0
  148.3859  132.3465  152.1794 H   0  0  0  0  0  0  0  0  0  0  0  0
  145.6111  132.9056  153.2681 H   0  0  0  0  0  0  0  0  0  0  0  0
  146.1821  133.1610  151.6226 H   0  0  0  0  0  0  0  0  0  0  0  0
  144.8652  130.8635  152.3689 H   0  0  0  0  0  0  0  0  0  0  0  0
  146.1335  130.8337  151.1523 H   0  0  0  0  0  0  0  0  0  0  0  0
  146.2417  129.5950  153.7939 H   0  0  0  0  0  0  0  0  0  0  0  0
  147.4209  129.5249  152.4930 H   0  0  0  0  0  0  0  0  0  0  0  0
  148.7400  130.7864  153.9936 H   0  0  0  0  0  0  0  0  0  0  0  0
  147.3168  131.3700  154.8487 H   0  0  0  0  0  0  0  0  0  0  0  0
  148.9874  142.8374  155.5387 H   0  0  0  0  0  0  0  0  0  0  0  0
  1  2  1  0  0  0  0
  1 22  1  0  0  0  0
  1 23  1  0  0  0  0
  1 24  1  0  0  0  0
  2  8  1  0  0  0  0
  2  3  2  0  0  0  0
  3  4  1  0  0  0  0
  3 51  1  0  0  0  0
  4  5  1  0  0  0  0
  4  6  1  0  0  0  0
  5 25  1  0  0  0  0
  5 26  1  0  0  0  0
  5 27  1  0  0  0  0
  6  7  1  0  0  0  0
  6  8  2  0  0  0  0
  7 28  1  0  0  0  0
  7 29  1  0  0  0  0
  7 30  1  0  0  0  0
  8  9  1  0  0  0  0
  9 10  1  0  0  0  0
  9 31  1  0  0  0  0
  9 32  1  0  0  0  0
 10 11  1  0  0  0  0
 10 12  1  0  0  0  0
 10 33  1  0  0  0  0
 11 34  1  0  0  0  0
 11 35  1  0  0  0  0
 11 36  1  0  0  0  0
 12 13  1  0  0  0  0
 12 37  1  0  0  0  0
 13 14  2  0  0  0  0
 13 15  1  0  0  0  0
 15 16  1  0  0  0  0
 15 38  1  0  0  0  0
 15 39  1  0  0  0  0
 16 17  1  0  0  0  0
 16 40  1  0  0  0  0
 16 41  1  0  0  0  0
 17 21  1  0  0  0  0
 17 18  1  0  0  0  0
 17 42  1  0  0  0  0
 18 19  1  0  0  0  0
 18 43  1  0  0  0  0
 18 44  1  0  0  0  0
 19 20  1  0  0  0  0
 19 45  1  0  0  0  0
 19 46  1  0  0  0  0
 20 21  1  0  0  0  0
 20 47  1  0  0  0  0
 20 48  1  0  0  0  0
 21 49  1  0  0  0  0
 21 50  1  0  0  0  0
M  CHG  1   3   1
M  END
> <s_m_source_file>
AV-unprocessed.smi

> <i_m_source_file_index>
685

> <i_lp_mmshare_version>
43012

> <i_f3d_flags>
0

> <s_epik_input>
W0NIM11jMW5uKFtDSDNdKWMoW0NIM10pYzFbQ0gyXVtDQEhdKFtDSDNdKVtOSF1DKD1PKVtDSDJdW0NIMl1bQ0hdMltDSDJdW0NIMl1bQ0gyXVtDSDJdMg==

> <s_epik_cmdline>
J2VwaWtfcHl0aG9uJywgJy1waCcsICc3LjAnLCAnLXRuJywgJzgnLCAnLW1hJywgJzIwMCcsICctbWV0YWxfYmluZGluZycsICctaW1hZScsICc8aW5maWxlLm1hZT4nLCAnLW9tYWUnLCAnPG91dGZpbGUubWFlPic=

> <r_lp_tautomer_probability>
1

> <r_epik_Ionization_Penalty>
2.26429

> <r_epik_Ionization_Penalty_Charging>
2.26429

> <r_epik_Ionization_Penalty_Neutral>
2.3289e-07

> <r_epik_State_Penalty>
2.41237

> <r_epik_Charging_Adjusted_Penalty>
4.67666

> <i_epik_Tot_Q>
1

> <i_epik_Tot_abs_Q>
1

> <r_epik_Metal_State_Penalty>
2.42525

> <b_epik_Metal_Only>
0

> <s_lp_Force_Field>
OPLS_2005

> <r_lp_Energy>
28.4866

> <b_lp_Chiralities_Consistent>
1

> <s_lp_Variant>
AV-unprocessed.smi:685-4

> <Gold.Version>
5.8.1

> <Gold.Id.Protein>
6NUR|6NUR_protein|mol2

> <Gold.PLP.Fitness>
49.6669

> <Gold.PLP.PLP>
-40.9579

> <Gold.PLP.part.hbond>
-2.3326

> <Gold.PLP.part.metal>
0.0000

> <Gold.PLP.part.buried>
-1.1473

> <Gold.PLP.part.nonpolar>
-37.4707

> <Gold.PLP.part.repulsive>
0.2300

> <Gold.PLP.ligand.clash>
0.0000

> <Gold.PLP.ligand.torsion>
0.1845

> <Gold.PLP.Chemscore.Hbond>
3.0000

> <Gold.PLP.Chemscore.CHOScore>
0.0000

> <Gold.PLP.Chemscore.Metal>
0.0000

> <Gold.Chemscore.Hbonds>
donor molecule, donor type, donor heavy atom, donor atom, acceptor molecule, acceptor atom, score
      L1  H     3    51       P1  8028  2.00
      L1  H    12    37       P1  7948  1.00

> <Gold.PLP.Chemscore.Internal.Correction>
0.0779

> <Gold.Rescore>
     Score         DG    S(hbond)    S(metal)    S(lipo)     H(rot)  DE(clash)    DE(int)     intcor
     17.63     -18.80       1.87        0.00      95.73       1.61       0.03       1.14       ----

> <Gold.Chemscore.Fitness>
17.6317

> <Gold.Chemscore.DG>
-18.8036

> <Gold.Chemscore.ZeroCoef>
-5.4800

> <Gold.Chemscore.Hbond>
1.8694

> <Gold.Chemscore.Metal>
0.0000

> <Gold.Chemscore.Lipo>
95.7281

> <Gold.Chemscore.Internal_Hbond>
0.0000

> <Gold.Chemscore.DEClash>
0.0346

> <Gold.Chemscore.DEInternal>
1.1373

> <Gold.Chemscore.Rot>
1.6095

> <Gold.Chemscore.Internal.Correction>
   9.000000E+99

> <Gold.Chemscore.Hbonds>
donor molecule, donor type, donor heavy atom, donor atom, acceptor molecule, acceptor atom, score
      L1  H     3    51       P1  8028  0.98
      L1  H    12    37       P1  7948  0.40

> <Gold.Chemscore.Hbond.Weighted>
-6.2436

> <Gold.Chemscore.Metal.Weighted>
-0.0000

> <Gold.Chemscore.Lipo.Weighted>
-11.2002

> <Gold.Chemscore.Internal_Hbond.Weighted>
0.0000

> <Gold.Chemscore.DEClash.Weighted>
0.0346

> <Gold.Chemscore.DEInternal.Weighted>
1.1373

> <Gold.Chemscore.Rot.Weighted>
4.1202

> <Gold.Chemscore.Internal.Correction.Weighted>
   9.000000E+99

> <Gold.Protein.RotatedTorsions>
[ 6907 6896 6895 6894 ] final  -58.80 input  -60.11 | X-H torsion
[ 7974 7965 7964 7962 ] final   20.95 input  175.53 | X-H torsion
[ 8008 7997 7996 7995 ] final -140.10 input   59.86 | X-H torsion
[ 10167 10162 10161 10158 ] final  -79.41 input  -65.29 | X-H torsion
[ 10718 10713 10712 10709 ] final  106.46 input   66.30 | X-H torsion
[ 10763 10752 10751 10750 ] final  171.74 input  -60.55 | X-H torsion
[ 11005 11000 10999 10996 ] final  140.30 input  -57.11 | X-H torsion

> <Gold.Protein.ActiveResidues>
 VAL166  LYS551  ARG553  GLY616  TRP617  ASP618  TYR619  PRO620  LYS621  CYS622 
 ASP623  PHE694  ASN695  SER759  ASP760  ASP761  ALA762  ILE779  LEU786  VAL792 
 PHE793  MET794  SER795  GLU796  ALA797  LYS798  CYS799  TRP800  GLU811  SER814 

> <Gold.Protein.RotatedAtoms>
  150.7979  134.7051  159.6571 H   0  0  0  0  0  0  0  0  0  0  0  0  # atno 6907 bound_to 6896
  152.4093  134.6149  160.0045 H   0  0  0  0  0  0  0  0  0  0  0  0  # atno 6908 bound_to 6896
  151.6397  133.3290  159.3163 H   0  0  0  0  0  0  0  0  0  0  0  0  # atno 6909 bound_to 6896
  146.2091  139.8097  142.8703 H   0  0  0  0  0  0  0  0  0  0  0  0  # atno 7974 bound_to 7965
  155.4559  140.0542  157.2996 H   0  0  0  0  0  0  0  0  0  0  0  0  # atno 8008 bound_to 7997
  154.4758  140.2060  155.9838 H   0  0  0  0  0  0  0  0  0  0  0  0  # atno 8009 bound_to 7997
  156.1129  140.3201  155.8102 H   0  0  0  0  0  0  0  0  0  0  0  0  # atno 8010 bound_to 7997
  140.4595  143.2458  151.8369 H   0  0  0  0  0  0  0  0  0  0  0  0  # atno 10167 bound_to 10162
  157.6667  131.0851  150.6010 H   0  0  0  0  0  0  0  0  0  0  0  0  # atno 10718 bound_to 10713
  154.4161  135.2757  155.2005 H   0  0  0  0  0  0  0  0  0  0  0  0  # atno 10763 bound_to 10752
  154.3971  135.6053  153.5879 H   0  0  0  0  0  0  0  0  0  0  0  0  # atno 10764 bound_to 10752
  152.9832  135.5917  154.4450 H   0  0  0  0  0  0  0  0  0  0  0  0  # atno 10765 bound_to 10752
  140.0317  134.9348  157.0675 H   0  0  0  0  0  0  0  0  0  0  0  0  # atno 11005 bound_to 11000
  145.3209  141.0243  143.3501 LP  0  0  0  0  0  0  0  0  0  0  0  0  # atno 17320 bound_to 7965
  144.8867  139.4829  143.6697 LP  0  0  0  0  0  0  0  0  0  0  0  0  # atno 17321 bound_to 7965
  139.4805  144.5024  151.9042 LP  0  0  0  0  0  0  0  0  0  0  0  0  # atno 17342 bound_to 10162
  140.4110  144.2369  150.5889 LP  0  0  0  0  0  0  0  0  0  0  0  0  # atno 17343 bound_to 10162
  156.6310  130.4432  149.5786 LP  0  0  0  0  0  0  0  0  0  0  0  0  # atno 17370 bound_to 10713
  156.2282  130.6778  151.1437 LP  0  0  0  0  0  0  0  0  0  0  0  0  # atno 17371 bound_to 10713
  140.4214  134.1876  155.7164 LP  0  0  0  0  0  0  0  0  0  0  0  0  # atno 17394 bound_to 11000
  141.1835  133.8364  157.1174 LP  0  0  0  0  0  0  0  0  0  0  0  0  # atno 17395 bound_to 11000

$$$$
