AV-unprocessed.smi:2099|AV-procd|sdf|8572|dock1
  -GOLD-   2272011303D 1   1.00000     0.00000
 Structure written by MMmdl.
 31 32  0  0  0  0  0  0  0  0  2 V2000
  150.7751  142.4741  157.8952 C   0  0  0  0  0  0  0  0  0  0  0  0
  150.6360  141.0821  157.2631 C   0  0  2  0  0  0  0  0  0  0  0  0
  149.1746  140.7833  156.8775 C   0  0  0  0  0  0  0  0  0  0  0  0
  149.0285  139.3864  156.2490 C   0  0  0  0  0  0  0  0  0  0  0  0
  149.5826  138.2743  157.1653 C   0  0  2  0  0  0  0  0  0  0  0  0
  148.7528  138.0956  158.3567 N   0  0  0  0  0  0  0  0  0  0  0  0
  148.8607  137.1120  159.2614 C   0  0  0  0  0  0  0  0  0  0  0  0
  149.7313  136.2482  159.1324 O   0  0  0  0  0  0  0  0  0  0  0  0
  147.9483  137.1876  160.2571 N   0  5  0  0  0  0  0  0  0  0  0  0
  147.5099  136.0664  160.8528 C   0  0  0  0  0  0  0  0  0  0  0  0
  147.3983  134.8999  160.1971 N   0  0  0  0  0  0  0  0  0  0  0  0
  146.9342  133.8656  160.9985 N   0  0  0  0  0  0  0  0  0  0  0  0
  146.7143  134.2792  162.2464 C   0  0  0  0  0  0  0  0  0  0  0  0
  147.0561  135.9681  162.5566 S   0  0  0  0  0  0  0  0  0  0  0  0
  151.0364  138.5825  157.5730 C   0  0  0  0  0  0  0  0  0  0  0  0
  151.1834  139.9835  158.1945 C   0  0  0  0  0  0  0  0  0  0  0  0
  150.2020  142.5479  158.8202 H   0  0  0  0  0  0  0  0  0  0  0  0
  150.4172  143.2504  157.2184 H   0  0  0  0  0  0  0  0  0  0  0  0
  151.8164  142.6966  158.1300 H   0  0  0  0  0  0  0  0  0  0  0  0
  151.2319  141.0752  156.3493 H   0  0  0  0  0  0  0  0  0  0  0  0
  148.5364  140.8558  157.7594 H   0  0  0  0  0  0  0  0  0  0  0  0
  148.8132  141.5358  156.1761 H   0  0  0  0  0  0  0  0  0  0  0  0
  147.9833  139.1967  156.0033 H   0  0  0  0  0  0  0  0  0  0  0  0
  149.5667  139.3661  155.3007 H   0  0  0  0  0  0  0  0  0  0  0  0
  149.5832  137.3333  156.6124 H   0  0  0  0  0  0  0  0  0  0  0  0
  148.0255  138.7793  158.5069 H   0  0  0  0  0  0  0  0  0  0  0  0
  146.3518  133.5848  162.9897 H   0  0  0  0  0  0  0  0  0  0  0  0
  151.4016  137.8254  158.2681 H   0  0  0  0  0  0  0  0  0  0  0  0
  151.6755  138.5164  156.6916 H   0  0  0  0  0  0  0  0  0  0  0  0
  152.2342  140.1735  158.4157 H   0  0  0  0  0  0  0  0  0  0  0  0
  150.6602  140.0163  159.1511 H   0  0  0  0  0  0  0  0  0  0  0  0
  1  2  1  0  0  0  0
  1 17  1  0  0  0  0
  1 18  1  0  0  0  0
  1 19  1  0  0  0  0
  2 16  1  0  0  0  0
  2  3  1  0  0  0  0
  2 20  1  0  0  0  0
  3  4  1  0  0  0  0
  3 21  1  0  0  0  0
  3 22  1  0  0  0  0
  4  5  1  0  0  0  0
  4 23  1  0  0  0  0
  4 24  1  0  0  0  0
  5  6  1  0  0  0  0
  5 15  1  0  0  0  0
  5 25  1  0  0  0  0
  6  7  1  0  0  0  0
  6 26  1  0  0  0  0
  7  8  2  0  0  0  0
  7  9  1  0  0  0  0
  9 10  1  0  0  0  0
 10 14  1  0  0  0  0
 10 11  2  0  0  0  0
 11 12  1  0  0  0  0
 12 13  2  0  0  0  0
 13 14  1  0  0  0  0
 13 27  1  0  0  0  0
 15 16  1  0  0  0  0
 15 28  1  0  0  0  0
 15 29  1  0  0  0  0
 16 30  1  0  0  0  0
 16 31  1  0  0  0  0
M  CHG  1   9  -1
M  END
> <s_m_source_file>
AV-unprocessed.smi

> <i_m_source_file_index>
2099

> <i_lp_mmshare_version>
43012

> <i_f3d_flags>
0

> <s_epik_input>
W0NIM11bQ0BASF0xW0NIMl1bQ0gyXVtDQEhdKFtDSDJdW0NIMl0xKVtOSF1DKD1PKVtOSF1jMm5uW2NIXXMy

> <s_epik_cmdline>
J2VwaWtfcHl0aG9uJywgJy1waCcsICc3LjAnLCAnLXRuJywgJzgnLCAnLW1hJywgJzIwMCcsICctbWV0YWxfYmluZGluZycsICctaW1hZScsICc8aW5maWxlLm1hZT4nLCAnLW9tYWUnLCAnPG91dGZpbGUubWFlPic=

> <r_lp_tautomer_probability>
1

> <r_epik_Ionization_Penalty>
4.54895

> <r_epik_Ionization_Penalty_Charging>
4.4996

> <r_epik_Ionization_Penalty_Neutral>
0.0493438

> <r_epik_State_Penalty>
4.4993

> <r_epik_Charging_Adjusted_Penalty>
8.99891

> <i_epik_Tot_Q>
-1

> <i_epik_Tot_abs_Q>
1

> <r_epik_Metal_State_Penalty>
0.819079

> <b_epik_Metal_Only>
1

> <s_lp_Force_Field>
OPLS_2005

> <r_lp_Energy>
5.8403

> <b_lp_Chiralities_Consistent>
1

> <s_lp_Variant>
AV-unprocessed.smi:2099-4

> <Gold.Version>
5.8.1

> <Gold.Id.Protein>
6NUR|6NUR_protein|mol2

> <Gold.PLP.Fitness>
35.3885

> <Gold.PLP.PLP>
-25.5540

> <Gold.PLP.part.hbond>
-3.0000

> <Gold.PLP.part.metal>
0.0000

> <Gold.PLP.part.buried>
-4.6578

> <Gold.PLP.part.nonpolar>
-18.5086

> <Gold.PLP.part.repulsive>
0.1618

> <Gold.PLP.ligand.clash>
0.0000

> <Gold.PLP.ligand.torsion>
0.4618

> <Gold.PLP.Chemscore.Hbond>
3.5804

> <Gold.PLP.Chemscore.CHOScore>
0.0000

> <Gold.PLP.Chemscore.Metal>
0.0000

> <Gold.Chemscore.Hbonds>
donor molecule, donor type, donor heavy atom, donor atom, acceptor molecule, acceptor atom, score
      P1  H  6896  6908       L1     8  1.00
      P1  H  6931  6943       L1     9  0.67
      P1  H  6934  6947       L1     9  1.32

> <Gold.PLP.Chemscore.Internal.Correction>
0.0170

> <Gold.Rescore>
     Score         DG    S(hbond)    S(metal)    S(lipo)     H(rot)  DE(clash)    DE(int)     intcor
     13.40     -14.98       2.08        0.00      43.60       1.00       0.00       1.58       ----

> <Gold.Chemscore.Fitness>
13.3998

> <Gold.Chemscore.DG>
-14.9796

> <Gold.Chemscore.ZeroCoef>
-5.4800

> <Gold.Chemscore.Hbond>
2.0832

> <Gold.Chemscore.Metal>
0.0000

> <Gold.Chemscore.Lipo>
43.6039

> <Gold.Chemscore.Internal_Hbond>
0.0000

> <Gold.Chemscore.DEClash>
0.0000

> <Gold.Chemscore.DEInternal>
1.5798

> <Gold.Chemscore.Rot>
1.0000

> <Gold.Chemscore.Internal.Correction>
   9.000000E+99

> <Gold.Chemscore.Hbonds>
donor molecule, donor type, donor heavy atom, donor atom, acceptor molecule, acceptor atom, score
      P1  H  6896  6908       L1     8  1.00
      P1  H  6931  6943       L1     9  0.06
      P1  H  6934  6947       L1     9  0.61

> <Gold.Chemscore.Hbond.Weighted>
-6.9579

> <Gold.Chemscore.Metal.Weighted>
-0.0000

> <Gold.Chemscore.Lipo.Weighted>
-5.1017

> <Gold.Chemscore.Internal_Hbond.Weighted>
0.0000

> <Gold.Chemscore.DEClash.Weighted>
0.0000

> <Gold.Chemscore.DEInternal.Weighted>
1.5798

> <Gold.Chemscore.Rot.Weighted>
2.5600

> <Gold.Chemscore.Internal.Correction.Weighted>
   9.000000E+99

> <Gold.Protein.RotatedTorsions>
[ 6907 6896 6895 6894 ] final -167.73 input  -60.11 | X-H torsion
[ 7974 7965 7964 7962 ] final  120.74 input  175.53 | X-H torsion
[ 8008 7997 7996 7995 ] final -158.47 input   59.86 | X-H torsion
[ 10167 10162 10161 10158 ] final -146.35 input  -65.29 | X-H torsion
[ 10718 10713 10712 10709 ] final -176.52 input   66.30 | X-H torsion
[ 10763 10752 10751 10750 ] final   68.95 input  -60.55 | X-H torsion
[ 11005 11000 10999 10996 ] final   83.65 input  -57.11 | X-H torsion

> <Gold.Protein.ActiveResidues>
 VAL166  LYS551  ARG553  GLY616  TRP617  ASP618  TYR619  PRO620  LYS621  CYS622 
 ASP623  PHE694  ASN695  SER759  ASP760  ASP761  ALA762  ILE779  LEU786  VAL792 
 PHE793  MET794  SER795  GLU796  ALA797  LYS798  CYS799  TRP800  GLU811  SER814 

> <Gold.Protein.RotatedAtoms>
  151.4643  133.3585  159.2813 H   0  0  0  0  0  0  0  0  0  0  0  0  # atno 6907 bound_to 6896
  150.9004  134.8418  159.7367 H   0  0  0  0  0  0  0  0  0  0  0  0  # atno 6908 bound_to 6896
  152.4876  134.4562  159.9642 H   0  0  0  0  0  0  0  0  0  0  0  0  # atno 6909 bound_to 6896
  145.1275  139.3348  143.4682 H   0  0  0  0  0  0  0  0  0  0  0  0  # atno 7974 bound_to 7965
  155.7480  140.0823  157.2215 H   0  0  0  0  0  0  0  0  0  0  0  0  # atno 8008 bound_to 7997
  154.4015  140.1565  156.2747 H   0  0  0  0  0  0  0  0  0  0  0  0  # atno 8009 bound_to 7997
  155.8958  140.3412  155.5992 H   0  0  0  0  0  0  0  0  0  0  0  0  # atno 8010 bound_to 7997
  139.7721  143.8222  152.2626 H   0  0  0  0  0  0  0  0  0  0  0  0  # atno 10167 bound_to 10162
  156.8159  130.9602  151.3114 H   0  0  0  0  0  0  0  0  0  0  0  0  # atno 10718 bound_to 10713
  153.0262  135.5228  154.7214 H   0  0  0  0  0  0  0  0  0  0  0  0  # atno 10763 bound_to 10752
  154.6268  135.2895  155.0265 H   0  0  0  0  0  0  0  0  0  0  0  0  # atno 10764 bound_to 10752
  154.1231  135.6604  153.4959 H   0  0  0  0  0  0  0  0  0  0  0  0  # atno 10765 bound_to 10752
  139.9024  134.8160  156.2338 H   0  0  0  0  0  0  0  0  0  0  0  0  # atno 11005 bound_to 11000
  146.3516  140.1261  142.8598 LP  0  0  0  0  0  0  0  0  0  0  0  0  # atno 17320 bound_to 7965
  145.0672  140.9129  143.4904 LP  0  0  0  0  0  0  0  0  0  0  0  0  # atno 17321 bound_to 7965
  139.8260  144.7275  150.9511 LP  0  0  0  0  0  0  0  0  0  0  0  0  # atno 17342 bound_to 10162
  140.7814  143.4114  151.0986 LP  0  0  0  0  0  0  0  0  0  0  0  0  # atno 17343 bound_to 10162
  157.6482  130.8862  149.9580 LP  0  0  0  0  0  0  0  0  0  0  0  0  # atno 17370 bound_to 10713
  156.1017  130.3655  150.0206 LP  0  0  0  0  0  0  0  0  0  0  0  0  # atno 17371 bound_to 10713
  141.0328  133.6979  156.1460 LP  0  0  0  0  0  0  0  0  0  0  0  0  # atno 17394 bound_to 11000
  140.7071  134.4502  157.5583 LP  0  0  0  0  0  0  0  0  0  0  0  0  # atno 17395 bound_to 11000

$$$$
