AV-unprocessed.smi:1867|AV-procd|sdf|7582|dock1
  -GOLD-   22720 9293D 1   1.00000     0.00000
 Structure written by MMmdl.
 52 55  0  0  0  0  0  0  0  0  4 V2000
  150.5575  137.1221  156.0561 O   0  0  0  0  0  0  0  0  0  0  0  0
  149.4537  137.4759  155.6495 C   0  0  0  0  0  0  0  0  0  0  0  0
  149.0692  138.7685  155.7950 N   0  0  0  0  0  0  0  0  0  0  0  0
  149.7380  139.8814  156.3789 C   0  0  0  0  0  0  0  0  0  0  0  0
  150.7670  139.5946  157.3008 C   0  0  0  0  0  0  0  0  0  0  0  0
  151.4729  140.6459  157.9202 C   0  0  0  0  0  0  0  0  0  0  0  0
  151.1408  141.9862  157.6150 C   0  0  0  0  0  0  0  0  0  0  0  0
  151.8041  143.0868  158.1896 N   0  0  0  0  0  0  0  0  0  0  0  0
  151.3191  144.4452  158.0032 C   0  0  0  0  0  0  0  0  0  0  0  0
  152.1930  145.2956  158.9231 C   0  0  0  0  0  0  0  0  0  0  0  0
  152.4824  144.3532  160.0915 C   0  0  0  0  0  0  0  0  0  0  0  0
  152.5230  142.9607  159.4500 C   0  0  0  0  0  0  0  0  0  0  0  0
  150.1494  142.2178  156.7224 N   0  3  0  0  0  0  0  0  0  0  0  0
  149.4481  141.2412  156.1070 C   0  0  0  0  0  0  0  0  0  0  0  0
  148.6082  136.5815  155.0539 N   0  5  0  0  0  0  0  0  0  0  0  0
  148.1561  135.2581  155.5246 C   0  0  2  0  0  0  0  0  0  0  0  0
  149.3797  134.3388  155.7009 C   0  0  0  0  0  0  0  0  0  0  0  0
  149.5697  133.6192  154.3484 C   0  0  0  0  0  0  0  0  0  0  0  0
  148.4434  134.0586  153.5005 N   0  3  1  0  0  0  0  0  0  0  0  0
  147.9537  133.1052  152.4801 C   0  0  0  0  0  0  0  0  0  0  0  0
  146.8286  133.7642  151.6563 C   0  0  0  0  0  0  0  0  0  0  0  0
  145.7036  134.3145  152.5566 C   0  0  0  0  0  0  0  0  0  0  0  0
  146.2699  135.2531  153.6397 C   0  0  0  0  0  0  0  0  0  0  0  0
  147.3867  134.5199  154.4160 C   0  0  2  0  0  0  0  0  0  0  0  0
  148.1457  138.9706  155.4405 H   0  0  0  0  0  0  0  0  0  0  0  0
  151.0204  138.5704  157.5331 H   0  0  0  0  0  0  0  0  0  0  0  0
  152.2644  140.4102  158.6160 H   0  0  0  0  0  0  0  0  0  0  0  0
  151.3988  144.7636  156.9632 H   0  0  0  0  0  0  0  0  0  0  0  0
  150.2725  144.5037  158.3055 H   0  0  0  0  0  0  0  0  0  0  0  0
  153.1249  145.5514  158.4166 H   0  0  0  0  0  0  0  0  0  0  0  0
  151.7095  146.2234  159.2302 H   0  0  0  0  0  0  0  0  0  0  0  0
  153.4022  144.6024  160.6216 H   0  0  0  0  0  0  0  0  0  0  0  0
  151.6609  144.4012  160.8076 H   0  0  0  0  0  0  0  0  0  0  0  0
  152.0758  142.2157  160.1089 H   0  0  0  0  0  0  0  0  0  0  0  0
  153.5503  142.6610  159.2405 H   0  0  0  0  0  0  0  0  0  0  0  0
  148.6904  141.6030  155.4302 H   0  0  0  0  0  0  0  0  0  0  0  0
  147.5660  135.3032  156.4409 H   0  0  0  0  0  0  0  0  0  0  0  0
  150.2760  134.8770  156.0138 H   0  0  0  0  0  0  0  0  0  0  0  0
  149.1698  133.5987  156.4741 H   0  0  0  0  0  0  0  0  0  0  0  0
  150.5155  133.8814  153.8728 H   0  0  0  0  0  0  0  0  0  0  0  0
  149.5520  132.5372  154.4891 H   0  0  0  0  0  0  0  0  0  0  0  0
  148.7776  132.8137  151.8280 H   0  0  0  0  0  0  0  0  0  0  0  0
  147.5891  132.1989  152.9660 H   0  0  0  0  0  0  0  0  0  0  0  0
  147.2459  134.5801  151.0647 H   0  0  0  0  0  0  0  0  0  0  0  0
  146.4194  133.0468  150.9445 H   0  0  0  0  0  0  0  0  0  0  0  0
  144.9643  134.8419  151.9531 H   0  0  0  0  0  0  0  0  0  0  0  0
  145.1798  133.4842  153.0317 H   0  0  0  0  0  0  0  0  0  0  0  0
  146.6495  136.1573  153.1599 H   0  0  0  0  0  0  0  0  0  0  0  0
  145.4703  135.5668  154.3125 H   0  0  0  0  0  0  0  0  0  0  0  0
  146.9409  133.6341  154.8745 H   0  0  0  0  0  0  0  0  0  0  0  0
  148.7618  134.8888  153.0206 H   0  0  0  0  0  0  0  0  0  0  0  0
  149.9154  143.1857  156.5012 H   0  0  0  0  0  0  0  0  0  0  0  0
  1  2  2  0  0  0  0
  2  3  1  0  0  0  0
  2 15  1  0  0  0  0
  3  4  1  0  0  0  0
  3 25  1  0  0  0  0
  4 14  1  0  0  0  0
  4  5  2  0  0  0  0
  5  6  1  0  0  0  0
  5 26  1  0  0  0  0
  6  7  2  0  0  0  0
  6 27  1  0  0  0  0
  7  8  1  0  0  0  0
  7 13  1  0  0  0  0
  8 12  1  0  0  0  0
  8  9  1  0  0  0  0
  9 10  1  0  0  0  0
  9 28  1  0  0  0  0
  9 29  1  0  0  0  0
 10 11  1  0  0  0  0
 10 30  1  0  0  0  0
 10 31  1  0  0  0  0
 11 12  1  0  0  0  0
 11 32  1  0  0  0  0
 11 33  1  0  0  0  0
 12 34  1  0  0  0  0
 12 35  1  0  0  0  0
 13 14  2  0  0  0  0
 13 52  1  0  0  0  0
 14 36  1  0  0  0  0
 15 16  1  0  0  0  0
 16 24  1  0  0  0  0
 16 17  1  0  0  0  0
 16 37  1  0  0  0  0
 17 18  1  0  0  0  0
 17 38  1  0  0  0  0
 17 39  1  0  0  0  0
 18 19  1  0  0  0  0
 18 40  1  0  0  0  0
 18 41  1  0  0  0  0
 19 24  1  0  0  0  0
 19 20  1  0  0  0  0
 19 51  1  0  0  0  0
 20 21  1  0  0  0  0
 20 42  1  0  0  0  0
 20 43  1  0  0  0  0
 21 22  1  0  0  0  0
 21 44  1  0  0  0  0
 21 45  1  0  0  0  0
 22 23  1  0  0  0  0
 22 46  1  0  0  0  0
 22 47  1  0  0  0  0
 23 24  1  0  0  0  0
 23 48  1  0  0  0  0
 23 49  1  0  0  0  0
 24 50  1  0  0  0  0
M  CHG  1  13   1
M  CHG  1  15  -1
M  CHG  1  19   1
M  END
> <s_m_source_file>
AV-unprocessed.smi

> <i_m_source_file_index>
1867

> <i_lp_mmshare_version>
43012

> <i_f3d_flags>
0

> <s_epik_input>
W0NIMl0xW0NIMl1bQ0gyXVtDSDJdW0NASF0oTjEyKVtDQEBIXShbQ0gyXVtDSDJdMilbTkhdQyg9TylbTkhdYzNbY0hdW2NIXWMobltjSF0zKU40W0NIMl1bQ0gyXVtDSDJdW0NIMl00

> <s_epik_cmdline>
J2VwaWtfcHl0aG9uJywgJy1waCcsICc3LjAnLCAnLXRuJywgJzgnLCAnLW1hJywgJzIwMCcsICctbWV0YWxfYmluZGluZycsICctaW1hZScsICc8aW5maWxlLm1hZT4nLCAnLW9tYWUnLCAnPG91dGZpbGUubWFlPic=

> <r_lp_tautomer_probability>
0.999994

> <r_epik_Ionization_Penalty>
8.56137

> <r_epik_Ionization_Penalty_Charging>
8.56136

> <r_epik_Ionization_Penalty_Neutral>
3.91889e-06

> <r_epik_State_Penalty>
8.16255

> <r_epik_Charging_Adjusted_Penalty>
16.7239

> <i_epik_Tot_Q>
1

> <i_epik_Tot_abs_Q>
3

> <r_epik_Metal_State_Penalty>
4.14279

> <b_epik_Metal_Only>
1

> <s_lp_Force_Field>
OPLS_2005

> <r_lp_Energy>
67.5686

> <b_lp_Chiralities_Consistent>
1

> <s_lp_Variant>
AV-unprocessed.smi:1867-23

> <Gold.Version>
5.8.1

> <Gold.Id.Protein>
6NUR|6NUR_protein|mol2

> <Gold.PLP.Fitness>
50.7607

> <Gold.PLP.PLP>
-39.8887

> <Gold.PLP.part.hbond>
-2.0000

> <Gold.PLP.part.metal>
0.0000

> <Gold.PLP.part.buried>
-4.8677

> <Gold.PLP.part.nonpolar>
-33.1771

> <Gold.PLP.part.repulsive>
0.1976

> <Gold.PLP.ligand.clash>
0.0000

> <Gold.PLP.ligand.torsion>
0.7193

> <Gold.PLP.Chemscore.Hbond>
4.0000

> <Gold.PLP.Chemscore.CHOScore>
0.0000

> <Gold.PLP.Chemscore.Metal>
0.0000

> <Gold.Chemscore.Hbonds>
donor molecule, donor type, donor heavy atom, donor atom, acceptor molecule, acceptor atom, score
      L1  H    13    52       P1  8028  2.00
      L1  H    19    51       P1  7948  2.00

> <Gold.PLP.Chemscore.Internal.Correction>
0.3105

> <Gold.Rescore>
     Score         DG    S(hbond)    S(metal)    S(lipo)     H(rot)  DE(clash)    DE(int)     intcor
     18.91     -21.08       1.95        0.00      99.48       1.00       0.07       2.09       ----

> <Gold.Chemscore.Fitness>
18.9143

> <Gold.Chemscore.DG>
-21.0828

> <Gold.Chemscore.ZeroCoef>
-5.4800

> <Gold.Chemscore.Hbond>
1.9532

> <Gold.Chemscore.Metal>
0.0000

> <Gold.Chemscore.Lipo>
99.4786

> <Gold.Chemscore.Internal_Hbond>
0.0000

> <Gold.Chemscore.DEClash>
0.0742

> <Gold.Chemscore.DEInternal>
2.0943

> <Gold.Chemscore.Rot>
1.0000

> <Gold.Chemscore.Internal.Correction>
   9.000000E+99

> <Gold.Chemscore.Hbonds>
donor molecule, donor type, donor heavy atom, donor atom, acceptor molecule, acceptor atom, score
      L1  H    13    52       P1  8028  0.93
      L1  H    19    51       P1  7948  0.26

> <Gold.Chemscore.Hbond.Weighted>
-6.5238

> <Gold.Chemscore.Metal.Weighted>
-0.0000

> <Gold.Chemscore.Lipo.Weighted>
-11.6390

> <Gold.Chemscore.Internal_Hbond.Weighted>
0.0000

> <Gold.Chemscore.DEClash.Weighted>
0.0742

> <Gold.Chemscore.DEInternal.Weighted>
2.0943

> <Gold.Chemscore.Rot.Weighted>
2.5600

> <Gold.Chemscore.Internal.Correction.Weighted>
   9.000000E+99

> <Gold.Protein.RotatedTorsions>
[ 6907 6896 6895 6894 ] final -116.52 input  -60.11 | X-H torsion
[ 7974 7965 7964 7962 ] final  -36.81 input  175.53 | X-H torsion
[ 8008 7997 7996 7995 ] final   96.44 input   59.86 | X-H torsion
[ 10167 10162 10161 10158 ] final   56.98 input  -65.29 | X-H torsion
[ 10718 10713 10712 10709 ] final  -32.64 input   66.30 | X-H torsion
[ 10763 10752 10751 10750 ] final  -49.31 input  -60.55 | X-H torsion
[ 11005 11000 10999 10996 ] final  -64.75 input  -57.11 | X-H torsion

> <Gold.Protein.ActiveResidues>
 VAL166  LYS551  ARG553  GLY616  TRP617  ASP618  TYR619  PRO620  LYS621  CYS622 
 ASP623  PHE694  ASN695  SER759  ASP760  ASP761  ALA762  ILE779  LEU786  VAL792 
 PHE793  MET794  SER795  GLU796  ALA797  LYS798  CYS799  TRP800  GLU811  SER814 

> <Gold.Protein.RotatedAtoms>
  150.8063  133.8505  159.3203 H   0  0  0  0  0  0  0  0  0  0  0  0  # atno 6907 bound_to 6896
  151.6303  135.1022  160.0130 H   0  0  0  0  0  0  0  0  0  0  0  0  # atno 6908 bound_to 6896
  152.4153  133.6989  159.6469 H   0  0  0  0  0  0  0  0  0  0  0  0  # atno 6909 bound_to 6896
  146.0630  140.6322  142.8988 H   0  0  0  0  0  0  0  0  0  0  0  0  # atno 7974 bound_to 7965
  156.0796  140.3272  155.7677 H   0  0  0  0  0  0  0  0  0  0  0  0  # atno 8008 bound_to 7997
  155.5174  140.0582  157.2930 H   0  0  0  0  0  0  0  0  0  0  0  0  # atno 8009 bound_to 7997
  154.4575  140.1950  156.0356 H   0  0  0  0  0  0  0  0  0  0  0  0  # atno 8010 bound_to 7997
  140.2029  144.3969  150.6521 H   0  0  0  0  0  0  0  0  0  0  0  0  # atno 10167 bound_to 10162
  156.3724  130.4342  149.7534 H   0  0  0  0  0  0  0  0  0  0  0  0  # atno 10718 bound_to 10713
  154.0919  135.6576  153.4854 H   0  0  0  0  0  0  0  0  0  0  0  0  # atno 10763 bound_to 10752
  153.0318  135.5204  154.7372 H   0  0  0  0  0  0  0  0  0  0  0  0  # atno 10764 bound_to 10752
  154.6498  135.2999  154.9970 H   0  0  0  0  0  0  0  0  0  0  0  0  # atno 10765 bound_to 10752
  141.1434  133.6670  156.5881 H   0  0  0  0  0  0  0  0  0  0  0  0  # atno 11005 bound_to 11000
  144.7186  140.4295  143.7025 LP  0  0  0  0  0  0  0  0  0  0  0  0  # atno 17320 bound_to 7965
  145.6527  139.1568  143.2853 LP  0  0  0  0  0  0  0  0  0  0  0  0  # atno 17321 bound_to 7965
  140.6377  143.2198  151.6358 LP  0  0  0  0  0  0  0  0  0  0  0  0  # atno 17342 bound_to 10162
  139.5210  144.3206  152.0913 LP  0  0  0  0  0  0  0  0  0  0  0  0  # atno 17343 bound_to 10162
  156.4657  130.7973  151.2992 LP  0  0  0  0  0  0  0  0  0  0  0  0  # atno 17370 bound_to 10713
  157.7485  131.0052  150.3103 LP  0  0  0  0  0  0  0  0  0  0  0  0  # atno 17371 bound_to 10713
  140.3785  134.7544  157.4645 LP  0  0  0  0  0  0  0  0  0  0  0  0  # atno 17394 bound_to 11000
  140.0656  134.5934  155.8699 LP  0  0  0  0  0  0  0  0  0  0  0  0  # atno 17395 bound_to 11000

$$$$
