AV-unprocessed.smi:261|AV-procd|sdf|1993|dock1
  -GOLD-   2262021183D 1   1.00000     0.00000
 Structure written by MMmdl.
 51 54  0  0  0  0  0  0  0  0  1 V2000
  147.0285  132.8737  152.7207 C   0  0  0  0  0  0  0  0  0  0  0  0
  148.3968  132.8306  153.0910 O   0  0  0  0  0  0  0  0  0  0  0  0
  148.6182  133.0688  154.4735 C   0  0  1  0  0  0  0  0  0  0  0  0
  149.9483  132.5075  154.9828 C   0  0  0  0  0  0  0  0  0  0  0  0
  150.2696  133.3633  156.2211 C   0  0  2  0  0  0  0  0  0  0  0  0
  149.7173  132.7193  157.5106 C   0  0  0  0  0  0  0  0  0  0  0  0
  149.4460  131.4097  157.5138 N   0  0  0  0  0  0  0  0  0  0  0  0
  149.5265  133.4156  158.5051 O   0  0  0  0  0  0  0  0  0  0  0  0
  149.6635  134.6583  155.8988 N   0  0  0  0  0  0  0  0  0  0  0  0
  150.0787  135.8585  156.3935 C   0  0  0  0  0  0  0  0  0  0  0  0
  150.5711  135.8838  157.6610 N   0  0  0  0  0  0  0  0  0  0  0  0
  150.9973  137.0243  158.2090 C   0  0  0  0  0  0  0  0  0  0  0  0
  151.0260  138.2446  157.6745 N   0  0  0  0  0  0  0  0  0  0  0  0
  150.5399  138.2346  156.4014 C   0  0  0  0  0  0  0  0  0  0  0  0
  150.0508  137.1010  155.6874 C   0  0  0  0  0  0  0  0  0  0  0  0
  149.6501  137.5004  154.4158 N   0  0  0  0  0  0  0  0  0  0  0  0
  149.8820  138.7834  154.3831 C   0  0  0  0  0  0  0  0  0  0  0  0
  150.4156  139.3066  155.5367 N   0  0  0  0  0  0  0  0  0  0  0  0
  150.7710  140.6925  155.7855 C   0  0  0  0  0  0  0  0  0  0  0  0
  150.2069  141.2111  157.1232 C   0  0  2  0  0  0  0  0  0  0  0  0
  148.9637  141.8446  156.8859 O   0  0  0  0  0  0  0  0  0  0  0  0
  151.1548  142.2109  157.8120 C   0  0  1  0  0  0  0  0  0  0  0  0
  151.2440  143.5738  157.1191 C   0  0  0  0  0  0  0  0  0  0  0  0
  151.6132  144.4857  158.2657 C   0  0  0  0  0  0  0  0  0  0  0  0
  150.7766  143.8996  159.3966 C   0  0  0  0  0  0  0  0  0  0  0  0
  150.6966  142.5021  159.1324 O   0  0  0  0  0  0  0  0  0  0  0  0
  148.7728  134.5649  154.7460 C   0  0  0  0  0  0  0  0  0  0  0  0
  147.7927  132.6802  155.0732 H   0  0  0  0  0  0  0  0  0  0  0  0
  151.3529  133.4477  156.3072 H   0  0  0  0  0  0  0  0  0  0  0  0
  146.9375  132.7103  151.6468 H   0  0  0  0  0  0  0  0  0  0  0  0
  146.5882  133.8447  152.9504 H   0  0  0  0  0  0  0  0  0  0  0  0
  146.4509  132.0986  153.2251 H   0  0  0  0  0  0  0  0  0  0  0  0
  149.9026  131.4372  155.1885 H   0  0  0  0  0  0  0  0  0  0  0  0
  150.7226  132.6585  154.2290 H   0  0  0  0  0  0  0  0  0  0  0  0
  149.0850  130.9736  158.3499 H   0  0  0  0  0  0  0  0  0  0  0  0
  149.6042  130.8626  156.6800 H   0  0  0  0  0  0  0  0  0  0  0  0
  151.3685  136.9473  159.2203 H   0  0  0  0  0  0  0  0  0  0  0  0
  149.6657  139.3860  153.5130 H   0  0  0  0  0  0  0  0  0  0  0  0
  151.8591  140.7662  155.7778 H   0  0  0  0  0  0  0  0  0  0  0  0
  150.4121  141.3021  154.9548 H   0  0  0  0  0  0  0  0  0  0  0  0
  150.0318  140.3667  157.7914 H   0  0  0  0  0  0  0  0  0  0  0  0
  149.1277  142.7348  156.6153 H   0  0  0  0  0  0  0  0  0  0  0  0
  152.1567  141.7867  157.8990 H   0  0  0  0  0  0  0  0  0  0  0  0
  151.9724  143.5916  156.3078 H   0  0  0  0  0  0  0  0  0  0  0  0
  150.2742  143.8651  156.7128 H   0  0  0  0  0  0  0  0  0  0  0  0
  152.6762  144.3932  158.4936 H   0  0  0  0  0  0  0  0  0  0  0  0
  151.3922  145.5354  158.0705 H   0  0  0  0  0  0  0  0  0  0  0  0
  151.2048  144.0974  160.3795 H   0  0  0  0  0  0  0  0  0  0  0  0
  149.7673  144.3130  159.3763 H   0  0  0  0  0  0  0  0  0  0  0  0
  149.2394  135.0635  153.8947 H   0  0  0  0  0  0  0  0  0  0  0  0
  147.8071  135.0365  154.9340 H   0  0  0  0  0  0  0  0  0  0  0  0
  1  2  1  0  0  0  0
  1 30  1  0  0  0  0
  1 31  1  0  0  0  0
  1 32  1  0  0  0  0
  2  3  1  0  0  0  0
  3 28  1  0  0  0  0
  3 27  1  0  0  0  0
  3  4  1  0  0  0  0
  4  5  1  0  0  0  0
  4 33  1  0  0  0  0
  4 34  1  0  0  0  0
  5 29  1  0  0  0  0
  5  6  1  0  0  0  0
  5  9  1  0  0  0  0
  6  7  1  0  0  0  0
  6  8  2  0  0  0  0
  7 35  1  0  0  0  0
  7 36  1  0  0  0  0
  9 10  1  0  0  0  0
  9 27  1  0  0  0  0
 10 15  1  0  0  0  0
 10 11  2  0  0  0  0
 11 12  1  0  0  0  0
 12 13  2  0  0  0  0
 12 37  1  0  0  0  0
 13 14  1  0  0  0  0
 14 18  1  0  0  0  0
 14 15  2  0  0  0  0
 15 16  1  0  0  0  0
 16 17  2  0  0  0  0
 17 18  1  0  0  0  0
 17 38  1  0  0  0  0
 18 19  1  0  0  0  0
 19 20  1  0  0  0  0
 19 39  1  0  0  0  0
 19 40  1  0  0  0  0
 20 21  1  0  0  0  0
 20 22  1  0  0  0  0
 20 41  1  0  0  0  0
 21 42  1  0  0  0  0
 22 26  1  0  0  0  0
 22 23  1  0  0  0  0
 22 43  1  0  0  0  0
 23 24  1  0  0  0  0
 23 44  1  0  0  0  0
 23 45  1  0  0  0  0
 24 25  1  0  0  0  0
 24 46  1  0  0  0  0
 24 47  1  0  0  0  0
 25 26  1  0  0  0  0
 25 48  1  0  0  0  0
 25 49  1  0  0  0  0
 27 50  1  0  0  0  0
 27 51  1  0  0  0  0
M  END
> <s_m_source_file>
AV-unprocessed.smi

> <i_m_source_file_index>
261

> <i_lp_mmshare_version>
43012

> <i_f3d_flags>
0

> <s_epik_input>
W0NIM11PW0NASF0xW0NIMl1bQ0BASF0oQyg9TylbTkgyXSlOKFtDSDJdMSljKG5bY0hdbjIpYyhjMjMpbltjSF1uM1tDSDJdW0NASF0oW09IXSlbQ0BASF00W0NIMl1bQ0gyXVtDSDJdTzQ=

> <s_epik_cmdline>
J2VwaWtfcHl0aG9uJywgJy1waCcsICc3LjAnLCAnLXRuJywgJzgnLCAnLW1hJywgJzIwMCcsICctbWV0YWxfYmluZGluZycsICctaW1hZScsICc8aW5maWxlLm1hZT4nLCAnLW9tYWUnLCAnPG91dGZpbGUubWFlPic=

> <r_lp_tautomer_probability>
1

> <r_epik_Ionization_Penalty>
0.000713824

> <r_epik_Ionization_Penalty_Charging>
0

> <r_epik_Ionization_Penalty_Neutral>
0.000713824

> <r_epik_State_Penalty>
0.000402132

> <r_epik_Charging_Adjusted_Penalty>
0.000402132

> <i_epik_Tot_Q>
0

> <i_epik_Tot_abs_Q>
0

> <r_epik_Metal_State_Penalty>
-0

> <b_epik_Metal_Only>
0

> <s_lp_Force_Field>
OPLS_2005

> <r_lp_Energy>
43.0256

> <b_lp_Chiralities_Consistent>
1

> <s_lp_Variant>
AV-unprocessed.smi:261-11

> <Gold.Version>
5.8.1

> <Gold.Id.Protein>
6NUR|6NUR_protein|mol2

> <Gold.PLP.Fitness>
46.8091

> <Gold.PLP.PLP>
-41.6890

> <Gold.PLP.part.hbond>
-3.2917

> <Gold.PLP.part.metal>
0.0000

> <Gold.PLP.part.buried>
-4.1065

> <Gold.PLP.part.nonpolar>
-34.0869

> <Gold.PLP.part.repulsive>
0.5478

> <Gold.PLP.ligand.clash>
0.0000

> <Gold.PLP.ligand.torsion>
1.7932

> <Gold.PLP.Chemscore.Hbond>
1.8640

> <Gold.PLP.Chemscore.CHOScore>
1.0000

> <Gold.PLP.Chemscore.Metal>
0.0000

> <Gold.Chemscore.Hbonds>
donor molecule, donor type, donor heavy atom, donor atom, acceptor molecule, acceptor atom, score
      L1  H    21    42       P1  8028  0.54
      P1  H  6896  6908       L1     8  0.94
      L1  C    17    38       P1  7957  1.00

> <Gold.PLP.Chemscore.Internal.Correction>
0.1146

> <Gold.Rescore>
     Score         DG    S(hbond)    S(metal)    S(lipo)     H(rot)  DE(clash)    DE(int)     intcor
     10.07     -13.48       1.87        0.00      84.54       3.18       0.24       3.17       ----

> <Gold.Chemscore.Fitness>
10.0680

> <Gold.Chemscore.DG>
-13.4754

> <Gold.Chemscore.ZeroCoef>
-5.4800

> <Gold.Chemscore.Hbond>
1.8723

> <Gold.Chemscore.Metal>
0.0000

> <Gold.Chemscore.Lipo>
84.5352

> <Gold.Chemscore.Internal_Hbond>
0.0000

> <Gold.Chemscore.DEClash>
0.2356

> <Gold.Chemscore.DEInternal>
3.1719

> <Gold.Chemscore.Rot>
3.1831

> <Gold.Chemscore.Internal.Correction>
   9.000000E+99

> <Gold.Chemscore.Hbonds>
donor molecule, donor type, donor heavy atom, donor atom, acceptor molecule, acceptor atom, score
      L1  H    21    42       P1  8028  0.54
      P1  H  6896  6908       L1     8  0.85

> <Gold.Chemscore.Hbond.Weighted>
-6.2534

> <Gold.Chemscore.Metal.Weighted>
-0.0000

> <Gold.Chemscore.Lipo.Weighted>
-9.8906

> <Gold.Chemscore.Internal_Hbond.Weighted>
0.0000

> <Gold.Chemscore.DEClash.Weighted>
0.2356

> <Gold.Chemscore.DEInternal.Weighted>
3.1719

> <Gold.Chemscore.Rot.Weighted>
8.1486

> <Gold.Chemscore.Internal.Correction.Weighted>
   9.000000E+99

> <Gold.Protein.RotatedTorsions>
[ 6907 6896 6895 6894 ] final  123.40 input  -60.11 | X-H torsion
[ 7974 7965 7964 7962 ] final  -35.41 input  175.53 | X-H torsion
[ 8008 7997 7996 7995 ] final  -42.31 input   59.86 | X-H torsion
[ 10167 10162 10161 10158 ] final -107.30 input  -65.29 | X-H torsion
[ 10718 10713 10712 10709 ] final -174.93 input   66.30 | X-H torsion
[ 10763 10752 10751 10750 ] final   64.93 input  -60.55 | X-H torsion
[ 11005 11000 10999 10996 ] final   79.34 input  -57.11 | X-H torsion

> <Gold.Protein.ActiveResidues>
 VAL166  LYS551  ARG553  GLY616  TRP617  ASP618  TYR619  PRO620  LYS621  CYS622 
 ASP623  PHE694  ASN695  SER759  ASP760  ASP761  ALA762  ILE779  LEU786  VAL792 
 PHE793  MET794  SER795  GLU796  ALA797  LYS798  CYS799  TRP800  GLU811  SER814 

> <Gold.Protein.RotatedAtoms>
  152.4164  133.7046  159.6443 H   0  0  0  0  0  0  0  0  0  0  0  0  # atno 6907 bound_to 6896
  150.8041  133.8531  159.3220 H   0  0  0  0  0  0  0  0  0  0  0  0  # atno 6908 bound_to 6896
  151.6260  135.1029  160.0163 H   0  0  0  0  0  0  0  0  0  0  0  0  # atno 6909 bound_to 6896
  146.0748  140.6156  142.8935 H   0  0  0  0  0  0  0  0  0  0  0  0  # atno 7974 bound_to 7965
  154.3999  140.1477  156.3334 H   0  0  0  0  0  0  0  0  0  0  0  0  # atno 8008 bound_to 7997
  155.8423  140.3461  155.5618 H   0  0  0  0  0  0  0  0  0  0  0  0  # atno 8009 bound_to 7997
  155.8074  140.0879  157.1914 H   0  0  0  0  0  0  0  0  0  0  0  0  # atno 8010 bound_to 7997
  140.1784  143.3986  152.1300 H   0  0  0  0  0  0  0  0  0  0  0  0  # atno 10167 bound_to 10162
  156.7923  130.9522  151.3120 H   0  0  0  0  0  0  0  0  0  0  0  0  # atno 10718 bound_to 10713
  153.0076  135.5375  154.6588 H   0  0  0  0  0  0  0  0  0  0  0  0  # atno 10763 bound_to 10752
  154.5802  135.2849  155.0742 H   0  0  0  0  0  0  0  0  0  0  0  0  # atno 10764 bound_to 10752
  154.1875  135.6506  153.5103 H   0  0  0  0  0  0  0  0  0  0  0  0  # atno 10765 bound_to 10752
  139.9176  134.7835  156.1766 H   0  0  0  0  0  0  0  0  0  0  0  0  # atno 11005 bound_to 11000
  144.7254  140.4509  143.6977 LP  0  0  0  0  0  0  0  0  0  0  0  0  # atno 17320 bound_to 7965
  145.6326  139.1538  143.2961 LP  0  0  0  0  0  0  0  0  0  0  0  0  # atno 17321 bound_to 7965
  139.5307  144.7155  151.5067 LP  0  0  0  0  0  0  0  0  0  0  0  0  # atno 17342 bound_to 10162
  140.6536  143.8646  150.6811 LP  0  0  0  0  0  0  0  0  0  0  0  0  # atno 17343 bound_to 10162
  157.6594  130.8953  149.9798 LP  0  0  0  0  0  0  0  0  0  0  0  0  # atno 17370 bound_to 10713
  156.1151  130.3648  149.9982 LP  0  0  0  0  0  0  0  0  0  0  0  0  # atno 17371 bound_to 10713
  141.0668  133.6815  156.2060 LP  0  0  0  0  0  0  0  0  0  0  0  0  # atno 17394 bound_to 11000
  140.6572  134.5005  157.5581 LP  0  0  0  0  0  0  0  0  0  0  0  0  # atno 17395 bound_to 11000

$$$$
