AV-unprocessed.smi:1467|AV-procd|sdf|5955|dock2
  -GOLD-   22720 6 43D 1   1.00000     0.00000
 Structure written by MMmdl.
 40 41  0  0  0  0  0  0  0  0  1 V2000
  148.8027  126.6643  154.9098 C   0  0  0  0  0  0  0  0  0  0  0  0
  150.1004  127.4505  155.1076 C   0  0  0  0  0  0  0  0  0  0  0  0
  150.9129  127.0286  155.9306 O   0  0  0  0  0  0  0  0  0  0  0  0
  150.3109  128.5735  154.3806 N   0  0  0  0  0  0  0  0  0  0  0  0
  151.4672  129.4679  154.4927 C   0  0  0  0  0  0  0  0  0  0  0  0
  150.9877  130.8461  154.9886 C   0  0  0  0  0  0  0  0  0  0  0  0
  149.9999  131.4074  154.0579 N   0  0  0  0  0  0  0  0  0  0  0  0
  149.5136  132.7060  154.5212 C   0  0  0  0  0  0  0  0  0  0  0  0
  149.2302  133.6738  153.3555 C   0  0  0  0  0  0  0  0  0  0  0  0
  148.5637  132.9910  152.2533 N   0  0  0  0  0  0  0  0  0  0  0  0
  147.3012  133.2167  151.8633 C   0  0  0  0  0  0  0  0  0  0  0  0
  146.5597  134.0386  152.4022 O   0  0  0  0  0  0  0  0  0  0  0  0
  146.9633  132.4356  150.8245 N   0  0  0  0  0  0  0  0  0  0  0  0
  145.7150  132.3928  150.1544 C   0  0  0  0  0  0  0  0  0  0  0  0
  145.3379  131.6531  148.9952 C   0  0  0  0  0  0  0  0  0  0  0  0
  144.0724  131.8802  148.6722 N   0  0  0  0  0  0  0  0  0  0  0  0
  143.6402  132.7542  149.6090 N   0  0  0  0  0  0  0  0  0  0  0  0
  144.6071  133.0919  150.5301 C   0  0  0  0  0  0  0  0  0  0  0  0
  148.8614  130.4915  153.9325 C   0  0  0  0  0  0  0  0  0  0  0  0
  149.3335  129.1130  153.4317 C   0  0  0  0  0  0  0  0  0  0  0  0
  142.6933  133.1060  149.6063 H   0  0  0  0  0  0  0  0  0  0  0  0
  148.7188  126.3091  153.8825 H   0  0  0  0  0  0  0  0  0  0  0  0
  147.9362  127.2833  155.1439 H   0  0  0  0  0  0  0  0  0  0  0  0
  148.7767  125.7937  155.5659 H   0  0  0  0  0  0  0  0  0  0  0  0
  152.2427  129.0960  155.1603 H   0  0  0  0  0  0  0  0  0  0  0  0
  151.9423  129.5643  153.5154 H   0  0  0  0  0  0  0  0  0  0  0  0
  150.5555  130.7568  155.9867 H   0  0  0  0  0  0  0  0  0  0  0  0
  151.8498  131.5064  155.0711 H   0  0  0  0  0  0  0  0  0  0  0  0
  148.5803  132.5568  155.0666 H   0  0  0  0  0  0  0  0  0  0  0  0
  150.2216  133.1408  155.2287 H   0  0  0  0  0  0  0  0  0  0  0  0
  148.6185  134.5197  153.6699 H   0  0  0  0  0  0  0  0  0  0  0  0
  150.1661  134.0880  152.9795 H   0  0  0  0  0  0  0  0  0  0  0  0
  149.1022  132.2983  151.7539 H   0  0  0  0  0  0  0  0  0  0  0  0
  147.6717  131.8052  150.4784 H   0  0  0  0  0  0  0  0  0  0  0  0
  145.9165  130.9741  148.3866 H   0  0  0  0  0  0  0  0  0  0  0  0
  144.4261  133.7779  151.3445 H   0  0  0  0  0  0  0  0  0  0  0  0
  148.3539  130.3891  154.8932 H   0  0  0  0  0  0  0  0  0  0  0  0
  148.1368  130.9028  153.2288 H   0  0  0  0  0  0  0  0  0  0  0  0
  149.7946  129.2037  152.4470 H   0  0  0  0  0  0  0  0  0  0  0  0
  148.4703  128.4598  153.2989 H   0  0  0  0  0  0  0  0  0  0  0  0
  1  2  1  0  0  0  0
  1 22  1  0  0  0  0
  1 23  1  0  0  0  0
  1 24  1  0  0  0  0
  2  3  2  0  0  0  0
  2  4  1  0  0  0  0
  4 20  1  0  0  0  0
  4  5  1  0  0  0  0
  5  6  1  0  0  0  0
  5 25  1  0  0  0  0
  5 26  1  0  0  0  0
  6  7  1  0  0  0  0
  6 27  1  0  0  0  0
  6 28  1  0  0  0  0
  7  8  1  0  0  0  0
  7 19  1  0  0  0  0
  8  9  1  0  0  0  0
  8 29  1  0  0  0  0
  8 30  1  0  0  0  0
  9 10  1  0  0  0  0
  9 31  1  0  0  0  0
  9 32  1  0  0  0  0
 10 11  1  0  0  0  0
 10 33  1  0  0  0  0
 11 12  2  0  0  0  0
 11 13  1  0  0  0  0
 13 14  1  0  0  0  0
 13 34  1  0  0  0  0
 14 18  2  0  0  0  0
 14 15  1  0  0  0  0
 15 16  2  0  0  0  0
 15 35  1  0  0  0  0
 16 17  1  0  0  0  0
 17 21  1  0  0  0  0
 17 18  1  0  0  0  0
 18 36  1  0  0  0  0
 19 20  1  0  0  0  0
 19 37  1  0  0  0  0
 19 38  1  0  0  0  0
 20 39  1  0  0  0  0
 20 40  1  0  0  0  0
M  END
> <s_m_source_file>
AV-unprocessed.smi

> <i_m_source_file_index>
1467

> <i_lp_mmshare_version>
43012

> <i_f3d_flags>
0

> <s_epik_input>
W0NIM11DKD1PKU4xW0NIMl1bQ0gyXU4oW0NIMl1bQ0gyXTEpW0NIMl1bQ0gyXVtOSF1DKD1PKVtOSF1jMltjSF1uW25IXVtjSF0y

> <s_epik_cmdline>
J2VwaWtfcHl0aG9uJywgJy1waCcsICc3LjAnLCAnLXRuJywgJzgnLCAnLW1hJywgJzIwMCcsICctbWV0YWxfYmluZGluZycsICctaW1hZScsICc8aW5maWxlLm1hZT4nLCAnLW9tYWUnLCAnPG91dGZpbGUubWFlPic=

> <r_lp_tautomer_probability>
0.5

> <r_epik_Ionization_Penalty>
0.251012

> <r_epik_Ionization_Penalty_Charging>
0

> <r_epik_Ionization_Penalty_Neutral>
0.251012

> <r_epik_State_Penalty>
0.242297

> <r_epik_Charging_Adjusted_Penalty>
0.242297

> <i_epik_Tot_Q>
0

> <i_epik_Tot_abs_Q>
0

> <r_epik_Metal_State_Penalty>
0.242296

> <b_epik_Metal_Only>
0

> <s_lp_Force_Field>
OPLS_2005

> <r_lp_Energy>
35.2163

> <b_lp_Chiralities_Consistent>
1

> <s_lp_Variant>
AV-unprocessed.smi:1467-1

> <Gold.Version>
5.8.1

> <Gold.Id.Protein>
6NUR|6NUR_protein|mol2

> <Gold.PLP.Fitness>
39.6769

> <Gold.PLP.PLP>
-30.3130

> <Gold.PLP.part.hbond>
-4.0000

> <Gold.PLP.part.metal>
0.0000

> <Gold.PLP.part.buried>
-3.6085

> <Gold.PLP.part.nonpolar>
-23.7654

> <Gold.PLP.part.repulsive>
0.6000

> <Gold.PLP.ligand.clash>
0.0000

> <Gold.PLP.ligand.torsion>
0.5789

> <Gold.PLP.Chemscore.Hbond>
3.5011

> <Gold.PLP.Chemscore.CHOScore>
0.0000

> <Gold.PLP.Chemscore.Metal>
0.0000

> <Gold.Chemscore.Hbonds>
donor molecule, donor type, donor heavy atom, donor atom, acceptor molecule, acceptor atom, score
      L1  H    10    33       P1 10747  0.87
      L1  H    13    34       P1 10747  1.00
      L1  H    17    21       P1 10186  0.73
      P1  H 10785 10796       L1    16  0.51

> <Gold.PLP.Chemscore.Internal.Correction>
0.0184

> <Gold.Rescore>
     Score         DG    S(hbond)    S(metal)    S(lipo)     H(rot)  DE(clash)    DE(int)     intcor
     15.17     -18.45       2.92        0.00      64.98       1.72       0.41       2.87       ----

> <Gold.Chemscore.Fitness>
15.1731

> <Gold.Chemscore.DG>
-18.4526

> <Gold.Chemscore.ZeroCoef>
-5.4800

> <Gold.Chemscore.Hbond>
2.9236

> <Gold.Chemscore.Metal>
0.0000

> <Gold.Chemscore.Lipo>
64.9787

> <Gold.Chemscore.Internal_Hbond>
0.0000

> <Gold.Chemscore.DEClash>
0.4093

> <Gold.Chemscore.DEInternal>
2.8701

> <Gold.Chemscore.Rot>
1.7167

> <Gold.Chemscore.Internal.Correction>
   9.000000E+99

> <Gold.Chemscore.Hbonds>
donor molecule, donor type, donor heavy atom, donor atom, acceptor molecule, acceptor atom, score
      L1  H    10    33       P1 10747  0.66
      L1  H    13    34       P1 10747  0.99
      L1  H    17    21       P1 10186  0.73
      P1  H 10785 10796       L1    16  0.23

> <Gold.Chemscore.Hbond.Weighted>
-9.7647

> <Gold.Chemscore.Metal.Weighted>
-0.0000

> <Gold.Chemscore.Lipo.Weighted>
-7.6025

> <Gold.Chemscore.Internal_Hbond.Weighted>
0.0000

> <Gold.Chemscore.DEClash.Weighted>
0.4093

> <Gold.Chemscore.DEInternal.Weighted>
2.8701

> <Gold.Chemscore.Rot.Weighted>
4.3947

> <Gold.Chemscore.Internal.Correction.Weighted>
   9.000000E+99

> <Gold.Protein.RotatedTorsions>
[ 6907 6896 6895 6894 ] final  -94.74 input  -60.11 | X-H torsion
[ 7974 7965 7964 7962 ] final   -0.32 input  175.53 | X-H torsion
[ 8008 7997 7996 7995 ] final   33.01 input   59.86 | X-H torsion
[ 10167 10162 10161 10158 ] final  -58.49 input  -65.29 | X-H torsion
[ 10718 10713 10712 10709 ] final  148.28 input   66.30 | X-H torsion
[ 10763 10752 10751 10750 ] final   34.44 input  -60.55 | X-H torsion
[ 11005 11000 10999 10996 ] final  -53.77 input  -57.11 | X-H torsion

> <Gold.Protein.ActiveResidues>
 VAL166  LYS551  ARG553  GLY616  TRP617  ASP618  TYR619  PRO620  LYS621  CYS622 
 ASP623  PHE694  ASN695  SER759  ASP760  ASP761  ALA762  ILE779  LEU786  VAL792 
 PHE793  MET794  SER795  GLU796  ALA797  LYS798  CYS799  TRP800  GLU811  SER814 

> <Gold.Protein.RotatedAtoms>
  150.6948  134.1766  159.4232 H   0  0  0  0  0  0  0  0  0  0  0  0  # atno 6907 bound_to 6896
  151.9742  135.0059  160.0563 H   0  0  0  0  0  0  0  0  0  0  0  0  # atno 6908 bound_to 6896
  152.1814  133.4675  159.4997 H   0  0  0  0  0  0  0  0  0  0  0  0  # atno 6909 bound_to 6896
  146.2428  140.1253  142.8339 H   0  0  0  0  0  0  0  0  0  0  0  0  # atno 7974 bound_to 7965
  155.1317  140.3258  155.4472 H   0  0  0  0  0  0  0  0  0  0  0  0  # atno 8008 bound_to 7997
  156.2632  140.2009  156.6385 H   0  0  0  0  0  0  0  0  0  0  0  0  # atno 8009 bound_to 7997
  154.6608  140.0547  157.0046 H   0  0  0  0  0  0  0  0  0  0  0  0  # atno 8010 bound_to 7997
  140.6194  143.2414  151.5518 H   0  0  0  0  0  0  0  0  0  0  0  0  # atno 10167 bound_to 10162
  157.3105  131.0887  151.1320 H   0  0  0  0  0  0  0  0  0  0  0  0  # atno 10718 bound_to 10713
  153.0164  135.6360  154.1670 H   0  0  0  0  0  0  0  0  0  0  0  0  # atno 10763 bound_to 10752
  154.1408  135.2835  155.3163 H   0  0  0  0  0  0  0  0  0  0  0  0  # atno 10764 bound_to 10752
  154.6126  135.5551  153.7550 H   0  0  0  0  0  0  0  0  0  0  0  0  # atno 10765 bound_to 10752
  141.0992  133.6620  156.4221 H   0  0  0  0  0  0  0  0  0  0  0  0  # atno 11005 bound_to 11000
  145.0372  140.8917  143.5074 LP  0  0  0  0  0  0  0  0  0  0  0  0  # atno 17320 bound_to 7965
  145.1327  139.2622  143.5531 LP  0  0  0  0  0  0  0  0  0  0  0  0  # atno 17321 bound_to 7965
  139.5425  144.2608  152.1379 LP  0  0  0  0  0  0  0  0  0  0  0  0  # atno 17342 bound_to 10162
  140.1824  144.4831  150.6521 LP  0  0  0  0  0  0  0  0  0  0  0  0  # atno 17343 bound_to 10162
  157.2643  130.6674  149.5989 LP  0  0  0  0  0  0  0  0  0  0  0  0  # atno 17370 bound_to 10713
  155.9677  130.4499  150.5675 LP  0  0  0  0  0  0  0  0  0  0  0  0  # atno 17371 bound_to 10713
  140.5063  134.6437  157.5268 LP  0  0  0  0  0  0  0  0  0  0  0  0  # atno 17394 bound_to 11000
  139.9838  134.7094  155.9810 LP  0  0  0  0  0  0  0  0  0  0  0  0  # atno 17395 bound_to 11000

$$$$
