AV-unprocessed.smi:87|AV-procd|sdf|823|dock1
  -GOLD-   2262017233D 1   1.00000     0.00000
 Structure written by MMmdl.
 58 60  0  0  0  0  0  0  0  0  1 V2000
  154.3658  141.1767  160.2877 C   0  0  0  0  0  0  0  0  0  0  0  0
  152.8938  141.0938  159.8580 C   0  0  0  0  0  0  0  0  0  0  0  0
  152.4873  142.0885  158.7439 C   0  0  0  0  0  0  0  0  0  0  0  0
  152.7831  143.5483  159.1626 C   0  0  0  0  0  0  0  0  0  0  0  0
  152.8076  144.5467  157.9953 C   0  0  0  0  0  0  0  0  0  0  0  0
  150.9915  141.9273  158.3688 C   0  0  0  0  0  0  0  0  0  0  0  0
  150.7014  140.7878  157.4911 N   0  0  0  0  0  0  0  0  0  0  0  0
  150.8213  140.9387  156.0384 C   0  0  0  0  0  0  0  0  0  0  0  0
  149.6186  140.3643  155.2781 C   0  0  0  0  0  0  0  0  0  0  0  0
  148.8304  141.4089  154.6081 C   0  0  0  0  0  0  0  0  0  0  0  0
  148.2104  142.2312  154.0810 N   0  0  0  0  0  0  0  0  0  0  0  0
  150.8071  139.5365  158.0145 C   0  0  0  0  0  0  0  0  0  0  0  0
  149.9993  139.1839  159.0510 N   0  0  0  0  0  0  0  0  0  0  0  0
  150.0579  137.9552  159.5711 C   0  0  0  0  0  0  0  0  0  0  0  0
  150.8438  136.9375  159.2179 N   0  0  0  0  0  0  0  0  0  0  0  0
  151.6716  137.2859  158.1926 C   0  0  0  0  0  0  0  0  0  0  0  0
  151.7194  138.5501  157.5372 C   0  0  0  0  0  0  0  0  0  0  0  0
  152.6966  138.5258  156.5478 N   0  0  0  0  0  0  0  0  0  0  0  0
  153.1781  137.3146  156.5985 C   0  0  0  0  0  0  0  0  0  0  0  0
  152.6332  136.5081  157.5712 N   0  0  0  0  0  0  0  0  0  0  0  0
  152.9763  135.1229  157.8437 C   0  0  0  0  0  0  0  0  0  0  0  0
  153.8353  134.9191  159.1140 C   0  0  1  0  0  0  0  0  0  0  0  0
  153.1114  135.5336  160.1610 O   0  0  0  0  0  0  0  0  0  0  0  0
  154.0724  133.4492  159.5305 C   0  0  1  0  0  0  0  0  0  0  0  0
  154.5933  133.2256  160.9537 C   0  0  0  0  0  0  0  0  0  0  0  0
  154.0806  131.8438  161.3298 C   0  0  0  0  0  0  0  0  0  0  0  0
  153.0444  131.5303  160.2511 C   0  0  0  0  0  0  0  0  0  0  0  0
  152.8255  132.7714  159.5990 O   0  0  0  0  0  0  0  0  0  0  0  0
  154.6054  140.3720  160.9828 H   0  0  0  0  0  0  0  0  0  0  0  0
  154.5957  142.1140  160.7925 H   0  0  0  0  0  0  0  0  0  0  0  0
  155.0326  141.0802  159.4304 H   0  0  0  0  0  0  0  0  0  0  0  0
  152.7297  140.0743  159.5151 H   0  0  0  0  0  0  0  0  0  0  0  0
  152.2479  141.2233  160.7272 H   0  0  0  0  0  0  0  0  0  0  0  0
  153.0962  141.8750  157.8649 H   0  0  0  0  0  0  0  0  0  0  0  0
  152.0599  143.8751  159.9107 H   0  0  0  0  0  0  0  0  0  0  0  0
  153.7571  143.6062  159.6452 H   0  0  0  0  0  0  0  0  0  0  0  0
  153.1210  145.5316  158.3420 H   0  0  0  0  0  0  0  0  0  0  0  0
  151.8281  144.6654  157.5339 H   0  0  0  0  0  0  0  0  0  0  0  0
  153.5091  144.2319  157.2220 H   0  0  0  0  0  0  0  0  0  0  0  0
  150.4124  141.8853  159.2888 H   0  0  0  0  0  0  0  0  0  0  0  0
  150.6294  142.8139  157.8523 H   0  0  0  0  0  0  0  0  0  0  0  0
  150.9579  141.9916  155.7900 H   0  0  0  0  0  0  0  0  0  0  0  0
  151.7149  140.4180  155.6912 H   0  0  0  0  0  0  0  0  0  0  0  0
  149.9496  139.6573  154.5171 H   0  0  0  0  0  0  0  0  0  0  0  0
  148.9464  139.8323  155.9512 H   0  0  0  0  0  0  0  0  0  0  0  0
  149.3768  137.7597  160.3863 H   0  0  0  0  0  0  0  0  0  0  0  0
  153.9594  136.9786  155.9321 H   0  0  0  0  0  0  0  0  0  0  0  0
  152.0350  134.5795  157.9409 H   0  0  0  0  0  0  0  0  0  0  0  0
  153.4833  134.7053  156.9727 H   0  0  0  0  0  0  0  0  0  0  0  0
  154.7895  135.4365  159.0121 H   0  0  0  0  0  0  0  0  0  0  0  0
  153.5150  136.3650  160.3573 H   0  0  0  0  0  0  0  0  0  0  0  0
  154.7256  132.9429  158.8166 H   0  0  0  0  0  0  0  0  0  0  0  0
  155.6790  133.2912  161.0167 H   0  0  0  0  0  0  0  0  0  0  0  0
  154.1670  133.9641  161.6341 H   0  0  0  0  0  0  0  0  0  0  0  0
  154.8786  131.1007  161.3290 H   0  0  0  0  0  0  0  0  0  0  0  0
  153.6332  131.8566  162.3243 H   0  0  0  0  0  0  0  0  0  0  0  0
  153.4410  130.8117  159.5324 H   0  0  0  0  0  0  0  0  0  0  0  0
  152.1176  131.1285  160.6605 H   0  0  0  0  0  0  0  0  0  0  0  0
  1  2  1  0  0  0  0
  1 29  1  0  0  0  0
  1 30  1  0  0  0  0
  1 31  1  0  0  0  0
  2  3  1  0  0  0  0
  2 32  1  0  0  0  0
  2 33  1  0  0  0  0
  3  4  1  0  0  0  0
  3  6  1  0  0  0  0
  3 34  1  0  0  0  0
  4  5  1  0  0  0  0
  4 35  1  0  0  0  0
  4 36  1  0  0  0  0
  5 37  1  0  0  0  0
  5 38  1  0  0  0  0
  5 39  1  0  0  0  0
  6  7  1  0  0  0  0
  6 40  1  0  0  0  0
  6 41  1  0  0  0  0
  7  8  1  0  0  0  0
  7 12  1  0  0  0  0
  8  9  1  0  0  0  0
  8 42  1  0  0  0  0
  8 43  1  0  0  0  0
  9 10  1  0  0  0  0
  9 44  1  0  0  0  0
  9 45  1  0  0  0  0
 10 11  3  0  0  0  0
 12 17  1  0  0  0  0
 12 13  2  0  0  0  0
 13 14  1  0  0  0  0
 14 15  2  0  0  0  0
 14 46  1  0  0  0  0
 15 16  1  0  0  0  0
 16 20  1  0  0  0  0
 16 17  2  0  0  0  0
 17 18  1  0  0  0  0
 18 19  2  0  0  0  0
 19 20  1  0  0  0  0
 19 47  1  0  0  0  0
 20 21  1  0  0  0  0
 21 22  1  0  0  0  0
 21 48  1  0  0  0  0
 21 49  1  0  0  0  0
 22 23  1  0  0  0  0
 22 24  1  0  0  0  0
 22 50  1  0  0  0  0
 23 51  1  0  0  0  0
 24 28  1  0  0  0  0
 24 25  1  0  0  0  0
 24 52  1  0  0  0  0
 25 26  1  0  0  0  0
 25 53  1  0  0  0  0
 25 54  1  0  0  0  0
 26 27  1  0  0  0  0
 26 55  1  0  0  0  0
 26 56  1  0  0  0  0
 27 28  1  0  0  0  0
 27 57  1  0  0  0  0
 27 58  1  0  0  0  0
M  END
> <s_m_source_file>
AV-unprocessed.smi

> <i_m_source_file_index>
87

> <i_lp_mmshare_version>
43012

> <i_f3d_flags>
0

> <s_epik_input>
W0NIM11bQ0gyXVtDSF0oW0NIMl1bQ0gzXSlbQ0gyXU4oW0NIMl1bQ0gyXUMjTiljKG5bY0hdbjEpYyhjMTIpbltjSF1uMltDSDJdW0NASF0oW09IXSlbQ0BASF0zW0NIMl1bQ0gyXVtDSDJdTzM=

> <s_epik_cmdline>
J2VwaWtfcHl0aG9uJywgJy1waCcsICc3LjAnLCAnLXRuJywgJzgnLCAnLW1hJywgJzIwMCcsICctbWV0YWxfYmluZGluZycsICctaW1hZScsICc8aW5maWxlLm1hZT4nLCAnLW9tYWUnLCAnPG91dGZpbGUubWFlPic=

> <r_lp_tautomer_probability>
1

> <r_epik_Ionization_Penalty>
0.000348566

> <r_epik_Ionization_Penalty_Charging>
0

> <r_epik_Ionization_Penalty_Neutral>
0.000348566

> <r_epik_State_Penalty>
-0

> <r_epik_Charging_Adjusted_Penalty>
0

> <i_epik_Tot_Q>
0

> <i_epik_Tot_abs_Q>
0

> <r_epik_Metal_State_Penalty>
-0

> <b_epik_Metal_Only>
0

> <s_lp_Force_Field>
OPLS_2005

> <r_lp_Energy>
38.5026

> <b_lp_Chiralities_Consistent>
1

> <s_lp_Variant>
AV-unprocessed.smi:87-4

> <Gold.Version>
5.8.1

> <Gold.Id.Protein>
6NUR|6NUR_protein|mol2

> <Gold.PLP.Fitness>
54.5859

> <Gold.PLP.PLP>
-45.6312

> <Gold.PLP.part.hbond>
-5.2802

> <Gold.PLP.part.metal>
0.0000

> <Gold.PLP.part.buried>
-3.7368

> <Gold.PLP.part.nonpolar>
-37.1456

> <Gold.PLP.part.repulsive>
0.1823

> <Gold.PLP.ligand.clash>
0.0000

> <Gold.PLP.ligand.torsion>
2.2549

> <Gold.PLP.Chemscore.Hbond>
3.5867

> <Gold.PLP.Chemscore.CHOScore>
0.0000

> <Gold.PLP.Chemscore.Metal>
0.0000

> <Gold.Chemscore.Hbonds>
donor molecule, donor type, donor heavy atom, donor atom, acceptor molecule, acceptor atom, score
      P1  H  6896  6908       L1    15  1.00
      P1  H  7997  8010       L1    18  0.39
      P1  H  8011  8017       L1    11  0.03

> <Gold.PLP.Chemscore.Internal.Correction>
2.7046

> <Gold.Rescore>
     Score         DG    S(hbond)    S(metal)    S(lipo)     H(rot)  DE(clash)    DE(int)     intcor
     11.79     -17.12       2.80        0.00      93.35       3.37       1.89       3.44       ----

> <Gold.Chemscore.Fitness>
11.7944

> <Gold.Chemscore.DG>
-17.1246

> <Gold.Chemscore.ZeroCoef>
-5.4800

> <Gold.Chemscore.Hbond>
2.7972

> <Gold.Chemscore.Metal>
0.0000

> <Gold.Chemscore.Lipo>
93.3500

> <Gold.Chemscore.Internal_Hbond>
0.0000

> <Gold.Chemscore.DEClash>
1.8880

> <Gold.Chemscore.DEInternal>
3.4422

> <Gold.Chemscore.Rot>
3.3672

> <Gold.Chemscore.Internal.Correction>
   9.000000E+99

> <Gold.Chemscore.Hbonds>
donor molecule, donor type, donor heavy atom, donor atom, acceptor molecule, acceptor atom, score
      P1  H  6896  6908       L1    15  0.66
      P1  H  7997  8010       L1    18  0.30

> <Gold.Chemscore.Hbond.Weighted>
-9.3427

> <Gold.Chemscore.Metal.Weighted>
-0.0000

> <Gold.Chemscore.Lipo.Weighted>
-10.9220

> <Gold.Chemscore.Internal_Hbond.Weighted>
0.0000

> <Gold.Chemscore.DEClash.Weighted>
1.8880

> <Gold.Chemscore.DEInternal.Weighted>
3.4422

> <Gold.Chemscore.Rot.Weighted>
8.6201

> <Gold.Chemscore.Internal.Correction.Weighted>
   9.000000E+99

> <Gold.Protein.RotatedTorsions>
[ 6907 6896 6895 6894 ] final -128.95 input  -60.11 | X-H torsion
[ 7974 7965 7964 7962 ] final  173.42 input  175.53 | X-H torsion
[ 8008 7997 7996 7995 ] final   69.95 input   59.86 | X-H torsion
[ 10167 10162 10161 10158 ] final -168.42 input  -65.29 | X-H torsion
[ 10718 10713 10712 10709 ] final  -54.73 input   66.30 | X-H torsion
[ 10763 10752 10751 10750 ] final  178.85 input  -60.55 | X-H torsion
[ 11005 11000 10999 10996 ] final  -48.06 input  -57.11 | X-H torsion

> <Gold.Protein.ActiveResidues>
 VAL166  LYS551  ARG553  GLY616  TRP617  ASP618  TYR619  PRO620  LYS621  CYS622 
 ASP623  PHE694  ASN695  SER759  ASP760  ASP761  ALA762  ILE779  LEU786  VAL792 
 PHE793  MET794  SER795  GLU796  ALA797  LYS798  CYS799  TRP800  GLU811  SER814 

> <Gold.Protein.RotatedAtoms>
  150.9234  133.6852  159.2826 H   0  0  0  0  0  0  0  0  0  0  0  0  # atno 6907 bound_to 6896
  151.4299  135.1007  159.9649 H   0  0  0  0  0  0  0  0  0  0  0  0  # atno 6908 bound_to 6896
  152.4991  133.8667  159.7332 H   0  0  0  0  0  0  0  0  0  0  0  0  # atno 6909 bound_to 6896
  144.7244  139.9645  143.6435 H   0  0  0  0  0  0  0  0  0  0  0  0  # atno 7974 bound_to 7965
  155.7313  140.3492  155.5061 H   0  0  0  0  0  0  0  0  0  0  0  0  # atno 8008 bound_to 7997
  155.9179  140.1062  157.1251 H   0  0  0  0  0  0  0  0  0  0  0  0  # atno 8009 bound_to 7997
  154.4065  140.1255  156.4629 H   0  0  0  0  0  0  0  0  0  0  0  0  # atno 8010 bound_to 7997
  139.5986  144.1058  152.1718 H   0  0  0  0  0  0  0  0  0  0  0  0  # atno 10167 bound_to 10162
  156.1426  130.4154  150.0077 H   0  0  0  0  0  0  0  0  0  0  0  0  # atno 10718 bound_to 10713
  154.5130  135.2789  155.1327 H   0  0  0  0  0  0  0  0  0  0  0  0  # atno 10763 bound_to 10752
  154.2914  135.6266  153.5390 H   0  0  0  0  0  0  0  0  0  0  0  0  # atno 10764 bound_to 10752
  152.9922  135.5675  154.5600 H   0  0  0  0  0  0  0  0  0  0  0  0  # atno 10765 bound_to 10752
  141.0678  133.6688  156.3387 H   0  0  0  0  0  0  0  0  0  0  0  0  # atno 11005 bound_to 11000
  146.0611  139.3605  143.0580 LP  0  0  0  0  0  0  0  0  0  0  0  0  # atno 17320 bound_to 7965
  145.8091  140.9734  143.0958 LP  0  0  0  0  0  0  0  0  0  0  0  0  # atno 17321 bound_to 7965
  140.0649  144.5826  150.7235 LP  0  0  0  0  0  0  0  0  0  0  0  0  # atno 17342 bound_to 10162
  140.7232  143.2609  151.4209 LP  0  0  0  0  0  0  0  0  0  0  0  0  # atno 17343 bound_to 10162
  156.7958  130.9272  151.3646 LP  0  0  0  0  0  0  0  0  0  0  0  0  # atno 17370 bound_to 10713
  157.6589  130.8949  149.9788 LP  0  0  0  0  0  0  0  0  0  0  0  0  # atno 17371 bound_to 10713
  140.5737  134.5815  157.5463 LP  0  0  0  0  0  0  0  0  0  0  0  0  # atno 17394 bound_to 11000
  139.9493  134.7645  156.0486 LP  0  0  0  0  0  0  0  0  0  0  0  0  # atno 17395 bound_to 11000

$$$$
