AV-unprocessed.smi:1836|AV-procd|sdf|7480|dock1
  -GOLD-   22720 9173D 1   1.00000     0.00000
 Structure written by MMmdl.
 32 33  0  0  0  0  0  0  0  0  2 V2000
  153.7168  138.5751  160.5714 C   0  0  0  0  0  0  0  0  0  0  0  0
  152.9429  139.8999  160.5970 C   0  0  1  0  0  0  0  0  0  0  0  0
  153.9088  141.1060  160.6238 C   0  0  0  0  0  0  0  0  0  0  0  0
  153.2063  142.3861  160.5385 N   0  0  0  0  0  0  0  0  0  0  0  0
  152.7709  142.9081  159.2539 C   0  0  0  0  0  0  0  0  0  0  0  0
  152.3022  144.3396  159.5485 C   0  0  0  0  0  0  0  0  0  0  0  0
  152.1249  144.4125  161.0686 C   0  0  0  0  0  0  0  0  0  0  0  0
  152.8283  143.1605  161.5637 C   0  0  0  0  0  0  0  0  0  0  0  0
  153.0087  142.9268  162.7578 O   0  0  0  0  0  0  0  0  0  0  0  0
  152.0712  139.9478  159.4233 N   0  0  0  0  0  0  0  0  0  0  0  0
  152.4148  139.6362  158.1642 C   0  0  0  0  0  0  0  0  0  0  0  0
  153.5673  139.2780  157.9091 O   0  0  0  0  0  0  0  0  0  0  0  0
  151.3968  139.7399  157.2804 N   0  5  0  0  0  0  0  0  0  0  0  0
  151.3235  138.8903  156.2429 C   0  0  0  0  0  0  0  0  0  0  0  0
  152.0282  137.7483  156.1973 N   0  0  0  0  0  0  0  0  0  0  0  0
  151.8099  137.0186  155.0365 N   0  0  0  0  0  0  0  0  0  0  0  0
  150.9466  137.6355  154.2298 C   0  0  0  0  0  0  0  0  0  0  0  0
  150.3254  139.1656  154.8120 S   0  0  0  0  0  0  0  0  0  0  0  0
  154.3565  138.4772  161.4488 H   0  0  0  0  0  0  0  0  0  0  0  0
  154.3507  138.5019  159.6870 H   0  0  0  0  0  0  0  0  0  0  0  0
  153.0361  137.7229  160.5655 H   0  0  0  0  0  0  0  0  0  0  0  0
  152.3467  139.9013  161.5111 H   0  0  0  0  0  0  0  0  0  0  0  0
  154.4750  141.1002  161.5561 H   0  0  0  0  0  0  0  0  0  0  0  0
  154.6482  141.0206  159.8255 H   0  0  0  0  0  0  0  0  0  0  0  0
  153.5779  142.8906  158.5206 H   0  0  0  0  0  0  0  0  0  0  0  0
  151.9505  142.2966  158.8761 H   0  0  0  0  0  0  0  0  0  0  0  0
  153.0645  145.0533  159.2326 H   0  0  0  0  0  0  0  0  0  0  0  0
  151.3827  144.5826  159.0154 H   0  0  0  0  0  0  0  0  0  0  0  0
  152.5710  145.3123  161.4936 H   0  0  0  0  0  0  0  0  0  0  0  0
  151.0724  144.3730  161.3507 H   0  0  0  0  0  0  0  0  0  0  0  0
  151.1142  140.2281  159.5807 H   0  0  0  0  0  0  0  0  0  0  0  0
  150.6770  137.1890  153.2845 H   0  0  0  0  0  0  0  0  0  0  0  0
  1  2  1  0  0  0  0
  1 19  1  0  0  0  0
  1 20  1  0  0  0  0
  1 21  1  0  0  0  0
  2  3  1  0  0  0  0
  2 10  1  0  0  0  0
  2 22  1  0  0  0  0
  3  4  1  0  0  0  0
  3 23  1  0  0  0  0
  3 24  1  0  0  0  0
  4  8  1  0  0  0  0
  4  5  1  0  0  0  0
  5  6  1  0  0  0  0
  5 25  1  0  0  0  0
  5 26  1  0  0  0  0
  6  7  1  0  0  0  0
  6 27  1  0  0  0  0
  6 28  1  0  0  0  0
  7  8  1  0  0  0  0
  7 29  1  0  0  0  0
  7 30  1  0  0  0  0
  8  9  2  0  0  0  0
 10 11  1  0  0  0  0
 10 31  1  0  0  0  0
 11 12  2  0  0  0  0
 11 13  1  0  0  0  0
 13 14  1  0  0  0  0
 14 18  1  0  0  0  0
 14 15  2  0  0  0  0
 15 16  1  0  0  0  0
 16 17  2  0  0  0  0
 17 18  1  0  0  0  0
 17 32  1  0  0  0  0
M  CHG  1  13  -1
M  END
> <s_m_source_file>
AV-unprocessed.smi

> <i_m_source_file_index>
1836

> <i_lp_mmshare_version>
43012

> <i_f3d_flags>
0

> <s_epik_input>
Tz1DMVtDSDJdW0NIMl1bQ0gyXU4xW0NIMl1bQ0BASF0oW0NIM10pW05IXUMoPU8pW05IXWMybm5bY0hdczI=

> <s_epik_cmdline>
J2VwaWtfcHl0aG9uJywgJy1waCcsICc3LjAnLCAnLXRuJywgJzgnLCAnLW1hJywgJzIwMCcsICctbWV0YWxfYmluZGluZycsICctaW1hZScsICc8aW5maWxlLm1hZT4nLCAnLW9tYWUnLCAnPG91dGZpbGUubWFlPic=

> <r_lp_tautomer_probability>
1

> <r_epik_Ionization_Penalty>
3.44722

> <r_epik_Ionization_Penalty_Charging>
3.40341

> <r_epik_Ionization_Penalty_Neutral>
0.0438099

> <r_epik_State_Penalty>
3.40151

> <r_epik_Charging_Adjusted_Penalty>
6.80491

> <i_epik_Tot_Q>
-1

> <i_epik_Tot_abs_Q>
1

> <r_epik_Metal_State_Penalty>
0.49534

> <b_epik_Metal_Only>
1

> <s_lp_Force_Field>
OPLS_2005

> <r_lp_Energy>
17.1678

> <b_lp_Chiralities_Consistent>
1

> <s_lp_Variant>
AV-unprocessed.smi:1836-4

> <Gold.Version>
5.8.1

> <Gold.Id.Protein>
6NUR|6NUR_protein|mol2

> <Gold.PLP.Fitness>
42.4491

> <Gold.PLP.PLP>
-35.1670

> <Gold.PLP.part.hbond>
-1.7818

> <Gold.PLP.part.metal>
0.0000

> <Gold.PLP.part.buried>
-4.7172

> <Gold.PLP.part.nonpolar>
-30.1273

> <Gold.PLP.part.repulsive>
0.3702

> <Gold.PLP.ligand.clash>
0.0000

> <Gold.PLP.ligand.torsion>
0.8247

> <Gold.PLP.Chemscore.Hbond>
1.9193

> <Gold.PLP.Chemscore.CHOScore>
1.0000

> <Gold.PLP.Chemscore.Metal>
0.0000

> <Gold.Chemscore.Hbonds>
donor molecule, donor type, donor heavy atom, donor atom, acceptor molecule, acceptor atom, score
      P1  H  7997  8008       L1    12  1.00
      P1  H 10752 10763       L1    16  1.00
      L1  C    17    32       P1  7948  0.29
      L1  C    17    32       P1  7949  0.65

> <Gold.PLP.Chemscore.Internal.Correction>
0.1739

> <Gold.Rescore>
     Score         DG    S(hbond)    S(metal)    S(lipo)     H(rot)  DE(clash)    DE(int)     intcor
     12.23     -16.08       1.82        0.00      76.50       1.73       0.12       3.73       ----

> <Gold.Chemscore.Fitness>
12.2347

> <Gold.Chemscore.DG>
-16.0814

> <Gold.Chemscore.ZeroCoef>
-5.4800

> <Gold.Chemscore.Hbond>
1.8206

> <Gold.Chemscore.Metal>
0.0000

> <Gold.Chemscore.Lipo>
76.4970

> <Gold.Chemscore.Internal_Hbond>
0.0000

> <Gold.Chemscore.DEClash>
0.1214

> <Gold.Chemscore.DEInternal>
3.7253

> <Gold.Chemscore.Rot>
1.7302

> <Gold.Chemscore.Internal.Correction>
   9.000000E+99

> <Gold.Chemscore.Hbonds>
donor molecule, donor type, donor heavy atom, donor atom, acceptor molecule, acceptor atom, score
      P1  H  7997  8008       L1    12  0.96
      P1  H 10752 10763       L1    16  0.94

> <Gold.Chemscore.Hbond.Weighted>
-6.0807

> <Gold.Chemscore.Metal.Weighted>
-0.0000

> <Gold.Chemscore.Lipo.Weighted>
-8.9502

> <Gold.Chemscore.Internal_Hbond.Weighted>
0.0000

> <Gold.Chemscore.DEClash.Weighted>
0.1214

> <Gold.Chemscore.DEInternal.Weighted>
3.7253

> <Gold.Chemscore.Rot.Weighted>
4.4294

> <Gold.Chemscore.Internal.Correction.Weighted>
   9.000000E+99

> <Gold.Protein.RotatedTorsions>
[ 6907 6896 6895 6894 ] final -138.96 input  -60.11 | X-H torsion
[ 7974 7965 7964 7962 ] final  -67.29 input  175.53 | X-H torsion
[ 8008 7997 7996 7995 ] final  -70.21 input   59.86 | X-H torsion
[ 10167 10162 10161 10158 ] final  119.83 input  -65.29 | X-H torsion
[ 10718 10713 10712 10709 ] final -165.15 input   66.30 | X-H torsion
[ 10763 10752 10751 10750 ] final   61.96 input  -60.55 | X-H torsion
[ 11005 11000 10999 10996 ] final  -31.46 input  -57.11 | X-H torsion

> <Gold.Protein.ActiveResidues>
 VAL166  LYS551  ARG553  GLY616  TRP617  ASP618  TYR619  PRO620  LYS621  CYS622 
 ASP623  PHE694  ASN695  SER759  ASP760  ASP761  ALA762  ILE779  LEU786  VAL792 
 PHE793  MET794  SER795  GLU796  ALA797  LYS798  CYS799  TRP800  GLU811  SER814 

> <Gold.Protein.RotatedAtoms>
  151.0417  133.5700  159.2650 H   0  0  0  0  0  0  0  0  0  0  0  0  # atno 6907 bound_to 6896
  151.2744  135.0694  159.9156 H   0  0  0  0  0  0  0  0  0  0  0  0  # atno 6908 bound_to 6896
  152.5365  134.0142  159.8006 H   0  0  0  0  0  0  0  0  0  0  0  0  # atno 6909 bound_to 6896
  145.7310  140.8997  143.0580 H   0  0  0  0  0  0  0  0  0  0  0  0  # atno 7974 bound_to 7965
  154.4995  140.0838  156.7768 H   0  0  0  0  0  0  0  0  0  0  0  0  # atno 8008 bound_to 7997
  155.4036  140.3438  155.4240 H   0  0  0  0  0  0  0  0  0  0  0  0  # atno 8009 bound_to 7997
  156.1438  140.1537  156.8867 H   0  0  0  0  0  0  0  0  0  0  0  0  # atno 8010 bound_to 7997
  139.6021  144.7059  151.3039 H   0  0  0  0  0  0  0  0  0  0  0  0  # atno 10167 bound_to 10162
  156.6492  130.9000  151.3010 H   0  0  0  0  0  0  0  0  0  0  0  0  # atno 10718 bound_to 10713
  152.9967  135.5482  154.6117 H   0  0  0  0  0  0  0  0  0  0  0  0  # atno 10763 bound_to 10752
  154.5436  135.2821  155.1075 H   0  0  0  0  0  0  0  0  0  0  0  0  # atno 10764 bound_to 10752
  154.2342  135.6428  153.5238 H   0  0  0  0  0  0  0  0  0  0  0  0  # atno 10765 bound_to 10752
  140.9470  133.7244  156.1162 H   0  0  0  0  0  0  0  0  0  0  0  0  # atno 11005 bound_to 11000
  144.6893  139.9331  143.7472 LP  0  0  0  0  0  0  0  0  0  0  0  0  # atno 17320 bound_to 7965
  146.0537  139.3536  143.0624 LP  0  0  0  0  0  0  0  0  0  0  0  0  # atno 17321 bound_to 7965
  140.7257  143.7010  150.7845 LP  0  0  0  0  0  0  0  0  0  0  0  0  # atno 17342 bound_to 10162
  140.0588  143.5175  152.2638 LP  0  0  0  0  0  0  0  0  0  0  0  0  # atno 17343 bound_to 10162
  157.7146  130.9482  150.1210 LP  0  0  0  0  0  0  0  0  0  0  0  0  # atno 17370 bound_to 10713
  156.2097  130.3666  149.8685 LP  0  0  0  0  0  0  0  0  0  0  0  0  # atno 17371 bound_to 10713
  140.7655  134.3891  157.5518 LP  0  0  0  0  0  0  0  0  0  0  0  0  # atno 17394 bound_to 11000
  139.8836  134.8989  156.2755 LP  0  0  0  0  0  0  0  0  0  0  0  0  # atno 17395 bound_to 11000

$$$$
