AV-unprocessed.smi:1286|AV-procd|sdf|5375|dock3
  -GOLD-   22720 4523D 1   1.00000     0.00000
 Structure written by MMmdl.
 36 37  0  0  0  0  0  0  0  0  1 V2000
  149.6782  139.9205  154.4019 C   0  0  0  0  0  0  0  0  0  0  0  0
  148.7219  140.9763  154.9727 C   0  0  2  0  0  0  0  0  0  0  0  0
  147.8965  141.6518  153.8579 C   0  0  0  0  0  0  0  0  0  0  0  0
  146.7675  142.4080  154.3715 N   0  0  0  0  0  0  0  0  0  0  0  0
  145.8813  143.2021  153.6742 C   0  0  0  0  0  0  0  0  0  0  0  0
  144.9921  143.7091  154.5776 C   0  0  0  0  0  0  0  0  0  0  0  0
  145.4211  143.1597  155.8181 C   0  0  0  0  0  0  0  0  0  0  0  0
  146.4797  142.3763  155.6906 N   0  0  0  0  0  0  0  0  0  0  0  0
  149.4943  141.9768  155.7085 N   0  0  0  0  0  0  0  0  0  0  0  0
  150.5193  141.7254  156.5385 C   0  0  0  0  0  0  0  0  0  0  0  0
  150.9742  140.5986  156.7353 O   0  0  0  0  0  0  0  0  0  0  0  0
  151.1105  142.9371  157.2689 C   0  0  0  0  0  0  0  0  0  0  0  0
  151.1715  142.7762  158.8049 C   0  0  2  0  0  0  0  0  0  0  0  0
  151.8458  143.9277  159.5114 C   0  0  0  0  0  0  0  0  0  0  0  0
  152.8397  143.5359  160.3049 C   0  0  0  0  0  0  0  0  0  0  0  0
  153.0322  142.0451  160.2916 C   0  0  0  0  0  0  0  0  0  0  0  0
  151.9998  141.5453  159.2560 C   0  0  0  0  0  0  0  0  0  0  0  0
  149.1303  139.1468  153.8633 H   0  0  0  0  0  0  0  0  0  0  0  0
  150.2419  139.4307  155.1965 H   0  0  0  0  0  0  0  0  0  0  0  0
  150.3941  140.3643  153.7091 H   0  0  0  0  0  0  0  0  0  0  0  0
  148.0343  140.4586  155.6438 H   0  0  0  0  0  0  0  0  0  0  0  0
  148.5259  142.3226  153.2714 H   0  0  0  0  0  0  0  0  0  0  0  0
  147.5135  140.9007  153.1655 H   0  0  0  0  0  0  0  0  0  0  0  0
  145.9590  143.3419  152.6061 H   0  0  0  0  0  0  0  0  0  0  0  0
  144.1641  144.3742  154.3828 H   0  0  0  0  0  0  0  0  0  0  0  0
  144.9966  143.3040  156.8005 H   0  0  0  0  0  0  0  0  0  0  0  0
  149.1986  142.9369  155.6086 H   0  0  0  0  0  0  0  0  0  0  0  0
  152.1140  143.1106  156.8790 H   0  0  0  0  0  0  0  0  0  0  0  0
  150.5253  143.8240  157.0201 H   0  0  0  0  0  0  0  0  0  0  0  0
  150.1602  142.6941  159.2059 H   0  0  0  0  0  0  0  0  0  0  0  0
  151.5230  144.9503  159.3842 H   0  0  0  0  0  0  0  0  0  0  0  0
  153.4471  144.1907  160.9122 H   0  0  0  0  0  0  0  0  0  0  0  0
  154.0528  141.7928  160.0026 H   0  0  0  0  0  0  0  0  0  0  0  0
  152.8386  141.6367  161.2841 H   0  0  0  0  0  0  0  0  0  0  0  0
  151.3562  140.7754  159.6827 H   0  0  0  0  0  0  0  0  0  0  0  0
  152.5182  141.0907  158.4110 H   0  0  0  0  0  0  0  0  0  0  0  0
  1  2  1  0  0  0  0
  1 18  1  0  0  0  0
  1 19  1  0  0  0  0
  1 20  1  0  0  0  0
  2  3  1  0  0  0  0
  2  9  1  0  0  0  0
  2 21  1  0  0  0  0
  3  4  1  0  0  0  0
  3 22  1  0  0  0  0
  3 23  1  0  0  0  0
  4  8  1  0  0  0  0
  4  5  1  0  0  0  0
  5  6  2  0  0  0  0
  5 24  1  0  0  0  0
  6  7  1  0  0  0  0
  6 25  1  0  0  0  0
  7  8  2  0  0  0  0
  7 26  1  0  0  0  0
  9 10  1  0  0  0  0
  9 27  1  0  0  0  0
 10 11  2  0  0  0  0
 10 12  1  0  0  0  0
 12 13  1  0  0  0  0
 12 28  1  0  0  0  0
 12 29  1  0  0  0  0
 13 17  1  0  0  0  0
 13 14  1  0  0  0  0
 13 30  1  0  0  0  0
 14 15  2  0  0  0  0
 14 31  1  0  0  0  0
 15 16  1  0  0  0  0
 15 32  1  0  0  0  0
 16 17  1  0  0  0  0
 16 33  1  0  0  0  0
 16 34  1  0  0  0  0
 17 35  1  0  0  0  0
 17 36  1  0  0  0  0
M  END
> <s_m_source_file>
AV-unprocessed.smi

> <i_m_source_file_index>
1286

> <i_lp_mmshare_version>
43012

> <i_f3d_flags>
0

> <s_epik_input>
bjFbY0hdW2NIXVtjSF1uMVtDSDJdW0NAQEhdKFtDSDNdKVtOSF1DKD1PKVtDSDJdW0NAQEhdMltDSF09W0NIXVtDSDJdW0NIMl0y

> <s_epik_cmdline>
J2VwaWtfcHl0aG9uJywgJy1waCcsICc3LjAnLCAnLXRuJywgJzgnLCAnLW1hJywgJzIwMCcsICctbWV0YWxfYmluZGluZycsICctaW1hZScsICc8aW5maWxlLm1hZT4nLCAnLW9tYWUnLCAnPG91dGZpbGUubWFlPic=

> <r_lp_tautomer_probability>
1

> <r_epik_Ionization_Penalty>
0.000301761

> <r_epik_Ionization_Penalty_Charging>
0

> <r_epik_Ionization_Penalty_Neutral>
0.000301761

> <r_epik_State_Penalty>
-0

> <r_epik_Charging_Adjusted_Penalty>
0

> <i_epik_Tot_Q>
0

> <i_epik_Tot_abs_Q>
0

> <r_epik_Metal_State_Penalty>
-0

> <b_epik_Metal_Only>
0

> <s_lp_Force_Field>
OPLS_2005

> <r_lp_Energy>
16.2222

> <b_lp_Chiralities_Consistent>
1

> <s_lp_Variant>
AV-unprocessed.smi:1286-1

> <Gold.Version>
5.8.1

> <Gold.Id.Protein>
6NUR|6NUR_protein|mol2

> <Gold.PLP.Fitness>
43.9837

> <Gold.PLP.PLP>
-41.7138

> <Gold.PLP.part.hbond>
-1.0000

> <Gold.PLP.part.metal>
0.0000

> <Gold.PLP.part.buried>
-5.2054

> <Gold.PLP.part.nonpolar>
-35.4990

> <Gold.PLP.part.repulsive>
0.3004

> <Gold.PLP.ligand.clash>
0.0000

> <Gold.PLP.ligand.torsion>
0.3791

> <Gold.PLP.Chemscore.Hbond>
1.0000

> <Gold.PLP.Chemscore.CHOScore>
0.0000

> <Gold.PLP.Chemscore.Metal>
0.0000

> <Gold.Chemscore.Hbonds>
donor molecule, donor type, donor heavy atom, donor atom, acceptor molecule, acceptor atom, score
      L1  H     9    27       P1  8028  1.00

> <Gold.PLP.Chemscore.Internal.Correction>
0.0282

> <Gold.Rescore>
     Score         DG    S(hbond)    S(metal)    S(lipo)     H(rot)  DE(clash)    DE(int)     intcor
     13.68     -16.67       1.00        0.00     102.94       1.64       0.12       2.87       ----

> <Gold.Chemscore.Fitness>
13.6773

> <Gold.Chemscore.DG>
-16.6655

> <Gold.Chemscore.ZeroCoef>
-5.4800

> <Gold.Chemscore.Hbond>
0.9997

> <Gold.Chemscore.Metal>
0.0000

> <Gold.Chemscore.Lipo>
102.9356

> <Gold.Chemscore.Internal_Hbond>
0.0000

> <Gold.Chemscore.DEClash>
0.1171

> <Gold.Chemscore.DEInternal>
2.8711

> <Gold.Chemscore.Rot>
1.6394

> <Gold.Chemscore.Internal.Correction>
   9.000000E+99

> <Gold.Chemscore.Hbonds>
donor molecule, donor type, donor heavy atom, donor atom, acceptor molecule, acceptor atom, score
      L1  H     9    27       P1  8028  1.00

> <Gold.Chemscore.Hbond.Weighted>
-3.3390

> <Gold.Chemscore.Metal.Weighted>
-0.0000

> <Gold.Chemscore.Lipo.Weighted>
-12.0435

> <Gold.Chemscore.Internal_Hbond.Weighted>
0.0000

> <Gold.Chemscore.DEClash.Weighted>
0.1171

> <Gold.Chemscore.DEInternal.Weighted>
2.8711

> <Gold.Chemscore.Rot.Weighted>
4.1969

> <Gold.Chemscore.Internal.Correction.Weighted>
   9.000000E+99

> <Gold.Protein.RotatedTorsions>
[ 6907 6896 6895 6894 ] final -106.85 input  -60.11 | X-H torsion
[ 7974 7965 7964 7962 ] final -135.46 input  175.53 | X-H torsion
[ 8008 7997 7996 7995 ] final  173.96 input   59.86 | X-H torsion
[ 10167 10162 10161 10158 ] final  119.60 input  -65.29 | X-H torsion
[ 10718 10713 10712 10709 ] final  -38.39 input   66.30 | X-H torsion
[ 10763 10752 10751 10750 ] final  174.64 input  -60.55 | X-H torsion
[ 11005 11000 10999 10996 ] final   39.05 input  -57.11 | X-H torsion

> <Gold.Protein.ActiveResidues>
 VAL166  LYS551  ARG553  GLY616  TRP617  ASP618  TYR619  PRO620  LYS621  CYS622 
 ASP623  PHE694  ASN695  SER759  ASP760  ASP761  ALA762  ILE779  LEU786  VAL792 
 PHE793  MET794  SER795  GLU796  ALA797  LYS798  CYS799  TRP800  GLU811  SER814 

> <Gold.Protein.RotatedAtoms>
  150.7411  133.9915  159.3608 H   0  0  0  0  0  0  0  0  0  0  0  0  # atno 6907 bound_to 6896
  151.7863  135.0746  160.0390 H   0  0  0  0  0  0  0  0  0  0  0  0  # atno 6908 bound_to 6896
  152.3239  133.5847  159.5799 H   0  0  0  0  0  0  0  0  0  0  0  0  # atno 6909 bound_to 6896
  144.9012  140.6774  143.5083 H   0  0  0  0  0  0  0  0  0  0  0  0  # atno 7974 bound_to 7965
  156.1022  140.1446  156.9451 H   0  0  0  0  0  0  0  0  0  0  0  0  # atno 8008 bound_to 7997
  154.4710  140.0910  156.7190 H   0  0  0  0  0  0  0  0  0  0  0  0  # atno 8009 bound_to 7997
  155.4740  140.3442  155.4332 H   0  0  0  0  0  0  0  0  0  0  0  0  # atno 8010 bound_to 7997
  139.6036  144.7063  151.3006 H   0  0  0  0  0  0  0  0  0  0  0  0  # atno 10167 bound_to 10162
  156.3043  130.4244  149.8112 H   0  0  0  0  0  0  0  0  0  0  0  0  # atno 10718 bound_to 10713
  154.4567  135.2766  155.1742 H   0  0  0  0  0  0  0  0  0  0  0  0  # atno 10763 bound_to 10752
  154.3546  135.6142  153.5663 H   0  0  0  0  0  0  0  0  0  0  0  0  # atno 10764 bound_to 10752
  152.9851  135.5820  154.4922 H   0  0  0  0  0  0  0  0  0  0  0  0  # atno 10765 bound_to 10752
  140.2066  134.3806  155.8069 H   0  0  0  0  0  0  0  0  0  0  0  0  # atno 11005 bound_to 11000
  145.3613  139.1681  143.4382 LP  0  0  0  0  0  0  0  0  0  0  0  0  # atno 17320 bound_to 7965
  146.3109  140.3675  142.8671 LP  0  0  0  0  0  0  0  0  0  0  0  0  # atno 17321 bound_to 7965
  140.7268  143.6980  150.7867 LP  0  0  0  0  0  0  0  0  0  0  0  0  # atno 17342 bound_to 10162
  140.0562  143.5200  152.2650 LP  0  0  0  0  0  0  0  0  0  0  0  0  # atno 17343 bound_to 10162
  156.5478  130.8328  151.3290 LP  0  0  0  0  0  0  0  0  0  0  0  0  # atno 17370 bound_to 10713
  157.7376  130.9798  150.2201 LP  0  0  0  0  0  0  0  0  0  0  0  0  # atno 17371 bound_to 10713
  141.2227  133.7121  156.8348 LP  0  0  0  0  0  0  0  0  0  0  0  0  # atno 17394 bound_to 11000
  140.1996  134.8907  157.3154 LP  0  0  0  0  0  0  0  0  0  0  0  0  # atno 17395 bound_to 11000

$$$$
