AV-unprocessed.smi:261|AV-procd|sdf|1987|dock8
  -GOLD-   2262021173D 1   1.00000     0.00000
 Structure written by MMmdl.
 51 54  0  0  0  0  0  0  0  0  1 V2000
  147.5110  132.4902  152.4686 C   0  0  0  0  0  0  0  0  0  0  0  0
  148.7710  132.9538  152.9260 O   0  0  0  0  0  0  0  0  0  0  0  0
  148.6914  133.7096  154.1253 C   0  0  1  0  0  0  0  0  0  0  0  0
  148.3114  132.8210  155.3030 C   0  0  0  0  0  0  0  0  0  0  0  0
  148.7936  133.6296  156.5152 C   0  0  1  0  0  0  0  0  0  0  0  0
  149.0737  132.7329  157.7298 C   0  0  0  0  0  0  0  0  0  0  0  0
  148.0675  131.9650  158.1543 N   0  0  0  0  0  0  0  0  0  0  0  0
  150.1791  132.7182  158.2690 O   0  0  0  0  0  0  0  0  0  0  0  0
  150.0010  134.3091  156.0365 N   0  0  0  0  0  0  0  0  0  0  0  0
  150.2535  135.5056  156.6119 C   0  0  0  0  0  0  0  0  0  0  0  0
  149.9572  135.6370  157.9277 N   0  0  0  0  0  0  0  0  0  0  0  0
  150.1809  136.7992  158.5489 C   0  0  0  0  0  0  0  0  0  0  0  0
  150.6831  137.9312  158.0493 N   0  0  0  0  0  0  0  0  0  0  0  0
  150.9785  137.7998  156.7239 C   0  0  0  0  0  0  0  0  0  0  0  0
  150.7962  136.6321  155.9321 C   0  0  0  0  0  0  0  0  0  0  0  0
  151.2037  136.8744  154.6255 N   0  0  0  0  0  0  0  0  0  0  0  0
  151.6047  138.1165  154.6440 C   0  0  0  0  0  0  0  0  0  0  0  0
  151.5038  138.7470  155.8633 N   0  0  0  0  0  0  0  0  0  0  0  0
  151.8725  140.1192  156.1632 C   0  0  0  0  0  0  0  0  0  0  0  0
  151.9769  140.3850  157.6780 C   0  0  1  0  0  0  0  0  0  0  0  0
  153.2052  139.8757  158.1619 O   0  0  0  0  0  0  0  0  0  0  0  0
  151.8951  141.8864  158.0093 C   0  0  2  0  0  0  0  0  0  0  0  0
  152.3571  142.2539  159.4189 C   0  0  0  0  0  0  0  0  0  0  0  0
  151.6694  143.5844  159.6694 C   0  0  0  0  0  0  0  0  0  0  0  0
  150.4925  143.5808  158.6889 C   0  0  0  0  0  0  0  0  0  0  0  0
  150.5440  142.3208  158.0310 O   0  0  0  0  0  0  0  0  0  0  0  0
  150.0373  134.2849  154.5769 C   0  0  0  0  0  0  0  0  0  0  0  0
  147.9508  134.5066  154.0338 H   0  0  0  0  0  0  0  0  0  0  0  0
  148.0298  134.3647  156.7782 H   0  0  0  0  0  0  0  0  0  0  0  0
  147.6471  131.9000  151.5625 H   0  0  0  0  0  0  0  0  0  0  0  0
  146.8419  133.3174  152.2300 H   0  0  0  0  0  0  0  0  0  0  0  0
  147.0308  131.8547  153.2138 H   0  0  0  0  0  0  0  0  0  0  0  0
  147.2425  132.6082  155.3357 H   0  0  0  0  0  0  0  0  0  0  0  0
  148.8416  131.8689  155.2334 H   0  0  0  0  0  0  0  0  0  0  0  0
  148.1975  131.3556  158.9487 H   0  0  0  0  0  0  0  0  0  0  0  0
  147.1785  131.9969  157.6767 H   0  0  0  0  0  0  0  0  0  0  0  0
  149.9198  136.8260  159.5965 H   0  0  0  0  0  0  0  0  0  0  0  0
  151.9853  138.6118  153.7626 H   0  0  0  0  0  0  0  0  0  0  0  0
  152.8184  140.3442  155.6689 H   0  0  0  0  0  0  0  0  0  0  0  0
  151.1257  140.7754  155.7148 H   0  0  0  0  0  0  0  0  0  0  0  0
  151.1717  139.8578  158.1917 H   0  0  0  0  0  0  0  0  0  0  0  0
  153.2015  139.9294  159.1054 H   0  0  0  0  0  0  0  0  0  0  0  0
  152.4444  142.4743  157.2712 H   0  0  0  0  0  0  0  0  0  0  0  0
  151.9995  141.5151  160.1372 H   0  0  0  0  0  0  0  0  0  0  0  0
  153.4420  142.3140  159.5086 H   0  0  0  0  0  0  0  0  0  0  0  0
  151.3451  143.6804  160.7058 H   0  0  0  0  0  0  0  0  0  0  0  0
  152.3404  144.4151  159.4482 H   0  0  0  0  0  0  0  0  0  0  0  0
  149.5334  143.7098  159.1908 H   0  0  0  0  0  0  0  0  0  0  0  0
  150.6019  144.3795  157.9542 H   0  0  0  0  0  0  0  0  0  0  0  0
  150.8507  133.6209  154.2824 H   0  0  0  0  0  0  0  0  0  0  0  0
  150.2341  135.2571  154.1219 H   0  0  0  0  0  0  0  0  0  0  0  0
  1  2  1  0  0  0  0
  1 30  1  0  0  0  0
  1 31  1  0  0  0  0
  1 32  1  0  0  0  0
  2  3  1  0  0  0  0
  3 28  1  0  0  0  0
  3 27  1  0  0  0  0
  3  4  1  0  0  0  0
  4  5  1  0  0  0  0
  4 33  1  0  0  0  0
  4 34  1  0  0  0  0
  5 29  1  0  0  0  0
  5  6  1  0  0  0  0
  5  9  1  0  0  0  0
  6  7  1  0  0  0  0
  6  8  2  0  0  0  0
  7 35  1  0  0  0  0
  7 36  1  0  0  0  0
  9 10  1  0  0  0  0
  9 27  1  0  0  0  0
 10 15  1  0  0  0  0
 10 11  2  0  0  0  0
 11 12  1  0  0  0  0
 12 13  2  0  0  0  0
 12 37  1  0  0  0  0
 13 14  1  0  0  0  0
 14 18  1  0  0  0  0
 14 15  2  0  0  0  0
 15 16  1  0  0  0  0
 16 17  2  0  0  0  0
 17 18  1  0  0  0  0
 17 38  1  0  0  0  0
 18 19  1  0  0  0  0
 19 20  1  0  0  0  0
 19 39  1  0  0  0  0
 19 40  1  0  0  0  0
 20 21  1  0  0  0  0
 20 22  1  0  0  0  0
 20 41  1  0  0  0  0
 21 42  1  0  0  0  0
 22 26  1  0  0  0  0
 22 23  1  0  0  0  0
 22 43  1  0  0  0  0
 23 24  1  0  0  0  0
 23 44  1  0  0  0  0
 23 45  1  0  0  0  0
 24 25  1  0  0  0  0
 24 46  1  0  0  0  0
 24 47  1  0  0  0  0
 25 26  1  0  0  0  0
 25 48  1  0  0  0  0
 25 49  1  0  0  0  0
 27 50  1  0  0  0  0
 27 51  1  0  0  0  0
M  END
> <s_m_source_file>
AV-unprocessed.smi

> <i_m_source_file_index>
261

> <i_lp_mmshare_version>
43012

> <i_f3d_flags>
0

> <s_epik_input>
W0NIM11PW0NASF0xW0NIMl1bQ0BASF0oQyg9TylbTkgyXSlOKFtDSDJdMSljKG5bY0hdbjIpYyhjMjMpbltjSF1uM1tDSDJdW0NASF0oW09IXSlbQ0BASF00W0NIMl1bQ0gyXVtDSDJdTzQ=

> <s_epik_cmdline>
J2VwaWtfcHl0aG9uJywgJy1waCcsICc3LjAnLCAnLXRuJywgJzgnLCAnLW1hJywgJzIwMCcsICctbWV0YWxfYmluZGluZycsICctaW1hZScsICc8aW5maWxlLm1hZT4nLCAnLW9tYWUnLCAnPG91dGZpbGUubWFlPic=

> <r_lp_tautomer_probability>
1

> <r_epik_Ionization_Penalty>
0.000713824

> <r_epik_Ionization_Penalty_Charging>
0

> <r_epik_Ionization_Penalty_Neutral>
0.000713824

> <r_epik_State_Penalty>
0.000402132

> <r_epik_Charging_Adjusted_Penalty>
0.000402132

> <i_epik_Tot_Q>
0

> <i_epik_Tot_abs_Q>
0

> <r_epik_Metal_State_Penalty>
-0

> <b_epik_Metal_Only>
0

> <s_lp_Force_Field>
OPLS_2005

> <r_lp_Energy>
45.3763

> <b_lp_Chiralities_Consistent>
1

> <s_lp_Variant>
AV-unprocessed.smi:261-5

> <Gold.Version>
5.8.1

> <Gold.Id.Protein>
6NUR|6NUR_protein|mol2

> <Gold.PLP.Fitness>
40.5953

> <Gold.PLP.PLP>
-33.9789

> <Gold.PLP.part.hbond>
-3.9044

> <Gold.PLP.part.metal>
0.0000

> <Gold.PLP.part.buried>
-4.4697

> <Gold.PLP.part.nonpolar>
-25.9903

> <Gold.PLP.part.repulsive>
0.4889

> <Gold.PLP.ligand.clash>
0.0000

> <Gold.PLP.ligand.torsion>
1.2588

> <Gold.PLP.Chemscore.Hbond>
2.9913

> <Gold.PLP.Chemscore.CHOScore>
0.0000

> <Gold.PLP.Chemscore.Metal>
0.0000

> <Gold.Chemscore.Hbonds>
donor molecule, donor type, donor heavy atom, donor atom, acceptor molecule, acceptor atom, score
      P1  H  6896  6909       L1     8  0.98
      P1  H  7997  8008       L1    21  1.00
      P1  H 10752 10763       L1    16  0.73

> <Gold.PLP.Chemscore.Internal.Correction>
0.1602

> <Gold.Rescore>
     Score         DG    S(hbond)    S(metal)    S(lipo)     H(rot)  DE(clash)    DE(int)     intcor
      6.40     -12.59       2.15        0.00      77.75       3.57       0.07       6.12       ----

> <Gold.Chemscore.Fitness>
6.3986

> <Gold.Chemscore.DG>
-12.5920

> <Gold.Chemscore.ZeroCoef>
-5.4800

> <Gold.Chemscore.Hbond>
2.1452

> <Gold.Chemscore.Metal>
0.0000

> <Gold.Chemscore.Lipo>
77.7469

> <Gold.Chemscore.Internal_Hbond>
0.0000

> <Gold.Chemscore.DEClash>
0.0734

> <Gold.Chemscore.DEInternal>
6.1200

> <Gold.Chemscore.Rot>
3.5740

> <Gold.Chemscore.Internal.Correction>
   9.000000E+99

> <Gold.Chemscore.Hbonds>
donor molecule, donor type, donor heavy atom, donor atom, acceptor molecule, acceptor atom, score
      P1  H  6896  6909       L1     8  0.92
      P1  H  7997  8008       L1    21  0.93
      P1  H 10752 10763       L1    16  0.14

> <Gold.Chemscore.Hbond.Weighted>
-7.1651

> <Gold.Chemscore.Metal.Weighted>
-0.0000

> <Gold.Chemscore.Lipo.Weighted>
-9.0964

> <Gold.Chemscore.Internal_Hbond.Weighted>
0.0000

> <Gold.Chemscore.DEClash.Weighted>
0.0734

> <Gold.Chemscore.DEInternal.Weighted>
6.1200

> <Gold.Chemscore.Rot.Weighted>
9.1495

> <Gold.Chemscore.Internal.Correction.Weighted>
   9.000000E+99

> <Gold.Protein.RotatedTorsions>
[ 6907 6896 6895 6894 ] final  -28.25 input  -60.11 | X-H torsion
[ 7974 7965 7964 7962 ] final  -31.64 input  175.53 | X-H torsion
[ 8008 7997 7996 7995 ] final  -96.87 input   59.86 | X-H torsion
[ 10167 10162 10161 10158 ] final  -99.59 input  -65.29 | X-H torsion
[ 10718 10713 10712 10709 ] final -111.18 input   66.30 | X-H torsion
[ 10763 10752 10751 10750 ] final   55.50 input  -60.55 | X-H torsion
[ 11005 11000 10999 10996 ] final   91.08 input  -57.11 | X-H torsion

> <Gold.Protein.ActiveResidues>
 VAL166  LYS551  ARG553  GLY616  TRP617  ASP618  TYR619  PRO620  LYS621  CYS622 
 ASP623  PHE694  ASN695  SER759  ASP760  ASP761  ALA762  ILE779  LEU786  VAL792 
 PHE793  MET794  SER795  GLU796  ALA797  LYS798  CYS799  TRP800  GLU811  SER814 

> <Gold.Protein.RotatedAtoms>
  151.1356  135.0153  159.8601 H   0  0  0  0  0  0  0  0  0  0  0  0  # atno 6907 bound_to 6896
  152.5452  134.1559  159.8548 H   0  0  0  0  0  0  0  0  0  0  0  0  # atno 6908 bound_to 6896
  151.1630  133.4787  159.2627 H   0  0  0  0  0  0  0  0  0  0  0  0  # atno 6909 bound_to 6896
  146.1052  140.5693  142.8803 H   0  0  0  0  0  0  0  0  0  0  0  0  # atno 7974 bound_to 7965
  154.7802  140.0467  157.1121 H   0  0  0  0  0  0  0  0  0  0  0  0  # atno 8008 bound_to 7997
  154.9714  140.3090  155.4967 H   0  0  0  0  0  0  0  0  0  0  0  0  # atno 8009 bound_to 7997
  156.2935  140.2252  156.4806 H   0  0  0  0  0  0  0  0  0  0  0  0  # atno 8010 bound_to 7997
  140.2608  143.3409  152.0627 H   0  0  0  0  0  0  0  0  0  0  0  0  # atno 10167 bound_to 10162
  156.0633  130.5854  150.8339 H   0  0  0  0  0  0  0  0  0  0  0  0  # atno 10718 bound_to 10713
  152.9818  135.5709  154.5076 H   0  0  0  0  0  0  0  0  0  0  0  0  # atno 10763 bound_to 10752
  154.4585  135.2781  155.1732 H   0  0  0  0  0  0  0  0  0  0  0  0  # atno 10764 bound_to 10752
  154.3329  135.6245  153.5613 H   0  0  0  0  0  0  0  0  0  0  0  0  # atno 10765 bound_to 10752
  139.8845  134.8652  156.3376 H   0  0  0  0  0  0  0  0  0  0  0  0  # atno 11005 bound_to 11000
  144.7465  140.5080  143.6832 LP  0  0  0  0  0  0  0  0  0  0  0  0  # atno 17320 bound_to 7965
  145.5776  139.1487  143.3253 LP  0  0  0  0  0  0  0  0  0  0  0  0  # atno 17321 bound_to 7965
  139.5017  144.6720  151.6220 LP  0  0  0  0  0  0  0  0  0  0  0  0  # atno 17342 bound_to 10162
  140.5967  143.9683  150.6359 LP  0  0  0  0  0  0  0  0  0  0  0  0  # atno 17343 bound_to 10162
  157.5657  131.0946  150.9494 LP  0  0  0  0  0  0  0  0  0  0  0  0  # atno 17370 bound_to 10713
  156.9721  130.5495  149.5291 LP  0  0  0  0  0  0  0  0  0  0  0  0  # atno 17371 bound_to 10713
  140.9680  133.7345  156.0494 LP  0  0  0  0  0  0  0  0  0  0  0  0  # atno 17394 bound_to 11000
  140.7906  134.3622  157.5465 LP  0  0  0  0  0  0  0  0  0  0  0  0  # atno 17395 bound_to 11000

$$$$
