AV-unprocessed.smi:24|AV-procd|sdf|177|dock6
  -GOLD-   2262015433D 1   1.00000     0.00000
 Structure written by MMmdl.
 61 65  0  0  0  0  0  0  0  0  1 V2000
  136.0033  136.6729  156.2009 C   0  0  0  0  0  0  0  0  0  0  0  0
  136.5374  137.5436  155.2144 O   0  0  0  0  0  0  0  0  0  0  0  0
  137.8958  137.5062  154.9829 C   0  0  0  0  0  0  0  0  0  0  0  0
  138.3904  138.3134  153.9388 C   0  0  0  0  0  0  0  0  0  0  0  0
  139.7642  138.3376  153.6337 C   0  0  0  0  0  0  0  0  0  0  0  0
  140.6714  137.5430  154.3683 C   0  0  0  0  0  0  0  0  0  0  0  0
  142.1692  137.5552  154.0647 C   0  0  2  0  0  0  0  0  0  0  0  0
  142.4926  136.8494  152.7450 C   0  0  0  0  0  0  0  0  0  0  0  0
  143.4479  135.7948  153.1933 C   0  0  0  0  0  0  0  0  0  0  0  0
  144.0347  134.8222  152.2451 C   0  0  0  0  0  0  0  0  0  0  0  0
  145.1330  135.2097  151.4436 C   0  0  0  0  0  0  0  0  0  0  0  0
  145.6886  134.2861  150.5367 C   0  0  0  0  0  0  0  0  0  0  0  0
  145.1517  132.9878  150.4307 C   0  0  0  0  0  0  0  0  0  0  0  0
  144.0569  132.6065  151.2314 C   0  0  0  0  0  0  0  0  0  0  0  0
  143.4930  133.5209  152.1428 C   0  0  0  0  0  0  0  0  0  0  0  0
  143.6949  135.8207  154.4505 N   0  0  0  0  0  0  0  0  0  0  0  0
  143.0043  136.8323  155.0336 N   0  0  0  0  0  0  0  0  0  0  0  0
  143.1615  137.1850  156.3288 C   0  0  0  0  0  0  0  0  0  0  0  0
  142.6210  138.1867  156.8012 O   0  0  0  0  0  0  0  0  0  0  0  0
  144.0535  136.2981  157.2232 C   0  0  0  0  0  0  0  0  0  0  0  0
  145.2671  136.9868  157.7147 N   0  0  0  0  0  0  0  0  0  0  0  0
  146.2369  137.4005  156.7690 C   0  0  0  0  0  0  0  0  0  0  0  0
  146.0890  137.1849  155.5649 O   0  0  0  0  0  0  0  0  0  0  0  0
  147.3971  138.0888  157.3203 C   0  0  0  0  0  0  0  0  0  0  0  0
  148.3425  138.5668  156.4934 F   0  0  0  0  0  0  0  0  0  0  0  0
  147.5298  138.2719  158.6498 C   0  0  0  0  0  0  0  0  0  0  0  0
  146.6041  137.8106  159.5716 N   0  0  0  0  0  0  0  0  0  0  0  0
  146.7258  138.0810  161.0643 C   0  0  1  0  0  0  0  0  0  0  0  0
  146.8146  136.8180  161.9306 C   0  0  0  0  0  0  0  0  0  0  0  0
  148.3166  136.6361  162.1333 C   0  0  0  0  0  0  0  0  0  0  0  0
  148.9570  137.8253  161.4086 C   0  0  0  0  0  0  0  0  0  0  0  0
  147.9089  138.7779  161.2921 O   0  0  0  0  0  0  0  0  0  0  0  0
  145.4238  137.1866  159.1072 C   0  0  0  0  0  0  0  0  0  0  0  0
  144.5536  136.8180  159.8993 O   0  0  0  0  0  0  0  0  0  0  0  0
  140.1843  136.7391  155.4186 C   0  0  0  0  0  0  0  0  0  0  0  0
  138.8096  136.7167  155.7248 C   0  0  0  0  0  0  0  0  0  0  0  0
  134.9246  136.8171  156.2616 H   0  0  0  0  0  0  0  0  0  0  0  0
  136.4204  136.8841  157.1863 H   0  0  0  0  0  0  0  0  0  0  0  0
  136.1821  135.6269  155.9488 H   0  0  0  0  0  0  0  0  0  0  0  0
  137.7083  138.9235  153.3649 H   0  0  0  0  0  0  0  0  0  0  0  0
  140.1144  138.9713  152.8323 H   0  0  0  0  0  0  0  0  0  0  0  0
  142.5152  138.5898  154.0186 H   0  0  0  0  0  0  0  0  0  0  0  0
  141.6096  136.4048  152.2834 H   0  0  0  0  0  0  0  0  0  0  0  0
  142.9569  137.5303  152.0308 H   0  0  0  0  0  0  0  0  0  0  0  0
  145.5583  136.2007  151.5102 H   0  0  0  0  0  0  0  0  0  0  0  0
  146.5276  134.5745  149.9207 H   0  0  0  0  0  0  0  0  0  0  0  0
  145.5803  132.2828  149.7335 H   0  0  0  0  0  0  0  0  0  0  0  0
  143.6484  131.6103  151.1455 H   0  0  0  0  0  0  0  0  0  0  0  0
  142.6536  133.2049  152.7443 H   0  0  0  0  0  0  0  0  0  0  0  0
  143.4617  135.9357  158.0655 H   0  0  0  0  0  0  0  0  0  0  0  0
  144.3090  135.3932  156.6695 H   0  0  0  0  0  0  0  0  0  0  0  0
  148.4006  138.8139  158.9825 H   0  0  0  0  0  0  0  0  0  0  0  0
  145.8504  138.6788  161.3232 H   0  0  0  0  0  0  0  0  0  0  0  0
  146.3409  137.0311  162.8894 H   0  0  0  0  0  0  0  0  0  0  0  0
  146.2973  135.9658  161.4908 H   0  0  0  0  0  0  0  0  0  0  0  0
  148.5557  136.6602  163.1968 H   0  0  0  0  0  0  0  0  0  0  0  0
  148.6756  135.6875  161.7336 H   0  0  0  0  0  0  0  0  0  0  0  0
  149.8074  138.2368  161.9524 H   0  0  0  0  0  0  0  0  0  0  0  0
  149.3028  137.5363  160.4154 H   0  0  0  0  0  0  0  0  0  0  0  0
  140.8664  136.1322  155.9958 H   0  0  0  0  0  0  0  0  0  0  0  0
  138.4814  136.0844  156.5353 H   0  0  0  0  0  0  0  0  0  0  0  0
  1  2  1  0  0  0  0
  1 37  1  0  0  0  0
  1 38  1  0  0  0  0
  1 39  1  0  0  0  0
  2  3  1  0  0  0  0
  3 36  1  0  0  0  0
  3  4  2  0  0  0  0
  4  5  1  0  0  0  0
  4 40  1  0  0  0  0
  5  6  2  0  0  0  0
  5 41  1  0  0  0  0
  6  7  1  0  0  0  0
  6 35  1  0  0  0  0
  7 17  1  0  0  0  0
  7  8  1  0  0  0  0
  7 42  1  0  0  0  0
  8  9  1  0  0  0  0
  8 43  1  0  0  0  0
  8 44  1  0  0  0  0
  9 10  1  0  0  0  0
  9 16  2  0  0  0  0
 10 15  1  0  0  0  0
 10 11  2  0  0  0  0
 11 12  1  0  0  0  0
 11 45  1  0  0  0  0
 12 13  2  0  0  0  0
 12 46  1  0  0  0  0
 13 14  1  0  0  0  0
 13 47  1  0  0  0  0
 14 15  2  0  0  0  0
 14 48  1  0  0  0  0
 15 49  1  0  0  0  0
 16 17  1  0  0  0  0
 17 18  1  0  0  0  0
 18 19  2  0  0  0  0
 18 20  1  0  0  0  0
 20 21  1  0  0  0  0
 20 50  1  0  0  0  0
 20 51  1  0  0  0  0
 21 33  1  0  0  0  0
 21 22  1  0  0  0  0
 22 23  2  0  0  0  0
 22 24  1  0  0  0  0
 24 25  1  0  0  0  0
 24 26  2  0  0  0  0
 26 27  1  0  0  0  0
 26 52  1  0  0  0  0
 27 28  1  0  0  0  0
 27 33  1  0  0  0  0
 28 32  1  0  0  0  0
 28 29  1  0  0  0  0
 28 53  1  0  0  0  0
 29 30  1  0  0  0  0
 29 54  1  0  0  0  0
 29 55  1  0  0  0  0
 30 31  1  0  0  0  0
 30 56  1  0  0  0  0
 30 57  1  0  0  0  0
 31 32  1  0  0  0  0
 31 58  1  0  0  0  0
 31 59  1  0  0  0  0
 33 34  2  0  0  0  0
 35 36  2  0  0  0  0
 35 60  1  0  0  0  0
 36 61  1  0  0  0  0
M  END
> <s_m_source_file>
AV-unprocessed.smi

> <i_m_source_file_index>
24

> <i_lp_mmshare_version>
43012

> <i_f3d_flags>
0

> <s_epik_input>
W0NIM11PYzFbY0hdW2NIXWMoW2NIXVtjSF0xKVtDQEBIXTJbQ0gyXUMoYzNbY0hdW2NIXVtjSF1bY0hdW2NIXTMpPU5OMkMoPU8pW0NIMl1uNGMoPU8pYyhGKVtjSF1uKGM0PU8pW0NAQEhdNVtDSDJdW0NIMl1bQ0gyXU81

> <s_epik_cmdline>
J2VwaWtfcHl0aG9uJywgJy1waCcsICc3LjAnLCAnLXRuJywgJzgnLCAnLW1hJywgJzIwMCcsICctbWV0YWxfYmluZGluZycsICctaW1hZScsICc8aW5maWxlLm1hZT4nLCAnLW9tYWUnLCAnPG91dGZpbGUubWFlPic=

> <r_lp_tautomer_probability>
1

> <r_epik_Ionization_Penalty>
1.46326e-08

> <r_epik_Ionization_Penalty_Charging>
4.53232e-09

> <r_epik_Ionization_Penalty_Neutral>
1.01002e-08

> <r_epik_State_Penalty>
-0

> <r_epik_Charging_Adjusted_Penalty>
4.53232e-09

> <i_epik_Tot_Q>
0

> <i_epik_Tot_abs_Q>
0

> <r_epik_Metal_State_Penalty>
-0

> <b_epik_Metal_Only>
0

> <s_epik_Chemistry_Notes>
This compound has an imine and may undergo hydrolysis. This compound contains an acetal/aminal-like group ( X-CH(R)-Y where X, Y are N, S, or O) that may be acid/base labile, releasing an aldehyde.

> <s_lp_Force_Field>
OPLS_2005

> <r_lp_Energy>
47.9394

> <b_lp_Chiralities_Consistent>
1

> <s_lp_Variant>
AV-unprocessed.smi:24-3

> <Gold.Version>
5.8.1

> <Gold.Id.Protein>
6NUR|6NUR_protein|mol2

> <Gold.PLP.Fitness>
46.7266

> <Gold.PLP.PLP>
-47.8223

> <Gold.PLP.part.hbond>
-2.0000

> <Gold.PLP.part.metal>
0.0000

> <Gold.PLP.part.buried>
-6.8367

> <Gold.PLP.part.nonpolar>
-39.6659

> <Gold.PLP.part.repulsive>
0.0517

> <Gold.PLP.ligand.clash>
0.0000

> <Gold.PLP.ligand.torsion>
1.7301

> <Gold.PLP.Chemscore.Hbond>
0.7200

> <Gold.PLP.Chemscore.CHOScore>
0.0000

> <Gold.PLP.Chemscore.Metal>
0.0000

> <Gold.PLP.Chemscore.Internal.Correction>
0.2045

> <Gold.Rescore>
     Score         DG    S(hbond)    S(metal)    S(lipo)     H(rot)  DE(clash)    DE(int)     intcor
     12.71     -18.63       0.82        0.00     132.33       1.98       2.68       3.25       ----

> <Gold.Chemscore.Fitness>
12.7066

> <Gold.Chemscore.DG>
-18.6313

> <Gold.Chemscore.ZeroCoef>
-5.4800

> <Gold.Chemscore.Hbond>
0.8159

> <Gold.Chemscore.Metal>
0.0000

> <Gold.Chemscore.Lipo>
132.3265

> <Gold.Chemscore.Internal_Hbond>
0.0000

> <Gold.Chemscore.DEClash>
2.6761

> <Gold.Chemscore.DEInternal>
3.2486

> <Gold.Chemscore.Rot>
1.9750

> <Gold.Chemscore.Internal.Correction>
   9.000000E+99

> <Gold.Chemscore.Hbond.Weighted>
-2.7251

> <Gold.Chemscore.Metal.Weighted>
-0.0000

> <Gold.Chemscore.Lipo.Weighted>
-15.4822

> <Gold.Chemscore.Internal_Hbond.Weighted>
0.0000

> <Gold.Chemscore.DEClash.Weighted>
2.6761

> <Gold.Chemscore.DEInternal.Weighted>
3.2486

> <Gold.Chemscore.Rot.Weighted>
5.0561

> <Gold.Chemscore.Internal.Correction.Weighted>
   9.000000E+99

> <Gold.Protein.RotatedTorsions>
[ 6907 6896 6895 6894 ] final   39.18 input  -60.11 | X-H torsion
[ 7974 7965 7964 7962 ] final -105.84 input  175.53 | X-H torsion
[ 8008 7997 7996 7995 ] final -136.62 input   59.86 | X-H torsion
[ 10167 10162 10161 10158 ] final  -57.19 input  -65.29 | X-H torsion
[ 10718 10713 10712 10709 ] final  170.50 input   66.30 | X-H torsion
[ 10763 10752 10751 10750 ] final -162.15 input  -60.55 | X-H torsion
[ 11005 11000 10999 10996 ] final -144.35 input  -57.11 | X-H torsion

> <Gold.Protein.ActiveResidues>
 VAL166  LYS551  ARG553  GLY616  TRP617  ASP618  TYR619  PRO620  LYS621  CYS622 
 ASP623  PHE694  ASN695  SER759  ASP760  ASP761  ALA762  ILE779  LEU786  VAL792 
 PHE793  MET794  SER795  GLU796  ALA797  LYS798  CYS799  TRP800  GLU811  SER814 

> <Gold.Protein.RotatedAtoms>
  152.1662  134.8872  160.0537 H   0  0  0  0  0  0  0  0  0  0  0  0  # atno 6907 bound_to 6896
  151.9849  133.3765  159.4130 H   0  0  0  0  0  0  0  0  0  0  0  0  # atno 6908 bound_to 6896
  150.6895  134.3922  159.5125 H   0  0  0  0  0  0  0  0  0  0  0  0  # atno 6909 bound_to 6896
  145.2254  140.9150  143.3235 H   0  0  0  0  0  0  0  0  0  0  0  0  # atno 7974 bound_to 7965
  155.3982  140.0504  157.3038 H   0  0  0  0  0  0  0  0  0  0  0  0  # atno 8008 bound_to 7997
  154.5003  140.2154  155.9321 H   0  0  0  0  0  0  0  0  0  0  0  0  # atno 8009 bound_to 7997
  156.1459  140.3145  155.8575 H   0  0  0  0  0  0  0  0  0  0  0  0  # atno 8010 bound_to 7997
  140.6273  143.2444  151.5331 H   0  0  0  0  0  0  0  0  0  0  0  0  # atno 10167 bound_to 10162
  157.0071  131.0193  151.2814 H   0  0  0  0  0  0  0  0  0  0  0  0  # atno 10718 bound_to 10713
  154.7240  135.3032  154.9001 H   0  0  0  0  0  0  0  0  0  0  0  0  # atno 10763 bound_to 10752
  153.9864  135.6724  153.4756 H   0  0  0  0  0  0  0  0  0  0  0  0  # atno 10764 bound_to 10752
  153.0859  135.4984  154.8513 H   0  0  0  0  0  0  0  0  0  0  0  0  # atno 10765 bound_to 10752
  140.8033  134.2831  157.4970 H   0  0  0  0  0  0  0  0  0  0  0  0  # atno 11005 bound_to 11000
  144.9726  139.3864  143.6301 LP  0  0  0  0  0  0  0  0  0  0  0  0  # atno 17320 bound_to 7965
  146.3366  139.8831  142.8821 LP  0  0  0  0  0  0  0  0  0  0  0  0  # atno 17321 bound_to 7965
  139.5491  144.2442  152.1498 LP  0  0  0  0  0  0  0  0  0  0  0  0  # atno 17342 bound_to 10162
  140.1676  144.4966  150.6597 LP  0  0  0  0  0  0  0  0  0  0  0  0  # atno 17343 bound_to 10162
  157.5347  130.8081  149.7958 LP  0  0  0  0  0  0  0  0  0  0  0  0  # atno 17370 bound_to 10713
  156.0149  130.3817  150.2142 LP  0  0  0  0  0  0  0  0  0  0  0  0  # atno 17371 bound_to 10713
  139.8720  134.9442  156.3874 LP  0  0  0  0  0  0  0  0  0  0  0  0  # atno 17394 bound_to 11000
  140.9272  133.7604  155.9980 LP  0  0  0  0  0  0  0  0  0  0  0  0  # atno 17395 bound_to 11000

$$$$
