AV-unprocessed.smi:2768|AV-procd|sdf|10650|dock3
  -GOLD-   2272015103D 1   1.00000     0.00000
 Structure written by MMmdl.
 35 36  0  0  0  0  0  0  0  0  1 V2000
  150.7516  140.2014  154.8012 O   0  0  0  0  0  0  0  0  0  0  0  0
  150.3605  140.2125  155.9689 C   0  0  0  0  0  0  0  0  0  0  0  0
  149.0627  140.3017  156.3050 N   0  0  0  0  0  0  0  0  0  0  0  0
  147.9415  140.3468  155.3701 C   0  0  2  0  0  0  0  0  0  0  0  0
  148.1771  139.3563  154.2131 C   0  0  0  0  0  0  0  0  0  0  0  0
  147.0128  139.3814  153.2105 C   0  0  0  0  0  0  0  0  0  0  0  0
  146.7711  140.8004  152.6726 C   0  0  0  0  0  0  0  0  0  0  0  0
  146.5411  141.8043  153.8166 C   0  0  0  0  0  0  0  0  0  0  0  0
  147.6843  141.7838  154.8499 C   0  0  2  0  0  0  0  0  0  0  0  0
  148.8527  142.3259  154.2607 O   0  0  0  0  0  0  0  0  0  0  0  0
  151.3645  140.1163  157.1285 C   0  0  0  0  0  0  0  0  0  0  0  0
  150.8880  139.2865  158.0596 F   0  0  0  0  0  0  0  0  0  0  0  0
  152.4968  139.5934  156.6536 F   0  0  0  0  0  0  0  0  0  0  0  0
  151.6155  141.4898  157.7505 C   0  0  0  0  0  0  0  0  0  0  0  0
  152.4711  141.6430  158.8659 C   0  0  0  0  0  0  0  0  0  0  0  0
  152.6802  142.9353  159.3847 C   0  0  0  0  0  0  0  0  0  0  0  0
  152.0323  144.0252  158.7737 C   0  0  0  0  0  0  0  0  0  0  0  0
  151.1988  143.7732  157.6669 C   0  0  0  0  0  0  0  0  0  0  0  0
  150.9918  142.5385  157.1617 N   0  0  0  0  0  0  0  0  0  0  0  0
  147.0486  140.0152  155.9041 H   0  0  0  0  0  0  0  0  0  0  0  0
  147.4129  142.4343  155.6822 H   0  0  0  0  0  0  0  0  0  0  0  0
  148.8308  140.3104  157.2878 H   0  0  0  0  0  0  0  0  0  0  0  0
  149.1066  139.5992  153.6962 H   0  0  0  0  0  0  0  0  0  0  0  0
  148.2984  138.3459  154.6052 H   0  0  0  0  0  0  0  0  0  0  0  0
  147.2200  138.7016  152.3836 H   0  0  0  0  0  0  0  0  0  0  0  0
  146.1065  139.0139  153.6932 H   0  0  0  0  0  0  0  0  0  0  0  0
  147.6271  141.1141  152.0739 H   0  0  0  0  0  0  0  0  0  0  0  0
  145.9117  140.8010  152.0016 H   0  0  0  0  0  0  0  0  0  0  0  0
  146.4140  142.8095  153.4131 H   0  0  0  0  0  0  0  0  0  0  0  0
  145.6045  141.5591  154.3188 H   0  0  0  0  0  0  0  0  0  0  0  0
  149.0414  143.1522  154.6786 H   0  0  0  0  0  0  0  0  0  0  0  0
  152.9637  140.7943  159.3164 H   0  0  0  0  0  0  0  0  0  0  0  0
  153.3278  143.0877  160.2355 H   0  0  0  0  0  0  0  0  0  0  0  0
  152.1706  145.0302  159.1443 H   0  0  0  0  0  0  0  0  0  0  0  0
  150.6861  144.5855  157.1732 H   0  0  0  0  0  0  0  0  0  0  0  0
  1  2  2  0  0  0  0
  2  3  1  0  0  0  0
  2 11  1  0  0  0  0
  3  4  1  0  0  0  0
  3 22  1  0  0  0  0
  4 20  1  0  0  0  0
  4  9  1  0  0  0  0
  4  5  1  0  0  0  0
  5  6  1  0  0  0  0
  5 23  1  0  0  0  0
  5 24  1  0  0  0  0
  6  7  1  0  0  0  0
  6 25  1  0  0  0  0
  6 26  1  0  0  0  0
  7  8  1  0  0  0  0
  7 27  1  0  0  0  0
  7 28  1  0  0  0  0
  8  9  1  0  0  0  0
  8 29  1  0  0  0  0
  8 30  1  0  0  0  0
  9 21  1  0  0  0  0
  9 10  1  0  0  0  0
 10 31  1  0  0  0  0
 11 12  1  0  0  0  0
 11 13  1  0  0  0  0
 11 14  1  0  0  0  0
 14 19  1  0  0  0  0
 14 15  2  0  0  0  0
 15 16  1  0  0  0  0
 15 32  1  0  0  0  0
 16 17  2  0  0  0  0
 16 33  1  0  0  0  0
 17 18  1  0  0  0  0
 17 34  1  0  0  0  0
 18 19  2  0  0  0  0
 18 35  1  0  0  0  0
M  END
> <s_m_source_file>
AV-unprocessed.smi

> <i_m_source_file_index>
2768

> <i_lp_mmshare_version>
43012

> <i_f3d_flags>
0

> <s_epik_input>
bjFbY0hdW2NIXVtjSF1bY0hdYzFDKEYpKEYpQyg9TylbTkhdW0NAQEhdMltDSDJdW0NIMl1bQ0gyXVtDSDJdW0NASF0yW09IXQ==

> <s_epik_cmdline>
J2VwaWtfcHl0aG9uJywgJy1waCcsICc3LjAnLCAnLXRuJywgJzgnLCAnLW1hJywgJzIwMCcsICctbWV0YWxfYmluZGluZycsICctaW1hZScsICc8aW5maWxlLm1hZT4nLCAnLW9tYWUnLCAnPG91dGZpbGUubWFlPic=

> <r_lp_tautomer_probability>
1

> <r_epik_Ionization_Penalty>
4.19456e-05

> <r_epik_Ionization_Penalty_Charging>
0

> <r_epik_Ionization_Penalty_Neutral>
4.19456e-05

> <r_epik_State_Penalty>
-0

> <r_epik_Charging_Adjusted_Penalty>
0

> <i_epik_Tot_Q>
0

> <i_epik_Tot_abs_Q>
0

> <r_epik_Metal_State_Penalty>
0.0354684

> <b_epik_Metal_Only>
0

> <s_lp_Force_Field>
OPLS_2005

> <r_lp_Energy>
19.5253

> <b_lp_Chiralities_Consistent>
1

> <s_lp_Variant>
AV-unprocessed.smi:2768-3

> <Gold.Version>
5.8.1

> <Gold.Id.Protein>
6NUR|6NUR_protein|mol2

> <Gold.PLP.Fitness>
41.7607

> <Gold.PLP.PLP>
-34.2951

> <Gold.PLP.part.hbond>
-3.0000

> <Gold.PLP.part.metal>
0.0000

> <Gold.PLP.part.buried>
-1.0306

> <Gold.PLP.part.nonpolar>
-30.5954

> <Gold.PLP.part.repulsive>
0.1839

> <Gold.PLP.ligand.clash>
0.0000

> <Gold.PLP.ligand.torsion>
1.1236

> <Gold.PLP.Chemscore.Hbond>
2.2301

> <Gold.PLP.Chemscore.CHOScore>
1.0000

> <Gold.PLP.Chemscore.Metal>
0.0000

> <Gold.Chemscore.Hbonds>
donor molecule, donor type, donor heavy atom, donor atom, acceptor molecule, acceptor atom, score
      L1  H    10    31       P1  8028  1.00
      P1  H  7989  7998       L1     1  1.00
      P1  H  8011  8017       L1    10  0.17
      L1  C    18    35       P1  8028  1.00

> <Gold.PLP.Chemscore.Internal.Correction>
0.0225

> <Gold.Rescore>
     Score         DG    S(hbond)    S(metal)    S(lipo)     H(rot)  DE(clash)    DE(int)     intcor
     15.39     -18.88       2.09        0.00      98.46       2.00       0.81       2.68       ----

> <Gold.Chemscore.Fitness>
15.3861

> <Gold.Chemscore.DG>
-18.8780

> <Gold.Chemscore.ZeroCoef>
-5.4800

> <Gold.Chemscore.Hbond>
2.0928

> <Gold.Chemscore.Metal>
0.0000

> <Gold.Chemscore.Lipo>
98.4638

> <Gold.Chemscore.Internal_Hbond>
0.0000

> <Gold.Chemscore.DEClash>
0.8092

> <Gold.Chemscore.DEInternal>
2.6828

> <Gold.Chemscore.Rot>
1.9969

> <Gold.Chemscore.Internal.Correction>
   9.000000E+99

> <Gold.Chemscore.Hbonds>
donor molecule, donor type, donor heavy atom, donor atom, acceptor molecule, acceptor atom, score
      L1  H    10    31       P1  8028  1.00
      P1  H  7989  7998       L1     1  1.00
      P1  H  8011  8017       L1    10  0.08

> <Gold.Chemscore.Hbond.Weighted>
-6.9899

> <Gold.Chemscore.Metal.Weighted>
-0.0000

> <Gold.Chemscore.Lipo.Weighted>
-11.5203

> <Gold.Chemscore.Internal_Hbond.Weighted>
0.0000

> <Gold.Chemscore.DEClash.Weighted>
0.8092

> <Gold.Chemscore.DEInternal.Weighted>
2.6828

> <Gold.Chemscore.Rot.Weighted>
5.1122

> <Gold.Chemscore.Internal.Correction.Weighted>
   9.000000E+99

> <Gold.Protein.RotatedTorsions>
[ 6907 6896 6895 6894 ] final  -56.97 input  -60.11 | X-H torsion
[ 7974 7965 7964 7962 ] final  -10.72 input  175.53 | X-H torsion
[ 8008 7997 7996 7995 ] final  -31.96 input   59.86 | X-H torsion
[ 10167 10162 10161 10158 ] final   -0.99 input  -65.29 | X-H torsion
[ 10718 10713 10712 10709 ] final  171.17 input   66.30 | X-H torsion
[ 10763 10752 10751 10750 ] final  152.65 input  -60.55 | X-H torsion
[ 11005 11000 10999 10996 ] final   69.28 input  -57.11 | X-H torsion

> <Gold.Protein.ActiveResidues>
 VAL166  LYS551  ARG553  GLY616  TRP617  ASP618  TYR619  PRO620  LYS621  CYS622 
 ASP623  PHE694  ASN695  SER759  ASP760  ASP761  ALA762  ILE779  LEU786  VAL792 
 PHE793  MET794  SER795  GLU796  ALA797  LYS798  CYS799  TRP800  GLU811  SER814 

> <Gold.Protein.RotatedAtoms>
  150.8123  134.7286  159.6699 H   0  0  0  0  0  0  0  0  0  0  0  0  # atno 6907 bound_to 6896
  152.4243  134.5894  159.9979 H   0  0  0  0  0  0  0  0  0  0  0  0  # atno 6908 bound_to 6896
  151.6100  133.3311  159.3101 H   0  0  0  0  0  0  0  0  0  0  0  0  # atno 6909 bound_to 6896
  146.2211  140.2805  142.8362 H   0  0  0  0  0  0  0  0  0  0  0  0  # atno 7974 bound_to 7965
  154.4196  140.1750  156.1650 H   0  0  0  0  0  0  0  0  0  0  0  0  # atno 8008 bound_to 7997
  155.9807  140.3378  155.6636 H   0  0  0  0  0  0  0  0  0  0  0  0  # atno 8009 bound_to 7997
  155.6504  140.0689  157.2579 H   0  0  0  0  0  0  0  0  0  0  0  0  # atno 8010 bound_to 7997
  140.6791  143.6829  150.8091 H   0  0  0  0  0  0  0  0  0  0  0  0  # atno 10167 bound_to 10162
  156.9975  131.0166  151.2840 H   0  0  0  0  0  0  0  0  0  0  0  0  # atno 10718 bound_to 10713
  154.1235  135.2831  155.3203 H   0  0  0  0  0  0  0  0  0  0  0  0  # atno 10763 bound_to 10752
  154.6406  135.5403  153.7789 H   0  0  0  0  0  0  0  0  0  0  0  0  # atno 10764 bound_to 10752
  153.0305  135.6485  154.1388 H   0  0  0  0  0  0  0  0  0  0  0  0  # atno 10765 bound_to 10752
  139.9662  134.6976  156.0540 H   0  0  0  0  0  0  0  0  0  0  0  0  # atno 11005 bound_to 11000
  144.9201  140.7857  143.5754 LP  0  0  0  0  0  0  0  0  0  0  0  0  # atno 17320 bound_to 7965
  145.2741  139.1943  143.4826 LP  0  0  0  0  0  0  0  0  0  0  0  0  # atno 17321 bound_to 7965
  140.0527  143.5234  152.2666 LP  0  0  0  0  0  0  0  0  0  0  0  0  # atno 17342 bound_to 10162
  139.6101  144.7606  151.2970 LP  0  0  0  0  0  0  0  0  0  0  0  0  # atno 17343 bound_to 10162
  157.5414  130.8122  149.8033 LP  0  0  0  0  0  0  0  0  0  0  0  0  # atno 17370 bound_to 10713
  156.0183  130.3805  150.2040 LP  0  0  0  0  0  0  0  0  0  0  0  0  # atno 17371 bound_to 10713
  141.1342  133.6579  156.3548 LP  0  0  0  0  0  0  0  0  0  0  0  0  # atno 17394 bound_to 11000
  140.5391  134.6138  157.5374 LP  0  0  0  0  0  0  0  0  0  0  0  0  # atno 17395 bound_to 11000

$$$$
