AV-unprocessed.smi:630|AV-procd|sdf|3121|dock4
  -GOLD-   22720 0 43D 1   1.00000     0.00000
 Structure written by MMmdl.
 36 37  0  0  0  0  0  0  0  0  2 V2000
  144.9214  136.2047  149.7698 N   0  0  0  0  0  0  0  0  0  0  0  0
  145.0903  135.7228  151.0041 C   0  0  0  0  0  0  0  0  0  0  0  0
  144.6801  136.3190  151.9986 O   0  0  0  0  0  0  0  0  0  0  0  0
  145.8213  134.3729  151.1416 C   0  0  2  0  0  0  0  0  0  0  0  0
  145.0503  133.2945  150.3409 C   0  0  0  0  0  0  0  0  0  0  0  0
  145.8971  132.0508  150.0245 C   0  0  0  0  0  0  0  0  0  0  0  0
  145.8697  130.9534  151.1008 C   0  0  0  0  0  0  0  0  0  0  0  0
  145.8372  131.4377  152.5598 C   0  0  0  0  0  0  0  0  0  0  0  0
  146.7369  132.6446  152.8709 C   0  0  0  0  0  0  0  0  0  0  0  0
  146.0510  134.0094  152.6369 C   0  0  1  0  0  0  0  0  0  0  0  0
  146.8767  135.0408  153.2750 N   0  0  0  0  0  0  0  0  0  0  0  0
  146.5819  135.7461  154.3774 C   0  0  0  0  0  0  0  0  0  0  0  0
  145.5229  135.5481  154.9770 O   0  0  0  0  0  0  0  0  0  0  0  0
  147.5356  136.6444  154.7139 N   0  5  0  0  0  0  0  0  0  0  0  0
  147.5604  137.8492  154.1211 C   0  0  0  0  0  0  0  0  0  0  0  0
  146.5573  138.3147  153.3676 N   0  0  0  0  0  0  0  0  0  0  0  0
  146.7956  139.5907  152.8534 C   0  0  0  0  0  0  0  0  0  0  0  0
  148.0034  140.1132  153.2332 C   0  0  0  0  0  0  0  0  0  0  0  0
  148.8836  139.0111  154.2531 S   0  0  0  0  0  0  0  0  0  0  0  0
  144.4751  137.1006  149.6394 H   0  0  0  0  0  0  0  0  0  0  0  0
  145.2676  135.6871  148.9752 H   0  0  0  0  0  0  0  0  0  0  0  0
  146.7999  134.4922  150.6727 H   0  0  0  0  0  0  0  0  0  0  0  0
  144.1255  133.0126  150.8467 H   0  0  0  0  0  0  0  0  0  0  0  0
  144.7408  133.7228  149.3857 H   0  0  0  0  0  0  0  0  0  0  0  0
  145.5472  131.6109  149.0900 H   0  0  0  0  0  0  0  0  0  0  0  0
  146.9278  132.3494  149.8301 H   0  0  0  0  0  0  0  0  0  0  0  0
  145.0013  130.3141  150.9377 H   0  0  0  0  0  0  0  0  0  0  0  0
  146.7382  130.3103  150.9543 H   0  0  0  0  0  0  0  0  0  0  0  0
  144.8110  131.6638  152.8517 H   0  0  0  0  0  0  0  0  0  0  0  0
  146.1356  130.6024  153.1944 H   0  0  0  0  0  0  0  0  0  0  0  0
  147.0053  132.5801  153.9267 H   0  0  0  0  0  0  0  0  0  0  0  0
  147.6783  132.5793  152.3239 H   0  0  0  0  0  0  0  0  0  0  0  0
  145.0746  133.9746  153.1235 H   0  0  0  0  0  0  0  0  0  0  0  0
  147.7600  135.2443  152.8312 H   0  0  0  0  0  0  0  0  0  0  0  0
  146.0487  140.0529  152.2252 H   0  0  0  0  0  0  0  0  0  0  0  0
  148.4269  141.0726  152.9778 H   0  0  0  0  0  0  0  0  0  0  0  0
  1  2  1  0  0  0  0
  1 20  1  0  0  0  0
  1 21  1  0  0  0  0
  2  3  2  0  0  0  0
  2  4  1  0  0  0  0
  4 10  1  0  0  0  0
  4  5  1  0  0  0  0
  4 22  1  0  0  0  0
  5  6  1  0  0  0  0
  5 23  1  0  0  0  0
  5 24  1  0  0  0  0
  6  7  1  0  0  0  0
  6 25  1  0  0  0  0
  6 26  1  0  0  0  0
  7  8  1  0  0  0  0
  7 27  1  0  0  0  0
  7 28  1  0  0  0  0
  8  9  1  0  0  0  0
  8 29  1  0  0  0  0
  8 30  1  0  0  0  0
  9 10  1  0  0  0  0
  9 31  1  0  0  0  0
  9 32  1  0  0  0  0
 10 11  1  0  0  0  0
 10 33  1  0  0  0  0
 11 12  1  0  0  0  0
 11 34  1  0  0  0  0
 12 13  2  0  0  0  0
 12 14  1  0  0  0  0
 14 15  1  0  0  0  0
 15 19  1  0  0  0  0
 15 16  2  0  0  0  0
 16 17  1  0  0  0  0
 17 18  2  0  0  0  0
 17 35  1  0  0  0  0
 18 19  1  0  0  0  0
 18 36  1  0  0  0  0
M  CHG  1  14  -1
M  END
> <s_m_source_file>
AV-unprocessed.smi

> <i_m_source_file_index>
630

> <i_lp_mmshare_version>
43012

> <i_f3d_flags>
0

> <s_epik_input>
W05IMl1DKD1PKVtDQEBIXTFbQ0gyXVtDSDJdW0NIMl1bQ0gyXVtDSDJdW0NASF0xW05IXUMoPU8pW05IXWMybltjSF1bY0hdczI=

> <s_epik_cmdline>
J2VwaWtfcHl0aG9uJywgJy1waCcsICc3LjAnLCAnLXRuJywgJzgnLCAnLW1hJywgJzIwMCcsICctbWV0YWxfYmluZGluZycsICctaW1hZScsICc8aW5maWxlLm1hZT4nLCAnLW9tYWUnLCAnPG91dGZpbGUubWFlPic=

> <r_lp_tautomer_probability>
0.999

> <r_epik_Ionization_Penalty>
8.29606

> <r_epik_Ionization_Penalty_Charging>
6.67551

> <r_epik_Ionization_Penalty_Neutral>
1.62055

> <r_epik_State_Penalty>
6.67568

> <r_epik_Charging_Adjusted_Penalty>
13.3512

> <i_epik_Tot_Q>
-1

> <i_epik_Tot_abs_Q>
1

> <r_epik_Metal_State_Penalty>
2.59802

> <b_epik_Metal_Only>
1

> <s_lp_Force_Field>
OPLS_2005

> <r_lp_Energy>
8.76486

> <b_lp_Chiralities_Consistent>
1

> <s_lp_Variant>
AV-unprocessed.smi:630-5

> <Gold.Version>
5.8.1

> <Gold.Id.Protein>
6NUR|6NUR_protein|mol2

> <Gold.PLP.Fitness>
37.2310

> <Gold.PLP.PLP>
-26.2826

> <Gold.PLP.part.hbond>
-3.0000

> <Gold.PLP.part.metal>
0.0000

> <Gold.PLP.part.buried>
0.4965

> <Gold.PLP.part.nonpolar>
-24.6644

> <Gold.PLP.part.repulsive>
0.6612

> <Gold.PLP.ligand.clash>
0.0000

> <Gold.PLP.ligand.torsion>
0.8602

> <Gold.PLP.Chemscore.Hbond>
3.0000

> <Gold.PLP.Chemscore.CHOScore>
1.2012

> <Gold.PLP.Chemscore.Metal>
0.0000

> <Gold.Chemscore.Hbonds>
donor molecule, donor type, donor heavy atom, donor atom, acceptor molecule, acceptor atom, score
      L1  H     1    20       P1 10171  1.00
      L1  H     1    21       P1  7921  1.00
      L1  H    11    34       P1  7948  1.00
      L1  C    17    35       P1 10175  1.00
      L1  C    18    36       P1  7957  0.20

> <Gold.PLP.Chemscore.Internal.Correction>
0.0652

> <Gold.Rescore>
     Score         DG    S(hbond)    S(metal)    S(lipo)     H(rot)  DE(clash)    DE(int)     intcor
     18.47     -19.49       2.98        0.00      67.52       1.50       0.03       0.99       ----

> <Gold.Chemscore.Fitness>
18.4722

> <Gold.Chemscore.DG>
-19.4895

> <Gold.Chemscore.ZeroCoef>
-5.4800

> <Gold.Chemscore.Hbond>
2.9822

> <Gold.Chemscore.Metal>
0.0000

> <Gold.Chemscore.Lipo>
67.5229

> <Gold.Chemscore.Internal_Hbond>
0.0000

> <Gold.Chemscore.DEClash>
0.0251

> <Gold.Chemscore.DEInternal>
0.9923

> <Gold.Chemscore.Rot>
1.5044

> <Gold.Chemscore.Internal.Correction>
   9.000000E+99

> <Gold.Chemscore.Hbonds>
donor molecule, donor type, donor heavy atom, donor atom, acceptor molecule, acceptor atom, score
      L1  H     1    20       P1 10171  0.98
      L1  H     1    21       P1  7921  1.00
      L1  H    11    34       P1  7948  0.99

> <Gold.Chemscore.Hbond.Weighted>
-9.9605

> <Gold.Chemscore.Metal.Weighted>
-0.0000

> <Gold.Chemscore.Lipo.Weighted>
-7.9002

> <Gold.Chemscore.Internal_Hbond.Weighted>
0.0000

> <Gold.Chemscore.DEClash.Weighted>
0.0251

> <Gold.Chemscore.DEInternal.Weighted>
0.9923

> <Gold.Chemscore.Rot.Weighted>
3.8512

> <Gold.Chemscore.Internal.Correction.Weighted>
   9.000000E+99

> <Gold.Protein.RotatedTorsions>
[ 6907 6896 6895 6894 ] final  -16.54 input  -60.11 | X-H torsion
[ 7974 7965 7964 7962 ] final    9.42 input  175.53 | X-H torsion
[ 8008 7997 7996 7995 ] final  -52.06 input   59.86 | X-H torsion
[ 10167 10162 10161 10158 ] final  -12.34 input  -65.29 | X-H torsion
[ 10718 10713 10712 10709 ] final  138.53 input   66.30 | X-H torsion
[ 10763 10752 10751 10750 ] final   26.79 input  -60.55 | X-H torsion
[ 11005 11000 10999 10996 ] final   -6.32 input  -57.11 | X-H torsion

> <Gold.Protein.ActiveResidues>
 VAL166  LYS551  ARG553  GLY616  TRP617  ASP618  TYR619  PRO620  LYS621  CYS622 
 ASP623  PHE694  ASN695  SER759  ASP760  ASP761  ALA762  ILE779  LEU786  VAL792 
 PHE793  MET794  SER795  GLU796  ALA797  LYS798  CYS799  TRP800  GLU811  SER814 

> <Gold.Protein.RotatedAtoms>
  151.3070  135.0784  159.9258 H   0  0  0  0  0  0  0  0  0  0  0  0  # atno 6907 bound_to 6896
  152.5286  133.9775  159.7801 H   0  0  0  0  0  0  0  0  0  0  0  0  # atno 6908 bound_to 6896
  151.0071  133.5948  159.2717 H   0  0  0  0  0  0  0  0  0  0  0  0  # atno 6909 bound_to 6896
  146.2403  139.9786  142.8439 H   0  0  0  0  0  0  0  0  0  0  0  0  # atno 7974 bound_to 7965
  154.4097  140.1233  156.4930 H   0  0  0  0  0  0  0  0  0  0  0  0  # atno 8008 bound_to 7997
  155.6971  140.3495  155.4898 H   0  0  0  0  0  0  0  0  0  0  0  0  # atno 8009 bound_to 7997
  155.9418  140.1088  157.1039 H   0  0  0  0  0  0  0  0  0  0  0  0  # atno 8010 bound_to 7997
  140.7159  143.5543  150.9266 H   0  0  0  0  0  0  0  0  0  0  0  0  # atno 10167 bound_to 10162
  157.4243  131.1042  151.0319 H   0  0  0  0  0  0  0  0  0  0  0  0  # atno 10718 bound_to 10713
  153.0598  135.6552  154.0489 H   0  0  0  0  0  0  0  0  0  0  0  0  # atno 10763 bound_to 10752
  154.0159  135.2924  155.3388 H   0  0  0  0  0  0  0  0  0  0  0  0  # atno 10764 bound_to 10752
  154.6931  135.5274  153.8489 H   0  0  0  0  0  0  0  0  0  0  0  0  # atno 10765 bound_to 10752
  140.7007  133.8992  155.8681 H   0  0  0  0  0  0  0  0  0  0  0  0  # atno 11005 bound_to 11000
  145.1613  140.9674  143.4375 LP  0  0  0  0  0  0  0  0  0  0  0  0  # atno 17320 bound_to 7965
  145.0113  139.3507  143.6118 LP  0  0  0  0  0  0  0  0  0  0  0  0  # atno 17321 bound_to 7965
  139.9268  143.6540  152.3085 LP  0  0  0  0  0  0  0  0  0  0  0  0  # atno 17342 bound_to 10162
  139.6977  144.7639  151.1327 LP  0  0  0  0  0  0  0  0  0  0  0  0  # atno 17343 bound_to 10162
  157.1239  130.6073  149.5512 LP  0  0  0  0  0  0  0  0  0  0  0  0  # atno 17370 bound_to 10713
  155.9891  130.4937  150.7200 LP  0  0  0  0  0  0  0  0  0  0  0  0  # atno 17371 bound_to 10713
  141.0166  134.0947  157.4165 LP  0  0  0  0  0  0  0  0  0  0  0  0  # atno 17394 bound_to 11000
  139.8898  135.0107  156.6698 LP  0  0  0  0  0  0  0  0  0  0  0  0  # atno 17395 bound_to 11000

$$$$
