AV-unprocessed.smi:1207|AV-procd|sdf|5060|dock3
  -GOLD-   22720 4 93D 1   1.00000     0.00000
 Structure written by MMmdl.
 53 55  0  0  0  0  0  0  0  0  3 V2000
  152.2998  144.0481  159.9664 C   0  0  0  0  0  0  0  0  0  0  0  0
  152.0632  142.9309  158.9645 C   0  0  0  0  0  0  0  0  0  0  0  0
  151.1833  143.1684  157.8848 C   0  0  0  0  0  0  0  0  0  0  0  0
  150.9870  142.1274  156.9853 C   0  0  0  0  0  0  0  0  0  0  0  0
  150.1946  142.0490  155.8384 N   0  3  0  0  0  0  0  0  0  0  0  0
  150.3252  140.8148  155.2783 C   0  0  0  0  0  0  0  0  0  0  0  0
  151.1860  140.1008  156.0537 N   0  0  0  0  0  0  0  0  0  0  0  0
  151.6670  138.7212  155.8907 C   0  0  0  0  0  0  0  0  0  0  0  0
  150.9178  137.9393  154.7913 C   0  0  1  0  0  0  0  0  0  0  0  0
  151.8991  137.3281  153.9777 O   0  0  0  0  0  0  0  0  0  0  0  0
  149.9613  136.8581  155.3451 C   0  0  0  0  0  0  0  0  0  0  0  0
  148.7037  136.7013  154.5612 N   0  3  2  0  0  0  0  0  0  0  0  0
  147.9014  137.9462  154.4904 C   0  0  0  0  0  0  0  0  0  0  0  0
  147.8723  135.5535  155.0103 C   0  0  0  0  0  0  0  0  0  0  0  0
  148.5554  134.2288  154.7832 C   0  0  0  0  0  0  0  0  0  0  0  0
  148.2382  133.2366  153.8112 C   0  0  0  0  0  0  0  0  0  0  0  0
  147.1573  133.2638  152.7688 C   0  0  0  0  0  0  0  0  0  0  0  0
  149.0337  132.1851  153.9017 N   0  0  0  0  0  0  0  0  0  0  0  0
  149.9212  132.4646  154.9455 O   0  0  0  0  0  0  0  0  0  0  0  0
  149.6186  133.6865  155.4519 C   0  0  0  0  0  0  0  0  0  0  0  0
  150.4600  134.1629  156.5873 C   0  0  0  0  0  0  0  0  0  0  0  0
  151.6303  140.8823  157.1287 C   0  0  0  0  0  0  0  0  0  0  0  0
  152.5013  140.6329  158.1877 C   0  0  0  0  0  0  0  0  0  0  0  0
  152.7131  141.6787  159.1143 C   0  0  0  0  0  0  0  0  0  0  0  0
  153.6560  141.4328  160.2800 C   0  0  0  0  0  0  0  0  0  0  0  0
  151.7744  144.9595  159.6790 H   0  0  0  0  0  0  0  0  0  0  0  0
  153.3617  144.2849  160.0350 H   0  0  0  0  0  0  0  0  0  0  0  0
  151.9449  143.7558  160.9550 H   0  0  0  0  0  0  0  0  0  0  0  0
  150.6849  144.1195  157.7646 H   0  0  0  0  0  0  0  0  0  0  0  0
  149.8344  140.4662  154.3807 H   0  0  0  0  0  0  0  0  0  0  0  0
  152.7291  138.7781  155.6475 H   0  0  0  0  0  0  0  0  0  0  0  0
  151.6069  138.2061  156.8494 H   0  0  0  0  0  0  0  0  0  0  0  0
  150.3675  138.6585  154.1855 H   0  0  0  0  0  0  0  0  0  0  0  0
  151.5089  137.0857  153.1522 H   0  0  0  0  0  0  0  0  0  0  0  0
  150.5105  135.9176  155.3608 H   0  0  0  0  0  0  0  0  0  0  0  0
  149.6961  137.0741  156.3807 H   0  0  0  0  0  0  0  0  0  0  0  0
  147.6138  138.2828  155.4874 H   0  0  0  0  0  0  0  0  0  0  0  0
  146.9913  137.7881  153.9111 H   0  0  0  0  0  0  0  0  0  0  0  0
  148.4476  138.7504  153.9997 H   0  0  0  0  0  0  0  0  0  0  0  0
  147.6166  135.6928  156.0615 H   0  0  0  0  0  0  0  0  0  0  0  0
  146.9243  135.5699  154.4711 H   0  0  0  0  0  0  0  0  0  0  0  0
  146.1771  133.3980  153.2254 H   0  0  0  0  0  0  0  0  0  0  0  0
  147.1300  132.3404  152.1894 H   0  0  0  0  0  0  0  0  0  0  0  0
  147.3120  134.0859  152.0704 H   0  0  0  0  0  0  0  0  0  0  0  0
  150.1737  135.1689  156.8939 H   0  0  0  0  0  0  0  0  0  0  0  0
  151.5129  134.1836  156.3057 H   0  0  0  0  0  0  0  0  0  0  0  0
  150.3531  133.5041  157.4490 H   0  0  0  0  0  0  0  0  0  0  0  0
  152.9988  139.6821  158.3083 H   0  0  0  0  0  0  0  0  0  0  0  0
  154.0136  140.4026  160.2942 H   0  0  0  0  0  0  0  0  0  0  0  0
  153.1528  141.6214  161.2284 H   0  0  0  0  0  0  0  0  0  0  0  0
  154.5250  142.0878  160.2129 H   0  0  0  0  0  0  0  0  0  0  0  0
  148.9822  136.4851  153.6147 H   0  0  0  0  0  0  0  0  0  0  0  0
  149.6103  142.7843  155.4608 H   0  0  0  0  0  0  0  0  0  0  0  0
  1  2  1  0  0  0  0
  1 26  1  0  0  0  0
  1 27  1  0  0  0  0
  1 28  1  0  0  0  0
  2 24  1  0  0  0  0
  2  3  2  0  0  0  0
  3  4  1  0  0  0  0
  3 29  1  0  0  0  0
  4 22  2  0  0  0  0
  4  5  1  0  0  0  0
  5  6  2  0  0  0  0
  5 53  1  0  0  0  0
  6  7  1  0  0  0  0
  6 30  1  0  0  0  0
  7  8  1  0  0  0  0
  7 22  1  0  0  0  0
  8  9  1  0  0  0  0
  8 31  1  0  0  0  0
  8 32  1  0  0  0  0
  9 10  1  0  0  0  0
  9 11  1  0  0  0  0
  9 33  1  0  0  0  0
 10 34  1  0  0  0  0
 11 12  1  0  0  0  0
 11 35  1  0  0  0  0
 11 36  1  0  0  0  0
 12 13  1  0  0  0  0
 12 14  1  0  0  0  0
 12 52  1  0  0  0  0
 13 37  1  0  0  0  0
 13 38  1  0  0  0  0
 13 39  1  0  0  0  0
 14 15  1  0  0  0  0
 14 40  1  0  0  0  0
 14 41  1  0  0  0  0
 15 20  2  0  0  0  0
 15 16  1  0  0  0  0
 16 17  1  0  0  0  0
 16 18  2  0  0  0  0
 17 42  1  0  0  0  0
 17 43  1  0  0  0  0
 17 44  1  0  0  0  0
 18 19  1  0  0  0  0
 19 20  1  0  0  0  0
 20 21  1  0  0  0  0
 21 45  1  0  0  0  0
 21 46  1  0  0  0  0
 21 47  1  0  0  0  0
 22 23  1  0  0  0  0
 23 24  2  0  0  0  0
 23 48  1  0  0  0  0
 24 25  1  0  0  0  0
 25 49  1  0  0  0  0
 25 50  1  0  0  0  0
 25 51  1  0  0  0  0
M  CHG  1   5   1
M  CHG  1  12   1
M  END
> <s_m_source_file>
AV-unprocessed.smi

> <i_m_source_file_index>
1207

> <i_lp_mmshare_version>
43012

> <i_f3d_flags>
0

> <s_epik_input>
W0NIM11jKFtjSF0xKWMoW0NIM10pW2NIXWMoYzEyKW4oW2NIXW4yKVtDSDJdW0NASF0oW09IXSlbQ0gyXU4oW0NIM10pW0NIMl1jM2MoW0NIM10pbm9jM1tDSDNd

> <s_epik_cmdline>
J2VwaWtfcHl0aG9uJywgJy1waCcsICc3LjAnLCAnLXRuJywgJzgnLCAnLW1hJywgJzIwMCcsICctbWV0YWxfYmluZGluZycsICctaW1hZScsICc8aW5maWxlLm1hZT4nLCAnLW9tYWUnLCAnPG91dGZpbGUubWFlPic=

> <r_epik_Ionization_Penalty>
1.77463

> <r_epik_Ionization_Penalty_Charging>
1.77463

> <r_epik_Ionization_Penalty_Neutral>
3.70885e-06

> <r_epik_State_Penalty>
1.85225

> <r_epik_Charging_Adjusted_Penalty>
3.62688

> <i_epik_Tot_Q>
2

> <i_epik_Tot_abs_Q>
2

> <r_epik_Metal_State_Penalty>
1.92674

> <b_epik_Metal_Only>
0

> <s_lp_Force_Field>
OPLS_2005

> <r_lp_Energy>
19.6609

> <b_lp_Chiralities_Consistent>
1

> <s_lp_Variant>
AV-unprocessed.smi:1207-12

> <Gold.Version>
5.8.1

> <Gold.Id.Protein>
6NUR|6NUR_protein|mol2

> <Gold.PLP.Fitness>
62.6611

> <Gold.PLP.PLP>
-48.0028

> <Gold.PLP.part.hbond>
-4.0000

> <Gold.PLP.part.metal>
0.0000

> <Gold.PLP.part.buried>
-4.1897

> <Gold.PLP.part.nonpolar>
-39.9586

> <Gold.PLP.part.repulsive>
0.2668

> <Gold.PLP.ligand.clash>
0.0000

> <Gold.PLP.ligand.torsion>
1.4597

> <Gold.PLP.Chemscore.Hbond>
5.7973

> <Gold.PLP.Chemscore.CHOScore>
0.0000

> <Gold.PLP.Chemscore.Metal>
0.0000

> <Gold.Chemscore.Hbonds>
donor molecule, donor type, donor heavy atom, donor atom, acceptor molecule, acceptor atom, score
      L1  H     5    53       P1  8028  1.72
      L1  H    10    34       P1  7949  1.00
      L1  H    12    52       P1  7948  2.00
      P1  H 10752 10763       L1    10  0.84

> <Gold.PLP.Chemscore.Internal.Correction>
0.1859

> <Gold.Rescore>
     Score         DG    S(hbond)    S(metal)    S(lipo)     H(rot)  DE(clash)    DE(int)     intcor
     21.47     -23.25       2.94        0.00     123.48       2.54       0.23       1.55       ----

> <Gold.Chemscore.Fitness>
21.4738

> <Gold.Chemscore.DG>
-23.2530

> <Gold.Chemscore.ZeroCoef>
-5.4800

> <Gold.Chemscore.Hbond>
2.9390

> <Gold.Chemscore.Metal>
0.0000

> <Gold.Chemscore.Lipo>
123.4760

> <Gold.Chemscore.Internal_Hbond>
0.0000

> <Gold.Chemscore.DEClash>
0.2308

> <Gold.Chemscore.DEInternal>
1.5484

> <Gold.Chemscore.Rot>
2.5351

> <Gold.Chemscore.Internal.Correction>
   9.000000E+99

> <Gold.Chemscore.Hbonds>
donor molecule, donor type, donor heavy atom, donor atom, acceptor molecule, acceptor atom, score
      L1  H     5    53       P1  8028  0.80
      L1  H    10    34       P1  7949  0.85
      L1  H    12    52       P1  7948  1.00
      P1  H 10752 10763       L1    10  0.14

> <Gold.Chemscore.Hbond.Weighted>
-9.8163

> <Gold.Chemscore.Metal.Weighted>
-0.0000

> <Gold.Chemscore.Lipo.Weighted>
-14.4467

> <Gold.Chemscore.Internal_Hbond.Weighted>
0.0000

> <Gold.Chemscore.DEClash.Weighted>
0.2308

> <Gold.Chemscore.DEInternal.Weighted>
1.5484

> <Gold.Chemscore.Rot.Weighted>
6.4900

> <Gold.Chemscore.Internal.Correction.Weighted>
   9.000000E+99

> <Gold.Protein.RotatedTorsions>
[ 6907 6896 6895 6894 ] final  -18.52 input  -60.11 | X-H torsion
[ 7974 7965 7964 7962 ] final  -74.17 input  175.53 | X-H torsion
[ 8008 7997 7996 7995 ] final  176.10 input   59.86 | X-H torsion
[ 10167 10162 10161 10158 ] final   48.17 input  -65.29 | X-H torsion
[ 10718 10713 10712 10709 ] final  -22.22 input   66.30 | X-H torsion
[ 10763 10752 10751 10750 ] final   39.47 input  -60.55 | X-H torsion
[ 11005 11000 10999 10996 ] final  179.02 input  -57.11 | X-H torsion

> <Gold.Protein.ActiveResidues>
 VAL166  LYS551  ARG553  GLY616  TRP617  ASP618  TYR619  PRO620  LYS621  CYS622 
 ASP623  PHE694  ASN695  SER759  ASP760  ASP761  ALA762  ILE779  LEU786  VAL792 
 PHE793  MET794  SER795  GLU796  ALA797  LYS798  CYS799  TRP800  GLU811  SER814 

> <Gold.Protein.RotatedAtoms>
  151.2770  135.0702  159.9154 H   0  0  0  0  0  0  0  0  0  0  0  0  # atno 6907 bound_to 6896
  152.5341  134.0071  159.7931 H   0  0  0  0  0  0  0  0  0  0  0  0  # atno 6908 bound_to 6896
  151.0318  133.5733  159.2691 H   0  0  0  0  0  0  0  0  0  0  0  0  # atno 6909 bound_to 6896
  145.6426  140.9306  143.1027 H   0  0  0  0  0  0  0  0  0  0  0  0  # atno 7974 bound_to 7965
  156.0800  140.1392  156.9724 H   0  0  0  0  0  0  0  0  0  0  0  0  # atno 8008 bound_to 7997
  154.4580  140.0954  156.6861 H   0  0  0  0  0  0  0  0  0  0  0  0  # atno 8009 bound_to 7997
  155.5090  140.3453  155.4387 H   0  0  0  0  0  0  0  0  0  0  0  0  # atno 8010 bound_to 7997
  140.2960  144.2989  150.6229 H   0  0  0  0  0  0  0  0  0  0  0  0  # atno 10167 bound_to 10162
  156.5074  130.4602  149.6667 H   0  0  0  0  0  0  0  0  0  0  0  0  # atno 10718 bound_to 10713
  152.9966  135.6219  154.2471 H   0  0  0  0  0  0  0  0  0  0  0  0  # atno 10763 bound_to 10752
  154.2210  135.2796  155.2926 H   0  0  0  0  0  0  0  0  0  0  0  0  # atno 10764 bound_to 10752
  154.5528  135.5728  153.6996 H   0  0  0  0  0  0  0  0  0  0  0  0  # atno 10765 bound_to 10752
  140.4016  134.6772  157.4565 H   0  0  0  0  0  0  0  0  0  0  0  0  # atno 11005 bound_to 11000
  144.7151  139.8225  143.7401 LP  0  0  0  0  0  0  0  0  0  0  0  0  # atno 17320 bound_to 7965
  146.1268  139.4296  143.0194 LP  0  0  0  0  0  0  0  0  0  0  0  0  # atno 17321 bound_to 7965
  140.5691  143.2183  151.7630 LP  0  0  0  0  0  0  0  0  0  0  0  0  # atno 17342 bound_to 10162
  139.4926  144.4241  151.9945 LP  0  0  0  0  0  0  0  0  0  0  0  0  # atno 17343 bound_to 10162
  156.3273  130.7313  151.2236 LP  0  0  0  0  0  0  0  0  0  0  0  0  # atno 17370 bound_to 10713
  157.7455  131.0439  150.4768 LP  0  0  0  0  0  0  0  0  0  0  0  0  # atno 17371 bound_to 10713
  140.0332  134.6375  155.9078 LP  0  0  0  0  0  0  0  0  0  0  0  0  # atno 17394 bound_to 11000
  141.1854  133.6555  156.5199 LP  0  0  0  0  0  0  0  0  0  0  0  0  # atno 17395 bound_to 11000

$$$$
