#       Name:                AV-unprocessed.smi:56
#       Creating user name   scv26
#       Creation time:       Thu Mar 26 16:48:08 2020


#       File generated by GOLD software.
#

@<TRIPOS>MOLECULE
AV-unprocessed.smi:56
    26    27     1
SMALL
NO_CHARGES


@<TRIPOS>ATOM
      1 ****        -1.8506   0.1137   0.0453 O.3            1 S1                 0.0000
      2 ****        -0.4367   0.0266  -0.0112 C.3            1 S1                 0.0000
      3 ****        -0.0112  -1.4129   0.0025 C.2            1 S1                 0.0000
      4 ****         0.7517  -2.1517  -0.8608 C.2            1 S1                 0.0000
      5 ****         0.7845  -3.4515  -0.2781 C.2            1 S1                 0.0000
      6 ****         0.1013  -3.5233   0.8521 N.2            1 S1                 0.0000
      7 ****        -0.3806  -2.2770   1.0112 N.pl3          1 S1                 0.0000
      8 ****         0.0452   0.8454  -1.2148 C.3            1 S1                 0.0000
      9 ****         0.0026   2.3007  -0.7285 C.3            1 S1                 0.0000
     10 ****         0.0701   2.2528   0.7466 N.4            1 S1                 1.0000
     11 ****         0.1363   0.8376   1.1590 C.3            1 S1                 0.0000
     12 ****        -0.9621  -2.0330   1.8004 H              1 S1                 0.0000
     13 ****        -2.1060   1.0220  -0.0000 H              1 S1                 0.0000
     14 ****         1.2189  -1.8192  -1.7758 H              1 S1                 0.0000
     15 ****         1.2814  -4.3388  -0.6420 H              1 S1                 0.0000
     16 ****         1.0834   0.5966  -1.4396 H              1 S1                 0.0000
     17 ****        -0.5346   0.6718  -2.1225 H              1 S1                 0.0000
     18 ****         0.8196   2.8927  -1.1419 H              1 S1                 0.0000
     19 ****        -0.9357   2.7752  -1.0174 H              1 S1                 0.0000
     20 ****         0.8777   2.7547   1.0879 H              1 S1                 0.0000
     21 ****        -0.3733   0.6578   2.1065 H              1 S1                 0.0000
     22 ****         1.1899   0.5916   1.3001 H              1 S1                 0.0000
     23 ****        -0.7708   2.6683   1.1213 H              1 S1                 0.0000
     24 ****        -2.1767  -0.2836   0.9031 LP             1 S1                 0.0000
     25 ****        -2.2480  -0.3848  -0.7252 LP             1 S1                 0.0000
     26 ****        -0.0269  -4.3163   1.4476 LP             1 S1                 0.0000
@<TRIPOS>BOND
    1    1    2 1     
    2    1   13 1     
    3    2   11 1     
    4    2    3 1     
    5    2    8 1     
    6    3    7 1     
    7    3    4 2     
    8    4    5 1     
    9    4   14 1     
   10    5    6 2     
   11    5   15 1     
   12    6    7 1     
   13    7   12 1     
   14    8    9 1     
   15    8   16 1     
   16    8   17 1     
   17    9   10 1     
   18    9   18 1     
   19    9   19 1     
   20   10   11 1     
   21   10   20 1     
   22   10   23 1     
   23   11   21 1     
   24   11   22 1     
   25    1   24 1     
   26    1   25 1     
   27    6   26 1     
@<TRIPOS>SUBSTRUCTURE
      1 S1             1
@<TRIPOS>SET
LONE_PAIRS      STATIC     ATOMS    <user>   **** ""
3 24 25 26
DONOR_HYDROGENS      STATIC     ATOMS    <user>   **** ""
4 13 12 20 23
ATOM$BLUE        STATIC     ATOMS    COLORGROUP SYSTEM
3 24 25 26
ATOM$RED        STATIC     ATOMS    COLORGROUP SYSTEM
4 13 12 20 23
