#       Name:                AV-unprocessed.smi:841
#       Creating user name   scv26
#       Creation time:       Fri Mar 27 01:37:53 2020


#       File generated by GOLD software.
#

@<TRIPOS>MOLECULE
AV-unprocessed.smi:841
    35    36     1
SMALL
NO_CHARGES


@<TRIPOS>ATOM
      1 ****         0.0017   1.5414   0.2099 O.2            1 S1                 0.0000
      2 ****         0.7348   0.6039  -0.1045 C.2            1 S1                 0.0000
      3 ****         2.2545   0.7876  -0.1170 C.3            1 S1                 0.0000
      4 ****         2.6556   1.8603  -1.0114 N.pl3          1 S1                 0.0000
      5 ****         2.5885   1.9002  -2.3891 C.2            1 S1                 0.0000
      6 ****         3.0907   3.1058  -2.7871 C.2            1 S1                 0.0000
      7 ****         3.4498   3.7416  -1.5660 C.2            1 S1                 0.0000
      8 ****         3.1908   2.9932  -0.5058 N.2            1 S1                 0.0000
      9 ****         0.2769  -0.6106  -0.4464 N.am           1 S1                 0.0000
     10 ****        -1.1273  -1.0055  -0.4976 C.3            1 S1                 0.0000
     11 ****        -1.5731  -1.7075   0.7988 C.3            1 S1                 0.0000
     12 ****        -3.0052  -2.2007   0.7665 C.3            1 S1                 0.0000
     13 ****        -3.3035  -2.4067   2.2488 C.3            1 S1                 0.0000
     14 ****        -2.5133  -1.4460   2.9434 O.3            1 S1                 0.0000
     15 ****        -1.6036  -0.8194   2.0442 C.3            1 S1                 0.0000
     16 ****         2.5970   1.0056   0.8957 H              1 S1                 0.0000
     17 ****         2.7540  -0.1291  -0.4341 H              1 S1                 0.0000
     18 ****         2.1919   1.0765  -2.9641 H              1 S1                 0.0000
     19 ****         3.1889   3.4762  -3.7967 H              1 S1                 0.0000
     20 ****         3.8900   4.7168  -1.4196 H              1 S1                 0.0000
     21 ****         0.9549  -1.3189  -0.6877 H              1 S1                 0.0000
     22 ****        -1.7670  -0.1477  -0.7129 H              1 S1                 0.0000
     23 ****        -1.2457  -1.6892  -1.3386 H              1 S1                 0.0000
     24 ****        -0.9206  -2.5608   0.9925 H              1 S1                 0.0000
     25 ****        -3.6634  -1.4331   0.3566 H              1 S1                 0.0000
     26 ****        -3.1331  -3.1098   0.1782 H              1 S1                 0.0000
     27 ****        -4.3630  -2.2941   2.4791 H              1 S1                 0.0000
     28 ****        -2.9927  -3.4031   2.5648 H              1 S1                 0.0000
     29 ****        -0.6193  -0.6977   2.4968 H              1 S1                 0.0000
     30 ****        -1.9893   0.1719   1.8023 H              1 S1                 0.0000
     31 ****         0.3986   2.4251   0.4578 LP             1 S1                 0.0000
     32 ****        -0.9908   1.4192   0.2175 LP             1 S1                 0.0000
     33 ****         3.3546   3.2163   0.4552 LP             1 S1                 0.0000
     34 ****        -1.9992  -1.9030   3.6693 LP             1 S1                 0.0000
     35 ****        -3.1121  -0.7529   3.3447 LP             1 S1                 0.0000
@<TRIPOS>BOND
    1    1    2 2     
    2    2    3 1     
    3    2    9 am    
    4    3    4 1     
    5    3   16 1     
    6    3   17 1     
    7    4    8 1     
    8    4    5 1     
    9    5    6 2     
   10    5   18 1     
   11    6    7 1     
   12    6   19 1     
   13    7    8 2     
   14    7   20 1     
   15    9   10 1     
   16    9   21 1     
   17   10   11 1     
   18   10   22 1     
   19   10   23 1     
   20   11   15 1     
   21   11   12 1     
   22   11   24 1     
   23   12   13 1     
   24   12   25 1     
   25   12   26 1     
   26   13   14 1     
   27   13   27 1     
   28   13   28 1     
   29   14   15 1     
   30   15   29 1     
   31   15   30 1     
   32    1   31 1     
   33    1   32 1     
   34    8   33 1     
   35   14   34 1     
   36   14   35 1     
@<TRIPOS>SUBSTRUCTURE
      1 S1             1
@<TRIPOS>SET
LONE_PAIRS      STATIC     ATOMS    <user>   **** ""
5 31 32 33 34 35
DONOR_HYDROGENS      STATIC     ATOMS    <user>   **** ""
1 21
ATOM$BLUE        STATIC     ATOMS    COLORGROUP SYSTEM
5 31 32 33 34 35
ATOM$RED        STATIC     ATOMS    COLORGROUP SYSTEM
1 21
