AV-unprocessed.smi:2790|AV-procd|sdf|10767|dock2
  -GOLD-   2272015203D 1   1.00000     0.00000
 Structure written by MMmdl.
 47 48  0  0  0  0  0  0  0  0  3 V2000
  146.6273  134.4358  154.4606 C   0  0  0  0  0  0  0  0  0  0  0  0
  147.8032  134.1726  153.5983 N   0  3  0  0  0  0  0  0  0  0  0  0
  147.5460  133.0719  152.6441 C   0  0  0  0  0  0  0  0  0  0  0  0
  149.0573  133.9688  154.3683 C   0  0  0  0  0  0  0  0  0  0  0  0
  149.3362  135.0907  155.3737 C   0  0  0  0  0  0  0  0  0  0  0  0
  149.4609  134.8382  156.5723 O   0  0  0  0  0  0  0  0  0  0  0  0
  149.4206  136.3301  154.8667 N   0  0  0  0  0  0  0  0  0  0  0  0
  149.6765  137.5488  155.6349 C   0  0  0  0  0  0  0  0  0  0  0  0
  150.0395  138.7752  154.7434 C   0  0  0  0  0  0  0  0  0  0  0  0
  148.7458  139.3156  154.0907 C   0  0  0  0  0  0  0  0  0  0  0  0
  147.9385  138.4511  153.3081 C   0  0  0  0  0  0  0  0  0  0  0  0
  146.7571  138.9331  152.7098 C   0  0  0  0  0  0  0  0  0  0  0  0
  146.3976  140.2219  152.8770 N   0  3  0  0  0  0  0  0  0  0  0  0
  147.1310  141.0924  153.6005 C   0  0  0  0  0  0  0  0  0  0  0  0
  148.3227  140.6654  154.2212 C   0  0  0  0  0  0  0  0  0  0  0  0
  150.6613  139.9007  155.6222 C   0  0  0  0  0  0  0  0  0  0  0  0
  152.0465  139.5617  156.2042 C   0  0  0  0  0  0  0  0  0  0  0  0
  153.0402  139.1763  155.1031 C   0  0  0  0  0  0  0  0  0  0  0  0
  152.4888  138.0291  154.2504 C   0  0  0  0  0  0  0  0  0  0  0  0
  151.1064  138.3827  153.6723 C   0  0  0  0  0  0  0  0  0  0  0  0
  146.4068  133.5754  155.0937 H   0  0  0  0  0  0  0  0  0  0  0  0
  145.7464  134.6456  153.8528 H   0  0  0  0  0  0  0  0  0  0  0  0
  146.7929  135.2992  155.1056 H   0  0  0  0  0  0  0  0  0  0  0  0
  147.4091  132.1244  153.1673 H   0  0  0  0  0  0  0  0  0  0  0  0
  148.3779  132.9619  151.9475 H   0  0  0  0  0  0  0  0  0  0  0  0
  146.6494  133.2717  152.0564 H   0  0  0  0  0  0  0  0  0  0  0  0
  149.0330  133.0011  154.8730 H   0  0  0  0  0  0  0  0  0  0  0  0
  149.9066  133.9445  153.6838 H   0  0  0  0  0  0  0  0  0  0  0  0
  149.2900  136.4430  153.8717 H   0  0  0  0  0  0  0  0  0  0  0  0
  148.7645  137.7580  156.1945 H   0  0  0  0  0  0  0  0  0  0  0  0
  150.4326  137.3665  156.3979 H   0  0  0  0  0  0  0  0  0  0  0  0
  148.2149  137.4181  153.1589 H   0  0  0  0  0  0  0  0  0  0  0  0
  146.0945  138.3297  152.1064 H   0  0  0  0  0  0  0  0  0  0  0  0
  146.7455  142.0997  153.6615 H   0  0  0  0  0  0  0  0  0  0  0  0
  148.8845  141.3920  154.7871 H   0  0  0  0  0  0  0  0  0  0  0  0
  150.7595  140.8064  155.0215 H   0  0  0  0  0  0  0  0  0  0  0  0
  149.9991  140.1620  156.4474 H   0  0  0  0  0  0  0  0  0  0  0  0
  152.4306  140.4193  156.7573 H   0  0  0  0  0  0  0  0  0  0  0  0
  151.9643  138.7508  156.9280 H   0  0  0  0  0  0  0  0  0  0  0  0
  153.2373  140.0418  154.4692 H   0  0  0  0  0  0  0  0  0  0  0  0
  153.9957  138.8905  155.5438 H   0  0  0  0  0  0  0  0  0  0  0  0
  153.1817  137.8156  153.4360 H   0  0  0  0  0  0  0  0  0  0  0  0
  152.4356  137.1171  154.8440 H   0  0  0  0  0  0  0  0  0  0  0  0
  150.7577  137.5530  153.0574 H   0  0  0  0  0  0  0  0  0  0  0  0
  151.2572  139.2224  152.9920 H   0  0  0  0  0  0  0  0  0  0  0  0
  147.9472  135.0021  153.0392 H   0  0  0  0  0  0  0  0  0  0  0  0
  145.5373  140.5515  152.4377 H   0  0  0  0  0  0  0  0  0  0  0  0
  1  2  1  0  0  0  0
  1 21  1  0  0  0  0
  1 22  1  0  0  0  0
  1 23  1  0  0  0  0
  2  3  1  0  0  0  0
  2  4  1  0  0  0  0
  2 46  1  0  0  0  0
  3 24  1  0  0  0  0
  3 25  1  0  0  0  0
  3 26  1  0  0  0  0
  4  5  1  0  0  0  0
  4 27  1  0  0  0  0
  4 28  1  0  0  0  0
  5  6  2  0  0  0  0
  5  7  1  0  0  0  0
  7  8  1  0  0  0  0
  7 29  1  0  0  0  0
  8  9  1  0  0  0  0
  8 30  1  0  0  0  0
  8 31  1  0  0  0  0
  9 20  1  0  0  0  0
  9 10  1  0  0  0  0
  9 16  1  0  0  0  0
 10 15  1  0  0  0  0
 10 11  2  0  0  0  0
 11 12  1  0  0  0  0
 11 32  1  0  0  0  0
 12 13  2  0  0  0  0
 12 33  1  0  0  0  0
 13 14  1  0  0  0  0
 13 47  1  0  0  0  0
 14 15  2  0  0  0  0
 14 34  1  0  0  0  0
 15 35  1  0  0  0  0
 16 17  1  0  0  0  0
 16 36  1  0  0  0  0
 16 37  1  0  0  0  0
 17 18  1  0  0  0  0
 17 38  1  0  0  0  0
 17 39  1  0  0  0  0
 18 19  1  0  0  0  0
 18 40  1  0  0  0  0
 18 41  1  0  0  0  0
 19 20  1  0  0  0  0
 19 42  1  0  0  0  0
 19 43  1  0  0  0  0
 20 44  1  0  0  0  0
 20 45  1  0  0  0  0
M  CHG  1   2   1
M  CHG  1  13   1
M  END
> <s_m_source_file>
AV-unprocessed.smi

> <i_m_source_file_index>
2790

> <i_lp_mmshare_version>
43012

> <i_f3d_flags>
0

> <s_epik_input>
W0NIM11OKFtDSDNdKVtDSDJdQyg9TylbTkhdW0NIMl1DMShbQ0gyXVtDSDJdW0NIMl1bQ0gyXVtDSDJdMSljMltjSF1bY0hdbltjSF1bY0hdMg==

> <s_epik_cmdline>
J2VwaWtfcHl0aG9uJywgJy1waCcsICc3LjAnLCAnLXRuJywgJzgnLCAnLW1hJywgJzIwMCcsICctbWV0YWxfYmluZGluZycsICctaW1hZScsICc8aW5maWxlLm1hZT4nLCAnLW9tYWUnLCAnPG91dGZpbGUubWFlPic=

> <r_epik_Ionization_Penalty>
1.49613

> <r_epik_Ionization_Penalty_Charging>
1.4961

> <r_epik_Ionization_Penalty_Neutral>
2.84587e-05

> <r_epik_State_Penalty>
1.54102

> <r_epik_Charging_Adjusted_Penalty>
3.03712

> <i_epik_Tot_Q>
2

> <i_epik_Tot_abs_Q>
2

> <r_epik_Metal_State_Penalty>
1.62888

> <b_epik_Metal_Only>
0

> <s_lp_Force_Field>
OPLS_2005

> <r_lp_Energy>
33.1663

> <b_lp_Chiralities_Consistent>
1

> <s_lp_Variant>
AV-unprocessed.smi:2790-2

> <Gold.Version>
5.8.1

> <Gold.Id.Protein>
6NUR|6NUR_protein|mol2

> <Gold.PLP.Fitness>
43.7720

> <Gold.PLP.PLP>
-29.6444

> <Gold.PLP.part.hbond>
-3.0000

> <Gold.PLP.part.metal>
0.0000

> <Gold.PLP.part.buried>
2.0685

> <Gold.PLP.part.nonpolar>
-30.1886

> <Gold.PLP.part.repulsive>
0.0248

> <Gold.PLP.ligand.clash>
0.0000

> <Gold.PLP.ligand.torsion>
0.3451

> <Gold.PLP.Chemscore.Hbond>
4.9200

> <Gold.PLP.Chemscore.CHOScore>
0.0000

> <Gold.PLP.Chemscore.Metal>
0.0000

> <Gold.Chemscore.Hbonds>
donor molecule, donor type, donor heavy atom, donor atom, acceptor molecule, acceptor atom, score
      L1  H     2    46       P1  7948  2.00
      L1  H     7    29       P1  7948  1.00
      L1  H    13    47       P1 10175  1.86

> <Gold.PLP.Chemscore.Internal.Correction>
0.0577

> <Gold.Rescore>
     Score         DG    S(hbond)    S(metal)    S(lipo)     H(rot)  DE(clash)    DE(int)     intcor
     15.56     -20.53       2.49        0.00      95.58       1.73       3.68       1.29       ----

> <Gold.Chemscore.Fitness>
15.5563

> <Gold.Chemscore.DG>
-20.5315

> <Gold.Chemscore.ZeroCoef>
-5.4800

> <Gold.Chemscore.Hbond>
2.4872

> <Gold.Chemscore.Metal>
0.0000

> <Gold.Chemscore.Lipo>
95.5812

> <Gold.Chemscore.Internal_Hbond>
0.0000

> <Gold.Chemscore.DEClash>
3.6843

> <Gold.Chemscore.DEInternal>
1.2908

> <Gold.Chemscore.Rot>
1.7339

> <Gold.Chemscore.Internal.Correction>
   9.000000E+99

> <Gold.Chemscore.Hbonds>
donor molecule, donor type, donor heavy atom, donor atom, acceptor molecule, acceptor atom, score
      L1  H     2    46       P1  7948  0.95
      L1  H     7    29       P1  7948  0.87
      L1  H    13    47       P1 10175  0.36

> <Gold.Chemscore.Hbond.Weighted>
-8.3071

> <Gold.Chemscore.Metal.Weighted>
-0.0000

> <Gold.Chemscore.Lipo.Weighted>
-11.1830

> <Gold.Chemscore.Internal_Hbond.Weighted>
0.0000

> <Gold.Chemscore.DEClash.Weighted>
3.6843

> <Gold.Chemscore.DEInternal.Weighted>
1.2908

> <Gold.Chemscore.Rot.Weighted>
4.4387

> <Gold.Chemscore.Internal.Correction.Weighted>
   9.000000E+99

> <Gold.Protein.RotatedTorsions>
[ 6907 6896 6895 6894 ] final   72.48 input  -60.11 | X-H torsion
[ 7974 7965 7964 7962 ] final  128.99 input  175.53 | X-H torsion
[ 8008 7997 7996 7995 ] final  -23.39 input   59.86 | X-H torsion
[ 10167 10162 10161 10158 ] final  -69.50 input  -65.29 | X-H torsion
[ 10718 10713 10712 10709 ] final  -64.56 input   66.30 | X-H torsion
[ 10763 10752 10751 10750 ] final -166.11 input  -60.55 | X-H torsion
[ 11005 11000 10999 10996 ] final -178.62 input  -57.11 | X-H torsion

> <Gold.Protein.ActiveResidues>
 VAL166  LYS551  ARG553  GLY616  TRP617  ASP618  TYR619  PRO620  LYS621  CYS622 
 ASP623  PHE694  ASN695  SER759  ASP760  ASP761  ALA762  ILE779  LEU786  VAL792 
 PHE793  MET794  SER795  GLU796  ALA797  LYS798  CYS799  TRP800  GLU811  SER814 

> <Gold.Protein.RotatedAtoms>
  152.4870  134.4564  159.9590 H   0  0  0  0  0  0  0  0  0  0  0  0  # atno 6907 bound_to 6896
  151.4559  133.3599  159.2810 H   0  0  0  0  0  0  0  0  0  0  0  0  # atno 6908 bound_to 6896
  150.8990  134.8425  159.7407 H   0  0  0  0  0  0  0  0  0  0  0  0  # atno 6909 bound_to 6896
  145.0335  139.4025  143.5138 H   0  0  0  0  0  0  0  0  0  0  0  0  # atno 7974 bound_to 7965
  154.4588  140.1982  156.0304 H   0  0  0  0  0  0  0  0  0  0  0  0  # atno 8008 bound_to 7997
  156.0799  140.3273  155.7652 H   0  0  0  0  0  0  0  0  0  0  0  0  # atno 8009 bound_to 7997
  155.5129  140.0563  157.2911 H   0  0  0  0  0  0  0  0  0  0  0  0  # atno 8010 bound_to 7997
  140.5426  143.2314  151.7061 H   0  0  0  0  0  0  0  0  0  0  0  0  # atno 10167 bound_to 10162
  156.0721  130.4235  150.1438 H   0  0  0  0  0  0  0  0  0  0  0  0  # atno 10718 bound_to 10713
  154.6866  135.2963  154.9539 H   0  0  0  0  0  0  0  0  0  0  0  0  # atno 10763 bound_to 10752
  154.0516  135.6643  153.4805 H   0  0  0  0  0  0  0  0  0  0  0  0  # atno 10764 bound_to 10752
  153.0583  135.5131  154.7936 H   0  0  0  0  0  0  0  0  0  0  0  0  # atno 10765 bound_to 10752
  140.4278  134.6547  157.4696 H   0  0  0  0  0  0  0  0  0  0  0  0  # atno 11005 bound_to 11000
  146.3501  139.9897  142.8687 LP  0  0  0  0  0  0  0  0  0  0  0  0  # atno 17320 bound_to 7965
  145.1740  140.9735  143.4305 LP  0  0  0  0  0  0  0  0  0  0  0  0  # atno 17321 bound_to 7965
  139.4994  144.3945  152.0245 LP  0  0  0  0  0  0  0  0  0  0  0  0  # atno 17342 bound_to 10162
  140.3055  144.3597  150.6048 LP  0  0  0  0  0  0  0  0  0  0  0  0  # atno 17343 bound_to 10162
  156.9487  130.9768  151.3502 LP  0  0  0  0  0  0  0  0  0  0  0  0  # atno 17370 bound_to 10713
  157.5798  130.8368  149.8506 LP  0  0  0  0  0  0  0  0  0  0  0  0  # atno 17371 bound_to 10713
  140.0155  134.6625  155.9316 LP  0  0  0  0  0  0  0  0  0  0  0  0  # atno 17394 bound_to 11000
  141.1758  133.6540  156.4823 LP  0  0  0  0  0  0  0  0  0  0  0  0  # atno 17395 bound_to 11000

$$$$
