AV-unprocessed.smi:516|AV-procd|sdf|2786|dock2
  -GOLD-   2262023263D 1   1.00000     0.00000
 Structure written by MMmdl.
 43 45  0  0  0  0  0  0  0  0  2 V2000
  150.6394  129.1506  155.0222 C   0  0  0  0  0  0  0  0  0  0  0  0
  149.5282  128.2879  155.1881 O   0  0  0  0  0  0  0  0  0  0  0  0
  148.2976  128.9311  154.9040 C   0  0  0  0  0  0  0  0  0  0  0  0
  148.0255  129.9837  155.9878 C   0  0  0  0  0  0  0  0  0  0  0  0
  148.3535  131.3304  155.5328 N   0  0  0  0  0  0  0  0  0  0  0  0
  147.7496  132.0361  154.5404 C   0  0  0  0  0  0  0  0  0  0  0  0
  146.6060  131.5028  153.7282 C   0  0  0  0  0  0  0  0  0  0  0  0
  146.3200  132.2841  152.5268 N   0  0  0  0  0  0  0  0  0  0  0  0
  145.2329  131.6989  151.7529 C   0  0  0  0  0  0  0  0  0  0  0  0
  144.9482  132.5058  150.4743 C   0  0  0  0  0  0  0  0  0  0  0  0
  144.6585  133.8575  150.8174 O   0  0  0  0  0  0  0  0  0  0  0  0
  145.7149  134.4798  151.5426 C   0  0  0  0  0  0  0  0  0  0  0  0
  146.0050  133.6792  152.8237 C   0  0  0  0  0  0  0  0  0  0  0  0
  148.2642  133.2520  154.3394 N   0  0  0  0  0  0  0  0  0  0  0  0
  149.2815  133.3204  155.2794 C   0  0  0  0  0  0  0  0  0  0  0  0
  149.3572  132.1771  156.0091 C   0  0  0  0  0  0  0  0  0  0  0  0
  150.3470  131.9493  157.0828 C   0  0  0  0  0  0  0  0  0  0  0  0
  150.3709  130.8916  157.7092 O   0  0  0  0  0  0  0  0  0  0  0  0
  151.1768  133.0271  157.2548 N   0  5  0  0  0  0  0  0  0  0  0  0
  151.1367  134.2053  156.5387 C   0  0  0  0  0  0  0  0  0  0  0  0
  151.9282  135.1215  156.7623 O   0  0  0  0  0  0  0  0  0  0  0  0
  150.1977  134.3703  155.5514 N   0  0  0  0  0  0  0  0  0  0  0  0
  150.0890  135.5906  154.7459 C   0  0  0  0  0  0  0  0  0  0  0  0
  151.5585  128.6133  155.2554 H   0  0  0  0  0  0  0  0  0  0  0  0
  150.5740  130.0110  155.6894 H   0  0  0  0  0  0  0  0  0  0  0  0
  150.7103  129.5085  153.9943 H   0  0  0  0  0  0  0  0  0  0  0  0
  148.3384  129.3993  153.9197 H   0  0  0  0  0  0  0  0  0  0  0  0
  147.4938  128.1946  154.8802 H   0  0  0  0  0  0  0  0  0  0  0  0
  146.9777  129.9472  156.2836 H   0  0  0  0  0  0  0  0  0  0  0  0
  148.5927  129.7629  156.8916 H   0  0  0  0  0  0  0  0  0  0  0  0
  146.8407  130.4733  153.4558 H   0  0  0  0  0  0  0  0  0  0  0  0
  145.7176  131.4529  154.3598 H   0  0  0  0  0  0  0  0  0  0  0  0
  145.4820  130.6720  151.4830 H   0  0  0  0  0  0  0  0  0  0  0  0
  144.3282  131.6521  152.3610 H   0  0  0  0  0  0  0  0  0  0  0  0
  145.8038  132.4706  149.7979 H   0  0  0  0  0  0  0  0  0  0  0  0
  144.0982  132.0830  149.9388 H   0  0  0  0  0  0  0  0  0  0  0  0
  146.6071  134.5416  150.9174 H   0  0  0  0  0  0  0  0  0  0  0  0
  145.4255  135.5009  151.7909 H   0  0  0  0  0  0  0  0  0  0  0  0
  145.1404  133.7309  153.4871 H   0  0  0  0  0  0  0  0  0  0  0  0
  146.8338  134.1494  153.3537 H   0  0  0  0  0  0  0  0  0  0  0  0
  150.7941  136.3758  155.0194 H   0  0  0  0  0  0  0  0  0  0  0  0
  149.0867  136.0095  154.8411 H   0  0  0  0  0  0  0  0  0  0  0  0
  150.2546  135.3558  153.6942 H   0  0  0  0  0  0  0  0  0  0  0  0
  1  2  1  0  0  0  0
  1 24  1  0  0  0  0
  1 25  1  0  0  0  0
  1 26  1  0  0  0  0
  2  3  1  0  0  0  0
  3  4  1  0  0  0  0
  3 27  1  0  0  0  0
  3 28  1  0  0  0  0
  4  5  1  0  0  0  0
  4 29  1  0  0  0  0
  4 30  1  0  0  0  0
  5 16  1  0  0  0  0
  5  6  1  0  0  0  0
  6  7  1  0  0  0  0
  6 14  2  0  0  0  0
  7  8  1  0  0  0  0
  7 31  1  0  0  0  0
  7 32  1  0  0  0  0
  8 13  1  0  0  0  0
  8  9  1  0  0  0  0
  9 10  1  0  0  0  0
  9 33  1  0  0  0  0
  9 34  1  0  0  0  0
 10 11  1  0  0  0  0
 10 35  1  0  0  0  0
 10 36  1  0  0  0  0
 11 12  1  0  0  0  0
 12 13  1  0  0  0  0
 12 37  1  0  0  0  0
 12 38  1  0  0  0  0
 13 39  1  0  0  0  0
 13 40  1  0  0  0  0
 14 15  1  0  0  0  0
 15 22  1  0  0  0  0
 15 16  2  0  0  0  0
 16 17  1  0  0  0  0
 17 18  2  0  0  0  0
 17 19  1  0  0  0  0
 19 20  1  0  0  0  0
 20 21  2  0  0  0  0
 20 22  1  0  0  0  0
 22 23  1  0  0  0  0
 23 41  1  0  0  0  0
 23 42  1  0  0  0  0
 23 43  1  0  0  0  0
M  CHG  1  19  -1
M  END
> <s_m_source_file>
AV-unprocessed.smi

> <i_m_source_file_index>
516

> <i_lp_mmshare_version>
43012

> <i_f3d_flags>
0

> <s_epik_input>
W0NIM11uMWMoPU8pW25IXWMoPU8pYyhjMTIpbihbQ0gyXVtDSDJdT1tDSDNdKWMobjIpW0NIMl1OM1tDSDJdW0NIMl1PW0NIMl1bQ0gyXTM=

> <s_epik_cmdline>
J2VwaWtfcHl0aG9uJywgJy1waCcsICc3LjAnLCAnLXRuJywgJzgnLCAnLW1hJywgJzIwMCcsICctbWV0YWxfYmluZGluZycsICctaW1hZScsICc8aW5maWxlLm1hZT4nLCAnLW9tYWUnLCAnPG91dGZpbGUubWFlPic=

> <r_epik_Ionization_Penalty>
4.87269

> <r_epik_Ionization_Penalty_Charging>
0.0382909

> <r_epik_Ionization_Penalty_Neutral>
4.8344

> <r_epik_State_Penalty>
4.82423

> <r_epik_Charging_Adjusted_Penalty>
4.86252

> <i_epik_Tot_Q>
-1

> <i_epik_Tot_abs_Q>
1

> <r_epik_Metal_State_Penalty>
1.05282

> <b_epik_Metal_Only>
1

> <s_lp_Force_Field>
OPLS_2005

> <r_lp_Energy>
45.4303

> <b_lp_Chiralities_Consistent>
1

> <s_lp_Variant>
AV-unprocessed.smi:516-3

> <Gold.Version>
5.8.1

> <Gold.Id.Protein>
6NUR|6NUR_protein|mol2

> <Gold.PLP.Fitness>
36.4203

> <Gold.PLP.PLP>
-29.8573

> <Gold.PLP.part.hbond>
-2.0869

> <Gold.PLP.part.metal>
0.0000

> <Gold.PLP.part.buried>
-5.3512

> <Gold.PLP.part.nonpolar>
-24.5786

> <Gold.PLP.part.repulsive>
0.6202

> <Gold.PLP.ligand.clash>
0.0000

> <Gold.PLP.ligand.torsion>
0.4976

> <Gold.PLP.Chemscore.Hbond>
2.5142

> <Gold.PLP.Chemscore.CHOScore>
0.0000

> <Gold.PLP.Chemscore.Metal>
0.0000

> <Gold.Chemscore.Hbonds>
donor molecule, donor type, donor heavy atom, donor atom, acceptor molecule, acceptor atom, score
      P1  H  6896  6907       L1    19  1.63
      P1  H 10752 10764       L1    21  0.84

> <Gold.PLP.Chemscore.Internal.Correction>
0.0154

> <Gold.Rescore>
     Score         DG    S(hbond)    S(metal)    S(lipo)     H(rot)  DE(clash)    DE(int)     intcor
      7.66      -9.39       0.85        0.00      52.93       2.00       0.00       1.72       ----

> <Gold.Chemscore.Fitness>
7.6626

> <Gold.Chemscore.DG>
-9.3852

> <Gold.Chemscore.ZeroCoef>
-5.4800

> <Gold.Chemscore.Hbond>
0.8517

> <Gold.Chemscore.Metal>
0.0000

> <Gold.Chemscore.Lipo>
52.9336

> <Gold.Chemscore.Internal_Hbond>
0.0000

> <Gold.Chemscore.DEClash>
0.0004

> <Gold.Chemscore.DEInternal>
1.7223

> <Gold.Chemscore.Rot>
2.0050

> <Gold.Chemscore.Internal.Correction>
   9.000000E+99

> <Gold.Chemscore.Hbonds>
donor molecule, donor type, donor heavy atom, donor atom, acceptor molecule, acceptor atom, score
      P1  H  6896  6907       L1    19  0.47
      P1  H 10752 10764       L1    21  0.64

> <Gold.Chemscore.Hbond.Weighted>
-2.8448

> <Gold.Chemscore.Metal.Weighted>
-0.0000

> <Gold.Chemscore.Lipo.Weighted>
-6.1932

> <Gold.Chemscore.Internal_Hbond.Weighted>
0.0000

> <Gold.Chemscore.DEClash.Weighted>
0.0004

> <Gold.Chemscore.DEInternal.Weighted>
1.7223

> <Gold.Chemscore.Rot.Weighted>
5.1327

> <Gold.Chemscore.Internal.Correction.Weighted>
   9.000000E+99

> <Gold.Protein.RotatedTorsions>
[ 6907 6896 6895 6894 ] final -170.83 input  -60.11 | X-H torsion
[ 7974 7965 7964 7962 ] final -128.76 input  175.53 | X-H torsion
[ 8008 7997 7996 7995 ] final   73.93 input   59.86 | X-H torsion
[ 10167 10162 10161 10158 ] final  126.58 input  -65.29 | X-H torsion
[ 10718 10713 10712 10709 ] final  -68.55 input   66.30 | X-H torsion
[ 10763 10752 10751 10750 ] final  -24.79 input  -60.55 | X-H torsion
[ 11005 11000 10999 10996 ] final  161.10 input  -57.11 | X-H torsion

> <Gold.Protein.ActiveResidues>
 VAL166  LYS551  ARG553  GLY616  TRP617  ASP618  TYR619  PRO620  LYS621  CYS622 
 ASP623  PHE694  ASN695  SER759  ASP760  ASP761  ALA762  ILE779  LEU786  VAL792 
 PHE793  MET794  SER795  GLU796  ALA797  LYS798  CYS799  TRP800  GLU811  SER814 

> <Gold.Protein.RotatedAtoms>
  151.5140  133.3479  159.2889 H   0  0  0  0  0  0  0  0  0  0  0  0  # atno 6907 bound_to 6896
  150.8694  134.8067  159.7154 H   0  0  0  0  0  0  0  0  0  0  0  0  # atno 6908 bound_to 6896
  152.4687  134.5022  159.9780 H   0  0  0  0  0  0  0  0  0  0  0  0  # atno 6909 bound_to 6896
  144.9639  140.7475  143.4712 H   0  0  0  0  0  0  0  0  0  0  0  0  # atno 7974 bound_to 7965
  155.7909  140.3479  155.5348 H   0  0  0  0  0  0  0  0  0  0  0  0  # atno 8008 bound_to 7997
  155.8635  140.0975  157.1618 H   0  0  0  0  0  0  0  0  0  0  0  0  # atno 8009 bound_to 7997
  154.4013  140.1354  156.3977 H   0  0  0  0  0  0  0  0  0  0  0  0  # atno 8010 bound_to 7997
  139.5623  144.6890  151.4007 H   0  0  0  0  0  0  0  0  0  0  0  0  # atno 10167 bound_to 10162
  156.0500  130.4296  150.2016 H   0  0  0  0  0  0  0  0  0  0  0  0  # atno 10718 bound_to 10713
  153.6895  135.6962  153.5094 H   0  0  0  0  0  0  0  0  0  0  0  0  # atno 10763 bound_to 10752
  153.2424  135.4301  155.0711 H   0  0  0  0  0  0  0  0  0  0  0  0  # atno 10764 bound_to 10752
  154.8377  135.3511  154.6436 H   0  0  0  0  0  0  0  0  0  0  0  0  # atno 10765 bound_to 10752
  140.2125  134.8257  157.3136 H   0  0  0  0  0  0  0  0  0  0  0  0  # atno 11005 bound_to 11000
  145.2659  139.1973  143.4867 LP  0  0  0  0  0  0  0  0  0  0  0  0  # atno 17320 bound_to 7965
  146.3361  140.2597  142.8601 LP  0  0  0  0  0  0  0  0  0  0  0  0  # atno 17321 bound_to 7965
  140.6904  143.7875  150.7247 LP  0  0  0  0  0  0  0  0  0  0  0  0  # atno 17342 bound_to 10162
  140.1355  143.4487  152.2227 LP  0  0  0  0  0  0  0  0  0  0  0  0  # atno 17343 bound_to 10162
  157.0101  130.9948  151.3368 LP  0  0  0  0  0  0  0  0  0  0  0  0  # atno 17370 bound_to 10713
  157.5416  130.8123  149.8035 LP  0  0  0  0  0  0  0  0  0  0  0  0  # atno 17371 bound_to 10713
  140.1936  134.4342  155.7702 LP  0  0  0  0  0  0  0  0  0  0  0  0  # atno 17394 bound_to 11000
  141.2226  133.7038  156.8067 LP  0  0  0  0  0  0  0  0  0  0  0  0  # atno 17395 bound_to 11000

$$$$
