AV-unprocessed.smi:37|AV-procd|sdf|318|dock1
  -GOLD-   2262016133D 1   1.00000     0.00000
 Structure written by MMmdl.
 44 45  0  0  0  0  0  0  0  0  1 V2000
  145.3333  134.5809  162.0951 C   0  0  0  0  0  0  0  0  0  0  0  0
  146.8276  134.7760  161.7982 C   0  0  0  0  0  0  0  0  0  0  0  0
  147.1434  136.0894  161.0797 C   0  0  0  0  0  0  0  0  0  0  0  0
  146.8905  137.1903  161.5725 O   0  0  0  0  0  0  0  0  0  0  0  0
  147.7101  135.8801  159.8822 O   0  0  0  0  0  0  0  0  0  0  0  0
  148.1882  136.9808  159.1236 C   0  0  0  0  0  0  0  0  0  0  0  0
  148.8082  136.4888  157.8093 C   0  0  1  0  0  0  0  0  0  0  0  0
  148.6637  135.0759  157.6699 O   0  0  0  0  0  0  0  0  0  0  0  0
  148.1341  134.7840  156.4121 C   0  0  2  0  0  0  0  0  0  0  0  0
  148.7452  133.5125  155.8718 N   0  0  0  0  0  0  0  0  0  0  0  0
  149.6816  132.7771  156.5890 C   0  0  0  0  0  0  0  0  0  0  0  0
  150.2413  131.6392  156.1145 C   0  0  0  0  0  0  0  0  0  0  0  0
  151.1446  130.9828  156.8620 F   0  0  0  0  0  0  0  0  0  0  0  0
  149.8779  131.1225  154.7980 C   0  0  0  0  0  0  0  0  0  0  0  0
  150.3273  130.0998  154.2848 O   0  0  0  0  0  0  0  0  0  0  0  0
  148.9389  131.8987  154.1118 N   0  0  0  0  0  0  0  0  0  0  0  0
  148.3563  133.0741  154.5882 C   0  0  0  0  0  0  0  0  0  0  0  0
  147.5421  133.6848  153.8970 O   0  0  0  0  0  0  0  0  0  0  0  0
  148.4146  136.0015  155.5249 C   0  0  2  0  0  0  0  0  0  0  0  0
  150.2961  136.0096  154.8429 Br  0  0  0  0  0  0  0  0  0  0  0  0
  148.2146  137.1143  156.5403 C   0  0  2  0  0  0  0  0  0  0  0  0
  148.8691  138.3255  156.1850 O   0  0  0  0  0  0  0  0  0  0  0  0
  148.3743  139.0962  155.2009 C   0  0  0  0  0  0  0  0  0  0  0  0
  147.4002  138.8229  154.4974 O   0  0  0  0  0  0  0  0  0  0  0  0
  149.1721  140.3909  155.0328 C   0  0  0  0  0  0  0  0  0  0  0  0
  148.4828  141.4244  154.1298 C   0  0  0  0  0  0  0  0  0  0  0  0
  148.6608  131.5828  153.1941 H   0  0  0  0  0  0  0  0  0  0  0  0
  145.1639  133.6296  162.5994 H   0  0  0  0  0  0  0  0  0  0  0  0
  144.7430  134.5769  161.1779 H   0  0  0  0  0  0  0  0  0  0  0  0
  144.9486  135.3700  162.7421 H   0  0  0  0  0  0  0  0  0  0  0  0
  147.3938  134.7468  162.7293 H   0  0  0  0  0  0  0  0  0  0  0  0
  147.1894  133.9514  161.1835 H   0  0  0  0  0  0  0  0  0  0  0  0
  147.3655  137.6607  158.8967 H   0  0  0  0  0  0  0  0  0  0  0  0
  148.9218  137.5390  159.7066 H   0  0  0  0  0  0  0  0  0  0  0  0
  149.8822  136.6793  157.8345 H   0  0  0  0  0  0  0  0  0  0  0  0
  147.0677  134.5836  156.5382 H   0  0  0  0  0  0  0  0  0  0  0  0
  149.9994  133.1153  157.5643 H   0  0  0  0  0  0  0  0  0  0  0  0
  147.7318  136.0492  154.6762 H   0  0  0  0  0  0  0  0  0  0  0  0
  147.1452  137.2766  156.6831 H   0  0  0  0  0  0  0  0  0  0  0  0
  149.3414  140.8217  156.0198 H   0  0  0  0  0  0  0  0  0  0  0  0
  150.1518  140.1428  154.6242 H   0  0  0  0  0  0  0  0  0  0  0  0
  149.0941  142.3224  154.0392 H   0  0  0  0  0  0  0  0  0  0  0  0
  147.5153  141.7241  154.5338 H   0  0  0  0  0  0  0  0  0  0  0  0
  148.3240  141.0320  153.1248 H   0  0  0  0  0  0  0  0  0  0  0  0
  1  2  1  0  0  0  0
  1 28  1  0  0  0  0
  1 29  1  0  0  0  0
  1 30  1  0  0  0  0
  2  3  1  0  0  0  0
  2 31  1  0  0  0  0
  2 32  1  0  0  0  0
  3  4  2  0  0  0  0
  3  5  1  0  0  0  0
  5  6  1  0  0  0  0
  6  7  1  0  0  0  0
  6 33  1  0  0  0  0
  6 34  1  0  0  0  0
  7 21  1  0  0  0  0
  7  8  1  0  0  0  0
  7 35  1  0  0  0  0
  8  9  1  0  0  0  0
  9 10  1  0  0  0  0
  9 19  1  0  0  0  0
  9 36  1  0  0  0  0
 10 17  1  0  0  0  0
 10 11  1  0  0  0  0
 11 12  2  0  0  0  0
 11 37  1  0  0  0  0
 12 13  1  0  0  0  0
 12 14  1  0  0  0  0
 14 15  2  0  0  0  0
 14 16  1  0  0  0  0
 16 27  1  0  0  0  0
 16 17  1  0  0  0  0
 17 18  2  0  0  0  0
 19 20  1  0  0  0  0
 19 21  1  0  0  0  0
 19 38  1  0  0  0  0
 21 22  1  0  0  0  0
 21 39  1  0  0  0  0
 22 23  1  0  0  0  0
 23 24  2  0  0  0  0
 23 25  1  0  0  0  0
 25 26  1  0  0  0  0
 25 40  1  0  0  0  0
 25 41  1  0  0  0  0
 26 42  1  0  0  0  0
 26 43  1  0  0  0  0
 26 44  1  0  0  0  0
M  END
> <s_m_source_file>
AV-unprocessed.smi

> <i_m_source_file_index>
37

> <i_lp_mmshare_version>
43012

> <i_f3d_flags>
0

> <s_epik_input>
W0NIM11bQ0gyXUMoPU8pT1tDSDJdW0NAQEhdMU9bQ0BASF0objJbY0hdYyhGKWMoPU8pW25IXWMyPU8pW0NAQEhdKEJyKVtDQEhdMU9DKD1PKVtDSDJdW0NIM10=

> <s_epik_cmdline>
J2VwaWtfcHl0aG9uJywgJy1waCcsICc3LjAnLCAnLXRuJywgJzgnLCAnLW1hJywgJzIwMCcsICctbWV0YWxfYmluZGluZycsICctaW1hZScsICc8aW5maWxlLm1hZT4nLCAnLW9tYWUnLCAnPG91dGZpbGUubWFlPic=

> <r_lp_tautomer_probability>
0.999537

> <r_epik_Ionization_Penalty>
0.104106

> <r_epik_Ionization_Penalty_Charging>
0.104106

> <r_epik_Ionization_Penalty_Neutral>
3.94675e-16

> <r_epik_State_Penalty>
0.0940182

> <r_epik_Charging_Adjusted_Penalty>
0.198124

> <i_epik_Tot_Q>
0

> <i_epik_Tot_abs_Q>
0

> <r_epik_Metal_State_Penalty>
3.05314

> <b_epik_Metal_Only>
0

> <s_epik_Chemistry_Notes>
This compound has an ester and may undergo hydrolysis at high or low pH. This compound contains an acetal/aminal-like group ( X-CH(R)-Y where X, Y are N, S, or O) that may be acid/base labile, releasing an aldehyde.

> <s_lp_Force_Field>
OPLS_2005

> <r_lp_Energy>
25.1984

> <b_lp_Chiralities_Consistent>
1

> <s_lp_Variant>
AV-unprocessed.smi:37-16

> <Gold.Version>
5.8.1

> <Gold.Id.Protein>
6NUR|6NUR_protein|mol2

> <Gold.PLP.Fitness>
38.8471

> <Gold.PLP.PLP>
-32.5192

> <Gold.PLP.part.hbond>
-3.0000

> <Gold.PLP.part.metal>
0.0000

> <Gold.PLP.part.buried>
-3.8659

> <Gold.PLP.part.nonpolar>
-26.1723

> <Gold.PLP.part.repulsive>
0.2417

> <Gold.PLP.ligand.clash>
0.0000

> <Gold.PLP.ligand.torsion>
0.9856

> <Gold.PLP.Chemscore.Hbond>
2.7280

> <Gold.PLP.Chemscore.CHOScore>
0.0000

> <Gold.PLP.Chemscore.Metal>
0.0000

> <Gold.Chemscore.Hbonds>
donor molecule, donor type, donor heavy atom, donor atom, acceptor molecule, acceptor atom, score
      P1  H  6931  6943       L1     4  0.05
      P1  H  6934  6947       L1     4  1.00

> <Gold.PLP.Chemscore.Internal.Correction>
0.1152

> <Gold.Rescore>
     Score         DG    S(hbond)    S(metal)    S(lipo)     H(rot)  DE(clash)    DE(int)     intcor
      9.18     -11.49       2.42        0.00      55.24       3.33       0.24       2.06       ----

> <Gold.Chemscore.Fitness>
9.1848

> <Gold.Chemscore.DG>
-11.4884

> <Gold.Chemscore.ZeroCoef>
-5.4800

> <Gold.Chemscore.Hbond>
2.4165

> <Gold.Chemscore.Metal>
0.0000

> <Gold.Chemscore.Lipo>
55.2377

> <Gold.Chemscore.Internal_Hbond>
0.0000

> <Gold.Chemscore.DEClash>
0.2401

> <Gold.Chemscore.DEInternal>
2.0635

> <Gold.Chemscore.Rot>
3.3303

> <Gold.Chemscore.Internal.Correction>
   9.000000E+99

> <Gold.Chemscore.Hbonds>
donor molecule, donor type, donor heavy atom, donor atom, acceptor molecule, acceptor atom, score
      P1  H  6931  6943       L1     4  0.04
      P1  H  6934  6947       L1     4  0.95

> <Gold.Chemscore.Hbond.Weighted>
-8.0712

> <Gold.Chemscore.Metal.Weighted>
-0.0000

> <Gold.Chemscore.Lipo.Weighted>
-6.4628

> <Gold.Chemscore.Internal_Hbond.Weighted>
0.0000

> <Gold.Chemscore.DEClash.Weighted>
0.2401

> <Gold.Chemscore.DEInternal.Weighted>
2.0635

> <Gold.Chemscore.Rot.Weighted>
8.5256

> <Gold.Chemscore.Internal.Correction.Weighted>
   9.000000E+99

> <Gold.Protein.RotatedTorsions>
[ 6907 6896 6895 6894 ] final  153.97 input  -60.11 | X-H torsion
[ 7974 7965 7964 7962 ] final  -12.95 input  175.53 | X-H torsion
[ 8008 7997 7996 7995 ] final -135.01 input   59.86 | X-H torsion
[ 10167 10162 10161 10158 ] final   60.42 input  -65.29 | X-H torsion
[ 10718 10713 10712 10709 ] final  -21.60 input   66.30 | X-H torsion
[ 10763 10752 10751 10750 ] final   -1.67 input  -60.55 | X-H torsion
[ 11005 11000 10999 10996 ] final   20.22 input  -57.11 | X-H torsion

> <Gold.Protein.ActiveResidues>
 VAL166  LYS551  ARG553  GLY616  TRP617  ASP618  TYR619  PRO620  LYS621  CYS622 
 ASP623  PHE694  ASN695  SER759  ASP760  ASP761  ALA762  ILE779  LEU786  VAL792 
 PHE793  MET794  SER795  GLU796  ALA797  LYS798  CYS799  TRP800  GLU811  SER814 

> <Gold.Protein.RotatedAtoms>
  152.0651  133.4080  159.4434 H   0  0  0  0  0  0  0  0  0  0  0  0  # atno 6907 bound_to 6896
  150.6865  134.3155  159.4774 H   0  0  0  0  0  0  0  0  0  0  0  0  # atno 6908 bound_to 6896
  152.0981  134.9360  160.0621 H   0  0  0  0  0  0  0  0  0  0  0  0  # atno 6909 bound_to 6896
  146.2133  140.3131  142.8384 H   0  0  0  0  0  0  0  0  0  0  0  0  # atno 7974 bound_to 7965
  155.3716  140.0488  157.3045 H   0  0  0  0  0  0  0  0  0  0  0  0  # atno 8008 bound_to 7997
  154.5127  140.2197  155.9088 H   0  0  0  0  0  0  0  0  0  0  0  0  # atno 8009 bound_to 7997
  156.1601  140.3118  155.8798 H   0  0  0  0  0  0  0  0  0  0  0  0  # atno 8010 bound_to 7997
  140.1658  144.4325  150.6686 H   0  0  0  0  0  0  0  0  0  0  0  0  # atno 10167 bound_to 10162
  156.5159  130.4621  149.6623 H   0  0  0  0  0  0  0  0  0  0  0  0  # atno 10718 bound_to 10713
  153.3478  135.6984  153.6813 H   0  0  0  0  0  0  0  0  0  0  0  0  # atno 10763 bound_to 10752
  153.5552  135.3546  155.2777 H   0  0  0  0  0  0  0  0  0  0  0  0  # atno 10764 bound_to 10752
  154.8648  135.4236  154.2707 H   0  0  0  0  0  0  0  0  0  0  0  0  # atno 10765 bound_to 10752
  140.4050  134.1678  155.7665 H   0  0  0  0  0  0  0  0  0  0  0  0  # atno 11005 bound_to 11000
  144.8973  140.7599  143.5889 LP  0  0  0  0  0  0  0  0  0  0  0  0  # atno 17320 bound_to 7965
  145.3056  139.1835  143.4666 LP  0  0  0  0  0  0  0  0  0  0  0  0  # atno 17321 bound_to 7965
  140.6614  143.2253  151.5847 LP  0  0  0  0  0  0  0  0  0  0  0  0  # atno 17342 bound_to 10162
  139.5360  144.2780  152.1252 LP  0  0  0  0  0  0  0  0  0  0  0  0  # atno 17343 bound_to 10162
  156.3195  130.7273  151.2182 LP  0  0  0  0  0  0  0  0  0  0  0  0  # atno 17370 bound_to 10713
  157.7444  131.0459  150.4868 LP  0  0  0  0  0  0  0  0  0  0  0  0  # atno 17371 bound_to 10713
  141.1842  133.8348  157.1147 LP  0  0  0  0  0  0  0  0  0  0  0  0  # atno 17394 bound_to 11000
  140.0308  134.9902  157.0777 LP  0  0  0  0  0  0  0  0  0  0  0  0  # atno 17395 bound_to 11000

$$$$
