AV-unprocessed.smi:48|AV-procd|sdf|448|dock4
  -GOLD-   2262016313D 1   1.00000     0.00000
 Structure written by MMmdl.
 30 32  0  0  0  0  0  0  0  0  1 V2000
  144.9503  142.5410  154.1761 O   0  0  0  0  0  0  0  0  0  0  0  0
  146.2655  142.7321  153.6998 C   0  0  0  0  0  0  0  0  0  0  0  0
  147.2013  141.6674  154.2983 C   0  0  2  0  0  0  0  0  0  0  0  0
  148.5672  141.9634  154.0248 O   0  0  0  0  0  0  0  0  0  0  0  0
  149.3420  140.8194  154.2292 C   0  0  1  0  0  0  0  0  0  0  0  0
  149.9200  140.8819  155.6096 N   0  0  0  0  0  0  0  0  0  0  0  0
  149.5740  141.6679  156.6526 C   0  0  0  0  0  0  0  0  0  0  0  0
  150.2706  141.5305  157.7809 N   0  0  0  0  0  0  0  0  0  0  0  0
  151.1827  140.5505  157.4259 C   0  0  0  0  0  0  0  0  0  0  0  0
  152.2336  139.9128  158.1293 C   0  0  0  0  0  0  0  0  0  0  0  0
  152.5803  140.3191  159.7701 Cl  0  0  0  0  0  0  0  0  0  0  0  0
  152.9652  138.9736  157.4825 N   0  0  0  0  0  0  0  0  0  0  0  0
  152.6763  138.6789  156.2086 C   0  0  0  0  0  0  0  0  0  0  0  0
  151.7227  139.1917  155.4219 N   0  0  0  0  0  0  0  0  0  0  0  0
  150.9871  140.1369  156.0783 C   0  0  0  0  0  0  0  0  0  0  0  0
  148.3931  139.6113  154.1117 C   0  0  2  0  0  0  0  0  0  0  0  0
  148.8330  138.6416  153.1798 O   0  0  0  0  0  0  0  0  0  0  0  0
  147.0655  140.2566  153.7136 C   0  0  2  0  0  0  0  0  0  0  0  0
  146.8876  140.3168  152.3074 O   0  0  0  0  0  0  0  0  0  0  0  0
  147.0540  141.6058  155.3786 H   0  0  0  0  0  0  0  0  0  0  0  0
  150.2059  140.7968  153.5635 H   0  0  0  0  0  0  0  0  0  0  0  0
  148.2832  139.1369  155.0885 H   0  0  0  0  0  0  0  0  0  0  0  0
  146.2164  139.7218  154.1405 H   0  0  0  0  0  0  0  0  0  0  0  0
  144.6386  141.7040  153.8672 H   0  0  0  0  0  0  0  0  0  0  0  0
  146.2361  142.6384  152.6138 H   0  0  0  0  0  0  0  0  0  0  0  0
  146.6083  143.7410  153.9316 H   0  0  0  0  0  0  0  0  0  0  0  0
  148.7662  142.3820  156.5858 H   0  0  0  0  0  0  0  0  0  0  0  0
  153.2996  137.9238  155.7527 H   0  0  0  0  0  0  0  0  0  0  0  0
  148.9941  139.0731  152.3541 H   0  0  0  0  0  0  0  0  0  0  0  0
  147.7400  140.2886  151.8996 H   0  0  0  0  0  0  0  0  0  0  0  0
  1  2  1  0  0  0  0
  1 24  1  0  0  0  0
  2  3  1  0  0  0  0
  2 25  1  0  0  0  0
  2 26  1  0  0  0  0
  3 20  1  0  0  0  0
  3 18  1  0  0  0  0
  3  4  1  0  0  0  0
  4  5  1  0  0  0  0
  5 21  1  0  0  0  0
  5  6  1  0  0  0  0
  5 16  1  0  0  0  0
  6 15  1  0  0  0  0
  6  7  1  0  0  0  0
  7  8  2  0  0  0  0
  7 27  1  0  0  0  0
  8  9  1  0  0  0  0
  9 15  2  0  0  0  0
  9 10  1  0  0  0  0
 10 11  1  0  0  0  0
 10 12  2  0  0  0  0
 12 13  1  0  0  0  0
 13 14  2  0  0  0  0
 13 28  1  0  0  0  0
 14 15  1  0  0  0  0
 16 22  1  0  0  0  0
 16 17  1  0  0  0  0
 16 18  1  0  0  0  0
 17 29  1  0  0  0  0
 18 23  1  0  0  0  0
 18 19  1  0  0  0  0
 19 30  1  0  0  0  0
M  END
> <s_m_source_file>
AV-unprocessed.smi

> <i_m_source_file_index>
48

> <i_lp_mmshare_version>
43012

> <i_f3d_flags>
0

> <s_epik_input>
W09IXVtDSDJdW0NASF0xT1tDQEhdKFtDQEhdKFtPSF0pW0NAQEhdMVtPSF0pbihbY0hdbjIpYyhjMjMpbltjSF1uYzNDbA==

> <s_epik_cmdline>
J2VwaWtfcHl0aG9uJywgJy1waCcsICc3LjAnLCAnLXRuJywgJzgnLCAnLW1hJywgJzIwMCcsICctbWV0YWxfYmluZGluZycsICctaW1hZScsICc8aW5maWxlLm1hZT4nLCAnLW9tYWUnLCAnPG91dGZpbGUubWFlPic=

> <r_lp_tautomer_probability>
1

> <r_epik_Ionization_Penalty>
3.45505e-06

> <r_epik_Ionization_Penalty_Charging>
0

> <r_epik_Ionization_Penalty_Neutral>
3.45505e-06

> <r_epik_State_Penalty>
-0

> <r_epik_Charging_Adjusted_Penalty>
0

> <i_epik_Tot_Q>
0

> <i_epik_Tot_abs_Q>
0

> <r_epik_Metal_State_Penalty>
-0

> <b_epik_Metal_Only>
0

> <s_epik_Chemistry_Notes>
This compound contains an acetal/aminal-like group ( X-CH(R)-Y where X, Y are N, S, or O) that may be acid/base labile, releasing an aldehyde.

> <s_lp_Force_Field>
OPLS_2005

> <r_lp_Energy>
38.272

> <b_lp_Chiralities_Consistent>
1

> <s_lp_Variant>
AV-unprocessed.smi:48-2

> <Gold.Version>
5.8.1

> <Gold.Id.Protein>
6NUR|6NUR_protein|mol2

> <Gold.PLP.Fitness>
45.7636

> <Gold.PLP.PLP>
-34.0202

> <Gold.PLP.part.hbond>
-7.5207

> <Gold.PLP.part.metal>
0.0000

> <Gold.PLP.part.buried>
-0.2000

> <Gold.PLP.part.nonpolar>
-25.3906

> <Gold.PLP.part.repulsive>
0.2572

> <Gold.PLP.ligand.clash>
0.0000

> <Gold.PLP.ligand.torsion>
0.5617

> <Gold.PLP.Chemscore.Hbond>
3.3060

> <Gold.PLP.Chemscore.CHOScore>
0.9754

> <Gold.PLP.Chemscore.Metal>
0.0000

> <Gold.Chemscore.Hbonds>
donor molecule, donor type, donor heavy atom, donor atom, acceptor molecule, acceptor atom, score
      L1  H     1    24       P1 10175  0.66
      L1  H    17    29       P1  7957  1.00
      L1  H    19    30       P1  7957  1.00
      P1  H  7997  8008       L1    12  0.30
      P1  H  8011  8017       L1     4  0.15
      L1  C     7    27       P1  8028  0.95

> <Gold.PLP.Chemscore.Internal.Correction>
0.0225

> <Gold.Rescore>
     Score         DG    S(hbond)    S(metal)    S(lipo)     H(rot)  DE(clash)    DE(int)     intcor
      7.60      -8.50       2.34        0.00      42.31       3.80       0.45       0.45       ----

> <Gold.Chemscore.Fitness>
7.5976

> <Gold.Chemscore.DG>
-8.5028

> <Gold.Chemscore.ZeroCoef>
-5.4800

> <Gold.Chemscore.Hbond>
2.3368

> <Gold.Chemscore.Metal>
0.0000

> <Gold.Chemscore.Lipo>
42.3104

> <Gold.Chemscore.Internal_Hbond>
0.0000

> <Gold.Chemscore.DEClash>
0.4507

> <Gold.Chemscore.DEInternal>
0.4545

> <Gold.Chemscore.Rot>
3.8017

> <Gold.Chemscore.Internal.Correction>
   9.000000E+99

> <Gold.Chemscore.Hbonds>
donor molecule, donor type, donor heavy atom, donor atom, acceptor molecule, acceptor atom, score
      L1  H     1    24       P1 10175  0.06
      L1  H    17    29       P1  7957  0.99
      L1  H    19    30       P1  7957  0.97

> <Gold.Chemscore.Hbond.Weighted>
-7.8049

> <Gold.Chemscore.Metal.Weighted>
-0.0000

> <Gold.Chemscore.Lipo.Weighted>
-4.9503

> <Gold.Chemscore.Internal_Hbond.Weighted>
0.0000

> <Gold.Chemscore.DEClash.Weighted>
0.4507

> <Gold.Chemscore.DEInternal.Weighted>
0.4545

> <Gold.Chemscore.Rot.Weighted>
9.7324

> <Gold.Chemscore.Internal.Correction.Weighted>
   9.000000E+99

> <Gold.Protein.RotatedTorsions>
[ 6907 6896 6895 6894 ] final -176.56 input  -60.11 | X-H torsion
[ 7974 7965 7964 7962 ] final -142.34 input  175.53 | X-H torsion
[ 8008 7997 7996 7995 ] final  -66.60 input   59.86 | X-H torsion
[ 10167 10162 10161 10158 ] final  139.93 input  -65.29 | X-H torsion
[ 10718 10713 10712 10709 ] final   15.65 input   66.30 | X-H torsion
[ 10763 10752 10751 10750 ] final -136.44 input  -60.55 | X-H torsion
[ 11005 11000 10999 10996 ] final  -54.68 input  -57.11 | X-H torsion

> <Gold.Protein.ActiveResidues>
 VAL166  LYS551  ARG553  GLY616  TRP617  ASP618  TYR619  PRO620  LYS621  CYS622 
 ASP623  PHE694  ASN695  SER759  ASP760  ASP761  ALA762  ILE779  LEU786  VAL792 
 PHE793  MET794  SER795  GLU796  ALA797  LYS798  CYS799  TRP800  GLU811  SER814 

> <Gold.Protein.RotatedAtoms>
  151.6068  133.3351  159.3058 H   0  0  0  0  0  0  0  0  0  0  0  0  # atno 6907 bound_to 6896
  150.8178  134.7373  159.6757 H   0  0  0  0  0  0  0  0  0  0  0  0  # atno 6908 bound_to 6896
  152.4273  134.5850  160.0010 H   0  0  0  0  0  0  0  0  0  0  0  0  # atno 6909 bound_to 6896
  144.8451  140.5970  143.5427 H   0  0  0  0  0  0  0  0  0  0  0  0  # atno 7974 bound_to 7965
  154.4745  140.0909  156.7227 H   0  0  0  0  0  0  0  0  0  0  0  0  # atno 8008 bound_to 7997
  155.4634  140.3462  155.4297 H   0  0  0  0  0  0  0  0  0  0  0  0  # atno 8009 bound_to 7997
  156.1093  140.1443  156.9348 H   0  0  0  0  0  0  0  0  0  0  0  0  # atno 8010 bound_to 7997
  139.5064  144.6265  151.5925 H   0  0  0  0  0  0  0  0  0  0  0  0  # atno 10167 bound_to 10162
  157.0566  130.6292  149.5778 H   0  0  0  0  0  0  0  0  0  0  0  0  # atno 10718 bound_to 10713
  154.8684  135.3672  154.5061 H   0  0  0  0  0  0  0  0  0  0  0  0  # atno 10763 bound_to 10752
  153.5698  135.7021  153.5514 H   0  0  0  0  0  0  0  0  0  0  0  0  # atno 10764 bound_to 10752
  153.3552  135.4061  155.1639 H   0  0  0  0  0  0  0  0  0  0  0  0  # atno 10765 bound_to 10752
  141.1037  133.6615  156.4356 H   0  0  0  0  0  0  0  0  0  0  0  0  # atno 11005 bound_to 11000
  145.4614  139.1512  143.3864 LP  0  0  0  0  0  0  0  0  0  0  0  0  # atno 17320 bound_to 7965
  146.2737  140.4744  142.8804 LP  0  0  0  0  0  0  0  0  0  0  0  0  # atno 17321 bound_to 7965
  140.5983  143.9655  150.6369 LP  0  0  0  0  0  0  0  0  0  0  0  0  # atno 17342 bound_to 10162
  140.2859  143.3357  152.1108 LP  0  0  0  0  0  0  0  0  0  0  0  0  # atno 17343 bound_to 10162
  155.9991  130.5066  150.7595 LP  0  0  0  0  0  0  0  0  0  0  0  0  # atno 17370 bound_to 10713
  157.4988  131.0917  151.0339 LP  0  0  0  0  0  0  0  0  0  0  0  0  # atno 17371 bound_to 10713
  140.4956  134.6534  157.5228 LP  0  0  0  0  0  0  0  0  0  0  0  0  # atno 17394 bound_to 11000
  139.9899  134.7002  155.9708 LP  0  0  0  0  0  0  0  0  0  0  0  0  # atno 17395 bound_to 11000

$$$$
