AV-unprocessed.smi:1423|AV-procd|sdf|5794|dock7
  -GOLD-   22720 5443D 1   1.00000     0.00000
 Structure written by MMmdl.
 43 44  0  0  0  0  0  0  0  0  1 V2000
  148.2901  128.3645  152.8564 C   0  0  0  0  0  0  0  0  0  0  0  0
  148.7980  128.9638  154.0437 O   0  0  0  0  0  0  0  0  0  0  0  0
  148.9175  130.3378  154.0842 C   0  0  0  0  0  0  0  0  0  0  0  0
  149.8440  130.9090  154.9786 C   0  0  0  0  0  0  0  0  0  0  0  0
  149.9729  132.3107  155.0261 C   0  0  0  0  0  0  0  0  0  0  0  0
  149.1683  133.1018  154.1700 C   0  0  0  0  0  0  0  0  0  0  0  0
  149.1922  134.5230  154.1045 N   0  0  0  0  0  0  0  0  0  0  0  0
  149.5533  135.4200  155.0385 C   0  0  0  0  0  0  0  0  0  0  0  0
  149.9010  135.1592  156.1895 O   0  0  0  0  0  0  0  0  0  0  0  0
  149.4875  136.6684  154.5541 N   0  0  0  0  0  0  0  0  0  0  0  0
  149.8312  137.8788  155.2939 C   0  0  0  0  0  0  0  0  0  0  0  0
  148.9426  139.0578  154.8672 C   0  0  0  0  0  0  0  0  0  0  0  0
  149.3896  140.3606  155.5530 C   0  0  0  0  0  0  0  0  0  0  0  0
  150.7913  140.6609  155.2413 N   0  0  0  0  0  0  0  0  0  0  0  0
  151.1446  141.9772  155.8212 C   0  0  0  0  0  0  0  0  0  0  0  0
  150.6872  142.1821  157.2711 C   0  0  0  0  0  0  0  0  0  0  0  0
  149.9617  143.2720  157.5331 N   0  0  0  0  0  0  0  0  0  0  0  0
  150.9825  141.3654  158.1409 O   0  0  0  0  0  0  0  0  0  0  0  0
  151.6640  139.5794  155.7219 C   0  0  0  0  0  0  0  0  0  0  0  0
  151.2993  138.2477  155.0419 C   0  0  0  0  0  0  0  0  0  0  0  0
  148.2704  132.4302  153.3144 C   0  0  0  0  0  0  0  0  0  0  0  0
  148.1410  131.0880  153.2648 N   0  0  0  0  0  0  0  0  0  0  0  0
  148.2584  127.2826  152.9829 H   0  0  0  0  0  0  0  0  0  0  0  0
  148.9270  128.5778  151.9967 H   0  0  0  0  0  0  0  0  0  0  0  0
  147.2751  128.7027  152.6428 H   0  0  0  0  0  0  0  0  0  0  0  0
  150.4463  130.2821  155.6194 H   0  0  0  0  0  0  0  0  0  0  0  0
  150.6831  132.7353  155.7167 H   0  0  0  0  0  0  0  0  0  0  0  0
  148.9261  134.9101  153.2108 H   0  0  0  0  0  0  0  0  0  0  0  0
  149.1878  136.7920  153.5981 H   0  0  0  0  0  0  0  0  0  0  0  0
  149.7008  137.7000  156.3631 H   0  0  0  0  0  0  0  0  0  0  0  0
  148.9832  139.1848  153.7842 H   0  0  0  0  0  0  0  0  0  0  0  0
  147.9006  138.8525  155.1154 H   0  0  0  0  0  0  0  0  0  0  0  0
  148.7521  141.1754  155.2074 H   0  0  0  0  0  0  0  0  0  0  0  0
  149.2486  140.2844  156.6328 H   0  0  0  0  0  0  0  0  0  0  0  0
  152.2290  142.0960  155.8124 H   0  0  0  0  0  0  0  0  0  0  0  0
  150.7419  142.7741  155.1925 H   0  0  0  0  0  0  0  0  0  0  0  0
  149.6368  143.4487  158.4723 H   0  0  0  0  0  0  0  0  0  0  0  0
  149.7392  143.9160  156.7877 H   0  0  0  0  0  0  0  0  0  0  0  0
  152.7093  139.7940  155.5002 H   0  0  0  0  0  0  0  0  0  0  0  0
  151.5841  139.4854  156.8064 H   0  0  0  0  0  0  0  0  0  0  0  0
  151.9513  137.4553  155.4117 H   0  0  0  0  0  0  0  0  0  0  0  0
  151.4870  138.3271  153.9697 H   0  0  0  0  0  0  0  0  0  0  0  0
  147.6335  132.9878  152.6430 H   0  0  0  0  0  0  0  0  0  0  0  0
  1  2  1  0  0  0  0
  1 23  1  0  0  0  0
  1 24  1  0  0  0  0
  1 25  1  0  0  0  0
  2  3  1  0  0  0  0
  3 22  1  0  0  0  0
  3  4  2  0  0  0  0
  4  5  1  0  0  0  0
  4 26  1  0  0  0  0
  5  6  2  0  0  0  0
  5 27  1  0  0  0  0
  6  7  1  0  0  0  0
  6 21  1  0  0  0  0
  7  8  1  0  0  0  0
  7 28  1  0  0  0  0
  8  9  2  0  0  0  0
  8 10  1  0  0  0  0
 10 11  1  0  0  0  0
 10 29  1  0  0  0  0
 11 20  1  0  0  0  0
 11 12  1  0  0  0  0
 11 30  1  0  0  0  0
 12 13  1  0  0  0  0
 12 31  1  0  0  0  0
 12 32  1  0  0  0  0
 13 14  1  0  0  0  0
 13 33  1  0  0  0  0
 13 34  1  0  0  0  0
 14 15  1  0  0  0  0
 14 19  1  0  0  0  0
 15 16  1  0  0  0  0
 15 35  1  0  0  0  0
 15 36  1  0  0  0  0
 16 17  1  0  0  0  0
 16 18  2  0  0  0  0
 17 37  1  0  0  0  0
 17 38  1  0  0  0  0
 19 20  1  0  0  0  0
 19 39  1  0  0  0  0
 19 40  1  0  0  0  0
 20 41  1  0  0  0  0
 20 42  1  0  0  0  0
 21 22  2  0  0  0  0
 21 43  1  0  0  0  0
M  END
> <s_m_source_file>
AV-unprocessed.smi

> <i_m_source_file_index>
1423

> <i_lp_mmshare_version>
43012

> <i_f3d_flags>
0

> <s_epik_input>
W0NIM11PYzFbY0hdW2NIXWMoW2NIXW4xKVtOSF1DKD1PKVtOSF1bQ0hdMltDSDJdW0NIMl1OKFtDSDJdW0NIMl0yKVtDSDJdQyg9TylbTkgyXQ==

> <s_epik_cmdline>
J2VwaWtfcHl0aG9uJywgJy1waCcsICc3LjAnLCAnLXRuJywgJzgnLCAnLW1hJywgJzIwMCcsICctbWV0YWxfYmluZGluZycsICctaW1hZScsICc8aW5maWxlLm1hZT4nLCAnLW9tYWUnLCAnPG91dGZpbGUubWFlPic=

> <r_lp_tautomer_probability>
1

> <r_epik_Ionization_Penalty>
0.16483

> <r_epik_Ionization_Penalty_Charging>
0

> <r_epik_Ionization_Penalty_Neutral>
0.16483

> <r_epik_State_Penalty>
0.154069

> <r_epik_Charging_Adjusted_Penalty>
0.154069

> <i_epik_Tot_Q>
0

> <i_epik_Tot_abs_Q>
0

> <r_epik_Metal_State_Penalty>
0.171364

> <b_epik_Metal_Only>
0

> <s_lp_Force_Field>
OPLS_2005

> <r_lp_Energy>
14.563

> <b_lp_Chiralities_Consistent>
1

> <s_lp_Variant>
AV-unprocessed.smi:1423-1

> <Gold.Version>
5.8.1

> <Gold.Id.Protein>
6NUR|6NUR_protein|mol2

> <Gold.PLP.Fitness>
41.6028

> <Gold.PLP.PLP>
-32.9356

> <Gold.PLP.part.hbond>
-4.0000

> <Gold.PLP.part.metal>
0.0000

> <Gold.PLP.part.buried>
-6.2015

> <Gold.PLP.part.nonpolar>
-22.8919

> <Gold.PLP.part.repulsive>
1.2139

> <Gold.PLP.ligand.clash>
0.0000

> <Gold.PLP.ligand.torsion>
0.9971

> <Gold.PLP.Chemscore.Hbond>
3.5512

> <Gold.PLP.Chemscore.CHOScore>
0.0000

> <Gold.PLP.Chemscore.Metal>
0.0000

> <Gold.Chemscore.Hbonds>
donor molecule, donor type, donor heavy atom, donor atom, acceptor molecule, acceptor atom, score
      L1  H     7    28       P1  7948  0.95
      L1  H    10    29       P1  7948  1.00
      L1  H    17    38       P1  8028  1.00
      P1  H  7989  7998       L1    14  0.70

> <Gold.PLP.Chemscore.Internal.Correction>
0.0079

> <Gold.Rescore>
     Score         DG    S(hbond)    S(metal)    S(lipo)     H(rot)  DE(clash)    DE(int)     intcor
     12.26     -14.10       2.22        0.00      60.39       2.29       0.15       1.69       ----

> <Gold.Chemscore.Fitness>
12.2645

> <Gold.Chemscore.DG>
-14.1014

> <Gold.Chemscore.ZeroCoef>
-5.4800

> <Gold.Chemscore.Hbond>
2.2248

> <Gold.Chemscore.Metal>
0.0000

> <Gold.Chemscore.Lipo>
60.3892

> <Gold.Chemscore.Internal_Hbond>
0.0000

> <Gold.Chemscore.DEClash>
0.1509

> <Gold.Chemscore.DEInternal>
1.6859

> <Gold.Chemscore.Rot>
2.2949

> <Gold.Chemscore.Internal.Correction>
   9.000000E+99

> <Gold.Chemscore.Hbonds>
donor molecule, donor type, donor heavy atom, donor atom, acceptor molecule, acceptor atom, score
      L1  H     7    28       P1  7948  0.21
      L1  H    10    29       P1  7948  0.96
      L1  H    17    38       P1  8028  0.96
      P1  H  7989  7998       L1    14  0.02

> <Gold.Chemscore.Hbond.Weighted>
-7.4309

> <Gold.Chemscore.Metal.Weighted>
-0.0000

> <Gold.Chemscore.Lipo.Weighted>
-7.0655

> <Gold.Chemscore.Internal_Hbond.Weighted>
0.0000

> <Gold.Chemscore.DEClash.Weighted>
0.1509

> <Gold.Chemscore.DEInternal.Weighted>
1.6859

> <Gold.Chemscore.Rot.Weighted>
5.8750

> <Gold.Chemscore.Internal.Correction.Weighted>
   9.000000E+99

> <Gold.Protein.RotatedTorsions>
[ 6907 6896 6895 6894 ] final -161.02 input  -60.11 | X-H torsion
[ 7974 7965 7964 7962 ] final  -47.74 input  175.53 | X-H torsion
[ 8008 7997 7996 7995 ] final  170.91 input   59.86 | X-H torsion
[ 10167 10162 10161 10158 ] final  -48.35 input  -65.29 | X-H torsion
[ 10718 10713 10712 10709 ] final  134.17 input   66.30 | X-H torsion
[ 10763 10752 10751 10750 ] final  174.75 input  -60.55 | X-H torsion
[ 11005 11000 10999 10996 ] final -106.89 input  -57.11 | X-H torsion

> <Gold.Protein.ActiveResidues>
 VAL166  LYS551  ARG553  GLY616  TRP617  ASP618  TYR619  PRO620  LYS621  CYS622 
 ASP623  PHE694  ASN695  SER759  ASP760  ASP761  ALA762  ILE779  LEU786  VAL792 
 PHE793  MET794  SER795  GLU796  ALA797  LYS798  CYS799  TRP800  GLU811  SER814 

> <Gold.Protein.RotatedAtoms>
  151.3581  133.3900  159.2686 H   0  0  0  0  0  0  0  0  0  0  0  0  # atno 6907 bound_to 6896
  150.9747  134.9115  159.7819 H   0  0  0  0  0  0  0  0  0  0  0  0  # atno 6908 bound_to 6896
  152.5197  134.3544  159.9315 H   0  0  0  0  0  0  0  0  0  0  0  0  # atno 6909 bound_to 6896
  145.9584  140.7503  142.9469 H   0  0  0  0  0  0  0  0  0  0  0  0  # atno 7974 bound_to 7965
  156.1321  140.1525  156.9049 H   0  0  0  0  0  0  0  0  0  0  0  0  # atno 8008 bound_to 7997
  154.4918  140.0849  156.7650 H   0  0  0  0  0  0  0  0  0  0  0  0  # atno 8009 bound_to 7997
  155.4236  140.3424  155.4276 H   0  0  0  0  0  0  0  0  0  0  0  0  # atno 8010 bound_to 7997
  140.6735  143.2744  151.4058 H   0  0  0  0  0  0  0  0  0  0  0  0  # atno 10167 bound_to 10162
  157.4700  131.1079  150.9815 H   0  0  0  0  0  0  0  0  0  0  0  0  # atno 10718 bound_to 10713
  154.4582  135.2767  155.1732 H   0  0  0  0  0  0  0  0  0  0  0  0  # atno 10763 bound_to 10752
  154.3531  135.6145  153.5656 H   0  0  0  0  0  0  0  0  0  0  0  0  # atno 10764 bound_to 10752
  152.9852  135.5816  154.4939 H   0  0  0  0  0  0  0  0  0  0  0  0  # atno 10765 bound_to 10752
  141.0982  133.8933  157.1910 H   0  0  0  0  0  0  0  0  0  0  0  0  # atno 11005 bound_to 11000
  144.6810  140.2551  143.7326 LP  0  0  0  0  0  0  0  0  0  0  0  0  # atno 17320 bound_to 7965
  145.8074  139.1989  143.2013 LP  0  0  0  0  0  0  0  0  0  0  0  0  # atno 17321 bound_to 7965
  139.6015  144.1286  152.2203 LP  0  0  0  0  0  0  0  0  0  0  0  0  # atno 17342 bound_to 10162
  140.0671  144.5809  150.7219 LP  0  0  0  0  0  0  0  0  0  0  0  0  # atno 17343 bound_to 10162
  157.0583  130.5815  149.5381 LP  0  0  0  0  0  0  0  0  0  0  0  0  # atno 17370 bound_to 10713
  156.0068  130.5156  150.7858 LP  0  0  0  0  0  0  0  0  0  0  0  0  # atno 17371 bound_to 10713
  139.9825  135.0093  156.9783 LP  0  0  0  0  0  0  0  0  0  0  0  0  # atno 17394 bound_to 11000
  140.5088  134.1023  155.7266 LP  0  0  0  0  0  0  0  0  0  0  0  0  # atno 17395 bound_to 11000

$$$$
