AV-unprocessed.smi:2411|AV-procd|sdf|9531|dock3
  -GOLD-   2272013163D 1   1.00000     0.00000
 Structure written by MMmdl.
 42 44  0  0  0  0  0  0  0  0  2 V2000
  145.8890  143.0028  153.9042 C   0  0  0  0  0  0  0  0  0  0  0  0
  146.1891  141.9436  154.8584 N   0  0  0  0  0  0  0  0  0  0  0  0
  145.1120  141.5774  155.7704 C   0  0  0  0  0  0  0  0  0  0  0  0
  146.9356  140.8830  154.3063 C   0  0  0  0  0  0  0  0  0  0  0  0
  146.3081  140.0367  153.4570 N   0  0  0  0  0  0  0  0  0  0  0  0
  146.9875  139.0305  152.8971 C   0  0  0  0  0  0  0  0  0  0  0  0
  148.2851  138.8045  153.1402 N   0  3  0  0  0  0  0  0  0  0  0  0
  148.9594  139.6199  153.9851 C   0  0  0  0  0  0  0  0  0  0  0  0
  148.3087  140.7123  154.6057 C   0  0  0  0  0  0  0  0  0  0  0  0
  148.9533  141.5751  155.5362 N   0  0  0  0  0  0  0  0  0  0  0  0
  150.2286  141.5339  155.9542 C   0  0  0  0  0  0  0  0  0  0  0  0
  151.0588  140.6929  155.6102 O   0  0  0  0  0  0  0  0  0  0  0  0
  150.4992  142.5511  156.7834 N   0  0  0  0  0  0  0  0  0  0  0  0
  151.7999  142.8280  157.3889 C   0  0  0  0  0  0  0  0  0  0  0  0
  151.8162  143.3440  158.8275 C   0  0  0  0  0  0  0  0  0  0  0  0
  152.1968  142.2732  159.8446 C   0  0  0  0  0  0  0  0  0  0  0  0
  152.5668  142.6699  161.2541 C   0  0  0  0  0  0  0  0  0  0  0  0
  153.6023  142.0332  160.3566 C   0  0  0  0  0  0  0  0  0  0  0  0
  152.3065  144.7515  159.1196 C   0  0  0  0  0  0  0  0  0  0  0  0
  150.8342  144.4482  159.1978 C   0  0  0  0  0  0  0  0  0  0  0  0
  146.7885  143.3794  153.4175 H   0  0  0  0  0  0  0  0  0  0  0  0
  145.4085  143.8423  154.4075 H   0  0  0  0  0  0  0  0  0  0  0  0
  145.2111  142.6384  153.1314 H   0  0  0  0  0  0  0  0  0  0  0  0
  145.4440  140.8218  156.4837 H   0  0  0  0  0  0  0  0  0  0  0  0
  144.2534  141.1862  155.2230 H   0  0  0  0  0  0  0  0  0  0  0  0
  144.7846  142.4495  156.3369 H   0  0  0  0  0  0  0  0  0  0  0  0
  146.4934  138.3499  152.2194 H   0  0  0  0  0  0  0  0  0  0  0  0
  149.9922  139.3478  154.1425 H   0  0  0  0  0  0  0  0  0  0  0  0
  148.4097  142.3706  155.8389 H   0  0  0  0  0  0  0  0  0  0  0  0
  149.7533  143.1946  157.0052 H   0  0  0  0  0  0  0  0  0  0  0  0
  152.3640  141.8952  157.3646 H   0  0  0  0  0  0  0  0  0  0  0  0
  152.3620  143.5249  156.7648 H   0  0  0  0  0  0  0  0  0  0  0  0
  151.5989  141.3672  159.7627 H   0  0  0  0  0  0  0  0  0  0  0  0
  152.6758  143.7311  161.4694 H   0  0  0  0  0  0  0  0  0  0  0  0
  152.1637  142.0684  162.0662 H   0  0  0  0  0  0  0  0  0  0  0  0
  153.8827  141.0044  160.5731 H   0  0  0  0  0  0  0  0  0  0  0  0
  154.4158  142.6621  160.0057 H   0  0  0  0  0  0  0  0  0  0  0  0
  152.8282  144.9198  160.0596 H   0  0  0  0  0  0  0  0  0  0  0  0
  152.6477  145.3697  158.2929 H   0  0  0  0  0  0  0  0  0  0  0  0
  150.2025  144.8644  158.4160 H   0  0  0  0  0  0  0  0  0  0  0  0
  150.3760  144.4430  160.1827 H   0  0  0  0  0  0  0  0  0  0  0  0
  148.7696  138.0210  152.7018 H   0  0  0  0  0  0  0  0  0  0  0  0
  1  2  1  0  0  0  0
  1 21  1  0  0  0  0
  1 22  1  0  0  0  0
  1 23  1  0  0  0  0
  2  3  1  0  0  0  0
  2  4  1  0  0  0  0
  3 24  1  0  0  0  0
  3 25  1  0  0  0  0
  3 26  1  0  0  0  0
  4  9  1  0  0  0  0
  4  5  2  0  0  0  0
  5  6  1  0  0  0  0
  6  7  2  0  0  0  0
  6 27  1  0  0  0  0
  7  8  1  0  0  0  0
  7 42  1  0  0  0  0
  8  9  2  0  0  0  0
  8 28  1  0  0  0  0
  9 10  1  0  0  0  0
 10 11  1  0  0  0  0
 10 29  1  0  0  0  0
 11 12  2  0  0  0  0
 11 13  1  0  0  0  0
 13 14  1  0  0  0  0
 13 30  1  0  0  0  0
 14 15  1  0  0  0  0
 14 31  1  0  0  0  0
 14 32  1  0  0  0  0
 15 20  1  0  0  0  0
 15 16  1  0  0  0  0
 15 19  1  0  0  0  0
 16 18  1  0  0  0  0
 16 17  1  0  0  0  0
 16 33  1  0  0  0  0
 17 18  1  0  0  0  0
 17 34  1  0  0  0  0
 17 35  1  0  0  0  0
 18 36  1  0  0  0  0
 18 37  1  0  0  0  0
 19 20  1  0  0  0  0
 19 38  1  0  0  0  0
 19 39  1  0  0  0  0
 20 40  1  0  0  0  0
 20 41  1  0  0  0  0
M  CHG  1   7   1
M  END
> <s_m_source_file>
AV-unprocessed.smi

> <i_m_source_file_index>
2411

> <i_lp_mmshare_version>
43012

> <i_f3d_flags>
0

> <s_epik_input>
W0NIM11OKFtDSDNdKWMxbltjSF1uW2NIXWMxW05IXUMoPU8pW05IXVtDSDJdQzIoW0NIMl1bQ0gyXTIpW0NIXTNbQ0gyXVtDSDJdMw==

> <s_epik_cmdline>
J2VwaWtfcHl0aG9uJywgJy1waCcsICc3LjAnLCAnLXRuJywgJzgnLCAnLW1hJywgJzIwMCcsICctbWV0YWxfYmluZGluZycsICctaW1hZScsICc8aW5maWxlLm1hZT4nLCAnLW9tYWUnLCAnPG91dGZpbGUubWFlPic=

> <r_lp_tautomer_probability>
0.999336

> <r_epik_Ionization_Penalty>
2.09151

> <r_epik_Ionization_Penalty_Charging>
2.09146

> <r_epik_Ionization_Penalty_Neutral>
4.82975e-05

> <r_epik_State_Penalty>
2.22693

> <r_epik_Charging_Adjusted_Penalty>
4.31839

> <i_epik_Tot_Q>
1

> <i_epik_Tot_abs_Q>
1

> <r_epik_Metal_State_Penalty>
2.24413

> <b_epik_Metal_Only>
0

> <s_lp_Force_Field>
OPLS_2005

> <r_lp_Energy>
35.9765

> <b_lp_Chiralities_Consistent>
1

> <s_lp_Variant>
AV-unprocessed.smi:2411-2

> <Gold.Version>
5.8.1

> <Gold.Id.Protein>
6NUR|6NUR_protein|mol2

> <Gold.PLP.Fitness>
52.8934

> <Gold.PLP.PLP>
-43.4828

> <Gold.PLP.part.hbond>
-4.9968

> <Gold.PLP.part.metal>
0.0000

> <Gold.PLP.part.buried>
-5.5795

> <Gold.PLP.part.nonpolar>
-35.1192

> <Gold.PLP.part.repulsive>
2.1628

> <Gold.PLP.ligand.clash>
0.0000

> <Gold.PLP.ligand.torsion>
2.0515

> <Gold.PLP.Chemscore.Hbond>
3.5495

> <Gold.PLP.Chemscore.CHOScore>
0.0000

> <Gold.PLP.Chemscore.Metal>
0.0000

> <Gold.Chemscore.Hbonds>
donor molecule, donor type, donor heavy atom, donor atom, acceptor molecule, acceptor atom, score
      L1  H     7    42       P1  7948  2.00
      L1  H    10    29       P1  8028  0.06
      L1  H    13    30       P1  8028  0.31
      P1  H  7989  7998       L1    12  0.50

> <Gold.PLP.Chemscore.Internal.Correction>
2.8650

> <Gold.Rescore>
     Score         DG    S(hbond)    S(metal)    S(lipo)     H(rot)  DE(clash)    DE(int)     intcor
     16.73     -23.80       3.09        0.00     105.76       1.71       3.84       3.22       ----

> <Gold.Chemscore.Fitness>
16.7345

> <Gold.Chemscore.DG>
-23.7952

> <Gold.Chemscore.ZeroCoef>
-5.4800

> <Gold.Chemscore.Hbond>
3.0856

> <Gold.Chemscore.Metal>
0.0000

> <Gold.Chemscore.Lipo>
105.7641

> <Gold.Chemscore.Internal_Hbond>
0.0000

> <Gold.Chemscore.DEClash>
3.8417

> <Gold.Chemscore.DEInternal>
3.2189

> <Gold.Chemscore.Rot>
1.7051

> <Gold.Chemscore.Internal.Correction>
   9.000000E+99

> <Gold.Chemscore.Hbonds>
donor molecule, donor type, donor heavy atom, donor atom, acceptor molecule, acceptor atom, score
      L1  H     7    42       P1  7948  0.98
      L1  H    10    29       P1  8028  0.08
      L1  H    13    30       P1  8028  0.30
      P1  H  7989  7998       L1    12  0.42

> <Gold.Chemscore.Hbond.Weighted>
-10.3059

> <Gold.Chemscore.Metal.Weighted>
-0.0000

> <Gold.Chemscore.Lipo.Weighted>
-12.3744

> <Gold.Chemscore.Internal_Hbond.Weighted>
0.0000

> <Gold.Chemscore.DEClash.Weighted>
3.8417

> <Gold.Chemscore.DEInternal.Weighted>
3.2189

> <Gold.Chemscore.Rot.Weighted>
4.3650

> <Gold.Chemscore.Internal.Correction.Weighted>
   9.000000E+99

> <Gold.Protein.RotatedTorsions>
[ 6907 6896 6895 6894 ] final   -8.62 input  -60.11 | X-H torsion
[ 7974 7965 7964 7962 ] final   22.77 input  175.53 | X-H torsion
[ 8008 7997 7996 7995 ] final   82.55 input   59.86 | X-H torsion
[ 10167 10162 10161 10158 ] final -166.91 input  -65.29 | X-H torsion
[ 10718 10713 10712 10709 ] final -174.61 input   66.30 | X-H torsion
[ 10763 10752 10751 10750 ] final  -26.11 input  -60.55 | X-H torsion
[ 11005 11000 10999 10996 ] final  -80.87 input  -57.11 | X-H torsion

> <Gold.Protein.ActiveResidues>
 VAL166  LYS551  ARG553  GLY616  TRP617  ASP618  TYR619  PRO620  LYS621  CYS622 
 ASP623  PHE694  ASN695  SER759  ASP760  ASP761  ALA762  ILE779  LEU786  VAL792 
 PHE793  MET794  SER795  GLU796  ALA797  LYS798  CYS799  TRP800  GLU811  SER814 

> <Gold.Protein.RotatedAtoms>
  151.4308  135.1009  159.9641 H   0  0  0  0  0  0  0  0  0  0  0  0  # atno 6907 bound_to 6896
  152.4957  133.8620  159.7265 H   0  0  0  0  0  0  0  0  0  0  0  0  # atno 6908 bound_to 6896
  150.9157  133.6884  159.2872 H   0  0  0  0  0  0  0  0  0  0  0  0  # atno 6909 bound_to 6896
  146.2014  139.7838  142.8758 H   0  0  0  0  0  0  0  0  0  0  0  0  # atno 7974 bound_to 7965
  155.9121  140.3427  155.6107 H   0  0  0  0  0  0  0  0  0  0  0  0  # atno 8008 bound_to 7997
  155.7375  140.0803  157.2280 H   0  0  0  0  0  0  0  0  0  0  0  0  # atno 8009 bound_to 7997
  154.4057  140.1577  156.2565 H   0  0  0  0  0  0  0  0  0  0  0  0  # atno 8010 bound_to 7997
  139.6084  144.0866  152.1816 H   0  0  0  0  0  0  0  0  0  0  0  0  # atno 10167 bound_to 10162
  156.7877  130.9506  151.3120 H   0  0  0  0  0  0  0  0  0  0  0  0  # atno 10718 bound_to 10713
  153.7107  135.6951  153.5038 H   0  0  0  0  0  0  0  0  0  0  0  0  # atno 10763 bound_to 10752
  153.2275  135.4349  155.0557 H   0  0  0  0  0  0  0  0  0  0  0  0  # atno 10764 bound_to 10752
  154.8316  135.3476  154.6644 H   0  0  0  0  0  0  0  0  0  0  0  0  # atno 10765 bound_to 10752
  141.1667  133.7170  156.8337 H   0  0  0  0  0  0  0  0  0  0  0  0  # atno 11005 bound_to 11000
  145.3471  141.0300  143.3360 LP  0  0  0  0  0  0  0  0  0  0  0  0  # atno 17320 bound_to 7965
  144.8692  139.5063  143.6776 LP  0  0  0  0  0  0  0  0  0  0  0  0  # atno 17321 bound_to 7965
  140.0479  144.5956  150.7359 LP  0  0  0  0  0  0  0  0  0  0  0  0  # atno 17342 bound_to 10162
  140.7301  143.2680  151.3982 LP  0  0  0  0  0  0  0  0  0  0  0  0  # atno 17343 bound_to 10162
  157.6616  130.8971  149.9841 LP  0  0  0  0  0  0  0  0  0  0  0  0  # atno 17370 bound_to 10713
  156.1178  130.3647  149.9938 LP  0  0  0  0  0  0  0  0  0  0  0  0  # atno 17371 bound_to 10713
  140.2033  134.8881  157.3193 LP  0  0  0  0  0  0  0  0  0  0  0  0  # atno 17394 bound_to 11000
  140.2164  134.4076  155.7587 LP  0  0  0  0  0  0  0  0  0  0  0  0  # atno 17395 bound_to 11000

$$$$
