AV-unprocessed.smi:2014|AV-procd|sdf|8161|dock6
  -GOLD-   2272010403D 1   1.00000     0.00000
 Structure written by MMmdl.
 46 48  0  0  0  0  0  0  0  0  1 V2000
  146.6721  134.5656  163.1206 C   0  0  0  0  0  0  0  0  0  0  0  0
  147.4511  134.6662  161.8014 C   0  0  2  0  0  0  0  0  0  0  0  0
  147.7855  136.1298  161.4553 C   0  0  0  0  0  0  0  0  0  0  0  0
  148.5622  136.2372  160.1333 C   0  0  0  0  0  0  0  0  0  0  0  0
  147.7996  135.5658  158.9733 C   0  0  1  0  0  0  0  0  0  0  0  0
  148.5902  135.6101  157.7473 N   0  0  0  0  0  0  0  0  0  0  0  0
  148.1298  135.3385  156.5167 C   0  0  0  0  0  0  0  0  0  0  0  0
  146.9671  134.9989  156.2911 O   0  0  0  0  0  0  0  0  0  0  0  0
  149.1511  135.4746  155.3771 C   0  0  0  0  0  0  0  0  0  0  0  0
  149.5060  136.8772  155.0676 N   0  0  0  0  0  0  0  0  0  0  0  0
  150.8786  137.2298  155.0073 C   0  0  0  0  0  0  0  0  0  0  0  0
  151.7590  136.3849  155.1797 O   0  0  0  0  0  0  0  0  0  0  0  0
  151.1550  138.6405  154.7464 C   0  0  0  0  0  0  0  0  0  0  0  0
  152.5226  139.0408  154.7150 C   0  0  0  0  0  0  0  0  0  0  0  0
  153.6306  139.3756  154.7121 N   0  0  0  0  0  0  0  0  0  0  0  0
  150.1515  139.5206  154.5516 C   0  0  0  0  0  0  0  0  0  0  0  0
  148.8249  139.1490  154.5734 N   0  0  0  0  0  0  0  0  0  0  0  0
  147.7738  140.1254  154.5157 C   0  0  0  0  0  0  0  0  0  0  0  0
  147.4402  140.8160  153.2073 C   0  0  0  0  0  0  0  0  0  0  0  0
  148.1354  141.5799  154.3077 C   0  0  0  0  0  0  0  0  0  0  0  0
  148.4652  137.8204  154.8891 C   0  0  0  0  0  0  0  0  0  0  0  0
  147.2828  137.4925  155.0161 O   0  0  0  0  0  0  0  0  0  0  0  0
  147.4630  134.1036  159.3192 C   0  0  0  0  0  0  0  0  0  0  0  0
  146.6846  134.0029  160.6411 C   0  0  0  0  0  0  0  0  0  0  0  0
  145.7172  135.0890  163.0588 H   0  0  0  0  0  0  0  0  0  0  0  0
  147.2380  135.0020  163.9443 H   0  0  0  0  0  0  0  0  0  0  0  0
  146.4669  133.5257  163.3770 H   0  0  0  0  0  0  0  0  0  0  0  0
  148.3912  134.1284  161.9339 H   0  0  0  0  0  0  0  0  0  0  0  0
  146.8653  136.7111  161.3817 H   0  0  0  0  0  0  0  0  0  0  0  0
  148.3703  136.5794  162.2586 H   0  0  0  0  0  0  0  0  0  0  0  0
  148.7468  137.2878  159.9054 H   0  0  0  0  0  0  0  0  0  0  0  0
  149.5419  135.7713  160.2514 H   0  0  0  0  0  0  0  0  0  0  0  0
  146.8610  136.0996  158.8114 H   0  0  0  0  0  0  0  0  0  0  0  0
  149.5593  135.8779  157.8412 H   0  0  0  0  0  0  0  0  0  0  0  0
  150.0440  134.9026  155.6351 H   0  0  0  0  0  0  0  0  0  0  0  0
  148.7547  134.9620  154.4995 H   0  0  0  0  0  0  0  0  0  0  0  0
  150.3944  140.5571  154.3664 H   0  0  0  0  0  0  0  0  0  0  0  0
  146.9313  139.9383  155.1793 H   0  0  0  0  0  0  0  0  0  0  0  0
  148.0304  140.5675  152.3271 H   0  0  0  0  0  0  0  0  0  0  0  0
  146.3946  141.0476  153.0160 H   0  0  0  0  0  0  0  0  0  0  0  0
  147.5534  142.3237  154.8480 H   0  0  0  0  0  0  0  0  0  0  0  0
  149.1830  141.8312  154.1529 H   0  0  0  0  0  0  0  0  0  0  0  0
  146.8792  133.6538  158.5150 H   0  0  0  0  0  0  0  0  0  0  0  0
  148.3819  133.5203  159.3972 H   0  0  0  0  0  0  0  0  0  0  0  0
  146.4925  132.9544  160.8712 H   0  0  0  0  0  0  0  0  0  0  0  0
  145.7088  134.4765  160.5240 H   0  0  0  0  0  0  0  0  0  0  0  0
  1  2  1  0  0  0  0
  1 25  1  0  0  0  0
  1 26  1  0  0  0  0
  1 27  1  0  0  0  0
  2 24  1  0  0  0  0
  2  3  1  0  0  0  0
  2 28  1  0  0  0  0
  3  4  1  0  0  0  0
  3 29  1  0  0  0  0
  3 30  1  0  0  0  0
  4  5  1  0  0  0  0
  4 31  1  0  0  0  0
  4 32  1  0  0  0  0
  5  6  1  0  0  0  0
  5 23  1  0  0  0  0
  5 33  1  0  0  0  0
  6  7  1  0  0  0  0
  6 34  1  0  0  0  0
  7  8  2  0  0  0  0
  7  9  1  0  0  0  0
  9 10  1  0  0  0  0
  9 35  1  0  0  0  0
  9 36  1  0  0  0  0
 10 21  1  0  0  0  0
 10 11  1  0  0  0  0
 11 12  2  0  0  0  0
 11 13  1  0  0  0  0
 13 14  1  0  0  0  0
 13 16  2  0  0  0  0
 14 15  3  0  0  0  0
 16 17  1  0  0  0  0
 16 37  1  0  0  0  0
 17 18  1  0  0  0  0
 17 21  1  0  0  0  0
 18 20  1  0  0  0  0
 18 19  1  0  0  0  0
 18 38  1  0  0  0  0
 19 20  1  0  0  0  0
 19 39  1  0  0  0  0
 19 40  1  0  0  0  0
 20 41  1  0  0  0  0
 20 42  1  0  0  0  0
 21 22  2  0  0  0  0
 23 24  1  0  0  0  0
 23 43  1  0  0  0  0
 23 44  1  0  0  0  0
 24 45  1  0  0  0  0
 24 46  1  0  0  0  0
M  END
> <s_m_source_file>
AV-unprocessed.smi

> <i_m_source_file_index>
2014

> <i_lp_mmshare_version>
43012

> <i_f3d_flags>
0

> <s_epik_input>
W0NIM11bQ0BASF0xW0NIMl1bQ0gyXVtDQEhdKFtDSDJdW0NIMl0xKVtOSF1DKD1PKVtDSDJdbjJjKD1PKWMoQyNOKVtjSF1uKGMyPU8pW0NIXTNbQ0gyXVtDSDJdMw==

> <s_epik_cmdline>
J2VwaWtfcHl0aG9uJywgJy1waCcsICc3LjAnLCAnLXRuJywgJzgnLCAnLW1hJywgJzIwMCcsICctbWV0YWxfYmluZGluZycsICctaW1hZScsICc8aW5maWxlLm1hZT4nLCAnLW9tYWUnLCAnPG91dGZpbGUubWFlPic=

> <r_lp_tautomer_probability>
1

> <r_epik_Ionization_Penalty>
1.91358e-08

> <r_epik_Ionization_Penalty_Charging>
8.89021e-11

> <r_epik_Ionization_Penalty_Neutral>
1.90469e-08

> <r_epik_State_Penalty>
-0

> <r_epik_Charging_Adjusted_Penalty>
8.89021e-11

> <i_epik_Tot_Q>
0

> <i_epik_Tot_abs_Q>
0

> <r_epik_Metal_State_Penalty>
-0

> <b_epik_Metal_Only>
0

> <s_lp_Force_Field>
OPLS_2005

> <r_lp_Energy>
34.0792

> <b_lp_Chiralities_Consistent>
1

> <s_lp_Variant>
AV-unprocessed.smi:2014-1

> <Gold.Version>
5.8.1

> <Gold.Id.Protein>
6NUR|6NUR_protein|mol2

> <Gold.PLP.Fitness>
42.0445

> <Gold.PLP.PLP>
-36.7978

> <Gold.PLP.part.hbond>
-2.3780

> <Gold.PLP.part.metal>
0.0000

> <Gold.PLP.part.buried>
-1.8315

> <Gold.PLP.part.nonpolar>
-33.5177

> <Gold.PLP.part.repulsive>
0.2405

> <Gold.PLP.ligand.clash>
0.0000

> <Gold.PLP.ligand.torsion>
0.4813

> <Gold.PLP.Chemscore.Hbond>
2.0000

> <Gold.PLP.Chemscore.CHOScore>
0.0000

> <Gold.PLP.Chemscore.Metal>
0.0000

> <Gold.Chemscore.Hbonds>
donor molecule, donor type, donor heavy atom, donor atom, acceptor molecule, acceptor atom, score
      P1  H  7997  8010       L1    15  1.00
      P1  H 10752 10764       L1    12  0.99

> <Gold.PLP.Chemscore.Internal.Correction>
0.2093

> <Gold.Rescore>
     Score         DG    S(hbond)    S(metal)    S(lipo)     H(rot)  DE(clash)    DE(int)     intcor
     14.68     -17.07       1.93        0.00      81.29       1.70       0.03       2.36       ----

> <Gold.Chemscore.Fitness>
14.6769

> <Gold.Chemscore.DG>
-17.0730

> <Gold.Chemscore.ZeroCoef>
-5.4800

> <Gold.Chemscore.Hbond>
1.9294

> <Gold.Chemscore.Metal>
0.0000

> <Gold.Chemscore.Lipo>
81.2885

> <Gold.Chemscore.Internal_Hbond>
0.0000

> <Gold.Chemscore.DEClash>
0.0332

> <Gold.Chemscore.DEInternal>
2.3629

> <Gold.Chemscore.Rot>
1.7038

> <Gold.Chemscore.Internal.Correction>
   9.000000E+99

> <Gold.Chemscore.Hbonds>
donor molecule, donor type, donor heavy atom, donor atom, acceptor molecule, acceptor atom, score
      P1  H  7997  8010       L1    15  0.95
      P1  H 10752 10764       L1    12  0.92

> <Gold.Chemscore.Hbond.Weighted>
-6.4440

> <Gold.Chemscore.Metal.Weighted>
-0.0000

> <Gold.Chemscore.Lipo.Weighted>
-9.5108

> <Gold.Chemscore.Internal_Hbond.Weighted>
0.0000

> <Gold.Chemscore.DEClash.Weighted>
0.0332

> <Gold.Chemscore.DEInternal.Weighted>
2.3629

> <Gold.Chemscore.Rot.Weighted>
4.3618

> <Gold.Chemscore.Internal.Correction.Weighted>
   9.000000E+99

> <Gold.Protein.RotatedTorsions>
[ 6907 6896 6895 6894 ] final  150.53 input  -60.11 | X-H torsion
[ 7974 7965 7964 7962 ] final    0.50 input  175.53 | X-H torsion
[ 8008 7997 7996 7995 ] final   99.21 input   59.86 | X-H torsion
[ 10167 10162 10161 10158 ] final -177.16 input  -65.29 | X-H torsion
[ 10718 10713 10712 10709 ] final  -66.89 input   66.30 | X-H torsion
[ 10763 10752 10751 10750 ] final  -58.23 input  -60.55 | X-H torsion
[ 11005 11000 10999 10996 ] final  100.66 input  -57.11 | X-H torsion

> <Gold.Protein.ActiveResidues>
 VAL166  LYS551  ARG553  GLY616  TRP617  ASP618  TYR619  PRO620  LYS621  CYS622 
 ASP623  PHE694  ASN695  SER759  ASP760  ASP761  ALA762  ILE779  LEU786  VAL792 
 PHE793  MET794  SER795  GLU796  ALA797  LYS798  CYS799  TRP800  GLU811  SER814 

> <Gold.Protein.RotatedAtoms>
  152.1131  133.4311  159.4639 H   0  0  0  0  0  0  0  0  0  0  0  0  # atno 6907 bound_to 6896
  150.6868  134.2624  159.4564 H   0  0  0  0  0  0  0  0  0  0  0  0  # atno 6908 bound_to 6896
  152.0495  134.9662  160.0625 H   0  0  0  0  0  0  0  0  0  0  0  0  # atno 6909 bound_to 6896
  146.2435  140.1129  142.8343 H   0  0  0  0  0  0  0  0  0  0  0  0  # atno 7974 bound_to 7965
  156.1082  140.3232  155.8036 H   0  0  0  0  0  0  0  0  0  0  0  0  # atno 8008 bound_to 7997
  155.4719  140.0547  157.2995 H   0  0  0  0  0  0  0  0  0  0  0  0  # atno 8009 bound_to 7997
  154.4742  140.2025  155.9934 H   0  0  0  0  0  0  0  0  0  0  0  0  # atno 8010 bound_to 7997
  139.5494  144.2150  152.1049 H   0  0  0  0  0  0  0  0  0  0  0  0  # atno 10167 bound_to 10162
  156.0587  130.4269  150.1775 H   0  0  0  0  0  0  0  0  0  0  0  0  # atno 10718 bound_to 10713
  154.2348  135.6354  153.5187 H   0  0  0  0  0  0  0  0  0  0  0  0  # atno 10763 bound_to 10752
  152.9941  135.5528  154.5974 H   0  0  0  0  0  0  0  0  0  0  0  0  # atno 10764 bound_to 10752
  154.5465  135.2898  155.1022 H   0  0  0  0  0  0  0  0  0  0  0  0  # atno 10765 bound_to 10752
  139.8771  134.9150  156.4790 H   0  0  0  0  0  0  0  0  0  0  0  0  # atno 11005 bound_to 11000
  145.0472  140.8990  143.5017 LP  0  0  0  0  0  0  0  0  0  0  0  0  # atno 17320 bound_to 7965
  145.1220  139.2687  143.5584 LP  0  0  0  0  0  0  0  0  0  0  0  0  # atno 17321 bound_to 7965
  140.1642  144.4997  150.6615 LP  0  0  0  0  0  0  0  0  0  0  0  0  # atno 17342 bound_to 10162
  140.6752  143.2302  151.5525 LP  0  0  0  0  0  0  0  0  0  0  0  0  # atno 17343 bound_to 10162
  156.9847  130.9875  151.3429 LP  0  0  0  0  0  0  0  0  0  0  0  0  # atno 17370 bound_to 10713
  157.5579  130.8226  149.8227 LP  0  0  0  0  0  0  0  0  0  0  0  0  # atno 17371 bound_to 10713
  140.8741  133.7966  155.9395 LP  0  0  0  0  0  0  0  0  0  0  0  0  # atno 17394 bound_to 11000
  140.8922  134.2481  157.5088 LP  0  0  0  0  0  0  0  0  0  0  0  0  # atno 17395 bound_to 11000

$$$$
