AV-unprocessed.smi:3010|AV-procd|sdf|11456|dock1
  -GOLD-   2272016393D 1   1.00000     0.00000
 Structure written by MMmdl.
 38 40  0  0  0  0  0  0  0  0  1 V2000
  154.8735  139.9016  160.9974 C   0  0  0  0  0  0  0  0  0  0  0  0
  153.8535  140.8300  160.4738 N   0  0  0  0  0  0  0  0  0  0  0  0
  153.2966  140.5585  159.2515 C   0  0  0  0  0  0  0  0  0  0  0  0
  153.5933  139.5967  158.5420 O   0  0  0  0  0  0  0  0  0  0  0  0
  152.2821  141.5315  158.8324 C   0  0  0  0  0  0  0  0  0  0  0  0
  151.9431  142.6096  159.5800 C   0  0  0  0  0  0  0  0  0  0  0  0
  150.9646  143.3739  158.9543 N   0  0  0  0  0  0  0  0  0  0  0  0
  150.7597  142.6924  157.8265 C   0  0  0  0  0  0  0  0  0  0  0  0
  151.5061  141.5796  157.6744 N   0  0  0  0  0  0  0  0  0  0  0  0
  151.4689  140.6732  156.5359 C   0  0  0  0  0  0  0  0  0  0  0  0
  150.2743  140.9406  155.5982 C   0  0  1  0  0  0  0  0  0  0  0  0
  150.4061  140.1977  154.4012 O   0  0  0  0  0  0  0  0  0  0  0  0
  148.9541  140.6682  156.3024 C   0  0  0  0  0  0  0  0  0  0  0  0
  147.9999  141.6973  156.4648 C   0  0  0  0  0  0  0  0  0  0  0  0
  146.7757  141.4350  157.1099 C   0  0  0  0  0  0  0  0  0  0  0  0
  146.4968  140.1423  157.5932 C   0  0  0  0  0  0  0  0  0  0  0  0
  147.4421  139.1117  157.4298 C   0  0  0  0  0  0  0  0  0  0  0  0
  148.6671  139.3734  156.7854 C   0  0  0  0  0  0  0  0  0  0  0  0
  152.5907  142.8055  160.8247 N   0  0  0  0  0  0  0  0  0  0  0  0
  152.2054  143.9883  161.6004 C   0  0  0  0  0  0  0  0  0  0  0  0
  153.5391  141.9173  161.2718 C   0  0  0  0  0  0  0  0  0  0  0  0
  154.0968  142.0863  162.3597 O   0  0  0  0  0  0  0  0  0  0  0  0
  155.0893  139.0459  160.3568 H   0  0  0  0  0  0  0  0  0  0  0  0
  154.5582  139.4936  161.9592 H   0  0  0  0  0  0  0  0  0  0  0  0
  155.8200  140.4231  161.1485 H   0  0  0  0  0  0  0  0  0  0  0  0
  150.0438  143.0137  157.0841 H   0  0  0  0  0  0  0  0  0  0  0  0
  152.4124  140.7297  155.9951 H   0  0  0  0  0  0  0  0  0  0  0  0
  151.4096  139.6540  156.9200 H   0  0  0  0  0  0  0  0  0  0  0  0
  150.2927  141.9919  155.3069 H   0  0  0  0  0  0  0  0  0  0  0  0
  149.5427  139.9545  154.1039 H   0  0  0  0  0  0  0  0  0  0  0  0
  148.2024  142.6912  156.0928 H   0  0  0  0  0  0  0  0  0  0  0  0
  146.0500  142.2257  157.2323 H   0  0  0  0  0  0  0  0  0  0  0  0
  145.5576  139.9409  158.0872 H   0  0  0  0  0  0  0  0  0  0  0  0
  147.2275  138.1190  157.7977 H   0  0  0  0  0  0  0  0  0  0  0  0
  149.3841  138.5750  156.6620 H   0  0  0  0  0  0  0  0  0  0  0  0
  152.7063  144.0787  162.5645 H   0  0  0  0  0  0  0  0  0  0  0  0
  151.1327  143.9728  161.7955 H   0  0  0  0  0  0  0  0  0  0  0  0
  152.4285  144.8921  161.0327 H   0  0  0  0  0  0  0  0  0  0  0  0
  1  2  1  0  0  0  0
  1 23  1  0  0  0  0
  1 24  1  0  0  0  0
  1 25  1  0  0  0  0
  2 21  1  0  0  0  0
  2  3  1  0  0  0  0
  3  4  2  0  0  0  0
  3  5  1  0  0  0  0
  5  9  1  0  0  0  0
  5  6  2  0  0  0  0
  6  7  1  0  0  0  0
  6 19  1  0  0  0  0
  7  8  2  0  0  0  0
  8  9  1  0  0  0  0
  8 26  1  0  0  0  0
  9 10  1  0  0  0  0
 10 11  1  0  0  0  0
 10 27  1  0  0  0  0
 10 28  1  0  0  0  0
 11 12  1  0  0  0  0
 11 13  1  0  0  0  0
 11 29  1  0  0  0  0
 12 30  1  0  0  0  0
 13 18  1  0  0  0  0
 13 14  2  0  0  0  0
 14 15  1  0  0  0  0
 14 31  1  0  0  0  0
 15 16  2  0  0  0  0
 15 32  1  0  0  0  0
 16 17  1  0  0  0  0
 16 33  1  0  0  0  0
 17 18  2  0  0  0  0
 17 34  1  0  0  0  0
 18 35  1  0  0  0  0
 19 20  1  0  0  0  0
 19 21  1  0  0  0  0
 20 36  1  0  0  0  0
 20 37  1  0  0  0  0
 20 38  1  0  0  0  0
 21 22  2  0  0  0  0
M  END
> <s_m_source_file>
AV-unprocessed.smi

> <i_m_source_file_index>
3010

> <i_lp_mmshare_version>
43012

> <i_f3d_flags>
0

> <s_epik_input>
Tz1jMW4oW0NIM10pYyg9TyluKFtDSDNdKWMoYzEyKW5bY0hdbjJbQ0gyXVtDQEhdKFtPSF0pYzNbY0hdW2NIXVtjSF1bY0hdW2NIXTM=

> <s_epik_cmdline>
J2VwaWtfcHl0aG9uJywgJy1waCcsICc3LjAnLCAnLXRuJywgJzgnLCAnLW1hJywgJzIwMCcsICctbWV0YWxfYmluZGluZycsICctaW1hZScsICc8aW5maWxlLm1hZT4nLCAnLW9tYWUnLCAnPG91dGZpbGUubWFlPic=

> <r_lp_tautomer_probability>
1

> <r_epik_Ionization_Penalty>
1.43747e-06

> <r_epik_Ionization_Penalty_Charging>
3.74189e-09

> <r_epik_Ionization_Penalty_Neutral>
1.43373e-06

> <r_epik_State_Penalty>
-0

> <r_epik_Charging_Adjusted_Penalty>
3.74189e-09

> <i_epik_Tot_Q>
0

> <i_epik_Tot_abs_Q>
0

> <r_epik_Metal_State_Penalty>
-0

> <b_epik_Metal_Only>
0

> <s_lp_Force_Field>
OPLS_2005

> <r_lp_Energy>
36.4427

> <b_lp_Chiralities_Consistent>
1

> <s_lp_Variant>
AV-unprocessed.smi:3010-2

> <Gold.Version>
5.8.1

> <Gold.Id.Protein>
6NUR|6NUR_protein|mol2

> <Gold.PLP.Fitness>
49.7714

> <Gold.PLP.PLP>
-41.0613

> <Gold.PLP.part.hbond>
-3.0000

> <Gold.PLP.part.metal>
0.0000

> <Gold.PLP.part.buried>
-4.7371

> <Gold.PLP.part.nonpolar>
-32.7094

> <Gold.PLP.part.repulsive>
0.0941

> <Gold.PLP.ligand.clash>
0.0000

> <Gold.PLP.ligand.torsion>
0.1623

> <Gold.PLP.Chemscore.Hbond>
2.0000

> <Gold.PLP.Chemscore.CHOScore>
1.0000

> <Gold.PLP.Chemscore.Metal>
0.0000

> <Gold.Chemscore.Hbonds>
donor molecule, donor type, donor heavy atom, donor atom, acceptor molecule, acceptor atom, score
      P1  H  7989  7998       L1    12  1.00
      P1  H  7997  8010       L1     4  1.00
      L1  C     8    26       P1  8028  1.00

> <Gold.PLP.Chemscore.Internal.Correction>
0.0346

> <Gold.Rescore>
     Score         DG    S(hbond)    S(metal)    S(lipo)     H(rot)  DE(clash)    DE(int)     intcor
     11.99     -12.31       1.95        0.00      49.82       2.15       0.14       0.19       ----

> <Gold.Chemscore.Fitness>
11.9872

> <Gold.Chemscore.DG>
-12.3143

> <Gold.Chemscore.ZeroCoef>
-5.4800

> <Gold.Chemscore.Hbond>
1.9468

> <Gold.Chemscore.Metal>
0.0000

> <Gold.Chemscore.Lipo>
49.8242

> <Gold.Chemscore.Internal_Hbond>
0.0000

> <Gold.Chemscore.DEClash>
0.1416

> <Gold.Chemscore.DEInternal>
0.1855

> <Gold.Chemscore.Rot>
2.1474

> <Gold.Chemscore.Internal.Correction>
   9.000000E+99

> <Gold.Chemscore.Hbonds>
donor molecule, donor type, donor heavy atom, donor atom, acceptor molecule, acceptor atom, score
      P1  H  7989  7998       L1    12  0.69
      P1  H  7997  8010       L1     4  0.85

> <Gold.Chemscore.Hbond.Weighted>
-6.5022

> <Gold.Chemscore.Metal.Weighted>
-0.0000

> <Gold.Chemscore.Lipo.Weighted>
-5.8294

> <Gold.Chemscore.Internal_Hbond.Weighted>
0.0000

> <Gold.Chemscore.DEClash.Weighted>
0.1416

> <Gold.Chemscore.DEInternal.Weighted>
0.1855

> <Gold.Chemscore.Rot.Weighted>
5.4974

> <Gold.Chemscore.Internal.Correction.Weighted>
   9.000000E+99

> <Gold.Protein.RotatedTorsions>
[ 6907 6896 6895 6894 ] final -102.46 input  -60.11 | X-H torsion
[ 7974 7965 7964 7962 ] final   77.04 input  175.53 | X-H torsion
[ 8008 7997 7996 7995 ] final   22.08 input   59.86 | X-H torsion
[ 10167 10162 10161 10158 ] final   11.97 input  -65.29 | X-H torsion
[ 10718 10713 10712 10709 ] final -150.21 input   66.30 | X-H torsion
[ 10763 10752 10751 10750 ] final    4.60 input  -60.55 | X-H torsion
[ 11005 11000 10999 10996 ] final  178.20 input  -57.11 | X-H torsion

> <Gold.Protein.ActiveResidues>
 VAL166  LYS551  ARG553  GLY616  TRP617  ASP618  TYR619  PRO620  LYS621  CYS622 
 ASP623  PHE694  ASN695  SER759  ASP760  ASP761  ALA762  ILE779  LEU786  VAL792 
 PHE793  MET794  SER795  GLU796  ALA797  LYS798  CYS799  TRP800  GLU811  SER814 

> <Gold.Protein.RotatedAtoms>
  150.7197  134.0577  159.3820 H   0  0  0  0  0  0  0  0  0  0  0  0  # atno 6907 bound_to 6896
  151.8556  135.0540  160.0473 H   0  0  0  0  0  0  0  0  0  0  0  0  # atno 6908 bound_to 6896
  152.2757  133.5387  159.5503 H   0  0  0  0  0  0  0  0  0  0  0  0  # atno 6909 bound_to 6896
  145.6951  139.2564  143.1737 H   0  0  0  0  0  0  0  0  0  0  0  0  # atno 7974 bound_to 7965
  154.9603  140.3077  155.5034 H   0  0  0  0  0  0  0  0  0  0  0  0  # atno 8008 bound_to 7997
  156.2978  140.2302  156.4627 H   0  0  0  0  0  0  0  0  0  0  0  0  # atno 8009 bound_to 7997
  154.7971  140.0436  157.1233 H   0  0  0  0  0  0  0  0  0  0  0  0  # atno 8010 bound_to 7997
  140.6098  143.8432  150.7052 H   0  0  0  0  0  0  0  0  0  0  0  0  # atno 10167 bound_to 10162
  156.4431  130.8131  151.2361 H   0  0  0  0  0  0  0  0  0  0  0  0  # atno 10718 bound_to 10713
  153.2693  135.6930  153.7497 H   0  0  0  0  0  0  0  0  0  0  0  0  # atno 10763 bound_to 10752
  153.6527  135.3374  155.3105 H   0  0  0  0  0  0  0  0  0  0  0  0  # atno 10764 bound_to 10752
  154.8458  135.4458  154.1710 H   0  0  0  0  0  0  0  0  0  0  0  0  # atno 10765 bound_to 10752
  140.3925  134.6849  157.4516 H   0  0  0  0  0  0  0  0  0  0  0  0  # atno 11005 bound_to 11000
  146.0847  140.7724  142.9624 LP  0  0  0  0  0  0  0  0  0  0  0  0  # atno 17320 bound_to 7965
  144.6985  140.3544  143.7175 LP  0  0  0  0  0  0  0  0  0  0  0  0  # atno 17321 bound_to 7965
  140.1998  143.3968  152.1800 LP  0  0  0  0  0  0  0  0  0  0  0  0  # atno 17342 bound_to 10162
  139.5352  144.7202  151.4918 LP  0  0  0  0  0  0  0  0  0  0  0  0  # atno 17343 bound_to 10162
  157.7505  131.0162  150.3534 LP  0  0  0  0  0  0  0  0  0  0  0  0  # atno 17370 bound_to 10713
  156.3896  130.3895  149.7040 LP  0  0  0  0  0  0  0  0  0  0  0  0  # atno 17371 bound_to 10713
  140.0396  134.6287  155.8998 LP  0  0  0  0  0  0  0  0  0  0  0  0  # atno 17394 bound_to 11000
  141.1885  133.6563  156.5329 LP  0  0  0  0  0  0  0  0  0  0  0  0  # atno 17395 bound_to 11000

$$$$
