AV-unprocessed.smi:1815|AV-procd|sdf|7351|dock1
  -GOLD-   22720 9 13D 1   1.00000     0.00000
 Structure written by MMmdl.
 39 40  0  0  0  0  0  0  0  0  1 V2000
  150.8180  142.3222  156.1578 C   0  0  0  0  0  0  0  0  0  0  0  0
  150.4488  140.8561  155.9093 C   0  0  1  0  0  0  0  0  0  0  0  0
  149.2437  140.7112  154.9607 C   0  0  0  0  0  0  0  0  0  0  0  0
  148.9436  139.3146  154.6673 N   0  0  0  0  0  0  0  0  0  0  0  0
  147.7898  139.2026  153.7741 C   0  0  0  0  0  0  0  0  0  0  0  0
  146.7735  138.1025  154.1402 C   0  0  0  0  0  0  0  0  0  0  0  0
  146.9109  136.9264  153.2876 N   0  0  0  0  0  0  0  0  0  0  0  0
  145.9017  136.1328  152.9023 C   0  0  0  0  0  0  0  0  0  0  0  0
  144.7273  136.3264  153.2184 O   0  0  0  0  0  0  0  0  0  0  0  0
  146.3453  135.1167  152.1416 N   0  0  0  0  0  0  0  0  0  0  0  0
  145.5910  134.0739  151.5426 C   0  0  0  0  0  0  0  0  0  0  0  0
  144.3434  134.2148  151.0793 N   0  0  0  0  0  0  0  0  0  0  0  0
  143.8466  133.0253  150.5404 C   0  0  0  0  0  0  0  0  0  0  0  0
  144.7354  131.9810  150.6023 C   0  0  0  0  0  0  0  0  0  0  0  0
  146.2412  132.4531  151.3438 S   0  0  0  0  0  0  0  0  0  0  0  0
  150.1392  138.6771  154.1227 C   0  0  0  0  0  0  0  0  0  0  0  0
  151.3488  138.8201  155.0663 C   0  0  1  0  0  0  0  0  0  0  0  0
  152.6266  138.2297  154.4612 C   0  0  0  0  0  0  0  0  0  0  0  0
  151.5752  140.2017  155.3317 O   0  0  0  0  0  0  0  0  0  0  0  0
  149.9870  142.8644  156.6095 H   0  0  0  0  0  0  0  0  0  0  0  0
  151.0813  142.8263  155.2275 H   0  0  0  0  0  0  0  0  0  0  0  0
  151.6712  142.4001  156.8321 H   0  0  0  0  0  0  0  0  0  0  0  0
  150.2186  140.3858  156.8669 H   0  0  0  0  0  0  0  0  0  0  0  0
  148.3720  141.1874  155.4114 H   0  0  0  0  0  0  0  0  0  0  0  0
  149.4460  141.2472  154.0319 H   0  0  0  0  0  0  0  0  0  0  0  0
  147.2587  140.1555  153.7616 H   0  0  0  0  0  0  0  0  0  0  0  0
  148.1337  139.0452  152.7509 H   0  0  0  0  0  0  0  0  0  0  0  0
  146.9024  137.8156  155.1852 H   0  0  0  0  0  0  0  0  0  0  0  0
  145.7522  138.4730  154.0594 H   0  0  0  0  0  0  0  0  0  0  0  0
  147.8449  136.6910  152.9858 H   0  0  0  0  0  0  0  0  0  0  0  0
  147.3395  135.0852  151.9707 H   0  0  0  0  0  0  0  0  0  0  0  0
  142.8464  133.0115  150.1333 H   0  0  0  0  0  0  0  0  0  0  0  0
  144.5960  130.9669  150.2580 H   0  0  0  0  0  0  0  0  0  0  0  0
  149.9554  137.6169  153.9516 H   0  0  0  0  0  0  0  0  0  0  0  0
  150.3802  139.1139  153.1523 H   0  0  0  0  0  0  0  0  0  0  0  0
  151.1387  138.3101  156.0082 H   0  0  0  0  0  0  0  0  0  0  0  0
  152.5051  137.1675  154.2480 H   0  0  0  0  0  0  0  0  0  0  0  0
  153.4677  138.3372  155.1464 H   0  0  0  0  0  0  0  0  0  0  0  0
  152.8896  138.7304  153.5290 H   0  0  0  0  0  0  0  0  0  0  0  0
  1  2  1  0  0  0  0
  1 20  1  0  0  0  0
  1 21  1  0  0  0  0
  1 22  1  0  0  0  0
  2 19  1  0  0  0  0
  2  3  1  0  0  0  0
  2 23  1  0  0  0  0
  3  4  1  0  0  0  0
  3 24  1  0  0  0  0
  3 25  1  0  0  0  0
  4  5  1  0  0  0  0
  4 16  1  0  0  0  0
  5  6  1  0  0  0  0
  5 26  1  0  0  0  0
  5 27  1  0  0  0  0
  6  7  1  0  0  0  0
  6 28  1  0  0  0  0
  6 29  1  0  0  0  0
  7  8  1  0  0  0  0
  7 30  1  0  0  0  0
  8  9  2  0  0  0  0
  8 10  1  0  0  0  0
 10 11  1  0  0  0  0
 10 31  1  0  0  0  0
 11 15  1  0  0  0  0
 11 12  2  0  0  0  0
 12 13  1  0  0  0  0
 13 14  2  0  0  0  0
 13 32  1  0  0  0  0
 14 15  1  0  0  0  0
 14 33  1  0  0  0  0
 16 17  1  0  0  0  0
 16 34  1  0  0  0  0
 16 35  1  0  0  0  0
 17 18  1  0  0  0  0
 17 19  1  0  0  0  0
 17 36  1  0  0  0  0
 18 37  1  0  0  0  0
 18 38  1  0  0  0  0
 18 39  1  0  0  0  0
M  END
> <s_m_source_file>
AV-unprocessed.smi

> <i_m_source_file_index>
1815

> <i_lp_mmshare_version>
43012

> <i_f3d_flags>
0

> <s_epik_input>
W0NIM11bQ0BASF0xW0NIMl1OKFtDSDJdW0NASF0oTzEpW0NIM10pW0NIMl1bQ0gyXVtOSF1DKD1PKVtOSF1jMm5bY0hdW2NIXXMy

> <s_epik_cmdline>
J2VwaWtfcHl0aG9uJywgJy1waCcsICc3LjAnLCAnLXRuJywgJzgnLCAnLW1hJywgJzIwMCcsICctbWV0YWxfYmluZGluZycsICctaW1hZScsICc8aW5maWxlLm1hZT4nLCAnLW9tYWUnLCAnPG91dGZpbGUubWFlPic=

> <r_lp_tautomer_probability>
0.999

> <r_epik_Ionization_Penalty>
0.219201

> <r_epik_Ionization_Penalty_Charging>
0

> <r_epik_Ionization_Penalty_Neutral>
0.219201

> <r_epik_State_Penalty>
0.209349

> <r_epik_Charging_Adjusted_Penalty>
0.209349

> <i_epik_Tot_Q>
0

> <i_epik_Tot_abs_Q>
0

> <r_epik_Metal_State_Penalty>
0.247737

> <b_epik_Metal_Only>
0

> <s_lp_Force_Field>
OPLS_2005

> <r_lp_Energy>
22.4698

> <b_lp_Chiralities_Consistent>
1

> <s_lp_Variant>
AV-unprocessed.smi:1815-2

> <Gold.Version>
5.8.1

> <Gold.Id.Protein>
6NUR|6NUR_protein|mol2

> <Gold.PLP.Fitness>
41.4691

> <Gold.PLP.PLP>
-32.4915

> <Gold.PLP.part.hbond>
-3.0000

> <Gold.PLP.part.metal>
0.0000

> <Gold.PLP.part.buried>
-4.7773

> <Gold.PLP.part.nonpolar>
-25.3704

> <Gold.PLP.part.repulsive>
0.4286

> <Gold.PLP.ligand.clash>
0.0000

> <Gold.PLP.ligand.torsion>
1.3042

> <Gold.PLP.Chemscore.Hbond>
2.8400

> <Gold.PLP.Chemscore.CHOScore>
1.0000

> <Gold.PLP.Chemscore.Metal>
0.0000

> <Gold.Chemscore.Hbonds>
donor molecule, donor type, donor heavy atom, donor atom, acceptor molecule, acceptor atom, score
      L1  H     7    30       P1  7948  1.00
      L1  H    10    31       P1  7948  0.88
      P1  H  7989  7998       L1    19  0.94
      L1  C    13    32       P1 10186  1.00

> <Gold.PLP.Chemscore.Internal.Correction>
0.0660

> <Gold.Rescore>
     Score         DG    S(hbond)    S(metal)    S(lipo)     H(rot)  DE(clash)    DE(int)     intcor
     15.24     -17.54       1.97        0.00      81.85       1.60       0.16       2.14       ----

> <Gold.Chemscore.Fitness>
15.2400

> <Gold.Chemscore.DG>
-17.5376

> <Gold.Chemscore.ZeroCoef>
-5.4800

> <Gold.Chemscore.Hbond>
1.9695

> <Gold.Chemscore.Metal>
0.0000

> <Gold.Chemscore.Lipo>
81.8455

> <Gold.Chemscore.Internal_Hbond>
0.0000

> <Gold.Chemscore.DEClash>
0.1624

> <Gold.Chemscore.DEInternal>
2.1352

> <Gold.Chemscore.Rot>
1.6001

> <Gold.Chemscore.Internal.Correction>
   9.000000E+99

> <Gold.Chemscore.Hbonds>
donor molecule, donor type, donor heavy atom, donor atom, acceptor molecule, acceptor atom, score
      L1  H     7    30       P1  7948  0.97
      L1  H    10    31       P1  7948  0.82
      P1  H  7989  7998       L1    19  0.12

> <Gold.Chemscore.Hbond.Weighted>
-6.5780

> <Gold.Chemscore.Metal.Weighted>
-0.0000

> <Gold.Chemscore.Lipo.Weighted>
-9.5759

> <Gold.Chemscore.Internal_Hbond.Weighted>
0.0000

> <Gold.Chemscore.DEClash.Weighted>
0.1624

> <Gold.Chemscore.DEInternal.Weighted>
2.1352

> <Gold.Chemscore.Rot.Weighted>
4.0963

> <Gold.Chemscore.Internal.Correction.Weighted>
   9.000000E+99

> <Gold.Protein.RotatedTorsions>
[ 6907 6896 6895 6894 ] final  124.72 input  -60.11 | X-H torsion
[ 7974 7965 7964 7962 ] final -137.79 input  175.53 | X-H torsion
[ 8008 7997 7996 7995 ] final   33.16 input   59.86 | X-H torsion
[ 10167 10162 10161 10158 ] final  174.02 input  -65.29 | X-H torsion
[ 10718 10713 10712 10709 ] final  -12.35 input   66.30 | X-H torsion
[ 10763 10752 10751 10750 ] final  116.70 input  -60.55 | X-H torsion
[ 11005 11000 10999 10996 ] final -105.03 input  -57.11 | X-H torsion

> <Gold.Protein.ActiveResidues>
 VAL166  LYS551  ARG553  GLY616  TRP617  ASP618  TYR619  PRO620  LYS621  CYS622 
 ASP623  PHE694  ASN695  SER759  ASP760  ASP761  ALA762  ILE779  LEU786  VAL792 
 PHE793  MET794  SER795  GLU796  ALA797  LYS798  CYS799  TRP800  GLU811  SER814 

> <Gold.Protein.RotatedAtoms>
  152.4054  133.6881  159.6351 H   0  0  0  0  0  0  0  0  0  0  0  0  # atno 6907 bound_to 6896
  150.7940  133.8718  159.3269 H   0  0  0  0  0  0  0  0  0  0  0  0  # atno 6908 bound_to 6896
  151.6473  135.1007  160.0205 H   0  0  0  0  0  0  0  0  0  0  0  0  # atno 6909 bound_to 6896
  144.8813  140.6511  143.5204 H   0  0  0  0  0  0  0  0  0  0  0  0  # atno 7974 bound_to 7965
  155.1342  140.3260  155.4467 H   0  0  0  0  0  0  0  0  0  0  0  0  # atno 8008 bound_to 7997
  156.2625  140.2005  156.6409 H   0  0  0  0  0  0  0  0  0  0  0  0  # atno 8009 bound_to 7997
  154.6590  140.0549  157.0028 H   0  0  0  0  0  0  0  0  0  0  0  0  # atno 8010 bound_to 7997
  139.5127  144.3195  152.0216 H   0  0  0  0  0  0  0  0  0  0  0  0  # atno 10167 bound_to 10162
  156.6459  130.4941  149.6079 H   0  0  0  0  0  0  0  0  0  0  0  0  # atno 10718 bound_to 10713
  153.5411  135.3558  155.2719 H   0  0  0  0  0  0  0  0  0  0  0  0  # atno 10763 bound_to 10752
  154.8717  135.4091  154.3042 H   0  0  0  0  0  0  0  0  0  0  0  0  # atno 10764 bound_to 10752
  153.3750  135.7066  153.6677 H   0  0  0  0  0  0  0  0  0  0  0  0  # atno 10765 bound_to 10752
  141.1073  133.8773  157.1684 H   0  0  0  0  0  0  0  0  0  0  0  0  # atno 11005 bound_to 11000
  145.3950  139.1609  143.4208 LP  0  0  0  0  0  0  0  0  0  0  0  0  # atno 17320 bound_to 7965
  146.2996  140.4042  142.8709 LP  0  0  0  0  0  0  0  0  0  0  0  0  # atno 17321 bound_to 7965
  140.2637  144.4040  150.6176 LP  0  0  0  0  0  0  0  0  0  0  0  0  # atno 17342 bound_to 10162
  140.6139  143.2171  151.6831 LP  0  0  0  0  0  0  0  0  0  0  0  0  # atno 17343 bound_to 10162
  156.2123  130.6686  151.1282 LP  0  0  0  0  0  0  0  0  0  0  0  0  # atno 17370 bound_to 10713
  157.7156  131.0711  150.6338 LP  0  0  0  0  0  0  0  0  0  0  0  0  # atno 17371 bound_to 10713
  139.9949  135.0050  157.0059 LP  0  0  0  0  0  0  0  0  0  0  0  0  # atno 17394 bound_to 11000
  140.4869  134.1232  155.7226 LP  0  0  0  0  0  0  0  0  0  0  0  0  # atno 17395 bound_to 11000

$$$$
