AV-unprocessed.smi:160|AV-procd|sdf|1350|dock1
  -GOLD-   2262019 53D 1   1.00000     0.00000
 Structure written by MMmdl.
 29 30  0  0  0  0  0  0  0  0  1 V2000
  146.1687  143.8327  158.2977 N   0  0  0  0  0  0  0  0  0  0  0  0
  146.9176  142.8651  158.8371 C   0  0  0  0  0  0  0  0  0  0  0  0
  146.8302  142.5484  160.0224 O   0  0  0  0  0  0  0  0  0  0  0  0
  147.8838  142.1789  157.9117 C   0  0  0  0  0  0  0  0  0  0  0  0
  148.8649  141.3604  158.3944 N   0  0  0  0  0  0  0  0  0  0  0  0
  149.4261  141.0083  157.2447 C   0  0  0  0  0  0  0  0  0  0  0  0
  148.8592  141.5580  156.1657 N   0  0  0  0  0  0  0  0  0  0  0  0
  149.1973  141.3841  154.7133 C   0  0  1  0  0  0  0  0  0  0  0  0
  150.2178  140.4382  154.6336 O   0  0  0  0  0  0  0  0  0  0  0  0
  149.7391  139.1959  154.1153 C   0  0  1  0  0  0  0  0  0  0  0  0
  150.1795  138.0409  155.0294 C   0  0  0  0  0  0  0  0  0  0  0  0
  149.7394  136.8082  154.5008 O   0  0  0  0  0  0  0  0  0  0  0  0
  148.2123  139.3404  154.0055 C   0  0  2  0  0  0  0  0  0  0  0  0
  147.7360  138.6820  152.8485 O   0  0  0  0  0  0  0  0  0  0  0  0
  148.0175  140.8446  153.8877 C   0  0  1  0  0  0  0  0  0  0  0  0
  146.7472  141.2479  154.3668 O   0  0  0  0  0  0  0  0  0  0  0  0
  147.8252  142.3288  156.5877 N   0  0  0  0  0  0  0  0  0  0  0  0
  149.5390  142.3701  154.3960 H   0  0  0  0  0  0  0  0  0  0  0  0
  150.1626  139.0772  153.1159 H   0  0  0  0  0  0  0  0  0  0  0  0
  147.7166  138.9472  154.8943 H   0  0  0  0  0  0  0  0  0  0  0  0
  148.1554  141.1736  152.8567 H   0  0  0  0  0  0  0  0  0  0  0  0
  145.5026  144.3317  158.8690 H   0  0  0  0  0  0  0  0  0  0  0  0
  146.2769  144.0589  157.3196 H   0  0  0  0  0  0  0  0  0  0  0  0
  150.2693  140.3355  157.1882 H   0  0  0  0  0  0  0  0  0  0  0  0
  151.2608  138.0301  155.1677 H   0  0  0  0  0  0  0  0  0  0  0  0
  149.7283  138.1506  156.0160 H   0  0  0  0  0  0  0  0  0  0  0  0
  149.4844  136.9407  153.6005 H   0  0  0  0  0  0  0  0  0  0  0  0
  148.0911  139.1158  152.0879 H   0  0  0  0  0  0  0  0  0  0  0  0
  146.5405  142.0933  153.9990 H   0  0  0  0  0  0  0  0  0  0  0  0
  1  2  1  0  0  0  0
  1 22  1  0  0  0  0
  1 23  1  0  0  0  0
  2  3  2  0  0  0  0
  2  4  1  0  0  0  0
  4 17  2  0  0  0  0
  4  5  1  0  0  0  0
  5  6  2  0  0  0  0
  6  7  1  0  0  0  0
  6 24  1  0  0  0  0
  7  8  1  0  0  0  0
  7 17  1  0  0  0  0
  8 18  1  0  0  0  0
  8 15  1  0  0  0  0
  8  9  1  0  0  0  0
  9 10  1  0  0  0  0
 10 19  1  0  0  0  0
 10 11  1  0  0  0  0
 10 13  1  0  0  0  0
 11 12  1  0  0  0  0
 11 25  1  0  0  0  0
 11 26  1  0  0  0  0
 12 27  1  0  0  0  0
 13 20  1  0  0  0  0
 13 14  1  0  0  0  0
 13 15  1  0  0  0  0
 14 28  1  0  0  0  0
 15 21  1  0  0  0  0
 15 16  1  0  0  0  0
 16 29  1  0  0  0  0
M  END
> <s_m_source_file>
AV-unprocessed.smi

> <i_m_source_file_index>
160

> <i_lp_mmshare_version>
43012

> <i_f3d_flags>
0

> <s_epik_input>
W05IMl1DKD1PKWMxbltjSF1uKG4xKVtDQEBIXTJPW0NASF0oW0NIMl1bT0hdKVtDQEBIXShbT0hdKVtDQEhdMltPSF0=

> <s_epik_cmdline>
J2VwaWtfcHl0aG9uJywgJy1waCcsICc3LjAnLCAnLXRuJywgJzgnLCAnLW1hJywgJzIwMCcsICctbWV0YWxfYmluZGluZycsICctaW1hZScsICc8aW5maWxlLm1hZT4nLCAnLW9tYWUnLCAnPG91dGZpbGUubWFlPic=

> <r_lp_tautomer_probability>
1

> <r_epik_Ionization_Penalty>
1.06932e-05

> <r_epik_Ionization_Penalty_Charging>
0

> <r_epik_Ionization_Penalty_Neutral>
1.06932e-05

> <r_epik_State_Penalty>
-0

> <r_epik_Charging_Adjusted_Penalty>
0

> <i_epik_Tot_Q>
0

> <i_epik_Tot_abs_Q>
0

> <r_epik_Metal_State_Penalty>
0.0142097

> <b_epik_Metal_Only>
0

> <s_epik_Chemistry_Notes>
This compound contains an acetal/aminal-like group ( X-CH(R)-Y where X, Y are N, S, or O) that may be acid/base labile, releasing an aldehyde.

> <s_lp_Force_Field>
OPLS_2005

> <r_lp_Energy>
40.695

> <b_lp_Chiralities_Consistent>
1

> <s_lp_Variant>
AV-unprocessed.smi:160-8

> <Gold.Version>
5.8.1

> <Gold.Id.Protein>
6NUR|6NUR_protein|mol2

> <Gold.PLP.Fitness>
35.4774

> <Gold.PLP.PLP>
-22.4186

> <Gold.PLP.part.hbond>
-7.3851

> <Gold.PLP.part.metal>
0.0000

> <Gold.PLP.part.buried>
-2.7828

> <Gold.PLP.part.nonpolar>
-15.3292

> <Gold.PLP.part.repulsive>
2.7885

> <Gold.PLP.ligand.clash>
0.0000

> <Gold.PLP.ligand.torsion>
0.1008

> <Gold.PLP.Chemscore.Hbond>
4.4164

> <Gold.PLP.Chemscore.CHOScore>
0.0000

> <Gold.PLP.Chemscore.Metal>
0.0000

> <Gold.Chemscore.Hbonds>
donor molecule, donor type, donor heavy atom, donor atom, acceptor molecule, acceptor atom, score
      L1  H    12    27       P1  7948  1.00
      L1  H    14    28       P1  7957  1.00
      P1  H  6933  6944       L1     3  0.43
      P1  H  6934  6946       L1     3  0.98
      P1  H  7989  7998       L1     9  0.98

> <Gold.PLP.Chemscore.Internal.Correction>
0.0110

> <Gold.Rescore>
     Score         DG    S(hbond)    S(metal)    S(lipo)     H(rot)  DE(clash)    DE(int)     intcor
      7.86     -10.73       3.81        0.00      24.87       4.06       1.21       1.66       ----

> <Gold.Chemscore.Fitness>
7.8646

> <Gold.Chemscore.DG>
-10.7345

> <Gold.Chemscore.ZeroCoef>
-5.4800

> <Gold.Chemscore.Hbond>
3.8138

> <Gold.Chemscore.Metal>
0.0000

> <Gold.Chemscore.Lipo>
24.8711

> <Gold.Chemscore.Internal_Hbond>
0.0000

> <Gold.Chemscore.DEClash>
1.2141

> <Gold.Chemscore.DEInternal>
1.6558

> <Gold.Chemscore.Rot>
4.0600

> <Gold.Chemscore.Internal.Correction>
   9.000000E+99

> <Gold.Chemscore.Hbonds>
donor molecule, donor type, donor heavy atom, donor atom, acceptor molecule, acceptor atom, score
      L1  H    12    27       P1  7948  0.84
      L1  H    14    28       P1  7957  0.94
      P1  H  6933  6944       L1     3  0.42
      P1  H  6934  6946       L1     3  0.93
      P1  H  7989  7998       L1     9  0.38

> <Gold.Chemscore.Hbond.Weighted>
-12.7381

> <Gold.Chemscore.Metal.Weighted>
-0.0000

> <Gold.Chemscore.Lipo.Weighted>
-2.9099

> <Gold.Chemscore.Internal_Hbond.Weighted>
0.0000

> <Gold.Chemscore.DEClash.Weighted>
1.2141

> <Gold.Chemscore.DEInternal.Weighted>
1.6558

> <Gold.Chemscore.Rot.Weighted>
10.3936

> <Gold.Chemscore.Internal.Correction.Weighted>
   9.000000E+99

> <Gold.Protein.RotatedTorsions>
[ 6907 6896 6895 6894 ] final -163.17 input  -60.11 | X-H torsion
[ 7974 7965 7964 7962 ] final   82.75 input  175.53 | X-H torsion
[ 8008 7997 7996 7995 ] final   -7.56 input   59.86 | X-H torsion
[ 10167 10162 10161 10158 ] final -171.09 input  -65.29 | X-H torsion
[ 10718 10713 10712 10709 ] final   57.36 input   66.30 | X-H torsion
[ 10763 10752 10751 10750 ] final    7.93 input  -60.55 | X-H torsion
[ 11005 11000 10999 10996 ] final   60.16 input  -57.11 | X-H torsion

> <Gold.Protein.ActiveResidues>
 VAL166  LYS551  ARG553  GLY616  TRP617  ASP618  TYR619  PRO620  LYS621  CYS622 
 ASP623  PHE694  ASN695  SER759  ASP760  ASP761  ALA762  ILE779  LEU786  VAL792 
 PHE793  MET794  SER795  GLU796  ALA797  LYS798  CYS799  TRP800  GLU811  SER814 

> <Gold.Protein.RotatedAtoms>
  151.3918  133.3786  159.2721 H   0  0  0  0  0  0  0  0  0  0  0  0  # atno 6907 bound_to 6896
  150.9499  134.8901  159.7676 H   0  0  0  0  0  0  0  0  0  0  0  0  # atno 6908 bound_to 6896
  152.5107  134.3873  159.9424 H   0  0  0  0  0  0  0  0  0  0  0  0  # atno 6909 bound_to 6896
  145.6209  139.2386  143.2139 H   0  0  0  0  0  0  0  0  0  0  0  0  # atno 7974 bound_to 7965
  154.5826  140.2404  155.8032 H   0  0  0  0  0  0  0  0  0  0  0  0  # atno 8008 bound_to 7997
  156.2190  140.3003  155.9863 H   0  0  0  0  0  0  0  0  0  0  0  0  # atno 8009 bound_to 7997
  155.2514  140.0411  157.2977 H   0  0  0  0  0  0  0  0  0  0  0  0  # atno 8010 bound_to 7997
  139.5823  144.1396  152.1531 H   0  0  0  0  0  0  0  0  0  0  0  0  # atno 10167 bound_to 10162
  157.5508  130.8764  149.8960 H   0  0  0  0  0  0  0  0  0  0  0  0  # atno 10718 bound_to 10713
  153.2307  135.6892  153.7893 H   0  0  0  0  0  0  0  0  0  0  0  0  # atno 10763 bound_to 10752
  153.7058  135.3290  155.3236 H   0  0  0  0  0  0  0  0  0  0  0  0  # atno 10764 bound_to 10752
  154.8313  135.4578  154.1192 H   0  0  0  0  0  0  0  0  0  0  0  0  # atno 10765 bound_to 10752
  140.0251  134.6094  155.9584 H   0  0  0  0  0  0  0  0  0  0  0  0  # atno 11005 bound_to 11000
  146.1431  140.7030  142.9357 LP  0  0  0  0  0  0  0  0  0  0  0  0  # atno 17320 bound_to 7965
  144.7231  140.4439  143.6993 LP  0  0  0  0  0  0  0  0  0  0  0  0  # atno 17321 bound_to 7965
  140.0952  144.5587  150.7027 LP  0  0  0  0  0  0  0  0  0  0  0  0  # atno 17342 bound_to 10162
  140.7100  143.2497  151.4611 LP  0  0  0  0  0  0  0  0  0  0  0  0  # atno 17343 bound_to 10162
  156.0575  130.3706  150.1058 LP  0  0  0  0  0  0  0  0  0  0  0  0  # atno 17370 bound_to 10713
  156.9230  130.9689  151.3545 LP  0  0  0  0  0  0  0  0  0  0  0  0  # atno 17371 bound_to 10713
  141.1798  133.6545  156.4973 LP  0  0  0  0  0  0  0  0  0  0  0  0  # atno 17394 bound_to 11000
  140.4320  134.7093  157.4947 LP  0  0  0  0  0  0  0  0  0  0  0  0  # atno 17395 bound_to 11000

$$$$
