AV-unprocessed.smi:2714|AV-procd|sdf|10480|dock7
  -GOLD-   2272014523D 1   1.00000     0.00000
 Structure written by MMmdl.
 46 47  0  0  0  0  0  0  0  0  1 V2000
  144.3076  133.5815  162.1340 C   0  0  0  0  0  0  0  0  0  0  0  0
  145.3560  134.6982  162.0832 C   0  0  0  0  0  0  0  0  0  0  0  0
  146.7323  134.1921  161.6142 C   0  0  0  0  0  0  0  0  0  0  0  0
  147.8773  135.2140  161.7884 C   0  0  2  0  0  0  0  0  0  0  0  0
  147.6615  136.0720  163.0470 C   0  0  0  0  0  0  0  0  0  0  0  0
  148.0339  136.1161  160.5551 C   0  0  0  0  0  0  0  0  0  0  0  0
  147.7231  137.3063  160.6109 O   0  0  0  0  0  0  0  0  0  0  0  0
  148.5283  135.5362  159.4515 N   0  0  0  0  0  0  0  0  0  0  0  0
  148.8328  136.2272  158.2034 C   0  0  0  0  0  0  0  0  0  0  0  0
  149.2659  135.2912  157.0794 C   0  0  0  0  0  0  0  0  0  0  0  0
  149.0834  133.8996  157.2256 C   0  0  0  0  0  0  0  0  0  0  0  0
  149.4814  133.0416  156.1843 C   0  0  0  0  0  0  0  0  0  0  0  0
  150.0508  133.6112  155.0307 C   0  0  0  0  0  0  0  0  0  0  0  0
  150.2356  134.9387  154.8759 N   0  0  0  0  0  0  0  0  0  0  0  0
  149.8523  135.7673  155.8775 C   0  0  0  0  0  0  0  0  0  0  0  0
  150.0568  137.1427  155.6875 N   0  0  0  0  0  0  0  0  0  0  0  0
  151.4419  137.5147  155.4355 C   0  0  0  0  0  0  0  0  0  0  0  0
  151.5726  139.0478  155.4219 C   0  0  0  0  0  0  0  0  0  0  0  0
  150.6718  139.5986  154.4637 O   0  0  0  0  0  0  0  0  0  0  0  0
  149.3132  139.2831  154.7577 C   0  0  0  0  0  0  0  0  0  0  0  0
  149.1271  137.7568  154.7488 C   0  0  0  0  0  0  0  0  0  0  0  0
  143.3456  133.9671  162.4713 H   0  0  0  0  0  0  0  0  0  0  0  0
  144.6088  132.7902  162.8208 H   0  0  0  0  0  0  0  0  0  0  0  0
  144.1600  133.1342  161.1506 H   0  0  0  0  0  0  0  0  0  0  0  0
  145.0078  135.4852  161.4135 H   0  0  0  0  0  0  0  0  0  0  0  0
  145.4375  135.1485  163.0729 H   0  0  0  0  0  0  0  0  0  0  0  0
  146.9777  133.2667  162.1378 H   0  0  0  0  0  0  0  0  0  0  0  0
  146.6606  133.9254  160.5590 H   0  0  0  0  0  0  0  0  0  0  0  0
  148.8078  134.6608  161.9298 H   0  0  0  0  0  0  0  0  0  0  0  0
  148.4563  136.8087  163.1694 H   0  0  0  0  0  0  0  0  0  0  0  0
  147.6530  135.4525  163.9441 H   0  0  0  0  0  0  0  0  0  0  0  0
  146.7129  136.6094  163.0089 H   0  0  0  0  0  0  0  0  0  0  0  0
  148.7503  134.5520  159.4918 H   0  0  0  0  0  0  0  0  0  0  0  0
  147.9391  136.7625  157.8818 H   0  0  0  0  0  0  0  0  0  0  0  0
  149.5951  136.9875  158.3816 H   0  0  0  0  0  0  0  0  0  0  0  0
  148.6402  133.4917  158.1223 H   0  0  0  0  0  0  0  0  0  0  0  0
  149.3517  131.9727  156.2675 H   0  0  0  0  0  0  0  0  0  0  0  0
  150.3667  132.9844  154.2100 H   0  0  0  0  0  0  0  0  0  0  0  0
  152.0858  137.0886  156.2060 H   0  0  0  0  0  0  0  0  0  0  0  0
  151.7649  137.1050  154.4777 H   0  0  0  0  0  0  0  0  0  0  0  0
  151.3654  139.4633  156.4094 H   0  0  0  0  0  0  0  0  0  0  0  0
  152.5908  139.3367  155.1610 H   0  0  0  0  0  0  0  0  0  0  0  0
  149.0312  139.7034  155.7246 H   0  0  0  0  0  0  0  0  0  0  0  0
  148.6697  139.7455  154.0094 H   0  0  0  0  0  0  0  0  0  0  0  0
  149.3029  137.3665  153.7454 H   0  0  0  0  0  0  0  0  0  0  0  0
  148.1027  137.5008  155.0208 H   0  0  0  0  0  0  0  0  0  0  0  0
  1  2  1  0  0  0  0
  1 22  1  0  0  0  0
  1 23  1  0  0  0  0
  1 24  1  0  0  0  0
  2  3  1  0  0  0  0
  2 25  1  0  0  0  0
  2 26  1  0  0  0  0
  3  4  1  0  0  0  0
  3 27  1  0  0  0  0
  3 28  1  0  0  0  0
  4  5  1  0  0  0  0
  4  6  1  0  0  0  0
  4 29  1  0  0  0  0
  5 30  1  0  0  0  0
  5 31  1  0  0  0  0
  5 32  1  0  0  0  0
  6  7  2  0  0  0  0
  6  8  1  0  0  0  0
  8  9  1  0  0  0  0
  8 33  1  0  0  0  0
  9 10  1  0  0  0  0
  9 34  1  0  0  0  0
  9 35  1  0  0  0  0
 10 15  1  0  0  0  0
 10 11  2  0  0  0  0
 11 12  1  0  0  0  0
 11 36  1  0  0  0  0
 12 13  2  0  0  0  0
 12 37  1  0  0  0  0
 13 14  1  0  0  0  0
 13 38  1  0  0  0  0
 14 15  2  0  0  0  0
 15 16  1  0  0  0  0
 16 21  1  0  0  0  0
 16 17  1  0  0  0  0
 17 18  1  0  0  0  0
 17 39  1  0  0  0  0
 17 40  1  0  0  0  0
 18 19  1  0  0  0  0
 18 41  1  0  0  0  0
 18 42  1  0  0  0  0
 19 20  1  0  0  0  0
 20 21  1  0  0  0  0
 20 43  1  0  0  0  0
 20 44  1  0  0  0  0
 21 45  1  0  0  0  0
 21 46  1  0  0  0  0
M  END
> <s_m_source_file>
AV-unprocessed.smi

> <i_m_source_file_index>
2714

> <i_lp_mmshare_version>
43012

> <i_f3d_flags>
0

> <s_epik_input>
W0NIM11bQ0gyXVtDSDJdW0NASF0oW0NIM10pQyg9TylbTkhdW0NIMl1jMVtjSF1bY0hdW2NIXW5jMU4yW0NIMl1bQ0gyXU9bQ0gyXVtDSDJdMg==

> <s_epik_cmdline>
J2VwaWtfcHl0aG9uJywgJy1waCcsICc3LjAnLCAnLXRuJywgJzgnLCAnLW1hJywgJzIwMCcsICctbWV0YWxfYmluZGluZycsICctaW1hZScsICc8aW5maWxlLm1hZT4nLCAnLW9tYWUnLCAnPG91dGZpbGUubWFlPic=

> <r_lp_tautomer_probability>
1

> <r_epik_Ionization_Penalty>
0.00517355

> <r_epik_Ionization_Penalty_Charging>
0

> <r_epik_Ionization_Penalty_Neutral>
0.00517355

> <r_epik_State_Penalty>
0.00376978

> <r_epik_Charging_Adjusted_Penalty>
0.00376978

> <i_epik_Tot_Q>
0

> <i_epik_Tot_abs_Q>
0

> <r_epik_Metal_State_Penalty>
-0

> <b_epik_Metal_Only>
0

> <s_lp_Force_Field>
OPLS_2005

> <r_lp_Energy>
18.1949

> <b_lp_Chiralities_Consistent>
1

> <s_lp_Variant>
AV-unprocessed.smi:2714-1

> <Gold.Version>
5.8.1

> <Gold.Id.Protein>
6NUR|6NUR_protein|mol2

> <Gold.PLP.Fitness>
38.8211

> <Gold.PLP.PLP>
-32.6827

> <Gold.PLP.part.hbond>
-3.0000

> <Gold.PLP.part.metal>
0.0000

> <Gold.PLP.part.buried>
-5.3759

> <Gold.PLP.part.nonpolar>
-25.3736

> <Gold.PLP.part.repulsive>
0.4599

> <Gold.PLP.ligand.clash>
0.0000

> <Gold.PLP.ligand.torsion>
0.9604

> <Gold.PLP.Chemscore.Hbond>
2.6160

> <Gold.PLP.Chemscore.CHOScore>
0.0000

> <Gold.PLP.Chemscore.Metal>
0.0000

> <Gold.Chemscore.Hbonds>
donor molecule, donor type, donor heavy atom, donor atom, acceptor molecule, acceptor atom, score
      P1  H  6931  6943       L1     7  0.67
      P1  H  6934  6947       L1     7  0.90
      P1  H  7989  7998       L1    19  1.00

> <Gold.PLP.Chemscore.Internal.Correction>
0.2112

> <Gold.Rescore>
     Score         DG    S(hbond)    S(metal)    S(lipo)     H(rot)  DE(clash)    DE(int)     intcor
     18.28     -18.90       2.64        0.00      76.80       1.72       0.00       0.61       ----

> <Gold.Chemscore.Fitness>
18.2815

> <Gold.Chemscore.DG>
-18.8959

> <Gold.Chemscore.ZeroCoef>
-5.4800

> <Gold.Chemscore.Hbond>
2.6441

> <Gold.Chemscore.Metal>
0.0000

> <Gold.Chemscore.Lipo>
76.8005

> <Gold.Chemscore.Internal_Hbond>
0.0000

> <Gold.Chemscore.DEClash>
0.0009

> <Gold.Chemscore.DEInternal>
0.6135

> <Gold.Chemscore.Rot>
1.7192

> <Gold.Chemscore.Internal.Correction>
   9.000000E+99

> <Gold.Chemscore.Hbonds>
donor molecule, donor type, donor heavy atom, donor atom, acceptor molecule, acceptor atom, score
      P1  H  6931  6943       L1     7  0.46
      P1  H  6934  6947       L1     7  0.87
      P1  H  7989  7998       L1    19  0.60

> <Gold.Chemscore.Hbond.Weighted>
-8.8314

> <Gold.Chemscore.Metal.Weighted>
-0.0000

> <Gold.Chemscore.Lipo.Weighted>
-8.9857

> <Gold.Chemscore.Internal_Hbond.Weighted>
0.0000

> <Gold.Chemscore.DEClash.Weighted>
0.0009

> <Gold.Chemscore.DEInternal.Weighted>
0.6135

> <Gold.Chemscore.Rot.Weighted>
4.4011

> <Gold.Chemscore.Internal.Correction.Weighted>
   9.000000E+99

> <Gold.Protein.RotatedTorsions>
[ 6907 6896 6895 6894 ] final  -29.89 input  -60.11 | X-H torsion
[ 7974 7965 7964 7962 ] final  140.50 input  175.53 | X-H torsion
[ 8008 7997 7996 7995 ] final   84.65 input   59.86 | X-H torsion
[ 10167 10162 10161 10158 ] final   51.30 input  -65.29 | X-H torsion
[ 10718 10713 10712 10709 ] final  113.57 input   66.30 | X-H torsion
[ 10763 10752 10751 10750 ] final   97.54 input  -60.55 | X-H torsion
[ 11005 11000 10999 10996 ] final -107.95 input  -57.11 | X-H torsion

> <Gold.Protein.ActiveResidues>
 VAL166  LYS551  ARG553  GLY616  TRP617  ASP618  TYR619  PRO620  LYS621  CYS622 
 ASP623  PHE694  ASN695  SER759  ASP760  ASP761  ALA762  ILE779  LEU786  VAL792 
 PHE793  MET794  SER795  GLU796  ALA797  LYS798  CYS799  TRP800  GLU811  SER814 

> <Gold.Protein.RotatedAtoms>
  151.1130  135.0037  159.8502 H   0  0  0  0  0  0  0  0  0  0  0  0  # atno 6907 bound_to 6896
  152.5444  134.1813  159.8647 H   0  0  0  0  0  0  0  0  0  0  0  0  # atno 6908 bound_to 6896
  151.1865  133.4648  159.2627 H   0  0  0  0  0  0  0  0  0  0  0  0  # atno 6909 bound_to 6896
  144.9181  139.5203  143.5676 H   0  0  0  0  0  0  0  0  0  0  0  0  # atno 7974 bound_to 7965
  155.9398  140.3409  155.6318 H   0  0  0  0  0  0  0  0  0  0  0  0  # atno 8008 bound_to 7997
  155.7053  140.0765  157.2412 H   0  0  0  0  0  0  0  0  0  0  0  0  # atno 8009 bound_to 7997
  154.4100  140.1632  156.2224 H   0  0  0  0  0  0  0  0  0  0  0  0  # atno 8010 bound_to 7997
  140.2634  144.3348  150.6311 H   0  0  0  0  0  0  0  0  0  0  0  0  # atno 10167 bound_to 10162
  157.6330  131.0985  150.7060 H   0  0  0  0  0  0  0  0  0  0  0  0  # atno 10718 bound_to 10713
  153.2782  135.4179  155.1053 H   0  0  0  0  0  0  0  0  0  0  0  0  # atno 10763 bound_to 10752
  154.8480  135.3489  154.6149 H   0  0  0  0  0  0  0  0  0  0  0  0  # atno 10764 bound_to 10752
  153.6570  135.7050  153.5247 H   0  0  0  0  0  0  0  0  0  0  0  0  # atno 10765 bound_to 10752
  141.0927  133.9025  157.2036 H   0  0  0  0  0  0  0  0  0  0  0  0  # atno 11005 bound_to 11000
  146.3192  139.8040  142.8959 LP  0  0  0  0  0  0  0  0  0  0  0  0  # atno 17320 bound_to 7965
  145.3341  141.0273  143.3429 LP  0  0  0  0  0  0  0  0  0  0  0  0  # atno 17321 bound_to 7965
  140.5948  143.2167  151.7185 LP  0  0  0  0  0  0  0  0  0  0  0  0  # atno 17342 bound_to 10162
  139.5010  144.3884  152.0305 LP  0  0  0  0  0  0  0  0  0  0  0  0  # atno 17343 bound_to 10162
  156.7396  130.4735  149.5480 LP  0  0  0  0  0  0  0  0  0  0  0  0  # atno 17370 bound_to 10713
  156.1548  130.6334  151.0643 LP  0  0  0  0  0  0  0  0  0  0  0  0  # atno 17371 bound_to 10713
  139.9757  135.0114  156.9624 LP  0  0  0  0  0  0  0  0  0  0  0  0  # atno 17394 bound_to 11000
  140.5213  134.0905  155.7293 LP  0  0  0  0  0  0  0  0  0  0  0  0  # atno 17395 bound_to 11000

$$$$
