AV-unprocessed.smi:1978|AV-procd|sdf|7997|dock2
  -GOLD-   2272010183D 1   1.00000     0.00000
 Structure written by MMmdl.
 45 46  0  0  0  0  0  0  0  0  2 V2000
  154.1299  141.9730  160.2739 C   0  0  0  0  0  0  0  0  0  0  0  0
  153.0870  142.4927  159.3445 C   0  0  0  0  0  0  0  0  0  0  0  0
  152.0929  141.8863  158.6289 C   0  0  0  0  0  0  0  0  0  0  0  0
  151.4741  142.9735  157.9567 C   0  0  0  0  0  0  0  0  0  0  0  0
  150.3728  142.7614  157.0882 N   0  0  0  0  0  0  0  0  0  0  0  0
  150.1566  141.7055  156.2857 C   0  0  0  0  0  0  0  0  0  0  0  0
  150.9135  140.7426  156.1581 O   0  0  0  0  0  0  0  0  0  0  0  0
  148.9938  141.8196  155.6275 N   0  0  0  0  0  0  0  0  0  0  0  0
  148.4701  140.8303  154.6910 C   0  0  0  0  0  0  0  0  0  0  0  0
  146.9407  140.9694  154.4758 C   0  0  1  0  0  0  0  0  0  0  0  0
  146.5382  142.3770  153.9893 C   0  0  0  0  0  0  0  0  0  0  0  0
  146.3731  139.8975  153.5953 N   0  3  1  0  0  0  0  0  0  0  0  0
  147.0856  139.7458  152.2925 C   0  0  0  0  0  0  0  0  0  0  0  0
  146.3038  138.8424  151.3280 C   0  0  0  0  0  0  0  0  0  0  0  0
  146.0601  137.4673  151.9538 C   0  0  0  0  0  0  0  0  0  0  0  0
  145.3590  137.6333  153.3060 C   0  0  0  0  0  0  0  0  0  0  0  0
  146.1469  138.5659  154.2518 C   0  0  2  0  0  0  0  0  0  0  0  0
  145.4070  138.6545  155.6024 C   0  0  0  0  0  0  0  0  0  0  0  0
  152.0402  144.1380  158.2348 N   0  0  0  0  0  0  0  0  0  0  0  0
  153.0768  143.8357  159.1257 O   0  0  0  0  0  0  0  0  0  0  0  0
  153.8919  140.9600  160.5987 H   0  0  0  0  0  0  0  0  0  0  0  0
  154.2074  142.6019  161.1608 H   0  0  0  0  0  0  0  0  0  0  0  0
  155.1049  141.9523  159.7870 H   0  0  0  0  0  0  0  0  0  0  0  0
  151.8508  140.8345  158.5948 H   0  0  0  0  0  0  0  0  0  0  0  0
  149.6709  143.4864  157.0870 H   0  0  0  0  0  0  0  0  0  0  0  0
  148.4328  142.6443  155.7847 H   0  0  0  0  0  0  0  0  0  0  0  0
  149.0021  140.9648  153.7493 H   0  0  0  0  0  0  0  0  0  0  0  0
  148.7295  139.8341  155.0509 H   0  0  0  0  0  0  0  0  0  0  0  0
  146.4515  140.8848  155.4438 H   0  0  0  0  0  0  0  0  0  0  0  0
  146.7332  143.1266  154.7566 H   0  0  0  0  0  0  0  0  0  0  0  0
  145.4731  142.4250  153.7596 H   0  0  0  0  0  0  0  0  0  0  0  0
  147.0906  142.6823  153.1012 H   0  0  0  0  0  0  0  0  0  0  0  0
  147.2265  140.7099  151.8074 H   0  0  0  0  0  0  0  0  0  0  0  0
  148.0794  139.3283  152.4582 H   0  0  0  0  0  0  0  0  0  0  0  0
  145.3506  139.3093  151.0765 H   0  0  0  0  0  0  0  0  0  0  0  0
  146.8523  138.7321  150.3921 H   0  0  0  0  0  0  0  0  0  0  0  0
  145.4556  136.8508  151.2877 H   0  0  0  0  0  0  0  0  0  0  0  0
  147.0092  136.9467  152.0888 H   0  0  0  0  0  0  0  0  0  0  0  0
  144.3553  138.0307  153.1482 H   0  0  0  0  0  0  0  0  0  0  0  0
  145.2314  136.6527  153.7658 H   0  0  0  0  0  0  0  0  0  0  0  0
  147.1186  138.1054  154.4358 H   0  0  0  0  0  0  0  0  0  0  0  0
  145.1485  137.6609  155.9700 H   0  0  0  0  0  0  0  0  0  0  0  0
  144.4808  139.2234  155.5152 H   0  0  0  0  0  0  0  0  0  0  0  0
  146.0202  139.1124  156.3782 H   0  0  0  0  0  0  0  0  0  0  0  0
  145.4492  140.2294  153.3584 H   0  0  0  0  0  0  0  0  0  0  0  0
  1  2  1  0  0  0  0
  1 21  1  0  0  0  0
  1 22  1  0  0  0  0
  1 23  1  0  0  0  0
  2 20  1  0  0  0  0
  2  3  2  0  0  0  0
  3  4  1  0  0  0  0
  3 24  1  0  0  0  0
  4  5  1  0  0  0  0
  4 19  2  0  0  0  0
  5  6  1  0  0  0  0
  5 25  1  0  0  0  0
  6  7  2  0  0  0  0
  6  8  1  0  0  0  0
  8  9  1  0  0  0  0
  8 26  1  0  0  0  0
  9 10  1  0  0  0  0
  9 27  1  0  0  0  0
  9 28  1  0  0  0  0
 10 11  1  0  0  0  0
 10 12  1  0  0  0  0
 10 29  1  0  0  0  0
 11 30  1  0  0  0  0
 11 31  1  0  0  0  0
 11 32  1  0  0  0  0
 12 17  1  0  0  0  0
 12 13  1  0  0  0  0
 12 45  1  0  0  0  0
 13 14  1  0  0  0  0
 13 33  1  0  0  0  0
 13 34  1  0  0  0  0
 14 15  1  0  0  0  0
 14 35  1  0  0  0  0
 14 36  1  0  0  0  0
 15 16  1  0  0  0  0
 15 37  1  0  0  0  0
 15 38  1  0  0  0  0
 16 17  1  0  0  0  0
 16 39  1  0  0  0  0
 16 40  1  0  0  0  0
 17 18  1  0  0  0  0
 17 41  1  0  0  0  0
 18 42  1  0  0  0  0
 18 43  1  0  0  0  0
 18 44  1  0  0  0  0
 19 20  1  0  0  0  0
M  CHG  1  12   1
M  END
> <s_m_source_file>
AV-unprocessed.smi

> <i_m_source_file_index>
1978

> <i_lp_mmshare_version>
43012

> <i_f3d_flags>
0

> <s_epik_input>
W0NIM11jMVtjSF1jKG5vMSlbTkhdQyg9TylbTkhdW0NIMl1bQ0BIXShbQ0gzXSlOMltDSDJdW0NIMl1bQ0gyXVtDSDJdW0NASF0yW0NIM10=

> <s_epik_cmdline>
J2VwaWtfcHl0aG9uJywgJy1waCcsICc3LjAnLCAnLXRuJywgJzgnLCAnLW1hJywgJzIwMCcsICctbWV0YWxfYmluZGluZycsICctaW1hZScsICc8aW5maWxlLm1hZT4nLCAnLW9tYWUnLCAnPG91dGZpbGUubWFlPic=

> <r_epik_Ionization_Penalty>
0.00265971

> <r_epik_Ionization_Penalty_Charging>
0.00262393

> <r_epik_Ionization_Penalty_Neutral>
3.57846e-05

> <r_epik_State_Penalty>
0.00182566

> <r_epik_Charging_Adjusted_Penalty>
0.00444959

> <i_epik_Tot_Q>
1

> <i_epik_Tot_abs_Q>
1

> <r_epik_Metal_State_Penalty>
0.0216344

> <b_epik_Metal_Only>
0

> <s_lp_Force_Field>
OPLS_2005

> <r_lp_Energy>
19.4961

> <b_lp_Chiralities_Consistent>
1

> <s_lp_Variant>
AV-unprocessed.smi:1978-6

> <Gold.Version>
5.8.1

> <Gold.Id.Protein>
6NUR|6NUR_protein|mol2

> <Gold.PLP.Fitness>
44.5342

> <Gold.PLP.PLP>
-34.0290

> <Gold.PLP.part.hbond>
-3.0000

> <Gold.PLP.part.metal>
0.0000

> <Gold.PLP.part.buried>
-1.2084

> <Gold.PLP.part.nonpolar>
-30.5708

> <Gold.PLP.part.repulsive>
0.2186

> <Gold.PLP.ligand.clash>
0.0000

> <Gold.PLP.ligand.torsion>
0.7079

> <Gold.PLP.Chemscore.Hbond>
3.9280

> <Gold.PLP.Chemscore.CHOScore>
0.0000

> <Gold.PLP.Chemscore.Metal>
0.0000

> <Gold.Chemscore.Hbonds>
donor molecule, donor type, donor heavy atom, donor atom, acceptor molecule, acceptor atom, score
      L1  H     5    25       P1  8028  0.70
      L1  H     8    26       P1  8028  0.51
      L1  H    12    45       P1 10175  2.00

> <Gold.PLP.Chemscore.Internal.Correction>
0.1370

> <Gold.Rescore>
     Score         DG    S(hbond)    S(metal)    S(lipo)     H(rot)  DE(clash)    DE(int)     intcor
     16.75     -20.24       2.75        0.00      81.60       1.55       2.81       0.68       ----

> <Gold.Chemscore.Fitness>
16.7545

> <Gold.Chemscore.DG>
-20.2411

> <Gold.Chemscore.ZeroCoef>
-5.4800

> <Gold.Chemscore.Hbond>
2.7471

> <Gold.Chemscore.Metal>
0.0000

> <Gold.Chemscore.Lipo>
81.5978

> <Gold.Chemscore.Internal_Hbond>
0.0000

> <Gold.Chemscore.DEClash>
2.8058

> <Gold.Chemscore.DEInternal>
0.6807

> <Gold.Chemscore.Rot>
1.5474

> <Gold.Chemscore.Internal.Correction>
   9.000000E+99

> <Gold.Chemscore.Hbonds>
donor molecule, donor type, donor heavy atom, donor atom, acceptor molecule, acceptor atom, score
      L1  H     5    25       P1  8028  0.62
      L1  H     8    26       P1  8028  0.50
      L1  H    12    45       P1 10175  0.96

> <Gold.Chemscore.Hbond.Weighted>
-9.1754

> <Gold.Chemscore.Metal.Weighted>
-0.0000

> <Gold.Chemscore.Lipo.Weighted>
-9.5469

> <Gold.Chemscore.Internal_Hbond.Weighted>
0.0000

> <Gold.Chemscore.DEClash.Weighted>
2.8058

> <Gold.Chemscore.DEInternal.Weighted>
0.6807

> <Gold.Chemscore.Rot.Weighted>
3.9612

> <Gold.Chemscore.Internal.Correction.Weighted>
   9.000000E+99

> <Gold.Protein.RotatedTorsions>
[ 6907 6896 6895 6894 ] final  -80.53 input  -60.11 | X-H torsion
[ 7974 7965 7964 7962 ] final -150.57 input  175.53 | X-H torsion
[ 8008 7997 7996 7995 ] final  122.02 input   59.86 | X-H torsion
[ 10167 10162 10161 10158 ] final    4.63 input  -65.29 | X-H torsion
[ 10718 10713 10712 10709 ] final   50.21 input   66.30 | X-H torsion
[ 10763 10752 10751 10750 ] final  155.24 input  -60.55 | X-H torsion
[ 11005 11000 10999 10996 ] final  -46.40 input  -57.11 | X-H torsion

> <Gold.Protein.ActiveResidues>
 VAL166  LYS551  ARG553  GLY616  TRP617  ASP618  TYR619  PRO620  LYS621  CYS622 
 ASP623  PHE694  ASN695  SER759  ASP760  ASP761  ALA762  ILE779  LEU786  VAL792 
 PHE793  MET794  SER795  GLU796  ALA797  LYS798  CYS799  TRP800  GLU811  SER814 

> <Gold.Protein.RotatedAtoms>
  150.6928  134.3956  159.5095 H   0  0  0  0  0  0  0  0  0  0  0  0  # atno 6907 bound_to 6896
  152.1737  134.8810  160.0541 H   0  0  0  0  0  0  0  0  0  0  0  0  # atno 6908 bound_to 6896
  151.9826  133.3728  159.4150 H   0  0  0  0  0  0  0  0  0  0  0  0  # atno 6909 bound_to 6896
  144.7900  140.4914  143.5779 H   0  0  0  0  0  0  0  0  0  0  0  0  # atno 7974 bound_to 7965
  156.2711  140.2795  156.1402 H   0  0  0  0  0  0  0  0  0  0  0  0  # atno 8008 bound_to 7997
  155.0962  140.0389  157.2701 H   0  0  0  0  0  0  0  0  0  0  0  0  # atno 8009 bound_to 7997
  154.6851  140.2617  155.6875 H   0  0  0  0  0  0  0  0  0  0  0  0  # atno 8010 bound_to 7997
  140.6524  143.7511  150.7598 H   0  0  0  0  0  0  0  0  0  0  0  0  # atno 10167 bound_to 10162
  157.4863  130.8347  149.8150 H   0  0  0  0  0  0  0  0  0  0  0  0  # atno 10718 bound_to 10713
  154.1651  135.2807  155.3097 H   0  0  0  0  0  0  0  0  0  0  0  0  # atno 10763 bound_to 10752
  154.6117  135.5496  153.7484 H   0  0  0  0  0  0  0  0  0  0  0  0  # atno 10764 bound_to 10752
  153.0181  135.6417  154.1792 H   0  0  0  0  0  0  0  0  0  0  0  0  # atno 10765 bound_to 10752
  141.0577  133.6720  156.3150 H   0  0  0  0  0  0  0  0  0  0  0  0  # atno 11005 bound_to 11000
  145.5820  139.1489  143.3230 LP  0  0  0  0  0  0  0  0  0  0  0  0  # atno 17320 bound_to 7965
  146.2148  140.5950  142.9043 LP  0  0  0  0  0  0  0  0  0  0  0  0  # atno 17321 bound_to 7965
  140.1164  143.4652  152.2339 LP  0  0  0  0  0  0  0  0  0  0  0  0  # atno 17342 bound_to 10162
  139.5742  144.7478  151.3810 LP  0  0  0  0  0  0  0  0  0  0  0  0  # atno 17343 bound_to 10162
  156.0148  130.3818  150.2145 LP  0  0  0  0  0  0  0  0  0  0  0  0  # atno 17370 bound_to 10713
  157.0333  131.0014  151.3306 LP  0  0  0  0  0  0  0  0  0  0  0  0  # atno 17371 bound_to 10713
  140.5932  134.5630  157.5503 LP  0  0  0  0  0  0  0  0  0  0  0  0  # atno 17394 bound_to 11000
  139.9404  134.7797  156.0693 LP  0  0  0  0  0  0  0  0  0  0  0  0  # atno 17395 bound_to 11000

$$$$
