AV-unprocessed.smi:1033|AV-procd|sdf|4505|dock9
  -GOLD-   22720 2503D 1   1.00000     0.00000
 Structure written by MMmdl.
 57 59  0  0  0  0  0  0  0  0  3 V2000
  152.3730  144.4716  159.9682 C   0  0  0  0  0  0  0  0  0  0  0  0
  152.1547  143.3290  158.9910 C   0  0  0  0  0  0  0  0  0  0  0  0
  151.2700  143.5286  157.9069 C   0  0  0  0  0  0  0  0  0  0  0  0
  151.0927  142.4659  157.0289 C   0  0  0  0  0  0  0  0  0  0  0  0
  150.3041  142.3467  155.8824 N   0  3  0  0  0  0  0  0  0  0  0  0
  150.4614  141.1033  155.3494 C   0  0  0  0  0  0  0  0  0  0  0  0
  151.3353  140.4254  156.1423 N   0  0  0  0  0  0  0  0  0  0  0  0
  151.8522  139.0559  156.0239 C   0  0  0  0  0  0  0  0  0  0  0  0
  151.1084  138.2259  154.9561 C   0  0  1  0  0  0  0  0  0  0  0  0
  152.0021  137.4272  154.2062 O   0  0  0  0  0  0  0  0  0  0  0  0
  149.9499  137.3667  155.5080 C   0  0  0  0  0  0  0  0  0  0  0  0
  148.7710  138.0861  156.0117 N   0  0  0  0  0  0  0  0  0  0  0  0
  147.7070  137.1827  156.4489 C   0  0  0  0  0  0  0  0  0  0  0  0
  148.0387  136.4395  157.7601 C   0  0  0  0  0  0  0  0  0  0  0  0
  148.3482  137.4072  158.8445 N   0  3  0  0  0  0  0  0  0  0  0  0
  148.6165  136.7351  160.1411 C   0  0  0  0  0  0  0  0  0  0  0  0
  147.3556  136.5924  161.0173 C   0  0  1  0  0  0  0  0  0  0  0  0
  147.5157  135.5598  162.1430 C   0  0  0  0  0  0  0  0  0  0  0  0
  147.0803  137.8457  161.6061 O   0  0  0  0  0  0  0  0  0  0  0  0
  149.4253  138.3426  158.4230 C   0  0  0  0  0  0  0  0  0  0  0  0
  149.0443  139.0307  157.0975 C   0  0  0  0  0  0  0  0  0  0  0  0
  151.7589  141.2370  157.1999 C   0  0  0  0  0  0  0  0  0  0  0  0
  152.6345  141.0232  158.2614 C   0  0  0  0  0  0  0  0  0  0  0  0
  152.8284  142.0921  159.1655 C   0  0  0  0  0  0  0  0  0  0  0  0
  153.7784  141.8893  160.3336 C   0  0  0  0  0  0  0  0  0  0  0  0
  151.7643  145.3388  159.7104 H   0  0  0  0  0  0  0  0  0  0  0  0
  153.4174  144.7843  159.9629 H   0  0  0  0  0  0  0  0  0  0  0  0
  152.1067  144.1681  160.9809 H   0  0  0  0  0  0  0  0  0  0  0  0
  150.7546  144.4676  157.7668 H   0  0  0  0  0  0  0  0  0  0  0  0
  149.9787  140.7238  154.4601 H   0  0  0  0  0  0  0  0  0  0  0  0
  152.9129  139.1335  155.7830 H   0  0  0  0  0  0  0  0  0  0  0  0
  151.7918  138.5777  157.0024 H   0  0  0  0  0  0  0  0  0  0  0  0
  150.6700  138.9150  154.2339 H   0  0  0  0  0  0  0  0  0  0  0  0
  152.3787  137.9606  153.5232 H   0  0  0  0  0  0  0  0  0  0  0  0
  149.6191  136.7346  154.6828 H   0  0  0  0  0  0  0  0  0  0  0  0
  150.3357  136.6754  156.2568 H   0  0  0  0  0  0  0  0  0  0  0  0
  146.7904  137.7571  156.5911 H   0  0  0  0  0  0  0  0  0  0  0  0
  147.4839  136.4624  155.6610 H   0  0  0  0  0  0  0  0  0  0  0  0
  147.1828  135.8293  158.0507 H   0  0  0  0  0  0  0  0  0  0  0  0
  148.8768  135.7555  157.6210 H   0  0  0  0  0  0  0  0  0  0  0  0
  149.0217  135.7390  159.9546 H   0  0  0  0  0  0  0  0  0  0  0  0
  149.3941  137.2855  160.6739 H   0  0  0  0  0  0  0  0  0  0  0  0
  146.4905  136.3340  160.4076 H   0  0  0  0  0  0  0  0  0  0  0  0
  147.6897  134.5611  161.7420 H   0  0  0  0  0  0  0  0  0  0  0  0
  146.6177  135.5105  162.7599 H   0  0  0  0  0  0  0  0  0  0  0  0
  148.3541  135.8069  162.7954 H   0  0  0  0  0  0  0  0  0  0  0  0
  146.3058  137.7672  162.1425 H   0  0  0  0  0  0  0  0  0  0  0  0
  149.5768  139.1087  159.1821 H   0  0  0  0  0  0  0  0  0  0  0  0
  150.3713  137.8084  158.3262 H   0  0  0  0  0  0  0  0  0  0  0  0
  149.8198  139.7370  156.8053 H   0  0  0  0  0  0  0  0  0  0  0  0
  148.1547  139.6397  157.2652 H   0  0  0  0  0  0  0  0  0  0  0  0
  153.1469  140.0817  158.3938 H   0  0  0  0  0  0  0  0  0  0  0  0
  154.2203  140.8925  160.3204 H   0  0  0  0  0  0  0  0  0  0  0  0
  153.2522  142.0077  161.2811 H   0  0  0  0  0  0  0  0  0  0  0  0
  154.5917  142.6142  160.2956 H   0  0  0  0  0  0  0  0  0  0  0  0
  147.5128  137.9602  158.9721 H   0  0  0  0  0  0  0  0  0  0  0  0
  149.7040  143.0604  155.4890 H   0  0  0  0  0  0  0  0  0  0  0  0
  1  2  1  0  0  0  0
  1 26  1  0  0  0  0
  1 27  1  0  0  0  0
  1 28  1  0  0  0  0
  2 24  1  0  0  0  0
  2  3  2  0  0  0  0
  3  4  1  0  0  0  0
  3 29  1  0  0  0  0
  4 22  2  0  0  0  0
  4  5  1  0  0  0  0
  5  6  2  0  0  0  0
  5 57  1  0  0  0  0
  6  7  1  0  0  0  0
  6 30  1  0  0  0  0
  7  8  1  0  0  0  0
  7 22  1  0  0  0  0
  8  9  1  0  0  0  0
  8 31  1  0  0  0  0
  8 32  1  0  0  0  0
  9 10  1  0  0  0  0
  9 11  1  0  0  0  0
  9 33  1  0  0  0  0
 10 34  1  0  0  0  0
 11 12  1  0  0  0  0
 11 35  1  0  0  0  0
 11 36  1  0  0  0  0
 12 21  1  0  0  0  0
 12 13  1  0  0  0  0
 13 14  1  0  0  0  0
 13 37  1  0  0  0  0
 13 38  1  0  0  0  0
 14 15  1  0  0  0  0
 14 39  1  0  0  0  0
 14 40  1  0  0  0  0
 15 16  1  0  0  0  0
 15 20  1  0  0  0  0
 15 56  1  0  0  0  0
 16 17  1  0  0  0  0
 16 41  1  0  0  0  0
 16 42  1  0  0  0  0
 17 18  1  0  0  0  0
 17 19  1  0  0  0  0
 17 43  1  0  0  0  0
 18 44  1  0  0  0  0
 18 45  1  0  0  0  0
 18 46  1  0  0  0  0
 19 47  1  0  0  0  0
 20 21  1  0  0  0  0
 20 48  1  0  0  0  0
 20 49  1  0  0  0  0
 21 50  1  0  0  0  0
 21 51  1  0  0  0  0
 22 23  1  0  0  0  0
 23 24  2  0  0  0  0
 23 52  1  0  0  0  0
 24 25  1  0  0  0  0
 25 53  1  0  0  0  0
 25 54  1  0  0  0  0
 25 55  1  0  0  0  0
M  CHG  1   5   1
M  CHG  1  15   1
M  END
> <s_m_source_file>
AV-unprocessed.smi

> <i_m_source_file_index>
1033

> <i_lp_mmshare_version>
43012

> <i_f3d_flags>
0

> <s_epik_input>
W0NIM11jKFtjSF0xKWMoW0NIM10pW2NIXWMoYzEyKW4oW2NIXW4yKVtDSDJdW0NASF0oW09IXSlbQ0gyXU4zW0NIMl1bQ0gyXU4oW0NIMl1bQ0gyXTMpW0NIMl1bQ0BIXShbQ0gzXSlbT0hd

> <s_epik_cmdline>
J2VwaWtfcHl0aG9uJywgJy1waCcsICc3LjAnLCAnLXRuJywgJzgnLCAnLW1hJywgJzIwMCcsICctbWV0YWxfYmluZGluZycsICctaW1hZScsICc8aW5maWxlLm1hZT4nLCAnLW9tYWUnLCAnPG91dGZpbGUubWFlPic=

> <r_epik_Ionization_Penalty>
1.28617

> <r_epik_Ionization_Penalty_Charging>
1.23646

> <r_epik_Ionization_Penalty_Neutral>
0.0497112

> <r_epik_State_Penalty>
1.79157

> <r_epik_Charging_Adjusted_Penalty>
3.02803

> <i_epik_Tot_Q>
2

> <i_epik_Tot_abs_Q>
2

> <r_epik_Metal_State_Penalty>
5.81739

> <b_epik_Metal_Only>
0

> <s_lp_Force_Field>
OPLS_2005

> <r_lp_Energy>
43.5011

> <b_lp_Chiralities_Consistent>
1

> <s_lp_Variant>
AV-unprocessed.smi:1033-16

> <Gold.Version>
5.8.1

> <Gold.Id.Protein>
6NUR|6NUR_protein|mol2

> <Gold.PLP.Fitness>
58.9584

> <Gold.PLP.PLP>
-47.8343

> <Gold.PLP.part.hbond>
-4.5003

> <Gold.PLP.part.metal>
0.0000

> <Gold.PLP.part.buried>
-5.4869

> <Gold.PLP.part.nonpolar>
-37.0354

> <Gold.PLP.part.repulsive>
0.3023

> <Gold.PLP.ligand.clash>
0.0000

> <Gold.PLP.ligand.torsion>
1.3126

> <Gold.PLP.Chemscore.Hbond>
4.5217

> <Gold.PLP.Chemscore.CHOScore>
0.0000

> <Gold.PLP.Chemscore.Metal>
0.0000

> <Gold.Chemscore.Hbonds>
donor molecule, donor type, donor heavy atom, donor atom, acceptor molecule, acceptor atom, score
      L1  H     5    57       P1  8028  1.98
      P1  H  6931  6943       L1    19  0.36
      P1  H  6934  6947       L1    19  0.46
      P1  H 10752 10763       L1    10  0.93

> <Gold.PLP.Chemscore.Internal.Correction>
0.1842

> <Gold.Rescore>
     Score         DG    S(hbond)    S(metal)    S(lipo)     H(rot)  DE(clash)    DE(int)     intcor
     17.06     -20.60       2.74        0.00     119.91       3.15       0.13       3.42       ----

> <Gold.Chemscore.Fitness>
17.0578

> <Gold.Chemscore.DG>
-20.5997

> <Gold.Chemscore.ZeroCoef>
-5.4800

> <Gold.Chemscore.Hbond>
2.7394

> <Gold.Chemscore.Metal>
0.0000

> <Gold.Chemscore.Lipo>
119.9124

> <Gold.Chemscore.Internal_Hbond>
0.0000

> <Gold.Chemscore.DEClash>
0.1266

> <Gold.Chemscore.DEInternal>
3.4153

> <Gold.Chemscore.Rot>
3.1483

> <Gold.Chemscore.Internal.Correction>
   9.000000E+99

> <Gold.Chemscore.Hbonds>
donor molecule, donor type, donor heavy atom, donor atom, acceptor molecule, acceptor atom, score
      L1  H     5    57       P1  8028  0.93
      P1  H  6931  6943       L1    19  0.04
      P1  H  6934  6947       L1    19  0.39
      P1  H 10752 10763       L1    10  0.48

> <Gold.Chemscore.Hbond.Weighted>
-9.1496

> <Gold.Chemscore.Metal.Weighted>
-0.0000

> <Gold.Chemscore.Lipo.Weighted>
-14.0298

> <Gold.Chemscore.Internal_Hbond.Weighted>
0.0000

> <Gold.Chemscore.DEClash.Weighted>
0.1266

> <Gold.Chemscore.DEInternal.Weighted>
3.4153

> <Gold.Chemscore.Rot.Weighted>
8.0597

> <Gold.Chemscore.Internal.Correction.Weighted>
   9.000000E+99

> <Gold.Protein.RotatedTorsions>
[ 6907 6896 6895 6894 ] final  157.53 input  -60.11 | X-H torsion
[ 7974 7965 7964 7962 ] final  -74.41 input  175.53 | X-H torsion
[ 8008 7997 7996 7995 ] final -133.92 input   59.86 | X-H torsion
[ 10167 10162 10161 10158 ] final   42.35 input  -65.29 | X-H torsion
[ 10718 10713 10712 10709 ] final -157.52 input   66.30 | X-H torsion
[ 10763 10752 10751 10750 ] final   33.36 input  -60.55 | X-H torsion
[ 11005 11000 10999 10996 ] final  -99.80 input  -57.11 | X-H torsion

> <Gold.Protein.ActiveResidues>
 VAL166  LYS551  ARG553  GLY616  TRP617  ASP618  TYR619  PRO620  LYS621  CYS622 
 ASP623  PHE694  ASN695  SER759  ASP760  ASP761  ALA762  ILE779  LEU786  VAL792 
 PHE793  MET794  SER795  GLU796  ALA797  LYS798  CYS799  TRP800  GLU811  SER814 

> <Gold.Protein.RotatedAtoms>
  152.0137  133.3871  159.4229 H   0  0  0  0  0  0  0  0  0  0  0  0  # atno 6907 bound_to 6896
  150.6897  134.3702  159.4998 H   0  0  0  0  0  0  0  0  0  0  0  0  # atno 6908 bound_to 6896
  152.1466  134.9020  160.0601 H   0  0  0  0  0  0  0  0  0  0  0  0  # atno 6909 bound_to 6896
  145.6394  140.9315  143.1044 H   0  0  0  0  0  0  0  0  0  0  0  0  # atno 7974 bound_to 7965
  155.3535  140.0478  157.3046 H   0  0  0  0  0  0  0  0  0  0  0  0  # atno 8008 bound_to 7997
  154.5215  140.2226  155.8932 H   0  0  0  0  0  0  0  0  0  0  0  0  # atno 8009 bound_to 7997
  156.1694  140.3099  155.8952 H   0  0  0  0  0  0  0  0  0  0  0  0  # atno 8010 bound_to 7997
  140.3553  144.2298  150.6142 H   0  0  0  0  0  0  0  0  0  0  0  0  # atno 10167 bound_to 10162
  156.5414  130.8565  151.2750 H   0  0  0  0  0  0  0  0  0  0  0  0  # atno 10718 bound_to 10713
  153.0216  135.6389  154.1499 H   0  0  0  0  0  0  0  0  0  0  0  0  # atno 10763 bound_to 10752
  154.1233  135.2845  155.3205 H   0  0  0  0  0  0  0  0  0  0  0  0  # atno 10764 bound_to 10752
  154.6247  135.5513  153.7676 H   0  0  0  0  0  0  0  0  0  0  0  0  # atno 10765 bound_to 10752
  141.1295  133.8349  157.1019 H   0  0  0  0  0  0  0  0  0  0  0  0  # atno 11005 bound_to 11000
  144.7163  139.8185  143.7397 LP  0  0  0  0  0  0  0  0  0  0  0  0  # atno 17320 bound_to 7965
  146.1293  139.4325  143.0179 LP  0  0  0  0  0  0  0  0  0  0  0  0  # atno 17321 bound_to 7965
  140.5180  143.2273  151.8434 LP  0  0  0  0  0  0  0  0  0  0  0  0  # atno 17342 bound_to 10162
  139.4821  144.4871  151.9232 LP  0  0  0  0  0  0  0  0  0  0  0  0  # atno 17343 bound_to 10162
  157.7404  130.9850  150.2379 LP  0  0  0  0  0  0  0  0  0  0  0  0  # atno 17370 bound_to 10713
  156.2968  130.3753  149.7788 LP  0  0  0  0  0  0  0  0  0  0  0  0  # atno 17371 bound_to 10713
  140.0328  134.9893  157.0814 LP  0  0  0  0  0  0  0  0  0  0  0  0  # atno 17394 bound_to 11000
  140.4258  134.1833  155.7166 LP  0  0  0  0  0  0  0  0  0  0  0  0  # atno 17395 bound_to 11000

$$$$
