AV-unprocessed.smi:109|AV-procd|sdf|1035|dock5
  -GOLD-   2262018 53D 1   1.00000     0.00000
 Structure written by MMmdl.
 58 61  0  0  0  0  0  0  0  0  1 V2000
  144.2224  129.4075  159.2677 O   0  0  0  0  0  0  0  0  0  0  0  0
  144.5239  130.7850  159.3278 C   0  0  0  0  0  0  0  0  0  0  0  0
  146.0486  130.9838  159.3656 C   0  0  0  0  0  0  0  0  0  0  0  0
  146.4978  132.4553  159.5455 C   0  0  2  0  0  0  0  0  0  0  0  0
  147.9429  132.5562  159.3300 N   0  0  0  0  0  0  0  0  0  0  0  0
  148.5052  132.3901  158.1116 C   0  0  0  0  0  0  0  0  0  0  0  0
  149.8527  132.3453  157.9504 N   0  0  0  0  0  0  0  0  0  0  0  0
  150.3749  132.1836  156.7318 C   0  0  0  0  0  0  0  0  0  0  0  0
  149.7416  132.0508  155.5648 N   0  0  0  0  0  0  0  0  0  0  0  0
  148.3849  132.0985  155.7156 C   0  0  0  0  0  0  0  0  0  0  0  0
  147.6979  132.2586  156.9522 C   0  0  0  0  0  0  0  0  0  0  0  0
  146.3278  132.2379  156.7367 N   0  0  0  0  0  0  0  0  0  0  0  0
  146.2151  132.0639  155.4482 C   0  0  0  0  0  0  0  0  0  0  0  0
  147.4015  132.0067  154.7455 N   0  0  0  0  0  0  0  0  0  0  0  0
  147.5836  131.7819  153.2672 C   0  0  2  0  0  0  0  0  0  0  0  0
  147.0785  132.8823  152.5757 O   0  0  0  0  0  0  0  0  0  0  0  0
  145.7087  132.6530  152.2748 C   0  0  1  0  0  0  0  0  0  0  0  0
  145.1843  133.6672  151.2446 C   0  0  0  0  0  0  0  0  0  0  0  0
  146.0755  133.7413  150.1525 O   0  0  0  0  0  0  0  0  0  0  0  0
  145.7468  131.1896  151.8190 C   0  0  1  0  0  0  0  0  0  0  0  0
  146.1573  131.0946  150.4637 O   0  0  0  0  0  0  0  0  0  0  0  0
  146.7545  130.5679  152.7904 C   0  0  1  0  0  0  0  0  0  0  0  0
  147.5449  129.5552  152.1971 O   0  0  0  0  0  0  0  0  0  0  0  0
  146.1461  133.0432  160.9434 C   0  0  0  0  0  0  0  0  0  0  0  0
  144.6220  133.1925  161.1820 C   0  0  0  0  0  0  0  0  0  0  0  0
  144.2998  133.8032  162.5563 C   0  0  0  0  0  0  0  0  0  0  0  0
  144.9936  135.1569  162.7479 C   0  0  0  0  0  0  0  0  0  0  0  0
  146.5063  135.0220  162.5384 C   0  0  0  0  0  0  0  0  0  0  0  0
  146.8247  134.4206  161.1608 C   0  0  0  0  0  0  0  0  0  0  0  0
  148.6622  131.6829  153.1380 H   0  0  0  0  0  0  0  0  0  0  0  0
  145.1210  132.7160  153.1935 H   0  0  0  0  0  0  0  0  0  0  0  0
  144.7661  130.7206  151.9063 H   0  0  0  0  0  0  0  0  0  0  0  0
  146.2066  130.1329  153.6261 H   0  0  0  0  0  0  0  0  0  0  0  0
  144.9769  128.9495  158.9302 H   0  0  0  0  0  0  0  0  0  0  0  0
  144.0814  131.2738  158.4599 H   0  0  0  0  0  0  0  0  0  0  0  0
  144.0590  131.2095  160.2179 H   0  0  0  0  0  0  0  0  0  0  0  0
  146.4187  130.3802  160.1923 H   0  0  0  0  0  0  0  0  0  0  0  0
  146.4960  130.5721  158.4599 H   0  0  0  0  0  0  0  0  0  0  0  0
  145.9611  133.0586  158.8132 H   0  0  0  0  0  0  0  0  0  0  0  0
  148.4759  132.8632  160.1309 H   0  0  0  0  0  0  0  0  0  0  0  0
  151.4535  132.1590  156.6846 H   0  0  0  0  0  0  0  0  0  0  0  0
  145.2494  131.9749  154.9716 H   0  0  0  0  0  0  0  0  0  0  0  0
  144.1837  133.4060  150.8988 H   0  0  0  0  0  0  0  0  0  0  0  0
  145.1284  134.6611  151.6896 H   0  0  0  0  0  0  0  0  0  0  0  0
  145.6358  134.1767  149.4378 H   0  0  0  0  0  0  0  0  0  0  0  0
  147.1020  131.1142  150.4362 H   0  0  0  0  0  0  0  0  0  0  0  0
  148.0294  129.9390  151.4819 H   0  0  0  0  0  0  0  0  0  0  0  0
  146.5312  132.3579  161.7005 H   0  0  0  0  0  0  0  0  0  0  0  0
  144.1842  133.8091  160.3957 H   0  0  0  0  0  0  0  0  0  0  0  0
  144.1231  132.2263  161.1340 H   0  0  0  0  0  0  0  0  0  0  0  0
  143.2215  133.9212  162.6660 H   0  0  0  0  0  0  0  0  0  0  0  0
  144.6164  133.1165  163.3426 H   0  0  0  0  0  0  0  0  0  0  0  0
  144.5870  135.8820  162.0420 H   0  0  0  0  0  0  0  0  0  0  0  0
  144.7879  135.5443  163.7461 H   0  0  0  0  0  0  0  0  0  0  0  0
  146.9821  135.9983  162.6362 H   0  0  0  0  0  0  0  0  0  0  0  0
  146.9309  134.3904  163.3199 H   0  0  0  0  0  0  0  0  0  0  0  0
  147.9077  134.3392  161.0684 H   0  0  0  0  0  0  0  0  0  0  0  0
  146.5046  135.1132  160.3811 H   0  0  0  0  0  0  0  0  0  0  0  0
  1  2  1  0  0  0  0
  1 34  1  0  0  0  0
  2  3  1  0  0  0  0
  2 35  1  0  0  0  0
  2 36  1  0  0  0  0
  3  4  1  0  0  0  0
  3 37  1  0  0  0  0
  3 38  1  0  0  0  0
  4  5  1  0  0  0  0
  4 24  1  0  0  0  0
  4 39  1  0  0  0  0
  5  6  1  0  0  0  0
  5 40  1  0  0  0  0
  6 11  1  0  0  0  0
  6  7  2  0  0  0  0
  7  8  1  0  0  0  0
  8  9  2  0  0  0  0
  8 41  1  0  0  0  0
  9 10  1  0  0  0  0
 10 14  1  0  0  0  0
 10 11  2  0  0  0  0
 11 12  1  0  0  0  0
 12 13  2  0  0  0  0
 13 14  1  0  0  0  0
 13 42  1  0  0  0  0
 14 15  1  0  0  0  0
 15 30  1  0  0  0  0
 15 22  1  0  0  0  0
 15 16  1  0  0  0  0
 16 17  1  0  0  0  0
 17 31  1  0  0  0  0
 17 18  1  0  0  0  0
 17 20  1  0  0  0  0
 18 19  1  0  0  0  0
 18 43  1  0  0  0  0
 18 44  1  0  0  0  0
 19 45  1  0  0  0  0
 20 32  1  0  0  0  0
 20 21  1  0  0  0  0
 20 22  1  0  0  0  0
 21 46  1  0  0  0  0
 22 33  1  0  0  0  0
 22 23  1  0  0  0  0
 23 47  1  0  0  0  0
 24 29  1  0  0  0  0
 24 25  1  0  0  0  0
 24 48  1  0  0  0  0
 25 26  1  0  0  0  0
 25 49  1  0  0  0  0
 25 50  1  0  0  0  0
 26 27  1  0  0  0  0
 26 51  1  0  0  0  0
 26 52  1  0  0  0  0
 27 28  1  0  0  0  0
 27 53  1  0  0  0  0
 27 54  1  0  0  0  0
 28 29  1  0  0  0  0
 28 55  1  0  0  0  0
 28 56  1  0  0  0  0
 29 57  1  0  0  0  0
 29 58  1  0  0  0  0
M  END
> <s_m_source_file>
AV-unprocessed.smi

> <i_m_source_file_index>
109

> <i_lp_mmshare_version>
43012

> <i_f3d_flags>
0

> <s_epik_input>
W0NIMl0xW0NIMl1bQ0gyXVtDSDJdW0NIMl1bQ0hdMVtDQEhdKFtDSDJdW0NIMl1bT0hdKVtOSF1jKG5bY0hdbjIpYyhjMjMpbltjSF1uM1tDQEBIXTRPW0NASF0oW0NIMl1bT0hdKVtDQEBIXShbT0hdKVtDQEhdNFtPSF0=

> <s_epik_cmdline>
J2VwaWtfcHl0aG9uJywgJy1waCcsICc3LjAnLCAnLXRuJywgJzgnLCAnLW1hJywgJzIwMCcsICctbWV0YWxfYmluZGluZycsICctaW1hZScsICc8aW5maWxlLm1hZT4nLCAnLW9tYWUnLCAnPG91dGZpbGUubWFlPic=

> <r_lp_tautomer_probability>
1

> <r_epik_Ionization_Penalty>
0.000793976

> <r_epik_Ionization_Penalty_Charging>
0

> <r_epik_Ionization_Penalty_Neutral>
0.000793976

> <r_epik_State_Penalty>
-0

> <r_epik_Charging_Adjusted_Penalty>
0

> <i_epik_Tot_Q>
0

> <i_epik_Tot_abs_Q>
0

> <r_epik_Metal_State_Penalty>
-0

> <b_epik_Metal_Only>
0

> <s_epik_Chemistry_Notes>
This compound contains an acetal/aminal-like group ( X-CH(R)-Y where X, Y are N, S, or O) that may be acid/base labile, releasing an aldehyde.

> <s_lp_Force_Field>
OPLS_2005

> <r_lp_Energy>
57.9127

> <b_lp_Chiralities_Consistent>
1

> <s_lp_Variant>
AV-unprocessed.smi:109-5

> <Gold.Version>
5.8.1

> <Gold.Id.Protein>
6NUR|6NUR_protein|mol2

> <Gold.PLP.Fitness>
43.2776

> <Gold.PLP.PLP>
-30.8316

> <Gold.PLP.part.hbond>
-4.1303

> <Gold.PLP.part.metal>
0.0000

> <Gold.PLP.part.buried>
-5.0458

> <Gold.PLP.part.nonpolar>
-21.7347

> <Gold.PLP.part.repulsive>
0.2572

> <Gold.PLP.ligand.clash>
0.0000

> <Gold.PLP.ligand.torsion>
0.4215

> <Gold.PLP.Chemscore.Hbond>
3.7200

> <Gold.PLP.Chemscore.CHOScore>
0.6758

> <Gold.PLP.Chemscore.Metal>
0.0000

> <Gold.Chemscore.Hbonds>
donor molecule, donor type, donor heavy atom, donor atom, acceptor molecule, acceptor atom, score
      L1  H    19    45       P1  7921  0.70
      L1  H    21    46       P1 10747  1.00
      L1  H    23    47       P1 10747  1.00
      P1  H  6896  6907       L1     7  0.86
      L1  C    13    42       P1 10957  0.92

> <Gold.PLP.Chemscore.Internal.Correction>
0.1016

> <Gold.Rescore>
     Score         DG    S(hbond)    S(metal)    S(lipo)     H(rot)  DE(clash)    DE(int)     intcor
      8.83     -10.76       3.42        0.00      67.21       5.47       0.02       1.91       ----

> <Gold.Chemscore.Fitness>
8.8293

> <Gold.Chemscore.DG>
-10.7605

> <Gold.Chemscore.ZeroCoef>
-5.4800

> <Gold.Chemscore.Hbond>
3.4163

> <Gold.Chemscore.Metal>
0.0000

> <Gold.Chemscore.Lipo>
67.2106

> <Gold.Chemscore.Internal_Hbond>
0.0000

> <Gold.Chemscore.DEClash>
0.0234

> <Gold.Chemscore.DEInternal>
1.9077

> <Gold.Chemscore.Rot>
5.4662

> <Gold.Chemscore.Internal.Correction>
   9.000000E+99

> <Gold.Chemscore.Hbonds>
donor molecule, donor type, donor heavy atom, donor atom, acceptor molecule, acceptor atom, score
      L1  H    19    45       P1  7921  0.49
      L1  H    21    46       P1 10747  1.00
      L1  H    23    47       P1 10747  0.94
      P1  H  6896  6907       L1     7  0.70

> <Gold.Chemscore.Hbond.Weighted>
-11.4104

> <Gold.Chemscore.Metal.Weighted>
-0.0000

> <Gold.Chemscore.Lipo.Weighted>
-7.8636

> <Gold.Chemscore.Internal_Hbond.Weighted>
0.0000

> <Gold.Chemscore.DEClash.Weighted>
0.0234

> <Gold.Chemscore.DEInternal.Weighted>
1.9077

> <Gold.Chemscore.Rot.Weighted>
13.9935

> <Gold.Chemscore.Internal.Correction.Weighted>
   9.000000E+99

> <Gold.Protein.RotatedTorsions>
[ 6907 6896 6895 6894 ] final -136.20 input  -60.11 | X-H torsion
[ 7974 7965 7964 7962 ] final  171.74 input  175.53 | X-H torsion
[ 8008 7997 7996 7995 ] final  131.20 input   59.86 | X-H torsion
[ 10167 10162 10161 10158 ] final -113.31 input  -65.29 | X-H torsion
[ 10718 10713 10712 10709 ] final -107.54 input   66.30 | X-H torsion
[ 10763 10752 10751 10750 ] final -162.87 input  -60.55 | X-H torsion
[ 11005 11000 10999 10996 ] final  -98.67 input  -57.11 | X-H torsion

> <Gold.Protein.ActiveResidues>
 VAL166  LYS551  ARG553  GLY616  TRP617  ASP618  TYR619  PRO620  LYS621  CYS622 
 ASP623  PHE694  ASN695  SER759  ASP760  ASP761  ALA762  ILE779  LEU786  VAL792 
 PHE793  MET794  SER795  GLU796  ALA797  LYS798  CYS799  TRP800  GLU811  SER814 

> <Gold.Protein.RotatedAtoms>
  151.0072  133.5999  159.2687 H   0  0  0  0  0  0  0  0  0  0  0  0  # atno 6907 bound_to 6896
  151.3164  135.0806  159.9300 H   0  0  0  0  0  0  0  0  0  0  0  0  # atno 6908 bound_to 6896
  152.5290  133.9727  159.7824 H   0  0  0  0  0  0  0  0  0  0  0  0  # atno 6909 bound_to 6896
  144.7286  139.9394  143.6428 H   0  0  0  0  0  0  0  0  0  0  0  0  # atno 7974 bound_to 7965
  156.2966  140.2577  156.2887 H   0  0  0  0  0  0  0  0  0  0  0  0  # atno 8008 bound_to 7997
  154.9531  140.0394  157.2172 H   0  0  0  0  0  0  0  0  0  0  0  0  # atno 8009 bound_to 7997
  154.8017  140.2829  155.5921 H   0  0  0  0  0  0  0  0  0  0  0  0  # atno 8010 bound_to 7997
  140.1132  143.4508  152.1739 H   0  0  0  0  0  0  0  0  0  0  0  0  # atno 10167 bound_to 10162
  156.0441  130.5668  150.7836 H   0  0  0  0  0  0  0  0  0  0  0  0  # atno 10718 bound_to 10713
  154.7175  135.3018  154.9101 H   0  0  0  0  0  0  0  0  0  0  0  0  # atno 10763 bound_to 10752
  153.9983  135.6710  153.4762 H   0  0  0  0  0  0  0  0  0  0  0  0  # atno 10764 bound_to 10752
  153.0805  135.5011  154.8410 H   0  0  0  0  0  0  0  0  0  0  0  0  # atno 10765 bound_to 10752
  141.1336  133.8263  157.0870 H   0  0  0  0  0  0  0  0  0  0  0  0  # atno 11005 bound_to 11000
  146.0796  139.3784  143.0472 LP  0  0  0  0  0  0  0  0  0  0  0  0  # atno 17320 bound_to 7965
  145.7859  140.9836  143.1075 LP  0  0  0  0  0  0  0  0  0  0  0  0  # atno 17321 bound_to 7965
  139.5608  144.7404  151.4161 LP  0  0  0  0  0  0  0  0  0  0  0  0  # atno 17342 bound_to 10162
  140.6914  143.7853  150.7260 LP  0  0  0  0  0  0  0  0  0  0  0  0  # atno 17343 bound_to 10162
  157.5296  131.0936  150.9972 LP  0  0  0  0  0  0  0  0  0  0  0  0  # atno 17370 bound_to 10713
  157.0282  130.5700  149.5339 LP  0  0  0  0  0  0  0  0  0  0  0  0  # atno 17371 bound_to 10713
  140.0416  134.9851  157.0971 LP  0  0  0  0  0  0  0  0  0  0  0  0  # atno 17394 bound_to 11000
  140.4127  134.1964  155.7163 LP  0  0  0  0  0  0  0  0  0  0  0  0  # atno 17395 bound_to 11000

$$$$
