AV-unprocessed.smi:2195|AV-procd|sdf|8907|dock1
  -GOLD-   2272012123D 1   1.00000     0.00000
 Structure written by MMmdl.
 40 42  0  0  0  0  0  0  0  0  2 V2000
  153.4639  143.7860  163.3682 C   0  0  0  0  0  0  0  0  0  0  0  0
  153.1237  143.3141  161.9695 C   0  0  0  0  0  0  0  0  0  0  0  0
  153.7338  142.1597  161.4404 C   0  0  0  0  0  0  0  0  0  0  0  0
  153.4127  141.7241  160.1403 C   0  0  0  0  0  0  0  0  0  0  0  0
  152.4792  142.4277  159.3519 C   0  0  0  0  0  0  0  0  0  0  0  0
  152.2230  141.9302  158.0920 O   0  0  0  0  0  0  0  0  0  0  0  0
  151.1122  142.4529  157.3752 C   0  0  0  0  0  0  0  0  0  0  0  0
  150.5969  141.3833  156.4004 C   0  0  1  0  0  0  0  0  0  0  0  0
  149.8677  142.0290  155.3752 O   0  0  0  0  0  0  0  0  0  0  0  0
  151.7378  140.5424  155.7930 C   0  0  0  0  0  0  0  0  0  0  0  0
  151.2509  139.3669  155.0566 N   0  0  0  0  0  0  0  0  0  0  0  0
  150.4692  139.3030  153.9448 C   0  0  0  0  0  0  0  0  0  0  0  0
  150.2903  137.9875  153.6417 N   0  3  0  0  0  0  0  0  0  0  0  0
  150.9683  137.1981  154.5731 C   0  0  0  0  0  0  0  0  0  0  0  0
  151.0831  135.8156  154.6828 C   0  0  0  0  0  0  0  0  0  0  0  0
  151.8562  135.3281  155.7570 C   0  0  0  0  0  0  0  0  0  0  0  0
  152.4803  136.2033  156.6694 C   0  0  0  0  0  0  0  0  0  0  0  0
  152.3564  137.6031  156.5489 C   0  0  0  0  0  0  0  0  0  0  0  0
  151.5887  138.0777  155.4857 C   0  0  0  0  0  0  0  0  0  0  0  0
  151.8664  143.5867  159.8919 C   0  0  0  0  0  0  0  0  0  0  0  0
  152.1885  144.0245  161.1914 C   0  0  0  0  0  0  0  0  0  0  0  0
  154.4488  143.4311  163.6734 H   0  0  0  0  0  0  0  0  0  0  0  0
  152.7282  143.4113  164.0802 H   0  0  0  0  0  0  0  0  0  0  0  0
  153.4676  144.8753  163.4182 H   0  0  0  0  0  0  0  0  0  0  0  0
  154.4498  141.6042  162.0285 H   0  0  0  0  0  0  0  0  0  0  0  0
  153.8884  140.8391  159.7442 H   0  0  0  0  0  0  0  0  0  0  0  0
  150.3215  142.7178  158.0794 H   0  0  0  0  0  0  0  0  0  0  0  0
  151.3939  143.3539  156.8275 H   0  0  0  0  0  0  0  0  0  0  0  0
  149.9037  140.7265  156.9278 H   0  0  0  0  0  0  0  0  0  0  0  0
  149.5713  142.8659  155.6997 H   0  0  0  0  0  0  0  0  0  0  0  0
  152.3697  141.1428  155.1382 H   0  0  0  0  0  0  0  0  0  0  0  0
  152.3889  140.1724  156.5858 H   0  0  0  0  0  0  0  0  0  0  0  0
  150.0637  140.1443  153.4013 H   0  0  0  0  0  0  0  0  0  0  0  0
  150.6080  135.1428  153.9840 H   0  0  0  0  0  0  0  0  0  0  0  0
  151.9742  134.2616  155.8832 H   0  0  0  0  0  0  0  0  0  0  0  0
  153.0678  135.7932  157.4779 H   0  0  0  0  0  0  0  0  0  0  0  0
  152.8439  138.2644  157.2497 H   0  0  0  0  0  0  0  0  0  0  0  0
  151.1439  144.1588  159.3301 H   0  0  0  0  0  0  0  0  0  0  0  0
  151.7133  144.9092  161.5891 H   0  0  0  0  0  0  0  0  0  0  0  0
  149.7458  137.6555  152.8559 H   0  0  0  0  0  0  0  0  0  0  0  0
  1  2  1  0  0  0  0
  1 22  1  0  0  0  0
  1 23  1  0  0  0  0
  1 24  1  0  0  0  0
  2 21  1  0  0  0  0
  2  3  2  0  0  0  0
  3  4  1  0  0  0  0
  3 25  1  0  0  0  0
  4  5  2  0  0  0  0
  4 26  1  0  0  0  0
  5  6  1  0  0  0  0
  5 20  1  0  0  0  0
  6  7  1  0  0  0  0
  7  8  1  0  0  0  0
  7 27  1  0  0  0  0
  7 28  1  0  0  0  0
  8  9  1  0  0  0  0
  8 10  1  0  0  0  0
  8 29  1  0  0  0  0
  9 30  1  0  0  0  0
 10 11  1  0  0  0  0
 10 31  1  0  0  0  0
 10 32  1  0  0  0  0
 11 19  1  0  0  0  0
 11 12  1  0  0  0  0
 12 13  2  0  0  0  0
 12 33  1  0  0  0  0
 13 14  1  0  0  0  0
 13 40  1  0  0  0  0
 14 19  2  0  0  0  0
 14 15  1  0  0  0  0
 15 16  2  0  0  0  0
 15 34  1  0  0  0  0
 16 17  1  0  0  0  0
 16 35  1  0  0  0  0
 17 18  2  0  0  0  0
 17 36  1  0  0  0  0
 18 19  1  0  0  0  0
 18 37  1  0  0  0  0
 20 21  2  0  0  0  0
 20 38  1  0  0  0  0
 21 39  1  0  0  0  0
M  CHG  1  13   1
M  END
> <s_m_source_file>
AV-unprocessed.smi

> <i_m_source_file_index>
2195

> <i_lp_mmshare_version>
43012

> <i_f3d_flags>
0

> <s_epik_input>
W0NIM11jMVtjSF1bY0hdYyhbY0hdW2NIXTEpT1tDSDJdW0NASF0oW09IXSlbQ0gyXW4oW2NIXW4yKWMoYzIzKVtjSF1bY0hdW2NIXVtjSF0z

> <s_epik_cmdline>
J2VwaWtfcHl0aG9uJywgJy1waCcsICc3LjAnLCAnLXRuJywgJzgnLCAnLW1hJywgJzIwMCcsICctbWV0YWxfYmluZGluZycsICctaW1hZScsICc8aW5maWxlLm1hZT4nLCAnLW9tYWUnLCAnPG91dGZpbGUubWFlPic=

> <r_lp_tautomer_probability>
1

> <r_epik_Ionization_Penalty>
1.3774

> <r_epik_Ionization_Penalty_Charging>
1.37739

> <r_epik_Ionization_Penalty_Neutral>
2.3993e-06

> <r_epik_State_Penalty>
1.45762

> <r_epik_Charging_Adjusted_Penalty>
2.83501

> <i_epik_Tot_Q>
1

> <i_epik_Tot_abs_Q>
1

> <r_epik_Metal_State_Penalty>
5.49752

> <b_epik_Metal_Only>
0

> <s_lp_Force_Field>
OPLS_2005

> <r_lp_Energy>
19.9339

> <b_lp_Chiralities_Consistent>
1

> <s_lp_Variant>
AV-unprocessed.smi:2195-4

> <Gold.Version>
5.8.1

> <Gold.Id.Protein>
6NUR|6NUR_protein|mol2

> <Gold.PLP.Fitness>
57.8604

> <Gold.PLP.PLP>
-47.0987

> <Gold.PLP.part.hbond>
-2.5436

> <Gold.PLP.part.metal>
0.0000

> <Gold.PLP.part.buried>
-2.8857

> <Gold.PLP.part.nonpolar>
-41.2423

> <Gold.PLP.part.repulsive>
0.0523

> <Gold.PLP.ligand.clash>
0.0000

> <Gold.PLP.ligand.torsion>
0.5845

> <Gold.PLP.Chemscore.Hbond>
3.0000

> <Gold.PLP.Chemscore.CHOScore>
0.9526

> <Gold.PLP.Chemscore.Metal>
0.0000

> <Gold.Chemscore.Hbonds>
donor molecule, donor type, donor heavy atom, donor atom, acceptor molecule, acceptor atom, score
      L1  H     9    30       P1  8028  1.00
      L1  H    13    40       P1  7948  2.00
      L1  C    12    33       P1  7957  0.84

> <Gold.PLP.Chemscore.Internal.Correction>
0.0731

> <Gold.Rescore>
     Score         DG    S(hbond)    S(metal)    S(lipo)     H(rot)  DE(clash)    DE(int)     intcor
     20.28     -21.12       1.92        0.00     128.51       2.27       0.37       0.47       ----

> <Gold.Chemscore.Fitness>
20.2784

> <Gold.Chemscore.DG>
-21.1175

> <Gold.Chemscore.ZeroCoef>
-5.4800

> <Gold.Chemscore.Hbond>
1.9218

> <Gold.Chemscore.Metal>
0.0000

> <Gold.Chemscore.Lipo>
128.5113

> <Gold.Chemscore.Internal_Hbond>
0.0000

> <Gold.Chemscore.DEClash>
0.3667

> <Gold.Chemscore.DEInternal>
0.4723

> <Gold.Chemscore.Rot>
2.2723

> <Gold.Chemscore.Internal.Correction>
   9.000000E+99

> <Gold.Chemscore.Hbonds>
donor molecule, donor type, donor heavy atom, donor atom, acceptor molecule, acceptor atom, score
      L1  H     9    30       P1  8028  0.97
      L1  H    13    40       P1  7948  0.48

> <Gold.Chemscore.Hbond.Weighted>
-6.4187

> <Gold.Chemscore.Metal.Weighted>
-0.0000

> <Gold.Chemscore.Lipo.Weighted>
-15.0358

> <Gold.Chemscore.Internal_Hbond.Weighted>
0.0000

> <Gold.Chemscore.DEClash.Weighted>
0.3667

> <Gold.Chemscore.DEInternal.Weighted>
0.4723

> <Gold.Chemscore.Rot.Weighted>
5.8170

> <Gold.Chemscore.Internal.Correction.Weighted>
   9.000000E+99

> <Gold.Protein.RotatedTorsions>
[ 6907 6896 6895 6894 ] final -137.72 input  -60.11 | X-H torsion
[ 7974 7965 7964 7962 ] final -155.96 input  175.53 | X-H torsion
[ 8008 7997 7996 7995 ] final   31.73 input   59.86 | X-H torsion
[ 10167 10162 10161 10158 ] final -144.65 input  -65.29 | X-H torsion
[ 10718 10713 10712 10709 ] final   26.93 input   66.30 | X-H torsion
[ 10763 10752 10751 10750 ] final  -45.49 input  -60.55 | X-H torsion
[ 11005 11000 10999 10996 ] final -149.17 input  -57.11 | X-H torsion

> <Gold.Protein.ActiveResidues>
 VAL166  LYS551  ARG553  GLY616  TRP617  ASP618  TYR619  PRO620  LYS621  CYS622 
 ASP623  PHE694  ASN695  SER759  ASP760  ASP761  ALA762  ILE779  LEU786  VAL792 
 PHE793  MET794  SER795  GLU796  ALA797  LYS798  CYS799  TRP800  GLU811  SER814 

> <Gold.Protein.RotatedAtoms>
  151.0260  133.5833  159.2665 H   0  0  0  0  0  0  0  0  0  0  0  0  # atno 6907 bound_to 6896
  151.2933  135.0747  159.9222 H   0  0  0  0  0  0  0  0  0  0  0  0  # atno 6908 bound_to 6896
  152.5334  133.9954  159.7924 H   0  0  0  0  0  0  0  0  0  0  0  0  # atno 6909 bound_to 6896
  144.7615  140.4176  143.5973 H   0  0  0  0  0  0  0  0  0  0  0  0  # atno 7974 bound_to 7965
  155.1110  140.3239  155.4521 H   0  0  0  0  0  0  0  0  0  0  0  0  # atno 8008 bound_to 7997
  156.2690  140.2044  156.6182 H   0  0  0  0  0  0  0  0  0  0  0  0  # atno 8009 bound_to 7997
  154.6756  140.0532  157.0198 H   0  0  0  0  0  0  0  0  0  0  0  0  # atno 8010 bound_to 7997
  139.7879  143.8007  152.2647 H   0  0  0  0  0  0  0  0  0  0  0  0  # atno 10167 bound_to 10162
  157.2134  130.6945  149.6238 H   0  0  0  0  0  0  0  0  0  0  0  0  # atno 10718 bound_to 10713
  154.0294  135.6658  153.4779 H   0  0  0  0  0  0  0  0  0  0  0  0  # atno 10763 bound_to 10752
  153.0546  135.5063  154.7947 H   0  0  0  0  0  0  0  0  0  0  0  0  # atno 10764 bound_to 10752
  154.6887  135.3057  154.9475 H   0  0  0  0  0  0  0  0  0  0  0  0  # atno 10765 bound_to 10752
  140.7536  134.3378  157.5120 H   0  0  0  0  0  0  0  0  0  0  0  0  # atno 11005 bound_to 11000
  145.6604  139.1580  143.2812 LP  0  0  0  0  0  0  0  0  0  0  0  0  # atno 17320 bound_to 7965
  146.1683  140.6685  142.9245 LP  0  0  0  0  0  0  0  0  0  0  0  0  # atno 17321 bound_to 7965
  139.8090  144.7344  150.9723 LP  0  0  0  0  0  0  0  0  0  0  0  0  # atno 17342 bound_to 10162
  140.7820  143.4270  151.0753 LP  0  0  0  0  0  0  0  0  0  0  0  0  # atno 17343 bound_to 10162
  155.9688  130.4544  150.5847 LP  0  0  0  0  0  0  0  0  0  0  0  0  # atno 17370 bound_to 10713
  157.3649  131.0756  151.1606 LP  0  0  0  0  0  0  0  0  0  0  0  0  # atno 17371 bound_to 10713
  139.8783  134.9158  156.3138 LP  0  0  0  0  0  0  0  0  0  0  0  0  # atno 17394 bound_to 11000
  140.9728  133.7316  156.0559 LP  0  0  0  0  0  0  0  0  0  0  0  0  # atno 17395 bound_to 11000

$$$$
