AV-unprocessed.smi:439|AV-procd|sdf|2579|dock9
  -GOLD-   2262022563D 1   1.00000     0.00000
 Structure written by MMmdl.
 46 47  0  0  0  0  0  0  0  0  1 V2000
  145.1803  131.8779  151.1886 C   0  0  0  0  0  0  0  0  0  0  0  0
  146.4565  132.7017  151.4060 C   0  0  0  0  0  0  0  0  0  0  0  0
  147.2254  132.3237  152.6817 C   0  0  0  0  0  0  0  0  0  0  0  0
  148.6003  133.0074  152.7932 C   0  0  0  0  0  0  0  0  0  0  0  0
  149.1373  132.9593  154.1386 N   0  0  0  0  0  0  0  0  0  0  0  0
  149.3184  134.0910  154.9396 C   0  0  0  0  0  0  0  0  0  0  0  0
  148.9679  135.3222  154.4085 N   0  0  0  0  0  0  0  0  0  0  0  0
  149.8074  134.0006  156.2131 C   0  0  0  0  0  0  0  0  0  0  0  0
  150.0153  135.1434  157.0176 N   0  0  0  0  0  0  0  0  0  0  0  0
  148.8325  135.6334  157.7497 C   0  0  0  0  0  0  0  0  0  0  0  0
  148.2674  134.6161  158.7581 C   0  0  0  0  0  0  0  0  0  0  0  0
  151.1588  135.8923  156.9861 C   0  0  0  0  0  0  0  0  0  0  0  0
  152.2032  135.4378  156.5137 O   0  0  0  0  0  0  0  0  0  0  0  0
  151.0740  137.2604  157.5080 C   0  0  0  0  0  0  0  0  0  0  0  0
  152.0716  137.7170  158.2998 C   0  0  0  0  0  0  0  0  0  0  0  0
  152.1288  138.9938  158.7998 O   0  0  0  0  0  0  0  0  0  0  0  0
  151.1947  139.9005  158.2264 C   0  0  0  0  0  0  0  0  0  0  0  0
  149.8390  139.2124  158.0167 C   0  0  0  0  0  0  0  0  0  0  0  0
  150.0006  138.0638  157.1940 O   0  0  0  0  0  0  0  0  0  0  0  0
  150.2061  132.6965  156.7653 C   0  0  0  0  0  0  0  0  0  0  0  0
  150.6768  132.5031  157.8855 O   0  0  0  0  0  0  0  0  0  0  0  0
  150.0268  131.6151  155.9073 N   0  0  0  0  0  0  0  0  0  0  0  0
  149.5179  131.6825  154.6158 C   0  0  0  0  0  0  0  0  0  0  0  0
  149.4248  130.6507  153.9501 O   0  0  0  0  0  0  0  0  0  0  0  0
  150.2973  130.7046  156.2498 H   0  0  0  0  0  0  0  0  0  0  0  0
  144.6424  132.2257  150.3065 H   0  0  0  0  0  0  0  0  0  0  0  0
  144.5071  131.9618  152.0420 H   0  0  0  0  0  0  0  0  0  0  0  0
  145.4039  130.8219  151.0385 H   0  0  0  0  0  0  0  0  0  0  0  0
  147.1100  132.6063  150.5383 H   0  0  0  0  0  0  0  0  0  0  0  0
  146.1820  133.7556  151.4635 H   0  0  0  0  0  0  0  0  0  0  0  0
  146.6195  132.6000  153.5454 H   0  0  0  0  0  0  0  0  0  0  0  0
  147.3423  131.2406  152.7302 H   0  0  0  0  0  0  0  0  0  0  0  0
  149.3411  132.5417  152.1450 H   0  0  0  0  0  0  0  0  0  0  0  0
  148.5675  134.0503  152.4734 H   0  0  0  0  0  0  0  0  0  0  0  0
  148.5931  135.4106  153.4747 H   0  0  0  0  0  0  0  0  0  0  0  0
  149.0864  136.1805  154.9274 H   0  0  0  0  0  0  0  0  0  0  0  0
  149.0829  136.5624  158.2646 H   0  0  0  0  0  0  0  0  0  0  0  0
  148.0427  135.8997  157.0452 H   0  0  0  0  0  0  0  0  0  0  0  0
  147.3795  135.0186  159.2459 H   0  0  0  0  0  0  0  0  0  0  0  0
  148.9851  134.3753  159.5421 H   0  0  0  0  0  0  0  0  0  0  0  0
  147.9777  133.6841  158.2754 H   0  0  0  0  0  0  0  0  0  0  0  0
  152.9374  137.1396  158.5919 H   0  0  0  0  0  0  0  0  0  0  0  0
  151.0872  140.7643  158.8822 H   0  0  0  0  0  0  0  0  0  0  0  0
  151.5868  140.2644  157.2759 H   0  0  0  0  0  0  0  0  0  0  0  0
  149.4071  138.9124  158.9727 H   0  0  0  0  0  0  0  0  0  0  0  0
  149.1321  139.8939  157.5435 H   0  0  0  0  0  0  0  0  0  0  0  0
  1  2  1  0  0  0  0
  1 26  1  0  0  0  0
  1 27  1  0  0  0  0
  1 28  1  0  0  0  0
  2  3  1  0  0  0  0
  2 29  1  0  0  0  0
  2 30  1  0  0  0  0
  3  4  1  0  0  0  0
  3 31  1  0  0  0  0
  3 32  1  0  0  0  0
  4  5  1  0  0  0  0
  4 33  1  0  0  0  0
  4 34  1  0  0  0  0
  5 23  1  0  0  0  0
  5  6  1  0  0  0  0
  6  7  1  0  0  0  0
  6  8  2  0  0  0  0
  7 35  1  0  0  0  0
  7 36  1  0  0  0  0
  8  9  1  0  0  0  0
  8 20  1  0  0  0  0
  9 10  1  0  0  0  0
  9 12  1  0  0  0  0
 10 11  1  0  0  0  0
 10 37  1  0  0  0  0
 10 38  1  0  0  0  0
 11 39  1  0  0  0  0
 11 40  1  0  0  0  0
 11 41  1  0  0  0  0
 12 13  2  0  0  0  0
 12 14  1  0  0  0  0
 14 19  1  0  0  0  0
 14 15  2  0  0  0  0
 15 16  1  0  0  0  0
 15 42  1  0  0  0  0
 16 17  1  0  0  0  0
 17 18  1  0  0  0  0
 17 43  1  0  0  0  0
 17 44  1  0  0  0  0
 18 19  1  0  0  0  0
 18 45  1  0  0  0  0
 18 46  1  0  0  0  0
 20 21  2  0  0  0  0
 20 22  1  0  0  0  0
 22 25  1  0  0  0  0
 22 23  1  0  0  0  0
 23 24  2  0  0  0  0
M  END
> <s_m_source_file>
AV-unprocessed.smi

> <i_m_source_file_index>
439

> <i_lp_mmshare_version>
43012

> <i_f3d_flags>
0

> <s_epik_input>
W0NIM11bQ0gyXVtDSDJdW0NIMl1uMWMoW05IMl0pYyhjKD1PKVtuSF1jMT1PKU4oW0NIMl1bQ0gzXSlDKD1PKUMyPVtDSF1PW0NIMl1bQ0gyXU8y

> <s_epik_cmdline>
J2VwaWtfcHl0aG9uJywgJy1waCcsICc3LjAnLCAnLXRuJywgJzgnLCAnLW1hJywgJzIwMCcsICctbWV0YWxfYmluZGluZycsICctaW1hZScsICc8aW5maWxlLm1hZT4nLCAnLW9tYWUnLCAnPG91dGZpbGUubWFlPic=

> <r_lp_tautomer_probability>
1

> <r_epik_Ionization_Penalty>
3.16361e-05

> <r_epik_Ionization_Penalty_Charging>
2.29435e-05

> <r_epik_Ionization_Penalty_Neutral>
8.69256e-06

> <r_epik_State_Penalty>
-0

> <r_epik_Charging_Adjusted_Penalty>
2.29435e-05

> <i_epik_Tot_Q>
0

> <i_epik_Tot_abs_Q>
0

> <r_epik_Metal_State_Penalty>
0.0222995

> <b_epik_Metal_Only>
0

> <s_epik_Chemistry_Notes>
This compound has an imine and may undergo hydrolysis.

> <s_lp_Force_Field>
OPLS_2005

> <r_lp_Energy>
28.4658

> <b_lp_Chiralities_Consistent>
1

> <s_lp_Variant>
AV-unprocessed.smi:439-1

> <Gold.Version>
5.8.1

> <Gold.Id.Protein>
6NUR|6NUR_protein|mol2

> <Gold.PLP.Fitness>
37.7453

> <Gold.PLP.PLP>
-30.8976

> <Gold.PLP.part.hbond>
-3.0000

> <Gold.PLP.part.metal>
0.0000

> <Gold.PLP.part.buried>
-5.0823

> <Gold.PLP.part.nonpolar>
-24.1476

> <Gold.PLP.part.repulsive>
0.0993

> <Gold.PLP.ligand.clash>
0.0000

> <Gold.PLP.ligand.torsion>
2.4784

> <Gold.PLP.Chemscore.Hbond>
2.8160

> <Gold.PLP.Chemscore.CHOScore>
0.0000

> <Gold.PLP.Chemscore.Metal>
0.0000

> <Gold.Chemscore.Hbonds>
donor molecule, donor type, donor heavy atom, donor atom, acceptor molecule, acceptor atom, score
      L1  H     7    35       P1  7948  0.82
      P1  H  6896  6907       L1    21  1.00
      P1  H 10752 10763       L1    13  1.00

> <Gold.PLP.Chemscore.Internal.Correction>
3.3566

> <Gold.Rescore>
     Score         DG    S(hbond)    S(metal)    S(lipo)     H(rot)  DE(clash)    DE(int)     intcor
     12.97     -16.90       2.88        0.00      51.61       1.66       0.08       3.85       ----

> <Gold.Chemscore.Fitness>
12.9674

> <Gold.Chemscore.DG>
-16.9001

> <Gold.Chemscore.ZeroCoef>
-5.4800

> <Gold.Chemscore.Hbond>
2.8807

> <Gold.Chemscore.Metal>
0.0000

> <Gold.Chemscore.Lipo>
51.6105

> <Gold.Chemscore.Internal_Hbond>
0.0000

> <Gold.Chemscore.DEClash>
0.0787

> <Gold.Chemscore.DEInternal>
3.8540

> <Gold.Chemscore.Rot>
1.6562

> <Gold.Chemscore.Internal.Correction>
   9.000000E+99

> <Gold.Chemscore.Hbonds>
donor molecule, donor type, donor heavy atom, donor atom, acceptor molecule, acceptor atom, score
      L1  H     7    35       P1  7948  0.76
      P1  H  6896  6907       L1    21  0.96
      P1  H 10752 10763       L1    13  1.00

> <Gold.Chemscore.Hbond.Weighted>
-9.6215

> <Gold.Chemscore.Metal.Weighted>
-0.0000

> <Gold.Chemscore.Lipo.Weighted>
-6.0384

> <Gold.Chemscore.Internal_Hbond.Weighted>
0.0000

> <Gold.Chemscore.DEClash.Weighted>
0.0787

> <Gold.Chemscore.DEInternal.Weighted>
3.8540

> <Gold.Chemscore.Rot.Weighted>
4.2398

> <Gold.Chemscore.Internal.Correction.Weighted>
   9.000000E+99

> <Gold.Protein.RotatedTorsions>
[ 6907 6896 6895 6894 ] final -169.41 input  -60.11 | X-H torsion
[ 7974 7965 7964 7962 ] final   90.49 input  175.53 | X-H torsion
[ 8008 7997 7996 7995 ] final  134.51 input   59.86 | X-H torsion
[ 10167 10162 10161 10158 ] final  -73.74 input  -65.29 | X-H torsion
[ 10718 10713 10712 10709 ] final -117.94 input   66.30 | X-H torsion
[ 10763 10752 10751 10750 ] final   99.72 input  -60.55 | X-H torsion
[ 11005 11000 10999 10996 ] final -179.82 input  -57.11 | X-H torsion

> <Gold.Protein.ActiveResidues>
 VAL166  LYS551  ARG553  GLY616  TRP617  ASP618  TYR619  PRO620  LYS621  CYS622 
 ASP623  PHE694  ASN695  SER759  ASP760  ASP761  ALA762  ILE779  LEU786  VAL792 
 PHE793  MET794  SER795  GLU796  ALA797  LYS798  CYS799  TRP800  GLU811  SER814 

> <Gold.Protein.RotatedAtoms>
  151.4911  133.3525  159.2853 H   0  0  0  0  0  0  0  0  0  0  0  0  # atno 6907 bound_to 6896
  150.8834  134.8230  159.7252 H   0  0  0  0  0  0  0  0  0  0  0  0  # atno 6908 bound_to 6896
  152.4777  134.4812  159.9718 H   0  0  0  0  0  0  0  0  0  0  0  0  # atno 6909 bound_to 6896
  145.5183  139.2278  143.2686 H   0  0  0  0  0  0  0  0  0  0  0  0  # atno 7974 bound_to 7965
  156.2999  140.2494  156.3428 H   0  0  0  0  0  0  0  0  0  0  0  0  # atno 8008 bound_to 7997
  154.9038  140.0405  157.1927 H   0  0  0  0  0  0  0  0  0  0  0  0  # atno 8009 bound_to 7997
  154.8473  140.2900  155.5625 H   0  0  0  0  0  0  0  0  0  0  0  0  # atno 8010 bound_to 7997
  140.5085  143.2349  151.7633 H   0  0  0  0  0  0  0  0  0  0  0  0  # atno 10167 bound_to 10162
  156.1070  130.6218  150.9227 H   0  0  0  0  0  0  0  0  0  0  0  0  # atno 10718 bound_to 10713
  153.3050  135.4103  155.1286 H   0  0  0  0  0  0  0  0  0  0  0  0  # atno 10763 bound_to 10752
  154.8560  135.3550  154.5800 H   0  0  0  0  0  0  0  0  0  0  0  0  # atno 10764 bound_to 10752
  153.6227  135.7064  153.5363 H   0  0  0  0  0  0  0  0  0  0  0  0  # atno 10765 bound_to 10752
  140.4143  134.6663  157.4631 H   0  0  0  0  0  0  0  0  0  0  0  0  # atno 11005 bound_to 11000
  146.2123  140.5993  142.9054 LP  0  0  0  0  0  0  0  0  0  0  0  0  # atno 17320 bound_to 7965
  144.7690  140.5595  143.6683 LP  0  0  0  0  0  0  0  0  0  0  0  0  # atno 17321 bound_to 7965
  139.4890  144.4423  151.9750 LP  0  0  0  0  0  0  0  0  0  0  0  0  # atno 17342 bound_to 10162
  140.3515  144.3084  150.5948 LP  0  0  0  0  0  0  0  0  0  0  0  0  # atno 17343 bound_to 10162
  157.6247  131.0926  150.8556 LP  0  0  0  0  0  0  0  0  0  0  0  0  # atno 17370 bound_to 10713
  156.8673  130.5134  149.5299 LP  0  0  0  0  0  0  0  0  0  0  0  0  # atno 17371 bound_to 10713
  140.0245  134.6498  155.9193 LP  0  0  0  0  0  0  0  0  0  0  0  0  # atno 17394 bound_to 11000
  141.1809  133.6546  156.5015 LP  0  0  0  0  0  0  0  0  0  0  0  0  # atno 17395 bound_to 11000

$$$$
