AV-unprocessed.smi:466|AV-procd|sdf|2641|dock2
  -GOLD-   2262023 53D 1   1.00000     0.00000
 Structure written by MMmdl.
 43 45  0  0  0  0  0  0  0  0  1 V2000
  147.3030  136.9414  163.0728 C   0  0  0  0  0  0  0  0  0  0  0  0
  147.9533  137.2095  161.8392 O   0  0  0  0  0  0  0  0  0  0  0  0
  147.9519  136.2264  160.8707 C   0  0  0  0  0  0  0  0  0  0  0  0
  147.3940  134.9367  161.0629 C   0  0  0  0  0  0  0  0  0  0  0  0
  147.4305  133.9814  160.0313 C   0  0  0  0  0  0  0  0  0  0  0  0
  148.0226  134.3019  158.7983 C   0  0  0  0  0  0  0  0  0  0  0  0
  148.5782  135.5781  158.5958 C   0  0  0  0  0  0  0  0  0  0  0  0
  148.5480  136.5491  159.6292 C   0  0  0  0  0  0  0  0  0  0  0  0
  149.0744  137.8182  159.5016 O   0  0  0  0  0  0  0  0  0  0  0  0
  149.4447  138.2707  158.2072 C   0  0  0  0  0  0  0  0  0  0  0  0
  150.8670  138.8384  158.2771 C   0  0  0  0  0  0  0  0  0  0  0  0
  150.9125  140.2194  157.8231 N   0  0  0  0  0  0  0  0  0  0  0  0
  150.3674  140.7623  156.7042 C   0  0  0  0  0  0  0  0  0  0  0  0
  149.5757  139.9589  155.7133 C   0  0  0  0  0  0  0  0  0  0  0  0
  148.8513  140.8238  154.6697 C   0  0  0  0  0  0  0  0  0  0  0  0
  149.6421  140.9890  153.5116 O   0  0  0  0  0  0  0  0  0  0  0  0
  150.5729  142.0698  156.5369 N   0  0  0  0  0  0  0  0  0  0  0  0
  151.3239  142.4054  157.6462 C   0  0  0  0  0  0  0  0  0  0  0  0
  151.8620  143.6485  158.0493 C   0  0  0  0  0  0  0  0  0  0  0  0
  152.6126  143.7493  159.2392 C   0  0  0  0  0  0  0  0  0  0  0  0
  152.8358  142.6111  160.0408 C   0  0  0  0  0  0  0  0  0  0  0  0
  152.3073  141.3633  159.6580 C   0  0  0  0  0  0  0  0  0  0  0  0
  151.5571  141.2687  158.4705 C   0  0  0  0  0  0  0  0  0  0  0  0
  147.4037  137.8072  163.7271 H   0  0  0  0  0  0  0  0  0  0  0  0
  147.7524  136.0890  163.5839 H   0  0  0  0  0  0  0  0  0  0  0  0
  146.2373  136.7584  162.9303 H   0  0  0  0  0  0  0  0  0  0  0  0
  146.9312  134.6541  161.9960 H   0  0  0  0  0  0  0  0  0  0  0  0
  147.0038  133.0015  160.1872 H   0  0  0  0  0  0  0  0  0  0  0  0
  148.0513  133.5686  158.0058 H   0  0  0  0  0  0  0  0  0  0  0  0
  149.0226  135.7876  157.6349 H   0  0  0  0  0  0  0  0  0  0  0  0
  149.4152  137.4424  157.4972 H   0  0  0  0  0  0  0  0  0  0  0  0
  148.7534  139.0416  157.8634 H   0  0  0  0  0  0  0  0  0  0  0  0
  151.2614  138.7708  159.2904 H   0  0  0  0  0  0  0  0  0  0  0  0
  151.5357  138.2458  157.6520 H   0  0  0  0  0  0  0  0  0  0  0  0
  150.2733  139.3002  155.1948 H   0  0  0  0  0  0  0  0  0  0  0  0
  148.8759  139.2957  156.2206 H   0  0  0  0  0  0  0  0  0  0  0  0
  147.8857  140.3925  154.4040 H   0  0  0  0  0  0  0  0  0  0  0  0
  148.6577  141.8136  155.0837 H   0  0  0  0  0  0  0  0  0  0  0  0
  149.4076  140.3185  152.8883 H   0  0  0  0  0  0  0  0  0  0  0  0
  151.6977  144.5257  157.4411 H   0  0  0  0  0  0  0  0  0  0  0  0
  153.0196  144.7041  159.5380 H   0  0  0  0  0  0  0  0  0  0  0  0
  153.4129  142.6958  160.9500 H   0  0  0  0  0  0  0  0  0  0  0  0
  152.4769  140.4896  160.2695 H   0  0  0  0  0  0  0  0  0  0  0  0
  1  2  1  0  0  0  0
  1 24  1  0  0  0  0
  1 25  1  0  0  0  0
  1 26  1  0  0  0  0
  2  3  1  0  0  0  0
  3  8  1  0  0  0  0
  3  4  2  0  0  0  0
  4  5  1  0  0  0  0
  4 27  1  0  0  0  0
  5  6  2  0  0  0  0
  5 28  1  0  0  0  0
  6  7  1  0  0  0  0
  6 29  1  0  0  0  0
  7  8  2  0  0  0  0
  7 30  1  0  0  0  0
  8  9  1  0  0  0  0
  9 10  1  0  0  0  0
 10 11  1  0  0  0  0
 10 31  1  0  0  0  0
 10 32  1  0  0  0  0
 11 12  1  0  0  0  0
 11 33  1  0  0  0  0
 11 34  1  0  0  0  0
 12 23  1  0  0  0  0
 12 13  1  0  0  0  0
 13 14  1  0  0  0  0
 13 17  2  0  0  0  0
 14 15  1  0  0  0  0
 14 35  1  0  0  0  0
 14 36  1  0  0  0  0
 15 16  1  0  0  0  0
 15 37  1  0  0  0  0
 15 38  1  0  0  0  0
 16 39  1  0  0  0  0
 17 18  1  0  0  0  0
 18 23  2  0  0  0  0
 18 19  1  0  0  0  0
 19 20  2  0  0  0  0
 19 40  1  0  0  0  0
 20 21  1  0  0  0  0
 20 41  1  0  0  0  0
 21 22  2  0  0  0  0
 21 42  1  0  0  0  0
 22 23  1  0  0  0  0
 22 43  1  0  0  0  0
M  END
> <s_m_source_file>
AV-unprocessed.smi

> <i_m_source_file_index>
466

> <i_lp_mmshare_version>
43012

> <i_f3d_flags>
0

> <s_epik_input>
W0NIM11PYzFbY0hdW2NIXVtjSF1bY0hdYzFPW0NIMl1bQ0gyXW4oYyhuMilbQ0gyXVtDSDJdW09IXSljKGMyMylbY0hdW2NIXVtjSF1bY0hdMw==

> <s_epik_cmdline>
J2VwaWtfcHl0aG9uJywgJy1waCcsICc3LjAnLCAnLXRuJywgJzgnLCAnLW1hJywgJzIwMCcsICctbWV0YWxfYmluZGluZycsICctaW1hZScsICc8aW5maWxlLm1hZT4nLCAnLW9tYWUnLCAnPG91dGZpbGUubWFlPic=

> <r_lp_tautomer_probability>
1

> <r_epik_Ionization_Penalty>
0.20808

> <r_epik_Ionization_Penalty_Charging>
0

> <r_epik_Ionization_Penalty_Neutral>
0.20808

> <r_epik_State_Penalty>
0.198097

> <r_epik_Charging_Adjusted_Penalty>
0.198097

> <i_epik_Tot_Q>
0

> <i_epik_Tot_abs_Q>
0

> <r_epik_Metal_State_Penalty>
0.000235189

> <b_epik_Metal_Only>
0

> <s_lp_Force_Field>
OPLS_2005

> <r_lp_Energy>
20.5556

> <b_lp_Chiralities_Consistent>
1

> <s_lp_Variant>
AV-unprocessed.smi:466-1

> <Gold.Version>
5.8.1

> <Gold.Id.Protein>
6NUR|6NUR_protein|mol2

> <Gold.PLP.Fitness>
54.7955

> <Gold.PLP.PLP>
-46.7302

> <Gold.PLP.part.hbond>
-6.1119

> <Gold.PLP.part.metal>
0.0000

> <Gold.PLP.part.buried>
-3.7785

> <Gold.PLP.part.nonpolar>
-36.1704

> <Gold.PLP.part.repulsive>
0.0984

> <Gold.PLP.ligand.clash>
0.0000

> <Gold.PLP.ligand.torsion>
1.3163

> <Gold.PLP.Chemscore.Hbond>
3.4945

> <Gold.PLP.Chemscore.CHOScore>
0.0000

> <Gold.PLP.Chemscore.Metal>
0.0000

> <Gold.Chemscore.Hbonds>
donor molecule, donor type, donor heavy atom, donor atom, acceptor molecule, acceptor atom, score
      L1  H    16    39       P1  7957  0.74
      P1  H  6931  6943       L1     2  0.91
      P1  H  6934  6947       L1     2  0.39
      P1  H  7989  7998       L1    16  0.27
      P1  H  8011  8017       L1    16  0.90

> <Gold.PLP.Chemscore.Internal.Correction>
0.2145

> <Gold.Rescore>
     Score         DG    S(hbond)    S(metal)    S(lipo)     H(rot)  DE(clash)    DE(int)     intcor
     19.10     -21.52       2.71        0.00     116.47       2.59       0.07       2.35       ----

> <Gold.Chemscore.Fitness>
19.0987

> <Gold.Chemscore.DG>
-21.5189

> <Gold.Chemscore.ZeroCoef>
-5.4800

> <Gold.Chemscore.Hbond>
2.7084

> <Gold.Chemscore.Metal>
0.0000

> <Gold.Chemscore.Lipo>
116.4740

> <Gold.Chemscore.Internal_Hbond>
0.0000

> <Gold.Chemscore.DEClash>
0.0701

> <Gold.Chemscore.DEInternal>
2.3502

> <Gold.Chemscore.Rot>
2.5916

> <Gold.Chemscore.Internal.Correction>
   9.000000E+99

> <Gold.Chemscore.Hbonds>
donor molecule, donor type, donor heavy atom, donor atom, acceptor molecule, acceptor atom, score
      L1  H    16    39       P1  7957  0.74
      P1  H  6931  6943       L1     2  0.76
      P1  H  6934  6947       L1     2  0.20
      P1  H  7989  7998       L1    16  0.08
      P1  H  8011  8017       L1    16  0.17

> <Gold.Chemscore.Hbond.Weighted>
-9.0460

> <Gold.Chemscore.Metal.Weighted>
-0.0000

> <Gold.Chemscore.Lipo.Weighted>
-13.6275

> <Gold.Chemscore.Internal_Hbond.Weighted>
0.0000

> <Gold.Chemscore.DEClash.Weighted>
0.0701

> <Gold.Chemscore.DEInternal.Weighted>
2.3502

> <Gold.Chemscore.Rot.Weighted>
6.6346

> <Gold.Chemscore.Internal.Correction.Weighted>
   9.000000E+99

> <Gold.Protein.RotatedTorsions>
[ 6907 6896 6895 6894 ] final -154.47 input  -60.11 | X-H torsion
[ 7974 7965 7964 7962 ] final  -50.99 input  175.53 | X-H torsion
[ 8008 7997 7996 7995 ] final   80.32 input   59.86 | X-H torsion
[ 10167 10162 10161 10158 ] final    8.74 input  -65.29 | X-H torsion
[ 10718 10713 10712 10709 ] final  -14.39 input   66.30 | X-H torsion
[ 10763 10752 10751 10750 ] final   88.93 input  -60.55 | X-H torsion
[ 11005 11000 10999 10996 ] final  107.08 input  -57.11 | X-H torsion

> <Gold.Protein.ActiveResidues>
 VAL166  LYS551  ARG553  GLY616  TRP617  ASP618  TYR619  PRO620  LYS621  CYS622 
 ASP623  PHE694  ASN695  SER759  ASP760  ASP761  ALA762  ILE779  LEU786  VAL792 
 PHE793  MET794  SER795  GLU796  ALA797  LYS798  CYS799  TRP800  GLU811  SER814 

> <Gold.Protein.RotatedAtoms>
  151.2579  133.4316  159.2614 H   0  0  0  0  0  0  0  0  0  0  0  0  # atno 6907 bound_to 6896
  151.0557  134.9703  159.8245 H   0  0  0  0  0  0  0  0  0  0  0  0  # atno 6908 bound_to 6896
  152.5390  134.2532  159.8959 H   0  0  0  0  0  0  0  0  0  0  0  0  # atno 6909 bound_to 6896
  145.9239  140.7810  142.9634 H   0  0  0  0  0  0  0  0  0  0  0  0  # atno 7974 bound_to 7965
  155.8818  140.3443  155.5893 H   0  0  0  0  0  0  0  0  0  0  0  0  # atno 8008 bound_to 7997
  155.7711  140.0845  157.2127 H   0  0  0  0  0  0  0  0  0  0  0  0  # atno 8009 bound_to 7997
  154.4025  140.1518  156.2930 H   0  0  0  0  0  0  0  0  0  0  0  0  # atno 8010 bound_to 7997
  140.6296  143.8023  150.7278 H   0  0  0  0  0  0  0  0  0  0  0  0  # atno 10167 bound_to 10162
  156.6166  130.4864  149.6180 H   0  0  0  0  0  0  0  0  0  0  0  0  # atno 10718 bound_to 10713
  153.1819  135.4489  155.0039 H   0  0  0  0  0  0  0  0  0  0  0  0  # atno 10763 bound_to 10752
  154.8035  135.3265  154.7492 H   0  0  0  0  0  0  0  0  0  0  0  0  # atno 10764 bound_to 10752
  153.7955  135.6967  153.4919 H   0  0  0  0  0  0  0  0  0  0  0  0  # atno 10765 bound_to 10752
  139.8823  134.9390  156.5765 H   0  0  0  0  0  0  0  0  0  0  0  0  # atno 11005 bound_to 11000
  144.6756  140.2019  143.7386 LP  0  0  0  0  0  0  0  0  0  0  0  0  # atno 17320 bound_to 7965
  145.8515  139.2177  143.1769 LP  0  0  0  0  0  0  0  0  0  0  0  0  # atno 17321 bound_to 7965
  140.1632  143.4258  152.2053 LP  0  0  0  0  0  0  0  0  0  0  0  0  # atno 17342 bound_to 10162
  139.5512  144.7339  151.4430 LP  0  0  0  0  0  0  0  0  0  0  0  0  # atno 17343 bound_to 10162
  156.2345  130.6814  151.1496 LP  0  0  0  0  0  0  0  0  0  0  0  0  # atno 17370 bound_to 10713
  157.7239  131.0663  150.6017 LP  0  0  0  0  0  0  0  0  0  0  0  0  # atno 17371 bound_to 10713
  140.8059  133.8468  155.8767 LP  0  0  0  0  0  0  0  0  0  0  0  0  # atno 17394 bound_to 11000
  140.9550  134.1729  157.4698 LP  0  0  0  0  0  0  0  0  0  0  0  0  # atno 17395 bound_to 11000

$$$$
