#       Name:                AV-unprocessed.smi:3333
#       Creating user name   scv26
#       Creation time:       Fri Mar 27 19:21:13 2020


#       File generated by GOLD software.
#

@<TRIPOS>MOLECULE
AV-unprocessed.smi:3333
    44    46     1
SMALL
NO_CHARGES


@<TRIPOS>ATOM
      1 ****        -6.3380   1.9160  -3.2900 C.3            1 S1                 0.0000
      2 ****        -5.9037   1.7432  -1.8307 C.3            1 S1                 0.0000
      3 ****        -4.8697   0.6806  -1.6629 C.2            1 S1                 0.0000
      4 ****        -3.5586   0.9031  -1.7856 N.2            1 S1                 0.0000
      5 ****        -2.7950  -0.2560  -1.6125 C.2            1 S1                 0.0000
      6 ****        -1.2972  -0.1878  -1.7086 C.3            1 S1                 0.0000
      7 ****        -0.6519  -0.3161  -0.3252 C.2            1 S1                 0.0000
      8 ****        -1.0613   0.3613   0.6183 O.2            1 S1                 0.0000
      9 ****         0.3652  -1.1856  -0.2190 N.am           1 S1                 0.0000
     10 ****         1.1226  -1.4454   1.0009 C.3            1 S1                 0.0000
     11 ****         2.1634  -0.3411   1.2826 C.3            1 S1                 0.0000
     12 ****         3.2601  -0.2212   0.1984 C.3            1 S1                 0.0000
     13 ****         4.5636  -0.3478   1.0076 C.3            1 S1                 0.0000
     14 ****         4.7523   0.9060   1.8820 C.3            1 S1                 0.0000
     15 ****         3.6842   0.7198   2.9765 C.3            1 S1                 0.0000
     16 ****         2.9971  -0.5945   2.5592 C.3            1 S1                 0.0000
     17 ****         4.1833  -1.4014   2.0397 C.3            1 S1                 0.0000
     18 ****        -3.5578  -1.3736  -1.3768 C.2            1 S1                 0.0000
     19 ****        -5.2605  -1.0067  -1.3532 S.3            1 S1                 0.0000
     20 ****        -7.0940   2.6959  -3.3806 H              1 S1                 0.0000
     21 ****        -6.7616   0.9927  -3.6858 H              1 S1                 0.0000
     22 ****        -5.4936   2.1951  -3.9211 H              1 S1                 0.0000
     23 ****        -5.5090   2.6841  -1.4455 H              1 S1                 0.0000
     24 ****        -6.7667   1.4906  -1.2142 H              1 S1                 0.0000
     25 ****        -0.9276  -0.9741  -2.3684 H              1 S1                 0.0000
     26 ****        -0.9780   0.7575  -2.1490 H              1 S1                 0.0000
     27 ****         0.6388  -1.6997  -1.0438 H              1 S1                 0.0000
     28 ****         0.4374  -1.5418   1.8448 H              1 S1                 0.0000
     29 ****         1.6123  -2.4135   0.8936 H              1 S1                 0.0000
     30 ****         1.6355   0.6085   1.3820 H              1 S1                 0.0000
     31 ****         3.1913  -1.0310  -0.5293 H              1 S1                 0.0000
     32 ****         3.2001   0.7200  -0.3491 H              1 S1                 0.0000
     33 ****         5.4344  -0.5919   0.3985 H              1 S1                 0.0000
     34 ****         5.7506   0.9302   2.3206 H              1 S1                 0.0000
     35 ****         4.6118   1.8277   1.3162 H              1 S1                 0.0000
     36 ****         4.1540   0.6161   3.9554 H              1 S1                 0.0000
     37 ****         2.9887   1.5582   3.0290 H              1 S1                 0.0000
     38 ****         2.4374  -1.0643   3.3687 H              1 S1                 0.0000
     39 ****         3.9037  -2.3592   1.5986 H              1 S1                 0.0000
     40 ****         4.9560  -1.5683   2.7924 H              1 S1                 0.0000
     41 ****        -3.2214  -2.3868  -1.2144 H              1 S1                 0.0000
     42 ****        -3.1651   1.8016  -1.9802 LP             1 S1                 0.0000
     43 ****        -1.8191   0.9997   0.4838 LP             1 S1                 0.0000
     44 ****        -0.6358   0.2730   1.5190 LP             1 S1                 0.0000
@<TRIPOS>BOND
    1    1    2 1     
    2    1   20 1     
    3    1   21 1     
    4    1   22 1     
    5    2    3 1     
    6    2   23 1     
    7    2   24 1     
    8    3   19 1     
    9    3    4 2     
   10    4    5 1     
   11    5    6 1     
   12    5   18 2     
   13    6    7 1     
   14    6   25 1     
   15    6   26 1     
   16    7    8 2     
   17    7    9 am    
   18    9   10 1     
   19    9   27 1     
   20   10   11 1     
   21   10   28 1     
   22   10   29 1     
   23   11   16 1     
   24   11   12 1     
   25   11   30 1     
   26   12   13 1     
   27   12   31 1     
   28   12   32 1     
   29   13   17 1     
   30   13   14 1     
   31   13   33 1     
   32   14   15 1     
   33   14   34 1     
   34   14   35 1     
   35   15   16 1     
   36   15   36 1     
   37   15   37 1     
   38   16   17 1     
   39   16   38 1     
   40   17   39 1     
   41   17   40 1     
   42   18   19 1     
   43   18   41 1     
   44    4   42 1     
   45    8   43 1     
   46    8   44 1     
@<TRIPOS>SUBSTRUCTURE
      1 S1             1
@<TRIPOS>SET
LONE_PAIRS      STATIC     ATOMS    <user>   **** ""
3 42 43 44
DONOR_HYDROGENS      STATIC     ATOMS    <user>   **** ""
1 27
ATOM$BLUE        STATIC     ATOMS    COLORGROUP SYSTEM
3 42 43 44
ATOM$RED        STATIC     ATOMS    COLORGROUP SYSTEM
1 27
