AV-unprocessed.smi:654|AV-procd|sdf|3212|dock1
  -GOLD-   22720 0153D 1   1.00000     0.00000
 Structure written by MMmdl.
 47 49  0  0  0  0  0  0  0  0  1 V2000
  151.1737  136.8675  159.0839 O   0  0  0  0  0  0  0  0  0  0  0  0
  150.3025  137.4776  158.4628 C   0  0  0  0  0  0  0  0  0  0  0  0
  150.5242  138.6922  157.9334 N   0  0  0  0  0  0  0  0  0  0  0  0
  151.8016  139.3974  157.9432 C   0  0  0  0  0  0  0  0  0  0  0  0
  152.0424  140.1550  159.2635 C   0  0  0  0  0  0  0  0  0  0  0  0
  151.9894  141.6654  159.1062 C   0  0  0  0  0  0  0  0  0  0  0  0
  151.5835  142.2510  157.8897 C   0  0  0  0  0  0  0  0  0  0  0  0
  151.5681  143.6552  157.7849 C   0  0  0  0  0  0  0  0  0  0  0  0
  151.9589  144.4157  158.9053 C   0  0  0  0  0  0  0  0  0  0  0  0
  152.3485  143.8660  160.0755 N   0  0  0  0  0  0  0  0  0  0  0  0
  152.3593  142.5191  160.1680 C   0  0  0  0  0  0  0  0  0  0  0  0
  149.0483  136.9946  158.2699 N   0  0  0  0  0  0  0  0  0  0  0  0
  147.9386  137.7000  157.6104 C   0  0  0  0  0  0  0  0  0  0  0  0
  146.9518  138.1833  158.6806 C   0  0  0  0  0  0  0  0  0  0  0  0
  146.2259  136.7744  159.5740 S   0  0  0  0  0  0  0  0  0  0  0  0
  147.7211  135.8166  160.0333 C   0  0  0  0  0  0  0  0  0  0  0  0
  148.4742  136.5063  161.2034 C   0  0  0  0  0  0  0  0  0  0  0  0
  147.6962  136.4810  162.5311 C   0  0  0  0  0  0  0  0  0  0  0  0
  147.3114  135.0497  162.9267 C   0  0  0  0  0  0  0  0  0  0  0  0
  146.5181  134.3680  161.8046 C   0  0  0  0  0  0  0  0  0  0  0  0
  147.2976  134.3935  160.4771 C   0  0  0  0  0  0  0  0  0  0  0  0
  148.6286  135.6812  158.7801 C   0  0  0  0  0  0  0  0  0  0  0  0
  149.7609  139.1411  157.4486 H   0  0  0  0  0  0  0  0  0  0  0  0
  152.5844  138.6512  157.8048 H   0  0  0  0  0  0  0  0  0  0  0  0
  151.8712  140.0773  157.0928 H   0  0  0  0  0  0  0  0  0  0  0  0
  151.3034  139.8484  160.0045 H   0  0  0  0  0  0  0  0  0  0  0  0
  153.0136  139.8764  159.6747 H   0  0  0  0  0  0  0  0  0  0  0  0
  151.2944  141.6363  157.0498 H   0  0  0  0  0  0  0  0  0  0  0  0
  151.2654  144.1382  156.8676 H   0  0  0  0  0  0  0  0  0  0  0  0
  151.9594  145.4949  158.8597 H   0  0  0  0  0  0  0  0  0  0  0  0
  152.6833  142.1111  161.1142 H   0  0  0  0  0  0  0  0  0  0  0  0
  148.2631  138.5407  156.9969 H   0  0  0  0  0  0  0  0  0  0  0  0
  147.4332  137.0283  156.9152 H   0  0  0  0  0  0  0  0  0  0  0  0
  147.4481  138.8470  159.3892 H   0  0  0  0  0  0  0  0  0  0  0  0
  146.1454  138.7553  158.2217 H   0  0  0  0  0  0  0  0  0  0  0  0
  149.4327  136.0078  161.3549 H   0  0  0  0  0  0  0  0  0  0  0  0
  148.7135  137.5402  160.9565 H   0  0  0  0  0  0  0  0  0  0  0  0
  148.3009  136.9306  163.3189 H   0  0  0  0  0  0  0  0  0  0  0  0
  146.7980  137.0938  162.4495 H   0  0  0  0  0  0  0  0  0  0  0  0
  148.2126  134.4736  163.1406 H   0  0  0  0  0  0  0  0  0  0  0  0
  146.7247  135.0608  163.8457 H   0  0  0  0  0  0  0  0  0  0  0  0
  146.2992  133.3367  162.0827 H   0  0  0  0  0  0  0  0  0  0  0  0
  145.5530  134.8611  161.6842 H   0  0  0  0  0  0  0  0  0  0  0  0
  146.7003  133.9207  159.6967 H   0  0  0  0  0  0  0  0  0  0  0  0
  148.1865  133.7709  160.5910 H   0  0  0  0  0  0  0  0  0  0  0  0
  148.0967  135.1449  157.9925 H   0  0  0  0  0  0  0  0  0  0  0  0
  149.4875  135.0492  159.0111 H   0  0  0  0  0  0  0  0  0  0  0  0
  1  2  2  0  0  0  0
  2  3  1  0  0  0  0
  2 12  1  0  0  0  0
  3  4  1  0  0  0  0
  3 23  1  0  0  0  0
  4  5  1  0  0  0  0
  4 24  1  0  0  0  0
  4 25  1  0  0  0  0
  5  6  1  0  0  0  0
  5 26  1  0  0  0  0
  5 27  1  0  0  0  0
  6 11  1  0  0  0  0
  6  7  2  0  0  0  0
  7  8  1  0  0  0  0
  7 28  1  0  0  0  0
  8  9  2  0  0  0  0
  8 29  1  0  0  0  0
  9 10  1  0  0  0  0
  9 30  1  0  0  0  0
 10 11  2  0  0  0  0
 11 31  1  0  0  0  0
 12 22  1  0  0  0  0
 12 13  1  0  0  0  0
 13 14  1  0  0  0  0
 13 32  1  0  0  0  0
 13 33  1  0  0  0  0
 14 15  1  0  0  0  0
 14 34  1  0  0  0  0
 14 35  1  0  0  0  0
 15 16  1  0  0  0  0
 16 21  1  0  0  0  0
 16 17  1  0  0  0  0
 16 22  1  0  0  0  0
 17 18  1  0  0  0  0
 17 36  1  0  0  0  0
 17 37  1  0  0  0  0
 18 19  1  0  0  0  0
 18 38  1  0  0  0  0
 18 39  1  0  0  0  0
 19 20  1  0  0  0  0
 19 40  1  0  0  0  0
 19 41  1  0  0  0  0
 20 21  1  0  0  0  0
 20 42  1  0  0  0  0
 20 43  1  0  0  0  0
 21 44  1  0  0  0  0
 21 45  1  0  0  0  0
 22 46  1  0  0  0  0
 22 47  1  0  0  0  0
M  END
> <s_m_source_file>
AV-unprocessed.smi

> <i_m_source_file_index>
654

> <i_lp_mmshare_version>
43012

> <i_f3d_flags>
0

> <s_epik_input>
W2NIXTFuW2NIXVtjSF1bY0hdYzFbQ0gyXVtDSDJdW05IXUMoPU8pTihbQ0gyXTIpW0NIMl1bQ0gyXVNDMjNbQ0gyXVtDSDJdW0NIMl1bQ0gyXVtDSDJdMw==

> <s_epik_cmdline>
J2VwaWtfcHl0aG9uJywgJy1waCcsICc3LjAnLCAnLXRuJywgJzgnLCAnLW1hJywgJzIwMCcsICctbWV0YWxfYmluZGluZycsICctaW1hZScsICc8aW5maWxlLm1hZT4nLCAnLW9tYWUnLCAnPG91dGZpbGUubWFlPic=

> <r_epik_Ionization_Penalty>
0.0144586

> <r_epik_Ionization_Penalty_Charging>
0

> <r_epik_Ionization_Penalty_Neutral>
0.0144586

> <r_epik_State_Penalty>
0.0112665

> <r_epik_Charging_Adjusted_Penalty>
0.0112665

> <i_epik_Tot_Q>
0

> <i_epik_Tot_abs_Q>
0

> <r_epik_Metal_State_Penalty>
0.0109983

> <b_epik_Metal_Only>
0

> <s_lp_Force_Field>
OPLS_2005

> <r_lp_Energy>
31.4252

> <b_lp_Chiralities_Consistent>
1

> <s_lp_Variant>
AV-unprocessed.smi:654-1

> <Gold.Version>
5.8.1

> <Gold.Id.Protein>
6NUR|6NUR_protein|mol2

> <Gold.PLP.Fitness>
41.1960

> <Gold.PLP.PLP>
-39.3241

> <Gold.PLP.part.hbond>
-1.0000

> <Gold.PLP.part.metal>
0.0000

> <Gold.PLP.part.buried>
-1.8732

> <Gold.PLP.part.nonpolar>
-36.0724

> <Gold.PLP.part.repulsive>
0.0813

> <Gold.PLP.ligand.clash>
0.0000

> <Gold.PLP.ligand.torsion>
0.5836

> <Gold.PLP.Chemscore.Hbond>
1.0000

> <Gold.PLP.Chemscore.CHOScore>
0.0000

> <Gold.PLP.Chemscore.Metal>
0.0000

> <Gold.Chemscore.Hbonds>
donor molecule, donor type, donor heavy atom, donor atom, acceptor molecule, acceptor atom, score
      P1  H  6896  6909       L1     1  1.00

> <Gold.PLP.Chemscore.Internal.Correction>
0.0393

> <Gold.Rescore>
     Score         DG    S(hbond)    S(metal)    S(lipo)     H(rot)  DE(clash)    DE(int)     intcor
     18.19     -18.80       0.98        0.00     112.84       1.23       0.10       0.51       ----

> <Gold.Chemscore.Fitness>
18.1907

> <Gold.Chemscore.DG>
-18.8020

> <Gold.Chemscore.ZeroCoef>
-5.4800

> <Gold.Chemscore.Hbond>
0.9769

> <Gold.Chemscore.Metal>
0.0000

> <Gold.Chemscore.Lipo>
112.8358

> <Gold.Chemscore.Internal_Hbond>
0.0000

> <Gold.Chemscore.DEClash>
0.1007

> <Gold.Chemscore.DEInternal>
0.5106

> <Gold.Chemscore.Rot>
1.2276

> <Gold.Chemscore.Internal.Correction>
   9.000000E+99

> <Gold.Chemscore.Hbonds>
donor molecule, donor type, donor heavy atom, donor atom, acceptor molecule, acceptor atom, score
      P1  H  6896  6909       L1     1  0.96

> <Gold.Chemscore.Hbond.Weighted>
-3.2630

> <Gold.Chemscore.Metal.Weighted>
-0.0000

> <Gold.Chemscore.Lipo.Weighted>
-13.2018

> <Gold.Chemscore.Internal_Hbond.Weighted>
0.0000

> <Gold.Chemscore.DEClash.Weighted>
0.1007

> <Gold.Chemscore.DEInternal.Weighted>
0.5106

> <Gold.Chemscore.Rot.Weighted>
3.1427

> <Gold.Chemscore.Internal.Correction.Weighted>
   9.000000E+99

> <Gold.Protein.RotatedTorsions>
[ 6907 6896 6895 6894 ] final   93.98 input  -60.11 | X-H torsion
[ 7974 7965 7964 7962 ] final  -23.04 input  175.53 | X-H torsion
[ 8008 7997 7996 7995 ] final -120.74 input   59.86 | X-H torsion
[ 10167 10162 10161 10158 ] final  -64.41 input  -65.29 | X-H torsion
[ 10718 10713 10712 10709 ] final  167.96 input   66.30 | X-H torsion
[ 10763 10752 10751 10750 ] final  -46.10 input  -60.55 | X-H torsion
[ 11005 11000 10999 10996 ] final  -58.04 input  -57.11 | X-H torsion

> <Gold.Protein.ActiveResidues>
 VAL166  LYS551  ARG553  GLY616  TRP617  ASP618  TYR619  PRO620  LYS621  CYS622 
 ASP623  PHE694  ASN695  SER759  ASP760  ASP761  ALA762  ILE779  LEU786  VAL792 
 PHE793  MET794  SER795  GLU796  ALA797  LYS798  CYS799  TRP800  GLU811  SER814 

> <Gold.Protein.RotatedAtoms>
  152.5451  134.1264  159.8420 H   0  0  0  0  0  0  0  0  0  0  0  0  # atno 6907 bound_to 6896
  151.1315  133.5027  159.2606 H   0  0  0  0  0  0  0  0  0  0  0  0  # atno 6908 bound_to 6896
  151.1670  135.0310  159.8790 H   0  0  0  0  0  0  0  0  0  0  0  0  # atno 6909 bound_to 6896
  146.1640  140.4562  142.8560 H   0  0  0  0  0  0  0  0  0  0  0  0  # atno 7974 bound_to 7965
  155.1367  140.0401  157.2788 H   0  0  0  0  0  0  0  0  0  0  0  0  # atno 8008 bound_to 7997
  154.6503  140.2567  155.7195 H   0  0  0  0  0  0  0  0  0  0  0  0  # atno 8009 bound_to 7997
  156.2574  140.2837  156.0934 H   0  0  0  0  0  0  0  0  0  0  0  0  # atno 8010 bound_to 7997
  140.5803  143.2326  151.6356 H   0  0  0  0  0  0  0  0  0  0  0  0  # atno 10167 bound_to 10162
  157.0440  131.0294  151.2703 H   0  0  0  0  0  0  0  0  0  0  0  0  # atno 10718 bound_to 10713
  154.0394  135.6646  153.4788 H   0  0  0  0  0  0  0  0  0  0  0  0  # atno 10763 bound_to 10752
  153.0507  135.5086  154.7856 H   0  0  0  0  0  0  0  0  0  0  0  0  # atno 10764 bound_to 10752
  154.6827  135.3048  154.9556 H   0  0  0  0  0  0  0  0  0  0  0  0  # atno 10765 bound_to 10752
  141.1190  133.6611  156.4860 H   0  0  0  0  0  0  0  0  0  0  0  0  # atno 11005 bound_to 11000
  144.8066  140.6310  143.6443 LP  0  0  0  0  0  0  0  0  0  0  0  0  # atno 17320 bound_to 7965
  145.4516  139.1523  143.3915 LP  0  0  0  0  0  0  0  0  0  0  0  0  # atno 17321 bound_to 7965
  139.5166  144.3342  152.0799 LP  0  0  0  0  0  0  0  0  0  0  0  0  # atno 17342 bound_to 10162
  140.2491  144.4188  150.6229 LP  0  0  0  0  0  0  0  0  0  0  0  0  # atno 17343 bound_to 10162
  157.5082  130.7922  149.7677 LP  0  0  0  0  0  0  0  0  0  0  0  0  # atno 17370 bound_to 10713
  156.0029  130.3870  150.2539 LP  0  0  0  0  0  0  0  0  0  0  0  0  # atno 17371 bound_to 10713
  140.4562  134.6884  157.5063 LP  0  0  0  0  0  0  0  0  0  0  0  0  # atno 17394 bound_to 11000
  140.0133  134.6657  155.9347 LP  0  0  0  0  0  0  0  0  0  0  0  0  # atno 17395 bound_to 11000

$$$$
