AV-unprocessed.smi:148|AV-procd|sdf|1227|dock9
  -GOLD-   2262018423D 1   1.00000     0.00000
 Structure written by MMmdl.
 63 67  0  0  0  0  0  0  0  0  1 V2000
  149.5239  135.9434  158.7763 O   0  0  0  0  0  0  0  0  0  0  0  0
  148.2069  135.5318  158.4742 C   0  0  0  0  0  0  0  0  0  0  0  0
  147.7806  134.3490  159.3756 C   0  0  1  0  0  0  0  0  0  0  0  0
  148.5792  133.0742  159.0035 C   0  0  0  0  0  0  0  0  0  0  0  0
  148.0030  132.3367  157.8927 N   0  0  0  0  0  0  0  0  0  0  0  0
  147.1199  131.2836  157.9777 C   0  0  0  0  0  0  0  0  0  0  0  0
  146.7387  130.7821  156.8342 N   0  0  0  0  0  0  0  0  0  0  0  0
  147.4081  131.5520  155.8922 C   0  0  0  0  0  0  0  0  0  0  0  0
  147.4479  131.5599  154.4739 C   0  0  0  0  0  0  0  0  0  0  0  0
  146.7368  130.6804  153.7354 N   0  0  0  0  0  0  0  0  0  0  0  0
  147.2187  129.3214  153.9932 C   0  0  0  0  0  0  0  0  0  0  0  0
  146.2723  128.2707  153.4061 C   0  0  0  0  0  0  0  0  0  0  0  0
  146.0853  128.5233  151.9100 C   0  0  0  0  0  0  0  0  0  0  0  0
  145.5793  129.9536  151.6841 C   0  0  0  0  0  0  0  0  0  0  0  0
  146.5022  131.0302  152.3185 C   0  0  1  0  0  0  0  0  0  0  0  0
  145.8858  132.4596  152.1152 C   0  0  2  0  0  0  0  0  0  0  0  0
  144.3986  132.4790  151.7148 C   0  0  0  0  0  0  0  0  0  0  0  0
  144.1163  133.8821  151.1673 C   0  0  0  0  0  0  0  0  0  0  0  0
  145.4799  134.4811  150.8063 C   0  0  0  0  0  0  0  0  0  0  0  0
  146.5100  133.3680  151.0301 C   0  0  2  0  0  0  0  0  0  0  0  0
  146.6935  132.6658  149.8147 O   0  0  0  0  0  0  0  0  0  0  0  0
  148.2393  132.4801  153.8612 N   0  0  0  0  0  0  0  0  0  0  0  0
  148.9379  133.3507  154.5963 C   0  0  0  0  0  0  0  0  0  0  0  0
  148.9905  133.4683  155.9252 N   0  0  0  0  0  0  0  0  0  0  0  0
  148.2040  132.5376  156.5385 C   0  0  0  0  0  0  0  0  0  0  0  0
  147.8488  134.6627  160.8978 C   0  0  1  0  0  0  0  0  0  0  0  0
  147.3555  136.0305  161.3320 C   0  0  0  0  0  0  0  0  0  0  0  0
  147.2329  135.8411  162.8401 C   0  0  0  0  0  0  0  0  0  0  0  0
  146.8587  134.4791  163.0293 O   0  0  0  0  0  0  0  0  0  0  0  0
  147.0437  133.7440  161.8219 C   0  0  0  0  0  0  0  0  0  0  0  0
  149.8291  136.5099  158.0841 H   0  0  0  0  0  0  0  0  0  0  0  0
  147.5356  136.3821  158.5964 H   0  0  0  0  0  0  0  0  0  0  0  0
  148.1919  135.2631  157.4198 H   0  0  0  0  0  0  0  0  0  0  0  0
  146.7308  134.1455  159.1585 H   0  0  0  0  0  0  0  0  0  0  0  0
  149.6028  133.3290  158.7278 H   0  0  0  0  0  0  0  0  0  0  0  0
  148.6523  132.4103  159.8656 H   0  0  0  0  0  0  0  0  0  0  0  0
  146.7673  130.8952  158.9223 H   0  0  0  0  0  0  0  0  0  0  0  0
  148.2131  129.1980  153.5611 H   0  0  0  0  0  0  0  0  0  0  0  0
  147.3165  129.1575  155.0677 H   0  0  0  0  0  0  0  0  0  0  0  0
  146.6710  127.2698  153.5736 H   0  0  0  0  0  0  0  0  0  0  0  0
  145.3083  128.3146  153.9147 H   0  0  0  0  0  0  0  0  0  0  0  0
  147.0315  128.3782  151.3870 H   0  0  0  0  0  0  0  0  0  0  0  0
  145.3813  127.8033  151.4919 H   0  0  0  0  0  0  0  0  0  0  0  0
  145.4868  130.1060  150.6094 H   0  0  0  0  0  0  0  0  0  0  0  0
  144.5738  130.0457  152.0977 H   0  0  0  0  0  0  0  0  0  0  0  0
  147.4604  130.9786  151.8002 H   0  0  0  0  0  0  0  0  0  0  0  0
  145.9568  132.9886  153.0676 H   0  0  0  0  0  0  0  0  0  0  0  0
  144.2192  131.7469  150.9260 H   0  0  0  0  0  0  0  0  0  0  0  0
  143.7365  132.2361  152.5464 H   0  0  0  0  0  0  0  0  0  0  0  0
  143.4554  133.8366  150.3014 H   0  0  0  0  0  0  0  0  0  0  0  0
  143.6249  134.4982  151.9212 H   0  0  0  0  0  0  0  0  0  0  0  0
  145.5047  134.8816  149.7916 H   0  0  0  0  0  0  0  0  0  0  0  0
  145.6933  135.3107  151.4815 H   0  0  0  0  0  0  0  0  0  0  0  0
  147.4611  133.8041  151.3290 H   0  0  0  0  0  0  0  0  0  0  0  0
  147.5216  132.2116  149.8546 H   0  0  0  0  0  0  0  0  0  0  0  0
  149.5384  134.0555  154.0403 H   0  0  0  0  0  0  0  0  0  0  0  0
  148.8845  134.5719  161.2272 H   0  0  0  0  0  0  0  0  0  0  0  0
  148.0338  136.8403  161.0643 H   0  0  0  0  0  0  0  0  0  0  0  0
  146.3749  136.2514  160.9105 H   0  0  0  0  0  0  0  0  0  0  0  0
  148.1977  136.0055  163.3217 H   0  0  0  0  0  0  0  0  0  0  0  0
  146.5097  136.5215  163.2896 H   0  0  0  0  0  0  0  0  0  0  0  0
  146.0579  133.5134  161.4225 H   0  0  0  0  0  0  0  0  0  0  0  0
  147.5546  132.7997  162.0109 H   0  0  0  0  0  0  0  0  0  0  0  0
  1  2  1  0  0  0  0
  1 31  1  0  0  0  0
  2  3  1  0  0  0  0
  2 32  1  0  0  0  0
  2 33  1  0  0  0  0
  3  4  1  0  0  0  0
  3 26  1  0  0  0  0
  3 34  1  0  0  0  0
  4  5  1  0  0  0  0
  4 35  1  0  0  0  0
  4 36  1  0  0  0  0
  5 25  1  0  0  0  0
  5  6  1  0  0  0  0
  6  7  2  0  0  0  0
  6 37  1  0  0  0  0
  7  8  1  0  0  0  0
  8 25  2  0  0  0  0
  8  9  1  0  0  0  0
  9 10  1  0  0  0  0
  9 22  2  0  0  0  0
 10 15  1  0  0  0  0
 10 11  1  0  0  0  0
 11 12  1  0  0  0  0
 11 38  1  0  0  0  0
 11 39  1  0  0  0  0
 12 13  1  0  0  0  0
 12 40  1  0  0  0  0
 12 41  1  0  0  0  0
 13 14  1  0  0  0  0
 13 42  1  0  0  0  0
 13 43  1  0  0  0  0
 14 15  1  0  0  0  0
 14 44  1  0  0  0  0
 14 45  1  0  0  0  0
 15 16  1  0  0  0  0
 15 46  1  0  0  0  0
 16 20  1  0  0  0  0
 16 17  1  0  0  0  0
 16 47  1  0  0  0  0
 17 18  1  0  0  0  0
 17 48  1  0  0  0  0
 17 49  1  0  0  0  0
 18 19  1  0  0  0  0
 18 50  1  0  0  0  0
 18 51  1  0  0  0  0
 19 20  1  0  0  0  0
 19 52  1  0  0  0  0
 19 53  1  0  0  0  0
 20 21  1  0  0  0  0
 20 54  1  0  0  0  0
 21 55  1  0  0  0  0
 22 23  1  0  0  0  0
 23 24  2  0  0  0  0
 23 56  1  0  0  0  0
 24 25  1  0  0  0  0
 26 30  1  0  0  0  0
 26 27  1  0  0  0  0
 26 57  1  0  0  0  0
 27 28  1  0  0  0  0
 27 58  1  0  0  0  0
 27 59  1  0  0  0  0
 28 29  1  0  0  0  0
 28 60  1  0  0  0  0
 28 61  1  0  0  0  0
 29 30  1  0  0  0  0
 30 62  1  0  0  0  0
 30 63  1  0  0  0  0
M  END
> <s_m_source_file>
AV-unprocessed.smi

> <i_m_source_file_index>
148

> <i_lp_mmshare_version>
43012

> <i_f3d_flags>
0

> <s_epik_input>
W0NIMl0xT1tDSDJdW0NIMl1bQ0BIXTFbQ0BIXShbQ0gyXVtPSF0pW0NIMl1uKFtjSF1uMiljKGMyMyluW2NIXW5jM040W0NIMl1bQ0gyXVtDSDJdW0NIMl1bQ0BIXTRbQ0BASF01W0NIMl1bQ0gyXVtDSDJdW0NASF01W09IXQ==

> <s_epik_cmdline>
J2VwaWtfcHl0aG9uJywgJy1waCcsICc3LjAnLCAnLXRuJywgJzgnLCAnLW1hJywgJzIwMCcsICctbWV0YWxfYmluZGluZycsICctaW1hZScsICc8aW5maWxlLm1hZT4nLCAnLW9tYWUnLCAnPG91dGZpbGUubWFlPic=

> <r_lp_tautomer_probability>
1

> <r_epik_Ionization_Penalty>
0.00556303

> <r_epik_Ionization_Penalty_Charging>
0

> <r_epik_Ionization_Penalty_Neutral>
0.00556303

> <r_epik_State_Penalty>
0.00401767

> <r_epik_Charging_Adjusted_Penalty>
0.00401767

> <i_epik_Tot_Q>
0

> <i_epik_Tot_abs_Q>
0

> <r_epik_Metal_State_Penalty>
-0

> <b_epik_Metal_Only>
0

> <s_lp_Force_Field>
OPLS_2005

> <r_lp_Energy>
69.6846

> <b_lp_Chiralities_Consistent>
1

> <s_lp_Variant>
AV-unprocessed.smi:148-26

> <Gold.Version>
5.8.1

> <Gold.Id.Protein>
6NUR|6NUR_protein|mol2

> <Gold.PLP.Fitness>
47.0760

> <Gold.PLP.PLP>
-45.4764

> <Gold.PLP.part.hbond>
-4.1148

> <Gold.PLP.part.metal>
0.0000

> <Gold.PLP.part.buried>
-5.6986

> <Gold.PLP.part.nonpolar>
-35.4025

> <Gold.PLP.part.repulsive>
0.2950

> <Gold.PLP.ligand.clash>
0.0000

> <Gold.PLP.ligand.torsion>
2.5401

> <Gold.PLP.Chemscore.Hbond>
2.0000

> <Gold.PLP.Chemscore.CHOScore>
0.0000

> <Gold.PLP.Chemscore.Metal>
0.0000

> <Gold.Chemscore.Hbonds>
donor molecule, donor type, donor heavy atom, donor atom, acceptor molecule, acceptor atom, score
      L1  H    21    55       P1 10747  1.00
      P1  H  6896  6908       L1     1  1.00

> <Gold.PLP.Chemscore.Internal.Correction>
0.6798

> <Gold.Rescore>
     Score         DG    S(hbond)    S(metal)    S(lipo)     H(rot)  DE(clash)    DE(int)     intcor
     13.19     -16.80       1.98        0.00     112.82       3.32       0.04       3.57       ----

> <Gold.Chemscore.Fitness>
13.1868

> <Gold.Chemscore.DG>
-16.8047

> <Gold.Chemscore.ZeroCoef>
-5.4800

> <Gold.Chemscore.Hbond>
1.9834

> <Gold.Chemscore.Metal>
0.0000

> <Gold.Chemscore.Lipo>
112.8217

> <Gold.Chemscore.Internal_Hbond>
0.0000

> <Gold.Chemscore.DEClash>
0.0436

> <Gold.Chemscore.DEInternal>
3.5743

> <Gold.Chemscore.Rot>
3.3203

> <Gold.Chemscore.Internal.Correction>
   9.000000E+99

> <Gold.Chemscore.Hbonds>
donor molecule, donor type, donor heavy atom, donor atom, acceptor molecule, acceptor atom, score
      L1  H    21    55       P1 10747  0.95
      P1  H  6896  6908       L1     1  0.92

> <Gold.Chemscore.Hbond.Weighted>
-6.6246

> <Gold.Chemscore.Metal.Weighted>
-0.0000

> <Gold.Chemscore.Lipo.Weighted>
-13.2001

> <Gold.Chemscore.Internal_Hbond.Weighted>
0.0000

> <Gold.Chemscore.DEClash.Weighted>
0.0436

> <Gold.Chemscore.DEInternal.Weighted>
3.5743

> <Gold.Chemscore.Rot.Weighted>
8.5000

> <Gold.Chemscore.Internal.Correction.Weighted>
   9.000000E+99

> <Gold.Protein.RotatedTorsions>
[ 6907 6896 6895 6894 ] final  171.00 input  -60.11 | X-H torsion
[ 7974 7965 7964 7962 ] final -140.71 input  175.53 | X-H torsion
[ 8008 7997 7996 7995 ] final -138.42 input   59.86 | X-H torsion
[ 10167 10162 10161 10158 ] final  -55.72 input  -65.29 | X-H torsion
[ 10718 10713 10712 10709 ] final  -10.29 input   66.30 | X-H torsion
[ 10763 10752 10751 10750 ] final  165.20 input  -60.55 | X-H torsion
[ 11005 11000 10999 10996 ] final -143.01 input  -57.11 | X-H torsion

> <Gold.Protein.ActiveResidues>
 VAL166  LYS551  ARG553  GLY616  TRP617  ASP618  TYR619  PRO620  LYS621  CYS622 
 ASP623  PHE694  ASN695  SER759  ASP760  ASP761  ALA762  ILE779  LEU786  VAL792 
 PHE793  MET794  SER795  GLU796  ALA797  LYS798  CYS799  TRP800  GLU811  SER814 

> <Gold.Protein.RotatedAtoms>
  151.8071  133.3377  159.3544 H   0  0  0  0  0  0  0  0  0  0  0  0  # atno 6907 bound_to 6896
  150.7338  134.5699  159.5894 H   0  0  0  0  0  0  0  0  0  0  0  0  # atno 6908 bound_to 6896
  152.3101  134.7508  160.0389 H   0  0  0  0  0  0  0  0  0  0  0  0  # atno 6909 bound_to 6896
  144.8576  140.6167  143.5349 H   0  0  0  0  0  0  0  0  0  0  0  0  # atno 7974 bound_to 7965
  155.4281  140.0523  157.3020 H   0  0  0  0  0  0  0  0  0  0  0  0  # atno 8008 bound_to 7997
  154.4872  140.2105  155.9587 H   0  0  0  0  0  0  0  0  0  0  0  0  # atno 8009 bound_to 7997
  156.1291  140.3175  155.8327 H   0  0  0  0  0  0  0  0  0  0  0  0  # atno 8010 bound_to 7997
  140.6358  143.2482  151.5121 H   0  0  0  0  0  0  0  0  0  0  0  0  # atno 10167 bound_to 10162
  156.6756  130.5022  149.5987 H   0  0  0  0  0  0  0  0  0  0  0  0  # atno 10718 bound_to 10713
  154.3204  135.2756  155.2522 H   0  0  0  0  0  0  0  0  0  0  0  0  # atno 10763 bound_to 10752
  154.4878  135.5841  153.6440 H   0  0  0  0  0  0  0  0  0  0  0  0  # atno 10764 bound_to 10752
  152.9877  135.6127  154.3388 H   0  0  0  0  0  0  0  0  0  0  0  0  # atno 10765 bound_to 10752
  140.8168  134.2679  157.4917 H   0  0  0  0  0  0  0  0  0  0  0  0  # atno 11005 bound_to 11000
  145.4376  139.1540  143.3988 LP  0  0  0  0  0  0  0  0  0  0  0  0  # atno 17320 bound_to 7965
  146.2835  140.4495  142.8767 LP  0  0  0  0  0  0  0  0  0  0  0  0  # atno 17321 bound_to 7965
  139.5569  144.2253  152.1627 LP  0  0  0  0  0  0  0  0  0  0  0  0  # atno 17342 bound_to 10162
  140.1510  144.5115  150.6688 LP  0  0  0  0  0  0  0  0  0  0  0  0  # atno 17343 bound_to 10162
  156.1906  130.6557  151.1057 LP  0  0  0  0  0  0  0  0  0  0  0  0  # atno 17370 bound_to 10713
  157.7062  131.0755  150.6659 LP  0  0  0  0  0  0  0  0  0  0  0  0  # atno 17371 bound_to 10713
  139.8710  134.9513  156.4082 LP  0  0  0  0  0  0  0  0  0  0  0  0  # atno 17394 bound_to 11000
  140.9141  133.7691  155.9827 LP  0  0  0  0  0  0  0  0  0  0  0  0  # atno 17395 bound_to 11000

$$$$
