AV-unprocessed.smi:2004|AV-procd|sdf|8124|dock6
  -GOLD-   2272010363D 1   1.00000     0.00000
 Structure written by MMmdl.
 40 42  0  0  0  0  0  0  0  0  2 V2000
  149.8781  140.7417  153.3900 O   0  0  0  0  0  0  0  0  0  0  0  0
  149.8551  140.1207  154.6603 C   0  0  1  0  0  0  0  0  0  0  0  0
  149.1730  141.0709  155.6559 C   0  0  0  0  0  0  0  0  0  0  0  0
  150.1461  141.9563  156.1850 O   0  0  0  0  0  0  0  0  0  0  0  0
  150.9126  141.3727  157.2259 C   0  0  0  0  0  0  0  0  0  0  0  0
  151.4128  142.4149  158.2072 C   0  0  0  0  0  0  0  0  0  0  0  0
  151.4388  143.7770  157.8401 C   0  0  0  0  0  0  0  0  0  0  0  0
  151.9177  144.7454  158.7441 C   0  0  0  0  0  0  0  0  0  0  0  0
  152.3770  144.3550  160.0169 C   0  0  0  0  0  0  0  0  0  0  0  0
  152.3591  142.9957  160.3846 C   0  0  0  0  0  0  0  0  0  0  0  0
  151.8808  142.0269  159.4807 C   0  0  0  0  0  0  0  0  0  0  0  0
  149.1096  138.7765  154.5429 C   0  0  0  0  0  0  0  0  0  0  0  0
  147.6890  138.9406  154.2078 N   0  0  0  0  0  0  0  0  0  0  0  0
  147.1068  139.4559  153.0913 C   0  0  0  0  0  0  0  0  0  0  0  0
  145.7573  139.3800  153.2590 N   0  3  0  0  0  0  0  0  0  0  0  0
  145.4735  138.8076  154.5011 C   0  0  0  0  0  0  0  0  0  0  0  0
  144.2597  138.5217  155.1188 C   0  0  0  0  0  0  0  0  0  0  0  0
  144.3239  137.9298  156.3976 C   0  0  0  0  0  0  0  0  0  0  0  0
  145.5597  137.6449  157.0146 C   0  0  0  0  0  0  0  0  0  0  0  0
  146.7842  137.9394  156.3797 C   0  0  0  0  0  0  0  0  0  0  0  0
  146.7112  138.5237  155.1160 C   0  0  0  0  0  0  0  0  0  0  0  0
  149.8454  140.0668  152.7289 H   0  0  0  0  0  0  0  0  0  0  0  0
  150.8812  139.9356  154.9800 H   0  0  0  0  0  0  0  0  0  0  0  0
  148.3513  141.6132  155.1849 H   0  0  0  0  0  0  0  0  0  0  0  0
  148.7501  140.4962  156.4815 H   0  0  0  0  0  0  0  0  0  0  0  0
  150.3105  140.6309  157.7531 H   0  0  0  0  0  0  0  0  0  0  0  0
  151.7756  140.8532  156.8072 H   0  0  0  0  0  0  0  0  0  0  0  0
  151.0912  144.0825  156.8641 H   0  0  0  0  0  0  0  0  0  0  0  0
  151.9341  145.7874  158.4606 H   0  0  0  0  0  0  0  0  0  0  0  0
  152.7449  145.0973  160.7099 H   0  0  0  0  0  0  0  0  0  0  0  0
  152.7135  142.6956  161.3595 H   0  0  0  0  0  0  0  0  0  0  0  0
  151.8739  140.9861  159.7704 H   0  0  0  0  0  0  0  0  0  0  0  0
  149.5685  138.1372  153.7876 H   0  0  0  0  0  0  0  0  0  0  0  0
  149.1626  138.2298  155.4856 H   0  0  0  0  0  0  0  0  0  0  0  0
  147.6230  139.8481  152.2268 H   0  0  0  0  0  0  0  0  0  0  0  0
  143.3116  138.7382  154.6485 H   0  0  0  0  0  0  0  0  0  0  0  0
  143.4069  137.6893  156.9162 H   0  0  0  0  0  0  0  0  0  0  0  0
  145.5687  137.1906  157.9948 H   0  0  0  0  0  0  0  0  0  0  0  0
  147.7263  137.7161  156.8582 H   0  0  0  0  0  0  0  0  0  0  0  0
  145.0829  139.6939  152.5731 H   0  0  0  0  0  0  0  0  0  0  0  0
  1  2  1  0  0  0  0
  1 22  1  0  0  0  0
  2  3  1  0  0  0  0
  2 12  1  0  0  0  0
  2 23  1  0  0  0  0
  3  4  1  0  0  0  0
  3 24  1  0  0  0  0
  3 25  1  0  0  0  0
  4  5  1  0  0  0  0
  5  6  1  0  0  0  0
  5 26  1  0  0  0  0
  5 27  1  0  0  0  0
  6 11  1  0  0  0  0
  6  7  2  0  0  0  0
  7  8  1  0  0  0  0
  7 28  1  0  0  0  0
  8  9  2  0  0  0  0
  8 29  1  0  0  0  0
  9 10  1  0  0  0  0
  9 30  1  0  0  0  0
 10 11  2  0  0  0  0
 10 31  1  0  0  0  0
 11 32  1  0  0  0  0
 12 13  1  0  0  0  0
 12 33  1  0  0  0  0
 12 34  1  0  0  0  0
 13 21  1  0  0  0  0
 13 14  1  0  0  0  0
 14 15  2  0  0  0  0
 14 35  1  0  0  0  0
 15 16  1  0  0  0  0
 15 40  1  0  0  0  0
 16 21  2  0  0  0  0
 16 17  1  0  0  0  0
 17 18  2  0  0  0  0
 17 36  1  0  0  0  0
 18 19  1  0  0  0  0
 18 37  1  0  0  0  0
 19 20  2  0  0  0  0
 19 38  1  0  0  0  0
 20 21  1  0  0  0  0
 20 39  1  0  0  0  0
M  CHG  1  15   1
M  END
> <s_m_source_file>
AV-unprocessed.smi

> <i_m_source_file_index>
2004

> <i_lp_mmshare_version>
43012

> <i_f3d_flags>
0

> <s_epik_input>
W2NIXTFbY0hdW2NIXVtjSF1jKGMxMiluKFtjSF1uMilbQ0gyXVtDQEhdKFtPSF0pW0NIMl1PW0NIMl1jM1tjSF1bY0hdW2NIXVtjSF1bY0hdMw==

> <s_epik_cmdline>
J2VwaWtfcHl0aG9uJywgJy1waCcsICc3LjAnLCAnLXRuJywgJzgnLCAnLW1hJywgJzIwMCcsICctbWV0YWxfYmluZGluZycsICctaW1hZScsICc8aW5maWxlLm1hZT4nLCAnLW9tYWUnLCAnPG91dGZpbGUubWFlPic=

> <r_epik_Ionization_Penalty>
1.28975

> <r_epik_Ionization_Penalty_Charging>
1.28975

> <r_epik_Ionization_Penalty_Neutral>
1.07667e-06

> <r_epik_State_Penalty>
1.36276

> <r_epik_Charging_Adjusted_Penalty>
2.65251

> <i_epik_Tot_Q>
1

> <i_epik_Tot_abs_Q>
1

> <r_epik_Metal_State_Penalty>
5.39298

> <b_epik_Metal_Only>
0

> <s_lp_Force_Field>
OPLS_2005

> <r_lp_Energy>
18.9764

> <b_lp_Chiralities_Consistent>
1

> <s_lp_Variant>
AV-unprocessed.smi:2004-4

> <Gold.Version>
5.8.1

> <Gold.Id.Protein>
6NUR|6NUR_protein|mol2

> <Gold.PLP.Fitness>
48.7122

> <Gold.PLP.PLP>
-35.8366

> <Gold.PLP.part.hbond>
-2.8953

> <Gold.PLP.part.metal>
0.0000

> <Gold.PLP.part.buried>
-3.1118

> <Gold.PLP.part.nonpolar>
-29.3651

> <Gold.PLP.part.repulsive>
0.6933

> <Gold.PLP.ligand.clash>
0.0000

> <Gold.PLP.ligand.torsion>
0.8445

> <Gold.PLP.Chemscore.Hbond>
3.8254

> <Gold.PLP.Chemscore.CHOScore>
1.0000

> <Gold.PLP.Chemscore.Metal>
0.0000

> <Gold.Chemscore.Hbonds>
donor molecule, donor type, donor heavy atom, donor atom, acceptor molecule, acceptor atom, score
      L1  H     1    22       P1  7957  0.70
      L1  H    15    40       P1 10175  1.66
      P1  H  7989  7998       L1     1  0.17
      P1  H  8011  8017       L1     1  1.00
      L1  C    14    35       P1  7957  1.00

> <Gold.PLP.Chemscore.Internal.Correction>
0.0882

> <Gold.Rescore>
     Score         DG    S(hbond)    S(metal)    S(lipo)     H(rot)  DE(clash)    DE(int)     intcor
     15.10     -16.77       1.85        0.00      96.90       2.43       0.22       1.45       ----

> <Gold.Chemscore.Fitness>
15.1037

> <Gold.Chemscore.DG>
-16.7732

> <Gold.Chemscore.ZeroCoef>
-5.4800

> <Gold.Chemscore.Hbond>
1.8469

> <Gold.Chemscore.Metal>
0.0000

> <Gold.Chemscore.Lipo>
96.8996

> <Gold.Chemscore.Internal_Hbond>
0.0000

> <Gold.Chemscore.DEClash>
0.2230

> <Gold.Chemscore.DEInternal>
1.4465

> <Gold.Chemscore.Rot>
2.4269

> <Gold.Chemscore.Internal.Correction>
   9.000000E+99

> <Gold.Chemscore.Hbonds>
donor molecule, donor type, donor heavy atom, donor atom, acceptor molecule, acceptor atom, score
      L1  H     1    22       P1  7957  0.68
      L1  H    15    40       P1 10175  0.82
      P1  H  8011  8017       L1     1  0.38

> <Gold.Chemscore.Hbond.Weighted>
-6.1687

> <Gold.Chemscore.Metal.Weighted>
-0.0000

> <Gold.Chemscore.Lipo.Weighted>
-11.3372

> <Gold.Chemscore.Internal_Hbond.Weighted>
0.0000

> <Gold.Chemscore.DEClash.Weighted>
0.2230

> <Gold.Chemscore.DEInternal.Weighted>
1.4465

> <Gold.Chemscore.Rot.Weighted>
6.2127

> <Gold.Chemscore.Internal.Correction.Weighted>
   9.000000E+99

> <Gold.Protein.RotatedTorsions>
[ 6907 6896 6895 6894 ] final   77.51 input  -60.11 | X-H torsion
[ 7974 7965 7964 7962 ] final -176.38 input  175.53 | X-H torsion
[ 8008 7997 7996 7995 ] final  135.03 input   59.86 | X-H torsion
[ 10167 10162 10161 10158 ] final  100.99 input  -65.29 | X-H torsion
[ 10718 10713 10712 10709 ] final -103.98 input   66.30 | X-H torsion
[ 10763 10752 10751 10750 ] final   -0.54 input  -60.55 | X-H torsion
[ 11005 11000 10999 10996 ] final   73.59 input  -57.11 | X-H torsion

> <Gold.Protein.ActiveResidues>
 VAL166  LYS551  ARG553  GLY616  TRP617  ASP618  TYR619  PRO620  LYS621  CYS622 
 ASP623  PHE694  ASN695  SER759  ASP760  ASP761  ALA762  ILE779  LEU786  VAL792 
 PHE793  MET794  SER795  GLU796  ALA797  LYS798  CYS799  TRP800  GLU811  SER814 

> <Gold.Protein.RotatedAtoms>
  152.5121  134.3805  159.9349 H   0  0  0  0  0  0  0  0  0  0  0  0  # atno 6907 bound_to 6896
  151.3762  133.3831  159.2713 H   0  0  0  0  0  0  0  0  0  0  0  0  # atno 6908 bound_to 6896
  150.9539  134.8956  159.7748 H   0  0  0  0  0  0  0  0  0  0  0  0  # atno 6909 bound_to 6896
  144.7127  140.1179  143.6407 H   0  0  0  0  0  0  0  0  0  0  0  0  # atno 7974 bound_to 7965
  156.3001  140.2481  156.3515 H   0  0  0  0  0  0  0  0  0  0  0  0  # atno 8008 bound_to 7997
  154.8961  140.0407  157.1886 H   0  0  0  0  0  0  0  0  0  0  0  0  # atno 8009 bound_to 7997
  154.8548  140.2911  155.5580 H   0  0  0  0  0  0  0  0  0  0  0  0  # atno 8010 bound_to 7997
  139.7477  144.6993  151.0479 H   0  0  0  0  0  0  0  0  0  0  0  0  # atno 10167 bound_to 10162
  156.0286  130.5493  150.7331 H   0  0  0  0  0  0  0  0  0  0  0  0  # atno 10718 bound_to 10713
  153.3331  135.6976  153.6930 H   0  0  0  0  0  0  0  0  0  0  0  0  # atno 10763 bound_to 10752
  153.5725  135.3513  155.2844 H   0  0  0  0  0  0  0  0  0  0  0  0  # atno 10764 bound_to 10752
  154.8622  135.4275  154.2525 H   0  0  0  0  0  0  0  0  0  0  0  0  # atno 10765 bound_to 10752
  139.9432  134.7360  156.1045 H   0  0  0  0  0  0  0  0  0  0  0  0  # atno 11005 bound_to 11000
  145.9397  139.2661  143.1276 LP  0  0  0  0  0  0  0  0  0  0  0  0  # atno 17320 bound_to 7965
  145.9436  140.8961  143.0295 LP  0  0  0  0  0  0  0  0  0  0  0  0  # atno 17321 bound_to 7965
  140.7794  143.4846  150.9972 LP  0  0  0  0  0  0  0  0  0  0  0  0  # atno 17342 bound_to 10162
  139.8534  143.7408  152.3177 LP  0  0  0  0  0  0  0  0  0  0  0  0  # atno 17343 bound_to 10162
  157.4919  131.0911  151.0417 LP  0  0  0  0  0  0  0  0  0  0  0  0  # atno 17370 bound_to 10713
  157.0822  130.5907  149.5422 LP  0  0  0  0  0  0  0  0  0  0  0  0  # atno 17371 bound_to 10713
  141.1074  133.6655  156.2896 LP  0  0  0  0  0  0  0  0  0  0  0  0  # atno 17394 bound_to 11000
  140.5899  134.5661  157.5497 LP  0  0  0  0  0  0  0  0  0  0  0  0  # atno 17395 bound_to 11000

$$$$
