#       Name:                AV-unprocessed.smi:320
#       Creating user name   scv26
#       Creation time:       Thu Mar 26 22:23:46 2020


#       File generated by GOLD software.
#

@<TRIPOS>MOLECULE
AV-unprocessed.smi:320
    53    56     1
SMALL
NO_CHARGES


@<TRIPOS>ATOM
      1 ****        -1.4346  -0.4674  -2.1839 C.3            1 S1                 0.0000
      2 ****        -0.9629   0.0689  -0.8168 C.3            1 S1                 0.0000
      3 ****         0.5006   0.0954  -0.8075 N.am           1 S1                 0.0000
      4 ****         1.2719   1.1322  -1.1684 C.2            1 S1                 0.0000
      5 ****         0.8186   2.2143  -1.5442 O.2            1 S1                 0.0000
      6 ****         2.7869   0.9003  -1.0732 C.3            1 S1                 0.0000
      7 ****         3.5810   1.9146  -1.7865 N.am           1 S1                 0.0000
      8 ****         4.1017   2.9756  -1.0192 C.2            1 S1                 0.0000
      9 ****         4.8337   3.9572  -1.5692 C.2            1 S1                 0.0000
     10 ****         5.0847   3.9073  -2.9900 C.2            1 S1                 0.0000
     11 ****         4.5881   2.8990  -3.7342 C.2            1 S1                 0.0000
     12 ****         3.7850   1.8252  -3.1374 C.2            1 S1                 0.0000
     13 ****         3.3238   0.9027  -3.8103 O.2            1 S1                 0.0000
     14 ****        -1.5152  -0.6958   0.4284 C.3            1 S1                 0.0000
     15 ****        -1.0494   0.0234   1.7294 C.3            1 S1                 0.0000
     16 ****        -1.5950  -0.6912   2.9831 C.3            1 S1                 0.0000
     17 ****        -1.0792  -2.1445   3.0104 C.3            1 S1                 0.0000
     18 ****        -1.5663  -2.8788   1.7445 C.3            1 S1                 0.0000
     19 ****        -3.1085  -2.8789   1.7089 C.3            1 S1                 0.0000
     20 ****        -3.6154  -1.4220   1.6857 C.3            1 S1                 0.0000
     21 ****        -3.1360  -0.6847   2.9512 C.3            1 S1                 0.0000
     22 ****        -3.0711  -0.7073   0.4303 C.3            1 S1                 0.0000
     23 ****        -1.0171  -2.1694   0.4872 C.3            1 S1                 0.0000
     24 ****        -2.5156  -0.4007  -2.2987 H              1 S1                 0.0000
     25 ****        -1.1405  -1.5049  -2.3394 H              1 S1                 0.0000
     26 ****        -1.0007   0.1150  -2.9975 H              1 S1                 0.0000
     27 ****        -1.3276   1.0951  -0.7410 H              1 S1                 0.0000
     28 ****         0.9630  -0.7502  -0.5065 H              1 S1                 0.0000
     29 ****         3.0612   0.8736  -0.0177 H              1 S1                 0.0000
     30 ****         3.0225  -0.0956  -1.4540 H              1 S1                 0.0000
     31 ****         3.8623   2.9428   0.0338 H              1 S1                 0.0000
     32 ****         5.2206   4.7649  -0.9654 H              1 S1                 0.0000
     33 ****         5.6726   4.6826  -3.4589 H              1 S1                 0.0000
     34 ****         4.7845   2.8792  -4.7962 H              1 S1                 0.0000
     35 ****         0.0389   0.0561   1.7888 H              1 S1                 0.0000
     36 ****        -1.3822   1.0622   1.7246 H              1 S1                 0.0000
     37 ****        -1.2507  -0.1685   3.8761 H              1 S1                 0.0000
     38 ****         0.0103  -2.1586   3.0603 H              1 S1                 0.0000
     39 ****        -1.4360  -2.6554   3.9056 H              1 S1                 0.0000
     40 ****        -1.2061  -3.9078   1.7639 H              1 S1                 0.0000
     41 ****        -3.4668  -3.4190   0.8317 H              1 S1                 0.0000
     42 ****        -3.5065  -3.4037   2.5783 H              1 S1                 0.0000
     43 ****        -4.7056  -1.4199   1.6585 H              1 S1                 0.0000
     44 ****        -3.5354  -1.1661   3.8448 H              1 S1                 0.0000
     45 ****        -3.5114   0.3396   2.9575 H              1 S1                 0.0000
     46 ****        -3.4571   0.3121   0.3864 H              1 S1                 0.0000
     47 ****        -3.4572  -1.2190  -0.4508 H              1 S1                 0.0000
     48 ****        -1.3343  -2.7180  -0.3998 H              1 S1                 0.0000
     49 ****         0.0726  -2.2109   0.4975 H              1 S1                 0.0000
     50 ****        -0.1706   2.3526  -1.5916 LP             1 S1                 0.0000
     51 ****         1.4399   2.9543  -1.8018 LP             1 S1                 0.0000
     52 ****         2.7802   0.1870  -3.3717 LP             1 S1                 0.0000
     53 ****         3.4929   0.8692  -4.7953 LP             1 S1                 0.0000
@<TRIPOS>BOND
    1    1    2 1     
    2    1   24 1     
    3    1   25 1     
    4    1   26 1     
    5    2    3 1     
    6    2   14 1     
    7    2   27 1     
    8    3    4 am    
    9    3   28 1     
   10    4    5 2     
   11    4    6 1     
   12    6    7 1     
   13    6   29 1     
   14    6   30 1     
   15    7   12 am    
   16    7    8 1     
   17    8    9 2     
   18    8   31 1     
   19    9   10 1     
   20    9   32 1     
   21   10   11 2     
   22   10   33 1     
   23   11   12 1     
   24   11   34 1     
   25   12   13 2     
   26   14   22 1     
   27   14   23 1     
   28   14   15 1     
   29   15   16 1     
   30   15   35 1     
   31   15   36 1     
   32   16   21 1     
   33   16   17 1     
   34   16   37 1     
   35   17   18 1     
   36   17   38 1     
   37   17   39 1     
   38   18   19 1     
   39   18   23 1     
   40   18   40 1     
   41   19   20 1     
   42   19   41 1     
   43   19   42 1     
   44   20   21 1     
   45   20   22 1     
   46   20   43 1     
   47   21   44 1     
   48   21   45 1     
   49   22   46 1     
   50   22   47 1     
   51   23   48 1     
   52   23   49 1     
   53    5   50 1     
   54    5   51 1     
   55   13   52 1     
   56   13   53 1     
@<TRIPOS>SUBSTRUCTURE
      1 S1             1
@<TRIPOS>SET
LONE_PAIRS      STATIC     ATOMS    <user>   **** ""
4 50 51 52 53
DONOR_HYDROGENS      STATIC     ATOMS    <user>   **** ""
1 28
ATOM$BLUE        STATIC     ATOMS    COLORGROUP SYSTEM
4 50 51 52 53
ATOM$RED        STATIC     ATOMS    COLORGROUP SYSTEM
1 28
