AV-unprocessed.smi:2465|AV-procd|sdf|9723|dock5
  -GOLD-   2272013363D 1   1.00000     0.00000
 Structure written by MMmdl.
 41 42  0  0  0  0  0  0  0  0  2 V2000
  147.3381  133.2952  152.0247 C   0  0  0  0  0  0  0  0  0  0  0  0
  145.9809  133.5772  151.4031 C   0  0  0  0  0  0  0  0  0  0  0  0
  145.1638  132.4974  151.0006 C   0  0  0  0  0  0  0  0  0  0  0  0
  143.9072  132.7585  150.4217 C   0  0  0  0  0  0  0  0  0  0  0  0
  143.5001  134.0334  150.2536 N   0  3  0  0  0  0  0  0  0  0  0  0
  144.2454  135.0971  150.6226 C   0  0  0  0  0  0  0  0  0  0  0  0
  145.5165  134.9059  151.2225 C   0  0  0  0  0  0  0  0  0  0  0  0
  146.3610  135.9807  151.6260 N   0  0  0  0  0  0  0  0  0  0  0  0
  146.0279  137.1691  152.1597 C   0  0  0  0  0  0  0  0  0  0  0  0
  144.8820  137.5487  152.3985 O   0  0  0  0  0  0  0  0  0  0  0  0
  147.1184  137.9049  152.4184 N   0  0  0  0  0  0  0  0  0  0  0  0
  147.1096  139.2456  152.9930 C   0  0  0  0  0  0  0  0  0  0  0  0
  148.1262  139.3844  154.1377 C   0  0  0  0  0  0  0  0  0  0  0  0
  148.4936  140.8513  154.4154 C   0  0  0  0  0  0  0  0  0  0  0  0
  149.3739  140.9779  155.5738 N   0  0  0  0  0  0  0  0  0  0  0  0
  148.9387  141.6989  156.7584 C   0  0  0  0  0  0  0  0  0  0  0  0
  150.0373  141.4522  157.8024 C   0  0  0  0  0  0  0  0  0  0  0  0
  151.2248  140.8685  157.0290 C   0  0  0  0  0  0  0  0  0  0  0  0
  150.6290  140.5242  155.6745 C   0  0  0  0  0  0  0  0  0  0  0  0
  151.2506  139.9098  154.8087 O   0  0  0  0  0  0  0  0  0  0  0  0
  147.5372  132.2243  152.0785 H   0  0  0  0  0  0  0  0  0  0  0  0
  147.3846  133.6977  153.0371 H   0  0  0  0  0  0  0  0  0  0  0  0
  148.1307  133.7545  151.4334 H   0  0  0  0  0  0  0  0  0  0  0  0
  145.4941  131.4770  151.1314 H   0  0  0  0  0  0  0  0  0  0  0  0
  143.2229  131.9928  150.0860 H   0  0  0  0  0  0  0  0  0  0  0  0
  143.7917  136.0525  150.4094 H   0  0  0  0  0  0  0  0  0  0  0  0
  147.3511  135.8021  151.5422 H   0  0  0  0  0  0  0  0  0  0  0  0
  148.0225  137.5147  152.1957 H   0  0  0  0  0  0  0  0  0  0  0  0
  147.3478  139.9532  152.1983 H   0  0  0  0  0  0  0  0  0  0  0  0
  146.1058  139.4954  153.3409 H   0  0  0  0  0  0  0  0  0  0  0  0
  147.7192  138.9382  155.0462 H   0  0  0  0  0  0  0  0  0  0  0  0
  149.0268  138.8193  153.8931 H   0  0  0  0  0  0  0  0  0  0  0  0
  148.9795  141.2899  153.5423 H   0  0  0  0  0  0  0  0  0  0  0  0
  147.5879  141.4346  154.5873 H   0  0  0  0  0  0  0  0  0  0  0  0
  148.8531  142.7607  156.5236 H   0  0  0  0  0  0  0  0  0  0  0  0
  147.9663  141.3448  157.1034 H   0  0  0  0  0  0  0  0  0  0  0  0
  150.3043  142.3682  158.3303 H   0  0  0  0  0  0  0  0  0  0  0  0
  149.6913  140.7341  158.5471 H   0  0  0  0  0  0  0  0  0  0  0  0
  152.0182  141.6054  156.9004 H   0  0  0  0  0  0  0  0  0  0  0  0
  151.6405  139.9865  157.5171 H   0  0  0  0  0  0  0  0  0  0  0  0
  142.5892  134.2025  149.8260 H   0  0  0  0  0  0  0  0  0  0  0  0
  1  2  1  0  0  0  0
  1 21  1  0  0  0  0
  1 22  1  0  0  0  0
  1 23  1  0  0  0  0
  2  7  1  0  0  0  0
  2  3  2  0  0  0  0
  3  4  1  0  0  0  0
  3 24  1  0  0  0  0
  4  5  2  0  0  0  0
  4 25  1  0  0  0  0
  5  6  1  0  0  0  0
  5 41  1  0  0  0  0
  6  7  2  0  0  0  0
  6 26  1  0  0  0  0
  7  8  1  0  0  0  0
  8  9  1  0  0  0  0
  8 27  1  0  0  0  0
  9 10  2  0  0  0  0
  9 11  1  0  0  0  0
 11 12  1  0  0  0  0
 11 28  1  0  0  0  0
 12 13  1  0  0  0  0
 12 29  1  0  0  0  0
 12 30  1  0  0  0  0
 13 14  1  0  0  0  0
 13 31  1  0  0  0  0
 13 32  1  0  0  0  0
 14 15  1  0  0  0  0
 14 33  1  0  0  0  0
 14 34  1  0  0  0  0
 15 19  1  0  0  0  0
 15 16  1  0  0  0  0
 16 17  1  0  0  0  0
 16 35  1  0  0  0  0
 16 36  1  0  0  0  0
 17 18  1  0  0  0  0
 17 37  1  0  0  0  0
 17 38  1  0  0  0  0
 18 19  1  0  0  0  0
 18 39  1  0  0  0  0
 18 40  1  0  0  0  0
 19 20  2  0  0  0  0
M  CHG  1   5   1
M  END
> <s_m_source_file>
AV-unprocessed.smi

> <i_m_source_file_index>
2465

> <i_lp_mmshare_version>
43012

> <i_f3d_flags>
0

> <s_epik_input>
W0NIM11jMVtjSF1bY0hdbltjSF1jMVtOSF1DKD1PKVtOSF1bQ0gyXVtDSDJdW0NIMl1OMltDSDJdW0NIMl1bQ0gyXUMyPU8=

> <s_epik_cmdline>
J2VwaWtfcHl0aG9uJywgJy1waCcsICc3LjAnLCAnLXRuJywgJzgnLCAnLW1hJywgJzIwMCcsICctbWV0YWxfYmluZGluZycsICctaW1hZScsICc8aW5maWxlLm1hZT4nLCAnLW9tYWUnLCAnPG91dGZpbGUubWFlPic=

> <r_epik_Ionization_Penalty>
1.98477

> <r_epik_Ionization_Penalty_Charging>
1.98474

> <r_epik_Ionization_Penalty_Neutral>
2.19328e-05

> <r_epik_State_Penalty>
2.1123

> <r_epik_Charging_Adjusted_Penalty>
4.09705

> <i_epik_Tot_Q>
1

> <i_epik_Tot_abs_Q>
1

> <r_epik_Metal_State_Penalty>
2.13405

> <b_epik_Metal_Only>
0

> <s_lp_Force_Field>
OPLS_2005

> <r_lp_Energy>
26.0932

> <b_lp_Chiralities_Consistent>
1

> <s_lp_Variant>
AV-unprocessed.smi:2465-2

> <Gold.Version>
5.8.1

> <Gold.Id.Protein>
6NUR|6NUR_protein|mol2

> <Gold.PLP.Fitness>
52.2313

> <Gold.PLP.PLP>
-38.0755

> <Gold.PLP.part.hbond>
-4.0000

> <Gold.PLP.part.metal>
0.0000

> <Gold.PLP.part.buried>
-5.2772

> <Gold.PLP.part.nonpolar>
-29.8390

> <Gold.PLP.part.repulsive>
0.8537

> <Gold.PLP.ligand.clash>
0.0000

> <Gold.PLP.ligand.torsion>
0.4555

> <Gold.PLP.Chemscore.Hbond>
5.0000

> <Gold.PLP.Chemscore.CHOScore>
0.0000

> <Gold.PLP.Chemscore.Metal>
0.0000

> <Gold.Chemscore.Hbonds>
donor molecule, donor type, donor heavy atom, donor atom, acceptor molecule, acceptor atom, score
      L1  H     5    41       P1 10186  2.00
      L1  H     8    27       P1  7948  1.00
      L1  H    11    28       P1  7948  1.00
      P1  H  7989  7998       L1    20  1.00

> <Gold.PLP.Chemscore.Internal.Correction>
0.0668

> <Gold.Rescore>
     Score         DG    S(hbond)    S(metal)    S(lipo)     H(rot)  DE(clash)    DE(int)     intcor
     21.93     -22.46       3.92        0.00      72.18       1.78       0.05       0.48       ----

> <Gold.Chemscore.Fitness>
21.9283

> <Gold.Chemscore.DG>
-22.4627

> <Gold.Chemscore.ZeroCoef>
-5.4800

> <Gold.Chemscore.Hbond>
3.9235

> <Gold.Chemscore.Metal>
0.0000

> <Gold.Chemscore.Lipo>
72.1844

> <Gold.Chemscore.Internal_Hbond>
0.0000

> <Gold.Chemscore.DEClash>
0.0515

> <Gold.Chemscore.DEInternal>
0.4829

> <Gold.Chemscore.Rot>
1.7841

> <Gold.Chemscore.Internal.Correction>
   9.000000E+99

> <Gold.Chemscore.Hbonds>
donor molecule, donor type, donor heavy atom, donor atom, acceptor molecule, acceptor atom, score
      L1  H     5    41       P1 10186  0.98
      L1  H     8    27       P1  7948  0.96
      L1  H    11    28       P1  7948  0.94
      P1  H  7989  7998       L1    20  0.85

> <Gold.Chemscore.Hbond.Weighted>
-13.1044

> <Gold.Chemscore.Metal.Weighted>
-0.0000

> <Gold.Chemscore.Lipo.Weighted>
-8.4456

> <Gold.Chemscore.Internal_Hbond.Weighted>
0.0000

> <Gold.Chemscore.DEClash.Weighted>
0.0515

> <Gold.Chemscore.DEInternal.Weighted>
0.4829

> <Gold.Chemscore.Rot.Weighted>
4.5673

> <Gold.Chemscore.Internal.Correction.Weighted>
   9.000000E+99

> <Gold.Protein.RotatedTorsions>
[ 6907 6896 6895 6894 ] final -133.71 input  -60.11 | X-H torsion
[ 7974 7965 7964 7962 ] final    7.53 input  175.53 | X-H torsion
[ 8008 7997 7996 7995 ] final   31.92 input   59.86 | X-H torsion
[ 10167 10162 10161 10158 ] final  -95.48 input  -65.29 | X-H torsion
[ 10718 10713 10712 10709 ] final -179.57 input   66.30 | X-H torsion
[ 10763 10752 10751 10750 ] final  138.85 input  -60.55 | X-H torsion
[ 11005 11000 10999 10996 ] final   59.26 input  -57.11 | X-H torsion

> <Gold.Protein.ActiveResidues>
 VAL166  LYS551  ARG553  GLY616  TRP617  ASP618  TYR619  PRO620  LYS621  CYS622 
 ASP623  PHE694  ASN695  SER759  ASP760  ASP761  ALA762  ILE779  LEU786  VAL792 
 PHE793  MET794  SER795  GLU796  ALA797  LYS798  CYS799  TRP800  GLU811  SER814 

> <Gold.Protein.RotatedAtoms>
  150.9773  133.6282  159.2728 H   0  0  0  0  0  0  0  0  0  0  0  0  # atno 6907 bound_to 6896
  151.3550  135.0891  159.9425 H   0  0  0  0  0  0  0  0  0  0  0  0  # atno 6908 bound_to 6896
  152.5203  133.9358  159.7657 H   0  0  0  0  0  0  0  0  0  0  0  0  # atno 6909 bound_to 6896
  146.2425  140.0069  142.8410 H   0  0  0  0  0  0  0  0  0  0  0  0  # atno 7974 bound_to 7965
  155.1142  140.3242  155.4513 H   0  0  0  0  0  0  0  0  0  0  0  0  # atno 8008 bound_to 7997
  156.2681  140.2038  156.6214 H   0  0  0  0  0  0  0  0  0  0  0  0  # atno 8009 bound_to 7997
  154.6732  140.0534  157.0175 H   0  0  0  0  0  0  0  0  0  0  0  0  # atno 8010 bound_to 7997
  140.3037  143.3147  152.0222 H   0  0  0  0  0  0  0  0  0  0  0  0  # atno 10167 bound_to 10162
  156.8610  130.9751  151.3083 H   0  0  0  0  0  0  0  0  0  0  0  0  # atno 10718 bound_to 10713
  153.8964  135.3027  155.3448 H   0  0  0  0  0  0  0  0  0  0  0  0  # atno 10763 bound_to 10752
  154.7692  135.4895  153.9617 H   0  0  0  0  0  0  0  0  0  0  0  0  # atno 10764 bound_to 10752
  153.1269  135.6795  153.9341 H   0  0  0  0  0  0  0  0  0  0  0  0  # atno 10765 bound_to 10752
  140.0317  134.6003  155.9498 H   0  0  0  0  0  0  0  0  0  0  0  0  # atno 11005 bound_to 11000
  145.1364  140.9547  143.4514 LP  0  0  0  0  0  0  0  0  0  0  0  0  # atno 17320 bound_to 7965
  145.0338  139.3318  143.6011 LP  0  0  0  0  0  0  0  0  0  0  0  0  # atno 17321 bound_to 7965
  139.4909  144.6437  151.6824 LP  0  0  0  0  0  0  0  0  0  0  0  0  # atno 17342 bound_to 10162
  140.5629  144.0238  150.6178 LP  0  0  0  0  0  0  0  0  0  0  0  0  # atno 17343 bound_to 10162
  157.6250  130.8684  149.9174 LP  0  0  0  0  0  0  0  0  0  0  0  0  # atno 17370 bound_to 10713
  156.0777  130.3677  150.0644 LP  0  0  0  0  0  0  0  0  0  0  0  0  # atno 17371 bound_to 10713
  141.1834  133.6551  156.5117 LP  0  0  0  0  0  0  0  0  0  0  0  0  # atno 17394 bound_to 11000
  140.4215  134.7183  157.4892 LP  0  0  0  0  0  0  0  0  0  0  0  0  # atno 17395 bound_to 11000

$$$$
