AV-unprocessed.smi:1269|AV-procd|sdf|5330|dock5
  -GOLD-   22720 4463D 1   1.00000     0.00000
 Structure written by MMmdl.
 44 45  0  0  0  0  0  0  0  0  2 V2000
  136.1603  137.0194  155.6283 C   0  0  0  0  0  0  0  0  0  0  0  0
  136.6327  138.2817  155.1710 O   0  0  0  0  0  0  0  0  0  0  0  0
  137.9273  138.3656  154.7013 C   0  0  0  0  0  0  0  0  0  0  0  0
  138.4416  139.6332  154.3647 C   0  0  0  0  0  0  0  0  0  0  0  0
  139.7604  139.7286  153.8812 C   0  0  0  0  0  0  0  0  0  0  0  0
  140.5308  138.5471  153.7539 C   0  0  0  0  0  0  0  0  0  0  0  0
  141.8672  138.4938  153.2685 N   0  0  0  0  0  0  0  0  0  0  0  0
  142.7094  137.4483  153.2038 C   0  0  0  0  0  0  0  0  0  0  0  0
  142.4457  136.2941  153.5372 O   0  0  0  0  0  0  0  0  0  0  0  0
  143.9063  137.8207  152.7259 N   0  0  0  0  0  0  0  0  0  0  0  0
  145.0571  136.9423  152.5066 C   0  0  1  0  0  0  0  0  0  0  0  0
  146.2079  137.7660  151.9125 C   0  0  0  0  0  0  0  0  0  0  0  0
  145.4889  136.2395  153.8148 C   0  0  0  0  0  0  0  0  0  0  0  0
  146.7543  135.4751  153.6760 N   0  3  0  0  0  0  0  0  0  0  0  0
  147.5147  135.3518  154.9431 C   0  0  0  0  0  0  0  0  0  0  0  0
  148.8467  134.6263  154.6917 C   0  0  0  0  0  0  0  0  0  0  0  0
  148.5913  133.3490  154.1196 O   0  0  0  0  0  0  0  0  0  0  0  0
  147.9254  133.4483  152.8667 C   0  0  0  0  0  0  0  0  0  0  0  0
  146.5661  134.1437  153.0547 C   0  0  0  0  0  0  0  0  0  0  0  0
  139.9195  137.3277  154.1140 C   0  0  0  0  0  0  0  0  0  0  0  0
  138.6557  137.2293  154.5763 N   0  0  0  0  0  0  0  0  0  0  0  0
  135.1282  137.1207  155.9638 H   0  0  0  0  0  0  0  0  0  0  0  0
  136.7479  136.6549  156.4721 H   0  0  0  0  0  0  0  0  0  0  0  0
  136.1769  136.2747  154.8312 H   0  0  0  0  0  0  0  0  0  0  0  0
  137.8326  140.5186  154.4725 H   0  0  0  0  0  0  0  0  0  0  0  0
  140.1383  140.7018  153.6135 H   0  0  0  0  0  0  0  0  0  0  0  0
  142.2231  139.3674  152.9084 H   0  0  0  0  0  0  0  0  0  0  0  0
  144.0289  138.7908  152.4742 H   0  0  0  0  0  0  0  0  0  0  0  0
  144.7947  136.1879  151.7636 H   0  0  0  0  0  0  0  0  0  0  0  0
  147.0729  137.1361  151.7021 H   0  0  0  0  0  0  0  0  0  0  0  0
  146.5288  138.5538  152.5950 H   0  0  0  0  0  0  0  0  0  0  0  0
  145.9113  138.2379  150.9751 H   0  0  0  0  0  0  0  0  0  0  0  0
  145.5852  136.9604  154.6281 H   0  0  0  0  0  0  0  0  0  0  0  0
  144.6909  135.5565  154.1101 H   0  0  0  0  0  0  0  0  0  0  0  0
  147.7121  136.3362  155.3665 H   0  0  0  0  0  0  0  0  0  0  0  0
  146.9227  134.8018  155.6761 H   0  0  0  0  0  0  0  0  0  0  0  0
  149.4915  135.2122  154.0344 H   0  0  0  0  0  0  0  0  0  0  0  0
  149.3852  134.4923  155.6299 H   0  0  0  0  0  0  0  0  0  0  0  0
  148.5464  133.9945  152.1546 H   0  0  0  0  0  0  0  0  0  0  0  0
  147.7825  132.4463  152.4616 H   0  0  0  0  0  0  0  0  0  0  0  0
  145.9143  133.5340  153.6823 H   0  0  0  0  0  0  0  0  0  0  0  0
  146.0745  134.2509  152.0871 H   0  0  0  0  0  0  0  0  0  0  0  0
  140.4616  136.3971  154.0286 H   0  0  0  0  0  0  0  0  0  0  0  0
  147.3341  136.0027  153.0386 H   0  0  0  0  0  0  0  0  0  0  0  0
  1  2  1  0  0  0  0
  1 22  1  0  0  0  0
  1 23  1  0  0  0  0
  1 24  1  0  0  0  0
  2  3  1  0  0  0  0
  3 21  1  0  0  0  0
  3  4  2  0  0  0  0
  4  5  1  0  0  0  0
  4 25  1  0  0  0  0
  5  6  2  0  0  0  0
  5 26  1  0  0  0  0
  6  7  1  0  0  0  0
  6 20  1  0  0  0  0
  7  8  1  0  0  0  0
  7 27  1  0  0  0  0
  8  9  2  0  0  0  0
  8 10  1  0  0  0  0
 10 11  1  0  0  0  0
 10 28  1  0  0  0  0
 11 12  1  0  0  0  0
 11 13  1  0  0  0  0
 11 29  1  0  0  0  0
 12 30  1  0  0  0  0
 12 31  1  0  0  0  0
 12 32  1  0  0  0  0
 13 14  1  0  0  0  0
 13 33  1  0  0  0  0
 13 34  1  0  0  0  0
 14 19  1  0  0  0  0
 14 15  1  0  0  0  0
 14 44  1  0  0  0  0
 15 16  1  0  0  0  0
 15 35  1  0  0  0  0
 15 36  1  0  0  0  0
 16 17  1  0  0  0  0
 16 37  1  0  0  0  0
 16 38  1  0  0  0  0
 17 18  1  0  0  0  0
 18 19  1  0  0  0  0
 18 39  1  0  0  0  0
 18 40  1  0  0  0  0
 19 41  1  0  0  0  0
 19 42  1  0  0  0  0
 20 21  2  0  0  0  0
 20 43  1  0  0  0  0
M  CHG  1  14   1
M  END
> <s_m_source_file>
AV-unprocessed.smi

> <i_m_source_file_index>
1269

> <i_lp_mmshare_version>
43012

> <i_f3d_flags>
0

> <s_epik_input>
W0NIM11PYzFbY0hdW2NIXWMoW2NIXW4xKVtOSF1DKD1PKVtOSF1bQ0BIXShbQ0gzXSlbQ0gyXU4yW0NIMl1bQ0gyXU9bQ0gyXVtDSDJdMg==

> <s_epik_cmdline>
J2VwaWtfcHl0aG9uJywgJy1waCcsICc3LjAnLCAnLXRuJywgJzgnLCAnLW1hJywgJzIwMCcsICctbWV0YWxfYmluZGluZycsICctaW1hZScsICc8aW5maWxlLm1hZT4nLCAnLW9tYWUnLCAnPG91dGZpbGUubWFlPic=

> <r_lp_tautomer_probability>
1

> <r_epik_Ionization_Penalty>
0.602604

> <r_epik_Ionization_Penalty_Charging>
0.602531

> <r_epik_Ionization_Penalty_Neutral>
7.37831e-05

> <r_epik_State_Penalty>
0.617039

> <r_epik_Charging_Adjusted_Penalty>
1.21957

> <i_epik_Tot_Q>
1

> <i_epik_Tot_abs_Q>
1

> <r_epik_Metal_State_Penalty>
0.617045

> <b_epik_Metal_Only>
0

> <s_lp_Force_Field>
OPLS_2005

> <r_lp_Energy>
25.4329

> <b_lp_Chiralities_Consistent>
1

> <s_lp_Variant>
AV-unprocessed.smi:1269-4

> <Gold.Version>
5.8.1

> <Gold.Id.Protein>
6NUR|6NUR_protein|mol2

> <Gold.PLP.Fitness>
42.4747

> <Gold.PLP.PLP>
-31.0873

> <Gold.PLP.part.hbond>
-4.1405

> <Gold.PLP.part.metal>
0.0000

> <Gold.PLP.part.buried>
-1.0876

> <Gold.PLP.part.nonpolar>
-25.0394

> <Gold.PLP.part.repulsive>
0.4814

> <Gold.PLP.ligand.clash>
0.0000

> <Gold.PLP.ligand.torsion>
0.3461

> <Gold.PLP.Chemscore.Hbond>
4.0000

> <Gold.PLP.Chemscore.CHOScore>
0.0000

> <Gold.PLP.Chemscore.Metal>
0.0000

> <Gold.Chemscore.Hbonds>
donor molecule, donor type, donor heavy atom, donor atom, acceptor molecule, acceptor atom, score
      L1  H     7    27       P1 10175  1.00
      L1  H    10    28       P1 10175  1.00
      L1  H    14    44       P1  7948  2.00

> <Gold.PLP.Chemscore.Internal.Correction>
0.0796

> <Gold.Rescore>
     Score         DG    S(hbond)    S(metal)    S(lipo)     H(rot)  DE(clash)    DE(int)     intcor
     16.50     -18.46       2.88        0.00      67.64       1.78       0.14       1.82       ----

> <Gold.Chemscore.Fitness>
16.5026

> <Gold.Chemscore.DG>
-18.4573

> <Gold.Chemscore.ZeroCoef>
-5.4800

> <Gold.Chemscore.Hbond>
2.8804

> <Gold.Chemscore.Metal>
0.0000

> <Gold.Chemscore.Lipo>
67.6393

> <Gold.Chemscore.Internal_Hbond>
0.0000

> <Gold.Chemscore.DEClash>
0.1366

> <Gold.Chemscore.DEInternal>
1.8181

> <Gold.Chemscore.Rot>
1.7801

> <Gold.Chemscore.Internal.Correction>
   9.000000E+99

> <Gold.Chemscore.Hbonds>
donor molecule, donor type, donor heavy atom, donor atom, acceptor molecule, acceptor atom, score
      L1  H     7    27       P1 10175  0.89
      L1  H    10    28       P1 10175  0.98
      L1  H    14    44       P1  7948  0.92

> <Gold.Chemscore.Hbond.Weighted>
-9.6205

> <Gold.Chemscore.Metal.Weighted>
-0.0000

> <Gold.Chemscore.Lipo.Weighted>
-7.9138

> <Gold.Chemscore.Internal_Hbond.Weighted>
0.0000

> <Gold.Chemscore.DEClash.Weighted>
0.1366

> <Gold.Chemscore.DEInternal.Weighted>
1.8181

> <Gold.Chemscore.Rot.Weighted>
4.5570

> <Gold.Chemscore.Internal.Correction.Weighted>
   9.000000E+99

> <Gold.Protein.RotatedTorsions>
[ 6907 6896 6895 6894 ] final   -4.84 input  -60.11 | X-H torsion
[ 7974 7965 7964 7962 ] final -100.85 input  175.53 | X-H torsion
[ 8008 7997 7996 7995 ] final   47.61 input   59.86 | X-H torsion
[ 10167 10162 10161 10158 ] final -174.87 input  -65.29 | X-H torsion
[ 10718 10713 10712 10709 ] final   62.88 input   66.30 | X-H torsion
[ 10763 10752 10751 10750 ] final   31.23 input  -60.55 | X-H torsion
[ 11005 11000 10999 10996 ] final   15.25 input  -57.11 | X-H torsion

> <Gold.Protein.ActiveResidues>
 VAL166  LYS551  ARG553  GLY616  TRP617  ASP618  TYR619  PRO620  LYS621  CYS622 
 ASP623  PHE694  ASN695  SER759  ASP760  ASP761  ALA762  ILE779  LEU786  VAL792 
 PHE793  MET794  SER795  GLU796  ALA797  LYS798  CYS799  TRP800  GLU811  SER814 

> <Gold.Protein.RotatedAtoms>
  151.4912  135.1057  159.9803 H   0  0  0  0  0  0  0  0  0  0  0  0  # atno 6907 bound_to 6896
  152.4740  133.8091  159.7004 H   0  0  0  0  0  0  0  0  0  0  0  0  # atno 6908 bound_to 6896
  150.8767  133.7367  159.2971 H   0  0  0  0  0  0  0  0  0  0  0  0  # atno 6909 bound_to 6896
  145.2892  140.9348  143.2888 H   0  0  0  0  0  0  0  0  0  0  0  0  # atno 7974 bound_to 7965
  155.3720  140.3424  155.4243 H   0  0  0  0  0  0  0  0  0  0  0  0  # atno 8008 bound_to 7997
  156.1657  140.1615  156.8569 H   0  0  0  0  0  0  0  0  0  0  0  0  # atno 8009 bound_to 7997
  154.5183  140.0773  156.8105 H   0  0  0  0  0  0  0  0  0  0  0  0  # atno 8010 bound_to 7997
  139.5611  144.1869  152.1239 H   0  0  0  0  0  0  0  0  0  0  0  0  # atno 10167 bound_to 10162
  157.5932  130.9075  149.9644 H   0  0  0  0  0  0  0  0  0  0  0  0  # atno 10718 bound_to 10713
  153.0327  135.6444  154.1167 H   0  0  0  0  0  0  0  0  0  0  0  0  # atno 10763 bound_to 10752
  154.0886  135.2868  155.3277 H   0  0  0  0  0  0  0  0  0  0  0  0  # atno 10764 bound_to 10752
  154.6480  135.5436  153.7931 H   0  0  0  0  0  0  0  0  0  0  0  0  # atno 10765 bound_to 10752
  140.4604  134.1133  155.7715 H   0  0  0  0  0  0  0  0  0  0  0  0  # atno 11005 bound_to 11000
  144.9187  139.4438  143.6551 LP  0  0  0  0  0  0  0  0  0  0  0  0  # atno 17320 bound_to 7965
  146.3191  139.8036  142.8960 LP  0  0  0  0  0  0  0  0  0  0  0  0  # atno 17321 bound_to 7965
  140.1382  144.5226  150.6760 LP  0  0  0  0  0  0  0  0  0  0  0  0  # atno 17342 bound_to 10162
  140.6890  143.2365  151.5182 LP  0  0  0  0  0  0  0  0  0  0  0  0  # atno 17343 bound_to 10162
  156.0990  130.3657  150.0253 LP  0  0  0  0  0  0  0  0  0  0  0  0  # atno 17370 bound_to 10713
  156.8371  130.9413  151.3634 LP  0  0  0  0  0  0  0  0  0  0  0  0  # atno 17371 bound_to 10713
  141.1624  133.8768  157.1811 LP  0  0  0  0  0  0  0  0  0  0  0  0  # atno 17394 bound_to 11000
  139.9949  135.0050  157.0060 LP  0  0  0  0  0  0  0  0  0  0  0  0  # atno 17395 bound_to 11000

$$$$
