AV-unprocessed.smi:682|AV-procd|sdf|3326|dock7
  -GOLD-   22720 0293D 1   1.00000     0.00000
 Structure written by MMmdl.
 41 42  0  0  0  0  0  0  0  0  1 V2000
  151.2377  138.6880  154.7495 C   0  0  0  0  0  0  0  0  0  0  0  0
  150.3658  139.6710  154.2048 O   0  0  0  0  0  0  0  0  0  0  0  0
  149.9086  140.7087  155.0825 C   0  0  1  0  0  0  0  0  0  0  0  0
  151.0773  141.2576  155.9110 C   0  0  0  0  0  0  0  0  0  0  0  0
  149.0005  141.6909  154.3184 C   0  0  0  0  0  0  0  0  0  0  0  0
  147.8045  140.7940  154.6454 C   0  0  1  0  0  0  0  0  0  0  0  0
  147.5405  139.8478  153.5611 N   0  0  0  0  0  0  0  0  0  0  0  0
  146.4894  139.0196  153.5080 C   0  0  0  0  0  0  0  0  0  0  0  0
  145.6038  138.9871  154.3624 O   0  0  0  0  0  0  0  0  0  0  0  0
  146.5445  138.2348  152.4202 N   0  0  0  0  0  0  0  0  0  0  0  0
  145.6238  137.2255  152.0437 C   0  0  0  0  0  0  0  0  0  0  0  0
  144.3022  136.9887  152.5171 C   0  0  0  0  0  0  0  0  0  0  0  0
  143.7630  135.9392  151.9146 N   0  0  0  0  0  0  0  0  0  0  0  0
  144.7157  135.4960  151.0591 N   0  0  0  0  0  0  0  0  0  0  0  0
  144.4438  134.3378  150.2347 C   0  0  0  0  0  0  0  0  0  0  0  0
  145.8631  136.2621  151.1106 C   0  0  0  0  0  0  0  0  0  0  0  0
  148.6273  140.2017  155.8220 C   0  0  0  0  0  0  0  0  0  0  0  0
  148.5307  138.6915  156.0960 C   0  0  0  0  0  0  0  0  0  0  0  0
  148.3241  140.8751  157.1688 C   0  0  0  0  0  0  0  0  0  0  0  0
  151.6272  138.0724  153.9388 H   0  0  0  0  0  0  0  0  0  0  0  0
  150.7140  138.0221  155.4349 H   0  0  0  0  0  0  0  0  0  0  0  0
  152.0886  139.1271  155.2691 H   0  0  0  0  0  0  0  0  0  0  0  0
  150.7437  141.9795  156.6557 H   0  0  0  0  0  0  0  0  0  0  0  0
  151.8065  141.7800  155.2923 H   0  0  0  0  0  0  0  0  0  0  0  0
  151.5970  140.4589  156.4404 H   0  0  0  0  0  0  0  0  0  0  0  0
  148.9332  142.6635  154.8083 H   0  0  0  0  0  0  0  0  0  0  0  0
  149.2060  141.8112  153.2548 H   0  0  0  0  0  0  0  0  0  0  0  0
  146.9284  141.3637  154.9610 H   0  0  0  0  0  0  0  0  0  0  0  0
  148.2260  139.8009  152.8214 H   0  0  0  0  0  0  0  0  0  0  0  0
  147.3391  138.3583  151.8100 H   0  0  0  0  0  0  0  0  0  0  0  0
  143.7235  137.5226  153.2561 H   0  0  0  0  0  0  0  0  0  0  0  0
  145.3229  134.0858  149.6408 H   0  0  0  0  0  0  0  0  0  0  0  0
  143.6107  134.5498  149.5640 H   0  0  0  0  0  0  0  0  0  0  0  0
  144.1875  133.4868  150.8665 H   0  0  0  0  0  0  0  0  0  0  0  0
  146.7280  136.0570  150.4969 H   0  0  0  0  0  0  0  0  0  0  0  0
  147.5402  138.4155  156.4589 H   0  0  0  0  0  0  0  0  0  0  0  0
  149.2554  138.3769  156.8475 H   0  0  0  0  0  0  0  0  0  0  0  0
  148.7180  138.0882  155.2080 H   0  0  0  0  0  0  0  0  0  0  0  0
  147.3263  140.6183  157.5260 H   0  0  0  0  0  0  0  0  0  0  0  0
  148.3629  141.9623  157.0999 H   0  0  0  0  0  0  0  0  0  0  0  0
  149.0340  140.5740  157.9398 H   0  0  0  0  0  0  0  0  0  0  0  0
  1  2  1  0  0  0  0
  1 20  1  0  0  0  0
  1 21  1  0  0  0  0
  1 22  1  0  0  0  0
  2  3  1  0  0  0  0
  3 17  1  0  0  0  0
  3  4  1  0  0  0  0
  3  5  1  0  0  0  0
  4 23  1  0  0  0  0
  4 24  1  0  0  0  0
  4 25  1  0  0  0  0
  5  6  1  0  0  0  0
  5 26  1  0  0  0  0
  5 27  1  0  0  0  0
  6  7  1  0  0  0  0
  6 17  1  0  0  0  0
  6 28  1  0  0  0  0
  7  8  1  0  0  0  0
  7 29  1  0  0  0  0
  8  9  2  0  0  0  0
  8 10  1  0  0  0  0
 10 11  1  0  0  0  0
 10 30  1  0  0  0  0
 11 16  2  0  0  0  0
 11 12  1  0  0  0  0
 12 13  2  0  0  0  0
 12 31  1  0  0  0  0
 13 14  1  0  0  0  0
 14 15  1  0  0  0  0
 14 16  1  0  0  0  0
 15 32  1  0  0  0  0
 15 33  1  0  0  0  0
 15 34  1  0  0  0  0
 16 35  1  0  0  0  0
 17 18  1  0  0  0  0
 17 19  1  0  0  0  0
 18 36  1  0  0  0  0
 18 37  1  0  0  0  0
 18 38  1  0  0  0  0
 19 39  1  0  0  0  0
 19 40  1  0  0  0  0
 19 41  1  0  0  0  0
M  END
> <s_m_source_file>
AV-unprocessed.smi

> <i_m_source_file_index>
682

> <i_lp_mmshare_version>
43012

> <i_f3d_flags>
0

> <s_epik_input>
W0NIM11PW0NAQF0xKFtDSDNdKVtDSDJdW0NASF0oQzEoW0NIM10pW0NIM10pW05IXUMoPU8pW05IXWMyW2NIXW5uKFtDSDNdKVtjSF0y

> <s_epik_cmdline>
J2VwaWtfcHl0aG9uJywgJy1waCcsICc3LjAnLCAnLXRuJywgJzgnLCAnLW1hJywgJzIwMCcsICctbWV0YWxfYmluZGluZycsICctaW1hZScsICc8aW5maWxlLm1hZT4nLCAnLW9tYWUnLCAnPG91dGZpbGUubWFlPic=

> <r_lp_tautomer_probability>
1

> <r_epik_Ionization_Penalty>
0.000192302

> <r_epik_Ionization_Penalty_Charging>
0

> <r_epik_Ionization_Penalty_Neutral>
0.000192302

> <r_epik_State_Penalty>
-0

> <r_epik_Charging_Adjusted_Penalty>
0

> <i_epik_Tot_Q>
0

> <i_epik_Tot_abs_Q>
0

> <r_epik_Metal_State_Penalty>
-0

> <b_epik_Metal_Only>
0

> <s_lp_Force_Field>
OPLS_2005

> <r_lp_Energy>
26.143

> <b_lp_Chiralities_Consistent>
1

> <s_lp_Variant>
AV-unprocessed.smi:682-1

> <Gold.Version>
5.8.1

> <Gold.Id.Protein>
6NUR|6NUR_protein|mol2

> <Gold.PLP.Fitness>
33.5445

> <Gold.PLP.PLP>
-28.6159

> <Gold.PLP.part.hbond>
-2.1816

> <Gold.PLP.part.metal>
0.0000

> <Gold.PLP.part.buried>
-0.1743

> <Gold.PLP.part.nonpolar>
-25.5288

> <Gold.PLP.part.repulsive>
0.6441

> <Gold.PLP.ligand.clash>
0.0000

> <Gold.PLP.ligand.torsion>
0.4656

> <Gold.PLP.Chemscore.Hbond>
1.1500

> <Gold.PLP.Chemscore.CHOScore>
0.6751

> <Gold.PLP.Chemscore.Metal>
0.0000

> <Gold.Chemscore.Hbonds>
donor molecule, donor type, donor heavy atom, donor atom, acceptor molecule, acceptor atom, score
      L1  H     7    29       P1  7957  0.67
      P1  H  7989  7998       L1     2  0.50
      L1  C    16    35       P1  7948  0.63

> <Gold.PLP.Chemscore.Internal.Correction>
0.3846

> <Gold.Rescore>
     Score         DG    S(hbond)    S(metal)    S(lipo)     H(rot)  DE(clash)    DE(int)     intcor
     12.05     -13.78       1.10        0.00      66.39       1.23       0.19       1.54       ----

> <Gold.Chemscore.Fitness>
12.0487

> <Gold.Chemscore.DG>
-13.7769

> <Gold.Chemscore.ZeroCoef>
-5.4800

> <Gold.Chemscore.Hbond>
1.1040

> <Gold.Chemscore.Metal>
0.0000

> <Gold.Chemscore.Lipo>
66.3890

> <Gold.Chemscore.Internal_Hbond>
0.0000

> <Gold.Chemscore.DEClash>
0.1905

> <Gold.Chemscore.DEInternal>
1.5377

> <Gold.Chemscore.Rot>
1.2336

> <Gold.Chemscore.Internal.Correction>
   9.000000E+99

> <Gold.Chemscore.Hbonds>
donor molecule, donor type, donor heavy atom, donor atom, acceptor molecule, acceptor atom, score
      L1  H     7    29       P1  7957  0.67
      P1  H  7989  7998       L1     2  0.01

> <Gold.Chemscore.Hbond.Weighted>
-3.6875

> <Gold.Chemscore.Metal.Weighted>
-0.0000

> <Gold.Chemscore.Lipo.Weighted>
-7.7675

> <Gold.Chemscore.Internal_Hbond.Weighted>
0.0000

> <Gold.Chemscore.DEClash.Weighted>
0.1905

> <Gold.Chemscore.DEInternal.Weighted>
1.5377

> <Gold.Chemscore.Rot.Weighted>
3.1581

> <Gold.Chemscore.Internal.Correction.Weighted>
   9.000000E+99

> <Gold.Protein.RotatedTorsions>
[ 6907 6896 6895 6894 ] final  -55.16 input  -60.11 | X-H torsion
[ 7974 7965 7964 7962 ] final  136.64 input  175.53 | X-H torsion
[ 8008 7997 7996 7995 ] final  109.17 input   59.86 | X-H torsion
[ 10167 10162 10161 10158 ] final  140.10 input  -65.29 | X-H torsion
[ 10718 10713 10712 10709 ] final -158.46 input   66.30 | X-H torsion
[ 10763 10752 10751 10750 ] final   72.59 input  -60.55 | X-H torsion
[ 11005 11000 10999 10996 ] final   75.51 input  -57.11 | X-H torsion

> <Gold.Protein.ActiveResidues>
 VAL166  LYS551  ARG553  GLY616  TRP617  ASP618  TYR619  PRO620  LYS621  CYS622 
 ASP623  PHE694  ASN695  SER759  ASP760  ASP761  ALA762  ILE779  LEU786  VAL792 
 PHE793  MET794  SER795  GLU796  ALA797  LYS798  CYS799  TRP800  GLU811  SER814 

> <Gold.Protein.RotatedAtoms>
  150.8275  134.7513  159.6825 H   0  0  0  0  0  0  0  0  0  0  0  0  # atno 6907 bound_to 6896
  152.4384  134.5637  159.9911 H   0  0  0  0  0  0  0  0  0  0  0  0  # atno 6908 bound_to 6896
  151.5805  133.3341  159.3043 H   0  0  0  0  0  0  0  0  0  0  0  0  # atno 6909 bound_to 6896
  144.9545  139.4781  143.5510 H   0  0  0  0  0  0  0  0  0  0  0  0  # atno 7974 bound_to 7965
  156.1959  140.3063  155.9426 H   0  0  0  0  0  0  0  0  0  0  0  0  # atno 8008 bound_to 7997
  155.3067  140.0449  157.3049 H   0  0  0  0  0  0  0  0  0  0  0  0  # atno 8009 bound_to 7997
  154.5509  140.2291  155.8496 H   0  0  0  0  0  0  0  0  0  0  0  0  # atno 8010 bound_to 7997
  139.5059  144.6255  151.5948 H   0  0  0  0  0  0  0  0  0  0  0  0  # atno 10167 bound_to 10162
  156.5545  130.8620  151.2790 H   0  0  0  0  0  0  0  0  0  0  0  0  # atno 10718 bound_to 10713
  153.0468  135.5094  154.7766 H   0  0  0  0  0  0  0  0  0  0  0  0  # atno 10763 bound_to 10752
  154.6660  135.2945  154.9807 H   0  0  0  0  0  0  0  0  0  0  0  0  # atno 10764 bound_to 10752
  154.0642  135.6686  153.4868 H   0  0  0  0  0  0  0  0  0  0  0  0  # atno 10765 bound_to 10752
  139.9340  134.7523  156.1280 H   0  0  0  0  0  0  0  0  0  0  0  0  # atno 11005 bound_to 11000
  146.3332  139.8653  142.8849 LP  0  0  0  0  0  0  0  0  0  0  0  0  # atno 17320 bound_to 7965
  145.2794  141.0134  143.3726 LP  0  0  0  0  0  0  0  0  0  0  0  0  # atno 17321 bound_to 7965
  140.5970  143.9678  150.6361 LP  0  0  0  0  0  0  0  0  0  0  0  0  # atno 17342 bound_to 10162
  140.2877  143.3345  152.1092 LP  0  0  0  0  0  0  0  0  0  0  0  0  # atno 17343 bound_to 10162
  157.7381  130.9807  150.2232 LP  0  0  0  0  0  0  0  0  0  0  0  0  # atno 17370 bound_to 10713
  156.2855  130.3739  149.7893 LP  0  0  0  0  0  0  0  0  0  0  0  0  # atno 17371 bound_to 10713
  141.0945  133.6701  156.2614 LP  0  0  0  0  0  0  0  0  0  0  0  0  # atno 17394 bound_to 11000
  140.6124  134.5445  157.5535 LP  0  0  0  0  0  0  0  0  0  0  0  0  # atno 17395 bound_to 11000

$$$$
