AV-unprocessed.smi:1709|AV-procd|sdf|6893|dock8
  -GOLD-   22720 8 93D 1   1.00000     0.00000
 Structure written by MMmdl.
 43 45  0  0  0  0  0  0  0  0  2 V2000
  149.8582  138.7641  154.1374 C   0  0  0  0  0  0  0  0  0  0  0  0
  150.8996  138.1894  155.0851 C   0  0  0  0  0  0  0  0  0  0  0  0
  151.7652  139.0694  155.7688 C   0  0  0  0  0  0  0  0  0  0  0  0
  152.7290  138.5413  156.6441 C   0  0  0  0  0  0  0  0  0  0  0  0
  152.7865  137.1464  156.7993 C   0  0  0  0  0  0  0  0  0  0  0  0
  151.9638  136.2986  156.1487 N   0  0  0  0  0  0  0  0  0  0  0  0
  151.0244  136.7897  155.2994 C   0  0  0  0  0  0  0  0  0  0  0  0
  150.1159  135.9660  154.5642 N   0  0  0  0  0  0  0  0  0  0  0  0
  149.5145  134.7952  154.8659 C   0  0  0  0  0  0  0  0  0  0  0  0
  149.7073  134.2440  155.9482 O   0  0  0  0  0  0  0  0  0  0  0  0
  148.7026  134.2824  153.9273 N   0  0  0  0  0  0  0  0  0  0  0  0
  147.9217  133.0569  154.0553 C   0  0  2  0  0  0  0  0  0  0  0  0
  148.7981  131.8009  154.2042 C   0  0  0  0  0  0  0  0  0  0  0  0
  148.0788  130.7020  153.3969 C   0  0  0  0  0  0  0  0  0  0  0  0
  146.8260  131.3211  152.9233 N   0  3  2  0  0  0  0  0  0  0  0  0
  146.2057  130.7452  151.7103 C   0  0  0  0  0  0  0  0  0  0  0  0
  144.8740  131.4694  151.4278 C   0  0  0  0  0  0  0  0  0  0  0  0
  145.0572  132.9996  151.3603 C   0  0  0  0  0  0  0  0  0  0  0  0
  145.7916  133.5278  152.6078 C   0  0  0  0  0  0  0  0  0  0  0  0
  147.1100  132.7581  152.7931 C   0  0  1  0  0  0  0  0  0  0  0  0
  149.9274  139.8510  154.0825 H   0  0  0  0  0  0  0  0  0  0  0  0
  148.8532  138.5092  154.4747 H   0  0  0  0  0  0  0  0  0  0  0  0
  149.9974  138.3696  153.1304 H   0  0  0  0  0  0  0  0  0  0  0  0
  151.6940  140.1377  155.6256 H   0  0  0  0  0  0  0  0  0  0  0  0
  153.4061  139.1887  157.1815 H   0  0  0  0  0  0  0  0  0  0  0  0
  153.5121  136.6980  157.4619 H   0  0  0  0  0  0  0  0  0  0  0  0
  149.9233  136.2997  153.6311 H   0  0  0  0  0  0  0  0  0  0  0  0
  148.6042  134.7999  153.0648 H   0  0  0  0  0  0  0  0  0  0  0  0
  147.2519  133.1125  154.9162 H   0  0  0  0  0  0  0  0  0  0  0  0
  149.7974  131.9616  153.7966 H   0  0  0  0  0  0  0  0  0  0  0  0
  148.9137  131.5246  155.2528 H   0  0  0  0  0  0  0  0  0  0  0  0
  148.6936  130.3997  152.5477 H   0  0  0  0  0  0  0  0  0  0  0  0
  147.8691  129.8154  153.9961 H   0  0  0  0  0  0  0  0  0  0  0  0
  146.8835  130.8469  150.8614 H   0  0  0  0  0  0  0  0  0  0  0  0
  146.0307  129.6792  151.8590 H   0  0  0  0  0  0  0  0  0  0  0  0
  144.4397  131.1035  150.4967 H   0  0  0  0  0  0  0  0  0  0  0  0
  144.1589  131.2286  152.2155 H   0  0  0  0  0  0  0  0  0  0  0  0
  145.6291  133.2569  150.4677 H   0  0  0  0  0  0  0  0  0  0  0  0
  144.0888  133.4902  151.2584 H   0  0  0  0  0  0  0  0  0  0  0  0
  145.9861  134.5951  152.5000 H   0  0  0  0  0  0  0  0  0  0  0  0
  145.1599  133.4113  153.4896 H   0  0  0  0  0  0  0  0  0  0  0  0
  147.7444  132.9087  151.9161 H   0  0  0  0  0  0  0  0  0  0  0  0
  146.1584  131.2309  153.6758 H   0  0  0  0  0  0  0  0  0  0  0  0
  1  2  1  0  0  0  0
  1 21  1  0  0  0  0
  1 22  1  0  0  0  0
  1 23  1  0  0  0  0
  2  7  1  0  0  0  0
  2  3  2  0  0  0  0
  3  4  1  0  0  0  0
  3 24  1  0  0  0  0
  4  5  2  0  0  0  0
  4 25  1  0  0  0  0
  5  6  1  0  0  0  0
  5 26  1  0  0  0  0
  6  7  2  0  0  0  0
  7  8  1  0  0  0  0
  8  9  1  0  0  0  0
  8 27  1  0  0  0  0
  9 10  2  0  0  0  0
  9 11  1  0  0  0  0
 11 12  1  0  0  0  0
 11 28  1  0  0  0  0
 12 20  1  0  0  0  0
 12 13  1  0  0  0  0
 12 29  1  0  0  0  0
 13 14  1  0  0  0  0
 13 30  1  0  0  0  0
 13 31  1  0  0  0  0
 14 15  1  0  0  0  0
 14 32  1  0  0  0  0
 14 33  1  0  0  0  0
 15 20  1  0  0  0  0
 15 16  1  0  0  0  0
 15 43  1  0  0  0  0
 16 17  1  0  0  0  0
 16 34  1  0  0  0  0
 16 35  1  0  0  0  0
 17 18  1  0  0  0  0
 17 36  1  0  0  0  0
 17 37  1  0  0  0  0
 18 19  1  0  0  0  0
 18 38  1  0  0  0  0
 18 39  1  0  0  0  0
 19 20  1  0  0  0  0
 19 40  1  0  0  0  0
 19 41  1  0  0  0  0
 20 42  1  0  0  0  0
M  CHG  1  15   1
M  END
> <s_m_source_file>
AV-unprocessed.smi

> <i_m_source_file_index>
1709

> <i_lp_mmshare_version>
43012

> <i_f3d_flags>
0

> <s_epik_input>
W0NIM11jMVtjSF1bY0hdW2NIXW5jMVtOSF1DKD1PKVtOSF1bQ0BIXShbQ0gyXVtDSDJdMilbQ0BASF0oTjIzKVtDSDJdW0NIMl1bQ0gyXVtDSDJdMw==

> <s_epik_cmdline>
J2VwaWtfcHl0aG9uJywgJy1waCcsICc3LjAnLCAnLXRuJywgJzgnLCAnLW1hJywgJzIwMCcsICctbWV0YWxfYmluZGluZycsICctaW1hZScsICc8aW5maWxlLm1hZT4nLCAnLW9tYWUnLCAnPG91dGZpbGUubWFlPic=

> <r_epik_Ionization_Penalty>
0.00101524

> <r_epik_Ionization_Penalty_Charging>
0.000974069

> <r_epik_Ionization_Penalty_Neutral>
4.11757e-05

> <r_epik_State_Penalty>
0.000633842

> <r_epik_Charging_Adjusted_Penalty>
0.00160791

> <i_epik_Tot_Q>
1

> <i_epik_Tot_abs_Q>
1

> <r_epik_Metal_State_Penalty>
-0

> <b_epik_Metal_Only>
0

> <s_lp_Force_Field>
OPLS_2005

> <r_lp_Energy>
38.5282

> <b_lp_Chiralities_Consistent>
1

> <s_lp_Variant>
AV-unprocessed.smi:1709-3

> <Gold.Version>
5.8.1

> <Gold.Id.Protein>
6NUR|6NUR_protein|mol2

> <Gold.PLP.Fitness>
39.3535

> <Gold.PLP.PLP>
-31.1253

> <Gold.PLP.part.hbond>
-3.3162

> <Gold.PLP.part.metal>
0.0000

> <Gold.PLP.part.buried>
-2.7117

> <Gold.PLP.part.nonpolar>
-25.5112

> <Gold.PLP.part.repulsive>
0.0938

> <Gold.PLP.ligand.clash>
0.0000

> <Gold.PLP.ligand.torsion>
0.2409

> <Gold.PLP.Chemscore.Hbond>
2.9000

> <Gold.PLP.Chemscore.CHOScore>
0.0000

> <Gold.PLP.Chemscore.Metal>
0.0000

> <Gold.Chemscore.Hbonds>
donor molecule, donor type, donor heavy atom, donor atom, acceptor molecule, acceptor atom, score
      L1  H     8    27       P1  7948  0.85
      L1  H    11    28       P1  7948  1.00
      P1  H 10752 10764       L1     6  1.00

> <Gold.PLP.Chemscore.Internal.Correction>
0.0100

> <Gold.Rescore>
     Score         DG    S(hbond)    S(metal)    S(lipo)     H(rot)  DE(clash)    DE(int)     intcor
     18.25     -18.63       2.07        0.00      75.10       1.00       0.01       0.37       ----

> <Gold.Chemscore.Fitness>
18.2526

> <Gold.Chemscore.DG>
-18.6280

> <Gold.Chemscore.ZeroCoef>
-5.4800

> <Gold.Chemscore.Hbond>
2.0721

> <Gold.Chemscore.Metal>
0.0000

> <Gold.Chemscore.Lipo>
75.1033

> <Gold.Chemscore.Internal_Hbond>
0.0000

> <Gold.Chemscore.DEClash>
0.0098

> <Gold.Chemscore.DEInternal>
0.3656

> <Gold.Chemscore.Rot>
1.0000

> <Gold.Chemscore.Internal.Correction>
   9.000000E+99

> <Gold.Chemscore.Hbonds>
donor molecule, donor type, donor heavy atom, donor atom, acceptor molecule, acceptor atom, score
      L1  H     8    27       P1  7948  0.14
      L1  H    11    28       P1  7948  0.39
      P1  H 10752 10764       L1     6  0.10

> <Gold.Chemscore.Hbond.Weighted>
-6.9209

> <Gold.Chemscore.Metal.Weighted>
-0.0000

> <Gold.Chemscore.Lipo.Weighted>
-8.7871

> <Gold.Chemscore.Internal_Hbond.Weighted>
0.0000

> <Gold.Chemscore.DEClash.Weighted>
0.0098

> <Gold.Chemscore.DEInternal.Weighted>
0.3656

> <Gold.Chemscore.Rot.Weighted>
2.5600

> <Gold.Chemscore.Internal.Correction.Weighted>
   9.000000E+99

> <Gold.Protein.RotatedTorsions>
[ 6907 6896 6895 6894 ] final -121.10 input  -60.11 | X-H torsion
[ 7974 7965 7964 7962 ] final  -85.35 input  175.53 | X-H torsion
[ 8008 7997 7996 7995 ] final  -45.30 input   59.86 | X-H torsion
[ 10167 10162 10161 10158 ] final  110.58 input  -65.29 | X-H torsion
[ 10718 10713 10712 10709 ] final  140.70 input   66.30 | X-H torsion
[ 10763 10752 10751 10750 ] final  -35.45 input  -60.55 | X-H torsion
[ 11005 11000 10999 10996 ] final -160.93 input  -57.11 | X-H torsion

> <Gold.Protein.ActiveResidues>
 VAL166  LYS551  ARG553  GLY616  TRP617  ASP618  TYR619  PRO620  LYS621  CYS622 
 ASP623  PHE694  ASN695  SER759  ASP760  ASP761  ALA762  ILE779  LEU786  VAL792 
 PHE793  MET794  SER795  GLU796  ALA797  LYS798  CYS799  TRP800  GLU811  SER814 

> <Gold.Protein.RotatedAtoms>
  150.8452  133.7872  159.3045 H   0  0  0  0  0  0  0  0  0  0  0  0  # atno 6907 bound_to 6896
  151.5561  135.1065  159.9971 H   0  0  0  0  0  0  0  0  0  0  0  0  # atno 6908 bound_to 6896
  152.4508  133.7582  159.6788 H   0  0  0  0  0  0  0  0  0  0  0  0  # atno 6909 bound_to 6896
  145.4945  140.9551  143.1794 H   0  0  0  0  0  0  0  0  0  0  0  0  # atno 7974 bound_to 7965
  154.4000  140.1400  156.3824 H   0  0  0  0  0  0  0  0  0  0  0  0  # atno 8008 bound_to 7997
  155.7991  140.3476  155.5372 H   0  0  0  0  0  0  0  0  0  0  0  0  # atno 8009 bound_to 7997
  155.8502  140.0940  157.1670 H   0  0  0  0  0  0  0  0  0  0  0  0  # atno 8010 bound_to 7997
  139.6677  144.7127  151.1746 H   0  0  0  0  0  0  0  0  0  0  0  0  # atno 10167 bound_to 10162
  157.4003  131.1016  151.0558 H   0  0  0  0  0  0  0  0  0  0  0  0  # atno 10718 bound_to 10713
  153.8634  135.6838  153.4781 H   0  0  0  0  0  0  0  0  0  0  0  0  # atno 10763 bound_to 10752
  153.1328  135.4690  154.9374 H   0  0  0  0  0  0  0  0  0  0  0  0  # atno 10764 bound_to 10752
  154.7748  135.3250  154.8065 H   0  0  0  0  0  0  0  0  0  0  0  0  # atno 10765 bound_to 10752
  140.6260  134.4700  157.5227 H   0  0  0  0  0  0  0  0  0  0  0  0  # atno 11005 bound_to 11000
  144.7815  139.6516  143.7152 LP  0  0  0  0  0  0  0  0  0  0  0  0  # atno 17320 bound_to 7965
  146.2264  139.5731  142.9584 LP  0  0  0  0  0  0  0  0  0  0  0  0  # atno 17321 bound_to 7965
  140.7606  143.5893  150.8812 LP  0  0  0  0  0  0  0  0  0  0  0  0  # atno 17342 bound_to 10162
  139.9556  143.6222  152.3017 LP  0  0  0  0  0  0  0  0  0  0  0  0  # atno 17343 bound_to 10162
  157.1559  130.6204  149.5596 LP  0  0  0  0  0  0  0  0  0  0  0  0  # atno 17370 bound_to 10713
  155.9821  130.4833  150.6865 LP  0  0  0  0  0  0  0  0  0  0  0  0  # atno 17371 bound_to 10713
  139.9134  134.8296  156.1448 LP  0  0  0  0  0  0  0  0  0  0  0  0  # atno 17394 bound_to 11000
  141.0709  133.6797  156.2138 LP  0  0  0  0  0  0  0  0  0  0  0  0  # atno 17395 bound_to 11000

$$$$
