AV-unprocessed.smi:3303|AV-procd|sdf|12696|dock8
  -GOLD-   2272019 33D 1   1.00000     0.00000
 Structure written by MMmdl.
 44 45  0  0  0  0  0  0  0  0  2 V2000
  152.6356  138.5483  154.9943 C   0  0  0  0  0  0  0  0  0  0  0  0
  151.2350  138.0468  154.6008 C   0  0  1  0  0  0  0  0  0  0  0  0
  151.1441  136.5217  154.8079 C   0  0  0  0  0  0  0  0  0  0  0  0
  149.8116  135.9798  154.4357 N   0  3  1  0  0  0  0  0  0  0  0  0
  149.8076  134.4976  154.4896 C   0  0  0  0  0  0  0  0  0  0  0  0
  148.7143  136.6208  155.2190 C   0  0  2  0  0  0  0  0  0  0  0  0
  147.3193  136.0824  154.8437 C   0  0  0  0  0  0  0  0  0  0  0  0
  148.7485  138.1483  155.0188 C   0  0  0  0  0  0  0  0  0  0  0  0
  150.1116  138.7548  155.3895 C   0  0  2  0  0  0  0  0  0  0  0  0
  150.0651  140.1703  155.0408 N   0  0  0  0  0  0  0  0  0  0  0  0
  150.9989  140.9429  155.8455 C   0  0  0  0  0  0  0  0  0  0  0  0
  150.2244  141.9337  156.7252 C   0  0  0  0  0  0  0  0  0  0  0  0
  151.1386  142.7146  157.6497 C   0  0  0  0  0  0  0  0  0  0  0  0
  151.8625  142.0606  158.6697 C   0  0  0  0  0  0  0  0  0  0  0  0
  152.6963  142.8333  159.5011 C   0  0  0  0  0  0  0  0  0  0  0  0
  152.7729  144.2224  159.2829 C   0  0  0  0  0  0  0  0  0  0  0  0
  152.0082  144.7799  158.2387 C   0  0  0  0  0  0  0  0  0  0  0  0
  151.2059  144.0481  157.4355 N   0  0  0  0  0  0  0  0  0  0  0  0
  152.8232  138.4088  156.0596 H   0  0  0  0  0  0  0  0  0  0  0  0
  152.7591  139.6081  154.7706 H   0  0  0  0  0  0  0  0  0  0  0  0
  153.4122  138.0130  154.4472 H   0  0  0  0  0  0  0  0  0  0  0  0
  151.0948  138.2476  153.5370 H   0  0  0  0  0  0  0  0  0  0  0  0
  151.9102  136.0343  154.2031 H   0  0  0  0  0  0  0  0  0  0  0  0
  151.3581  136.2685  155.8478 H   0  0  0  0  0  0  0  0  0  0  0  0
  149.8517  134.1432  155.5203 H   0  0  0  0  0  0  0  0  0  0  0  0
  150.6642  134.0874  153.9537 H   0  0  0  0  0  0  0  0  0  0  0  0
  148.9184  134.0818  154.0169 H   0  0  0  0  0  0  0  0  0  0  0  0
  148.8840  136.4077  156.2759 H   0  0  0  0  0  0  0  0  0  0  0  0
  146.5367  136.6392  155.3600 H   0  0  0  0  0  0  0  0  0  0  0  0
  147.1927  135.0379  155.1273 H   0  0  0  0  0  0  0  0  0  0  0  0
  147.1322  136.1695  153.7729 H   0  0  0  0  0  0  0  0  0  0  0  0
  148.5112  138.3788  153.9785 H   0  0  0  0  0  0  0  0  0  0  0  0
  147.9685  138.6152  155.6222 H   0  0  0  0  0  0  0  0  0  0  0  0
  150.2756  138.6186  156.4603 H   0  0  0  0  0  0  0  0  0  0  0  0
  149.1315  140.5269  155.1880 H   0  0  0  0  0  0  0  0  0  0  0  0
  151.5857  140.2676  156.4699 H   0  0  0  0  0  0  0  0  0  0  0  0
  151.6928  141.4794  155.1974 H   0  0  0  0  0  0  0  0  0  0  0  0
  149.6667  142.6319  156.0994 H   0  0  0  0  0  0  0  0  0  0  0  0
  149.4856  141.4036  157.3287 H   0  0  0  0  0  0  0  0  0  0  0  0
  151.7826  140.9929  158.8130 H   0  0  0  0  0  0  0  0  0  0  0  0
  153.2666  142.3690  160.2922 H   0  0  0  0  0  0  0  0  0  0  0  0
  153.4016  144.8461  159.9011 H   0  0  0  0  0  0  0  0  0  0  0  0
  152.0413  145.8417  158.0438 H   0  0  0  0  0  0  0  0  0  0  0  0
  149.6624  136.2300  153.4685 H   0  0  0  0  0  0  0  0  0  0  0  0
  1  2  1  0  0  0  0
  1 19  1  0  0  0  0
  1 20  1  0  0  0  0
  1 21  1  0  0  0  0
  2  9  1  0  0  0  0
  2  3  1  0  0  0  0
  2 22  1  0  0  0  0
  3  4  1  0  0  0  0
  3 23  1  0  0  0  0
  3 24  1  0  0  0  0
  4  5  1  0  0  0  0
  4  6  1  0  0  0  0
  4 44  1  0  0  0  0
  5 25  1  0  0  0  0
  5 26  1  0  0  0  0
  5 27  1  0  0  0  0
  6  7  1  0  0  0  0
  6  8  1  0  0  0  0
  6 28  1  0  0  0  0
  7 29  1  0  0  0  0
  7 30  1  0  0  0  0
  7 31  1  0  0  0  0
  8  9  1  0  0  0  0
  8 32  1  0  0  0  0
  8 33  1  0  0  0  0
  9 10  1  0  0  0  0
  9 34  1  0  0  0  0
 10 11  1  0  0  0  0
 10 35  1  0  0  0  0
 11 12  1  0  0  0  0
 11 36  1  0  0  0  0
 11 37  1  0  0  0  0
 12 13  1  0  0  0  0
 12 38  1  0  0  0  0
 12 39  1  0  0  0  0
 13 18  1  0  0  0  0
 13 14  2  0  0  0  0
 14 15  1  0  0  0  0
 14 40  1  0  0  0  0
 15 16  2  0  0  0  0
 15 41  1  0  0  0  0
 16 17  1  0  0  0  0
 16 42  1  0  0  0  0
 17 18  2  0  0  0  0
 17 43  1  0  0  0  0
M  CHG  1   4   1
M  END
> <s_m_source_file>
AV-unprocessed.smi

> <i_m_source_file_index>
3303

> <i_lp_mmshare_version>
43012

> <i_f3d_flags>
0

> <s_epik_input>
W0NIM11bQ0BASF0xW0NIMl1OKFtDSDNdKVtDQEBIXShbQ0gzXSlbQ0gyXVtDQEhdMVtOSF1bQ0gyXVtDSDJdYzJbY0hdW2NIXVtjSF1bY0hdbjI=

> <s_epik_cmdline>
J2VwaWtfcHl0aG9uJywgJy1waCcsICc3LjAnLCAnLXRuJywgJzgnLCAnLW1hJywgJzIwMCcsICctbWV0YWxfYmluZGluZycsICctaW1hZScsICc8aW5maWxlLm1hZT4nLCAnLW9tYWUnLCAnPG91dGZpbGUubWFlPic=

> <r_epik_Ionization_Penalty>
2.31085

> <r_epik_Ionization_Penalty_Charging>
0.000313057

> <r_epik_Ionization_Penalty_Neutral>
2.31054

> <r_epik_State_Penalty>
2.4087

> <r_epik_Charging_Adjusted_Penalty>
2.40902

> <i_epik_Tot_Q>
1

> <i_epik_Tot_abs_Q>
1

> <r_epik_Metal_State_Penalty>
2.30979

> <b_epik_Metal_Only>
0

> <s_lp_Force_Field>
OPLS_2005

> <r_lp_Energy>
23.6085

> <b_lp_Chiralities_Consistent>
1

> <s_lp_Variant>
AV-unprocessed.smi:3303-40

> <Gold.Version>
5.8.1

> <Gold.Id.Protein>
6NUR|6NUR_protein|mol2

> <Gold.PLP.Fitness>
40.3650

> <Gold.PLP.PLP>
-35.7213

> <Gold.PLP.part.hbond>
-1.3489

> <Gold.PLP.part.metal>
0.0000

> <Gold.PLP.part.buried>
-3.1073

> <Gold.PLP.part.nonpolar>
-32.2225

> <Gold.PLP.part.repulsive>
0.3666

> <Gold.PLP.ligand.clash>
0.0000

> <Gold.PLP.ligand.torsion>
0.6866

> <Gold.PLP.Chemscore.Hbond>
2.0000

> <Gold.PLP.Chemscore.CHOScore>
0.0000

> <Gold.PLP.Chemscore.Metal>
0.0000

> <Gold.Chemscore.Hbonds>
donor molecule, donor type, donor heavy atom, donor atom, acceptor molecule, acceptor atom, score
      L1  H     4    44       P1  7948  2.00

> <Gold.PLP.Chemscore.Internal.Correction>
0.0168

> <Gold.Rescore>
     Score         DG    S(hbond)    S(metal)    S(lipo)     H(rot)  DE(clash)    DE(int)     intcor
     16.71     -18.27       0.97        0.00     110.69       1.33       0.08       1.48       ----

> <Gold.Chemscore.Fitness>
16.7108

> <Gold.Chemscore.DG>
-18.2670

> <Gold.Chemscore.ZeroCoef>
-5.4800

> <Gold.Chemscore.Hbond>
0.9683

> <Gold.Chemscore.Metal>
0.0000

> <Gold.Chemscore.Lipo>
110.6867

> <Gold.Chemscore.Internal_Hbond>
0.0000

> <Gold.Chemscore.DEClash>
0.0778

> <Gold.Chemscore.DEInternal>
1.4783

> <Gold.Chemscore.Rot>
1.3272

> <Gold.Chemscore.Internal.Correction>
   9.000000E+99

> <Gold.Chemscore.Hbonds>
donor molecule, donor type, donor heavy atom, donor atom, acceptor molecule, acceptor atom, score
      L1  H     4    44       P1  7948  0.30

> <Gold.Chemscore.Hbond.Weighted>
-3.2343

> <Gold.Chemscore.Metal.Weighted>
-0.0000

> <Gold.Chemscore.Lipo.Weighted>
-12.9503

> <Gold.Chemscore.Internal_Hbond.Weighted>
0.0000

> <Gold.Chemscore.DEClash.Weighted>
0.0778

> <Gold.Chemscore.DEInternal.Weighted>
1.4783

> <Gold.Chemscore.Rot.Weighted>
3.3976

> <Gold.Chemscore.Internal.Correction.Weighted>
   9.000000E+99

> <Gold.Protein.RotatedTorsions>
[ 6907 6896 6895 6894 ] final   17.03 input  -60.11 | X-H torsion
[ 7974 7965 7964 7962 ] final  -53.23 input  175.53 | X-H torsion
[ 8008 7997 7996 7995 ] final  -78.18 input   59.86 | X-H torsion
[ 10167 10162 10161 10158 ] final  -25.27 input  -65.29 | X-H torsion
[ 10718 10713 10712 10709 ] final   33.60 input   66.30 | X-H torsion
[ 10763 10752 10751 10750 ] final  168.37 input  -60.55 | X-H torsion
[ 11005 11000 10999 10996 ] final   51.87 input  -57.11 | X-H torsion

> <Gold.Protein.ActiveResidues>
 VAL166  LYS551  ARG553  GLY616  TRP617  ASP618  TYR619  PRO620  LYS621  CYS622 
 ASP623  PHE694  ASN695  SER759  ASP760  ASP761  ALA762  ILE779  LEU786  VAL792 
 PHE793  MET794  SER795  GLU796  ALA797  LYS798  CYS799  TRP800  GLU811  SER814 

> <Gold.Protein.RotatedAtoms>
  151.8431  135.0583  160.0450 H   0  0  0  0  0  0  0  0  0  0  0  0  # atno 6907 bound_to 6896
  152.2793  133.5451  159.5496 H   0  0  0  0  0  0  0  0  0  0  0  0  # atno 6908 bound_to 6896
  150.7183  134.0502  159.3838 H   0  0  0  0  0  0  0  0  0  0  0  0  # atno 6909 bound_to 6896
  145.8992  140.8008  142.9752 H   0  0  0  0  0  0  0  0  0  0  0  0  # atno 7974 bound_to 7965
  154.5665  140.0698  156.8900 H   0  0  0  0  0  0  0  0  0  0  0  0  # atno 8008 bound_to 7997
  155.2713  140.3365  155.4247 H   0  0  0  0  0  0  0  0  0  0  0  0  # atno 8009 bound_to 7997
  156.2085  140.1749  156.7733 H   0  0  0  0  0  0  0  0  0  0  0  0  # atno 8010 bound_to 7997
  140.7287  143.4280  151.0847 H   0  0  0  0  0  0  0  0  0  0  0  0  # atno 10167 bound_to 10162
  157.2999  130.7345  149.6660 H   0  0  0  0  0  0  0  0  0  0  0  0  # atno 10718 bound_to 10713
  154.3676  135.2753  155.2285 H   0  0  0  0  0  0  0  0  0  0  0  0  # atno 10763 bound_to 10752
  154.4446  135.5946  153.6155 H   0  0  0  0  0  0  0  0  0  0  0  0  # atno 10764 bound_to 10752
  152.9840  135.6027  154.3903 H   0  0  0  0  0  0  0  0  0  0  0  0  # atno 10765 bound_to 10752
  140.0896  134.5227  155.8865 H   0  0  0  0  0  0  0  0  0  0  0  0  # atno 11005 bound_to 11000
  144.6735  140.1650  143.7419 LP  0  0  0  0  0  0  0  0  0  0  0  0  # atno 17320 bound_to 7965
  145.8812  139.2324  143.1604 LP  0  0  0  0  0  0  0  0  0  0  0  0  # atno 17321 bound_to 7965
  139.7933  143.8187  152.3154 LP  0  0  0  0  0  0  0  0  0  0  0  0  # atno 17342 bound_to 10162
  139.8178  144.7308  150.9612 LP  0  0  0  0  0  0  0  0  0  0  0  0  # atno 17343 bound_to 10162
  155.9671  130.4283  150.4783 LP  0  0  0  0  0  0  0  0  0  0  0  0  # atno 17370 bound_to 10713
  157.2762  131.0597  151.2228 LP  0  0  0  0  0  0  0  0  0  0  0  0  # atno 17371 bound_to 10713
  141.2074  133.6663  156.6301 LP  0  0  0  0  0  0  0  0  0  0  0  0  # atno 17394 bound_to 11000
  140.3371  134.7880  157.4370 LP  0  0  0  0  0  0  0  0  0  0  0  0  # atno 17395 bound_to 11000

$$$$
