AV-unprocessed.smi:194|AV-procd|sdf|1520|dock9
  -GOLD-   2262019363D 1   1.00000     0.00000
 Structure written by MMmdl.
 53 55  0  0  0  0  0  0  0  0  1 V2000
  154.9218  141.2402  160.5317 C   0  0  0  0  0  0  0  0  0  0  0  0
  153.7827  140.9214  159.5499 C   0  0  2  0  0  0  0  0  0  0  0  0
  152.4771  141.6402  159.9463 C   0  0  0  0  0  0  0  0  0  0  0  0
  152.8847  143.3482  160.5508 S   0  0  1  0  0  0  0  0  0  0  0  0
  151.4540  144.2080  159.7450 C   0  0  0  0  0  0  0  0  0  0  0  0
  152.6175  143.3587  162.0571 O   0  0  0  0  0  0  0  0  0  0  0  0
  153.6069  139.4688  159.4099 N   0  0  0  0  0  0  0  0  0  0  0  0
  154.4450  138.5373  160.1590 C   0  0  0  0  0  0  0  0  0  0  0  0
  152.8802  138.9905  158.3649 C   0  0  0  0  0  0  0  0  0  0  0  0
  152.8248  137.6448  158.1850 N   0  0  0  0  0  0  0  0  0  0  0  0
  152.1372  137.1219  157.1671 C   0  0  0  0  0  0  0  0  0  0  0  0
  151.4397  137.7526  156.2220 N   0  0  0  0  0  0  0  0  0  0  0  0
  151.4884  139.1048  156.3904 C   0  0  0  0  0  0  0  0  0  0  0  0
  152.1745  139.8022  157.4270 C   0  0  0  0  0  0  0  0  0  0  0  0
  151.9678  141.1700  157.2829 N   0  0  0  0  0  0  0  0  0  0  0  0
  151.2123  141.2735  156.2249 C   0  0  0  0  0  0  0  0  0  0  0  0
  150.8919  140.0834  155.6129 N   0  0  0  0  0  0  0  0  0  0  0  0
  150.0629  139.9137  154.4282 C   0  0  0  0  0  0  0  0  0  0  0  0
  148.5413  140.1978  154.6160 C   0  0  0  0  0  0  0  0  0  0  0  0
  147.6806  139.2416  153.7363 C   0  0  0  0  0  0  0  0  0  0  0  0
  147.9806  139.3086  152.3565 O   0  0  0  0  0  0  0  0  0  0  0  0
  148.1405  140.1218  156.1117 C   0  0  0  0  0  0  0  0  0  0  0  0
  146.7438  140.7069  156.3810 C   0  0  0  0  0  0  0  0  0  0  0  0
  146.7003  142.0615  155.9523 O   0  0  0  0  0  0  0  0  0  0  0  0
  146.9104  142.2040  154.5539 C   0  0  0  0  0  0  0  0  0  0  0  0
  148.3003  141.6617  154.1655 C   0  0  0  0  0  0  0  0  0  0  0  0
  155.1158  142.3124  160.5711 H   0  0  0  0  0  0  0  0  0  0  0  0
  155.8482  140.7510  160.2288 H   0  0  0  0  0  0  0  0  0  0  0  0
  154.6856  140.9107  161.5440 H   0  0  0  0  0  0  0  0  0  0  0  0
  154.0937  141.3452  158.5949 H   0  0  0  0  0  0  0  0  0  0  0  0
  151.7715  141.6957  159.1179 H   0  0  0  0  0  0  0  0  0  0  0  0
  151.9815  141.1006  160.7538 H   0  0  0  0  0  0  0  0  0  0  0  0
  151.4811  144.0633  158.6651 H   0  0  0  0  0  0  0  0  0  0  0  0
  151.4940  145.2772  159.9527 H   0  0  0  0  0  0  0  0  0  0  0  0
  150.5109  143.8164  160.1267 H   0  0  0  0  0  0  0  0  0  0  0  0
  153.9535  137.5697  160.2661 H   0  0  0  0  0  0  0  0  0  0  0  0
  154.6544  138.9088  161.1609 H   0  0  0  0  0  0  0  0  0  0  0  0
  155.3989  138.3879  159.6526 H   0  0  0  0  0  0  0  0  0  0  0  0
  152.1498  136.0439  157.1000 H   0  0  0  0  0  0  0  0  0  0  0  0
  150.8741  142.2292  155.8519 H   0  0  0  0  0  0  0  0  0  0  0  0
  150.4718  140.5603  153.6504 H   0  0  0  0  0  0  0  0  0  0  0  0
  150.2057  138.8945  154.0662 H   0  0  0  0  0  0  0  0  0  0  0  0
  147.8164  138.2016  154.0264 H   0  0  0  0  0  0  0  0  0  0  0  0
  146.6203  139.4564  153.8716 H   0  0  0  0  0  0  0  0  0  0  0  0
  148.6587  138.6788  152.1652 H   0  0  0  0  0  0  0  0  0  0  0  0
  148.1864  139.0979  156.4825 H   0  0  0  0  0  0  0  0  0  0  0  0
  148.8606  140.6855  156.7059 H   0  0  0  0  0  0  0  0  0  0  0  0
  145.9645  140.1254  155.8871 H   0  0  0  0  0  0  0  0  0  0  0  0
  146.5294  140.6750  157.4491 H   0  0  0  0  0  0  0  0  0  0  0  0
  146.1106  141.7100  154.0025 H   0  0  0  0  0  0  0  0  0  0  0  0
  146.8459  143.2626  154.3018 H   0  0  0  0  0  0  0  0  0  0  0  0
  149.0466  142.3111  154.6259 H   0  0  0  0  0  0  0  0  0  0  0  0
  148.4452  141.7564  153.0885 H   0  0  0  0  0  0  0  0  0  0  0  0
  1  2  1  0  0  0  0
  1 27  1  0  0  0  0
  1 28  1  0  0  0  0
  1 29  1  0  0  0  0
  2  3  1  0  0  0  0
  2  7  1  0  0  0  0
  2 30  1  0  0  0  0
  3  4  1  0  0  0  0
  3 31  1  0  0  0  0
  3 32  1  0  0  0  0
  4  5  1  0  0  0  0
  4  6  2  0  0  0  0
  5 33  1  0  0  0  0
  5 34  1  0  0  0  0
  5 35  1  0  0  0  0
  7  8  1  0  0  0  0
  7  9  1  0  0  0  0
  8 36  1  0  0  0  0
  8 37  1  0  0  0  0
  8 38  1  0  0  0  0
  9 14  1  0  0  0  0
  9 10  2  0  0  0  0
 10 11  1  0  0  0  0
 11 12  2  0  0  0  0
 11 39  1  0  0  0  0
 12 13  1  0  0  0  0
 13 17  1  0  0  0  0
 13 14  2  0  0  0  0
 14 15  1  0  0  0  0
 15 16  2  0  0  0  0
 16 17  1  0  0  0  0
 16 40  1  0  0  0  0
 17 18  1  0  0  0  0
 18 19  1  0  0  0  0
 18 41  1  0  0  0  0
 18 42  1  0  0  0  0
 19 26  1  0  0  0  0
 19 20  1  0  0  0  0
 19 22  1  0  0  0  0
 20 21  1  0  0  0  0
 20 43  1  0  0  0  0
 20 44  1  0  0  0  0
 21 45  1  0  0  0  0
 22 23  1  0  0  0  0
 22 46  1  0  0  0  0
 22 47  1  0  0  0  0
 23 24  1  0  0  0  0
 23 48  1  0  0  0  0
 23 49  1  0  0  0  0
 24 25  1  0  0  0  0
 25 26  1  0  0  0  0
 25 50  1  0  0  0  0
 25 51  1  0  0  0  0
 26 52  1  0  0  0  0
 26 53  1  0  0  0  0
M  END
> <s_m_source_file>
AV-unprocessed.smi

> <i_m_source_file_index>
194

> <i_lp_mmshare_version>
43012

> <i_f3d_flags>
0

> <s_epik_input>
W0NIM11bU0BAXSg9TylbQ0gyXVtDQEBIXShbQ0gzXSlOKFtDSDNdKWMobltjSF1uMSljKGMxMiluW2NIXW4yW0NIMl1DMyhbQ0gyXVtPSF0pW0NIMl1bQ0gyXU9bQ0gyXVtDSDJdMw==

> <s_epik_cmdline>
J2VwaWtfcHl0aG9uJywgJy1waCcsICc3LjAnLCAnLXRuJywgJzgnLCAnLW1hJywgJzIwMCcsICctbWV0YWxfYmluZGluZycsICctaW1hZScsICc8aW5maWxlLm1hZT4nLCAnLW9tYWUnLCAnPG91dGZpbGUubWFlPic=

> <r_lp_tautomer_probability>
1

> <r_epik_Ionization_Penalty>
0.00101625

> <r_epik_Ionization_Penalty_Charging>
0

> <r_epik_Ionization_Penalty_Neutral>
0.00101625

> <r_epik_State_Penalty>
0.000568005

> <r_epik_Charging_Adjusted_Penalty>
0.000568005

> <i_epik_Tot_Q>
0

> <i_epik_Tot_abs_Q>
0

> <r_epik_Metal_State_Penalty>
-0

> <b_epik_Metal_Only>
0

> <s_lp_Force_Field>
OPLS_2005

> <r_lp_Energy>
28.4609

> <b_lp_Chiralities_Consistent>
1

> <s_lp_Variant>
AV-unprocessed.smi:194-1

> <Gold.Version>
5.8.1

> <Gold.Id.Protein>
6NUR|6NUR_protein|mol2

> <Gold.PLP.Fitness>
45.1943

> <Gold.PLP.PLP>
-44.4538

> <Gold.PLP.part.hbond>
-1.7283

> <Gold.PLP.part.metal>
0.0000

> <Gold.PLP.part.buried>
-5.2955

> <Gold.PLP.part.nonpolar>
-36.8337

> <Gold.PLP.part.repulsive>
0.2858

> <Gold.PLP.ligand.clash>
0.0000

> <Gold.PLP.ligand.torsion>
1.4163

> <Gold.PLP.Chemscore.Hbond>
1.0000

> <Gold.PLP.Chemscore.CHOScore>
0.0000

> <Gold.PLP.Chemscore.Metal>
0.0000

> <Gold.PLP.Chemscore.Internal.Correction>
0.5731

> <Gold.Rescore>
     Score         DG    S(hbond)    S(metal)    S(lipo)     H(rot)  DE(clash)    DE(int)     intcor
      7.91     -11.29       1.00        0.00      87.50       3.03       0.13       3.25       ----

> <Gold.Chemscore.Fitness>
7.9076

> <Gold.Chemscore.DG>
-11.2914

> <Gold.Chemscore.ZeroCoef>
-5.4800

> <Gold.Chemscore.Hbond>
0.9967

> <Gold.Chemscore.Metal>
0.0000

> <Gold.Chemscore.Lipo>
87.5046

> <Gold.Chemscore.Internal_Hbond>
0.0000

> <Gold.Chemscore.DEClash>
0.1337

> <Gold.Chemscore.DEInternal>
3.2501

> <Gold.Chemscore.Rot>
3.0295

> <Gold.Chemscore.Internal.Correction>
   9.000000E+99

> <Gold.Chemscore.Hbonds>
donor molecule, donor type, donor heavy atom, donor atom, acceptor molecule, acceptor atom, score
      L1  H    21    45       P1  7948  0.04

> <Gold.Chemscore.Hbond.Weighted>
-3.3289

> <Gold.Chemscore.Metal.Weighted>
-0.0000

> <Gold.Chemscore.Lipo.Weighted>
-10.2380

> <Gold.Chemscore.Internal_Hbond.Weighted>
0.0000

> <Gold.Chemscore.DEClash.Weighted>
0.1337

> <Gold.Chemscore.DEInternal.Weighted>
3.2501

> <Gold.Chemscore.Rot.Weighted>
7.7555

> <Gold.Chemscore.Internal.Correction.Weighted>
   9.000000E+99

> <Gold.Protein.RotatedTorsions>
[ 6907 6896 6895 6894 ] final   -9.77 input  -60.11 | X-H torsion
[ 7974 7965 7964 7962 ] final   59.63 input  175.53 | X-H torsion
[ 8008 7997 7996 7995 ] final  -60.30 input   59.86 | X-H torsion
[ 10167 10162 10161 10158 ] final  -38.97 input  -65.29 | X-H torsion
[ 10718 10713 10712 10709 ] final   54.23 input   66.30 | X-H torsion
[ 10763 10752 10751 10750 ] final   92.09 input  -60.55 | X-H torsion
[ 11005 11000 10999 10996 ] final  -85.09 input  -57.11 | X-H torsion

> <Gold.Protein.ActiveResidues>
 VAL166  LYS551  ARG553  GLY616  TRP617  ASP618  TYR619  PRO620  LYS621  CYS622 
 ASP623  PHE694  ASN695  SER759  ASP760  ASP761  ALA762  ILE779  LEU786  VAL792 
 PHE793  MET794  SER795  GLU796  ALA797  LYS798  CYS799  TRP800  GLU811  SER814 

> <Gold.Protein.RotatedAtoms>
  151.4125  135.0987  159.9589 H   0  0  0  0  0  0  0  0  0  0  0  0  # atno 6907 bound_to 6896
  152.5015  133.8783  159.7344 H   0  0  0  0  0  0  0  0  0  0  0  0  # atno 6908 bound_to 6896
  150.9281  133.6742  159.2845 H   0  0  0  0  0  0  0  0  0  0  0  0  # atno 6909 bound_to 6896
  145.9050  139.3610  143.0570 H   0  0  0  0  0  0  0  0  0  0  0  0  # atno 7974 bound_to 7965
  154.4392  140.1042  156.6252 H   0  0  0  0  0  0  0  0  0  0  0  0  # atno 8008 bound_to 7997
  155.5664  140.3488  155.4485 H   0  0  0  0  0  0  0  0  0  0  0  0  # atno 8009 bound_to 7997
  156.0422  140.1284  157.0133 H   0  0  0  0  0  0  0  0  0  0  0  0  # atno 8010 bound_to 7997
  140.7077  143.3243  151.2717 H   0  0  0  0  0  0  0  0  0  0  0  0  # atno 10167 bound_to 10162
  157.5238  130.8583  149.8594 H   0  0  0  0  0  0  0  0  0  0  0  0  # atno 10718 bound_to 10713
  153.2153  135.4374  155.0427 H   0  0  0  0  0  0  0  0  0  0  0  0  # atno 10763 bound_to 10752
  154.8222  135.3343  154.7007 H   0  0  0  0  0  0  0  0  0  0  0  0  # atno 10764 bound_to 10752
  153.7443  135.7002  153.5016 H   0  0  0  0  0  0  0  0  0  0  0  0  # atno 10765 bound_to 10752
  141.1644  133.7381  156.8964 H   0  0  0  0  0  0  0  0  0  0  0  0  # atno 11005 bound_to 11000
  145.8744  140.9401  143.0634 LP  0  0  0  0  0  0  0  0  0  0  0  0  # atno 17320 bound_to 7965
  144.6738  140.0697  143.7473 LP  0  0  0  0  0  0  0  0  0  0  0  0  # atno 17321 bound_to 7965
  139.6707  144.0026  152.2751 LP  0  0  0  0  0  0  0  0  0  0  0  0  # atno 17342 bound_to 10162
  139.9623  144.6549  150.8067 LP  0  0  0  0  0  0  0  0  0  0  0  0  # atno 17343 bound_to 10162
  156.0372  130.3748  150.1529 LP  0  0  0  0  0  0  0  0  0  0  0  0  # atno 17370 bound_to 10713
  156.9716  130.9836  151.3457 LP  0  0  0  0  0  0  0  0  0  0  0  0  # atno 17371 bound_to 10713
  140.1613  134.9164  157.2718 LP  0  0  0  0  0  0  0  0  0  0  0  0  # atno 17394 bound_to 11000
  140.2608  134.3573  155.7407 LP  0  0  0  0  0  0  0  0  0  0  0  0  # atno 17395 bound_to 11000

$$$$
