AV-unprocessed.smi:2766|AV-procd|sdf|10646|dock7
  -GOLD-   2272015 93D 1   1.00000     0.00000
 Structure written by MMmdl.
 32 33  0  0  0  0  0  0  0  0  1 V2000
  146.9833  139.9445  153.5464 C   0  0  0  0  0  0  0  0  0  0  0  0
  148.0088  140.8649  153.8769 O   0  0  0  0  0  0  0  0  0  0  0  0
  147.6943  141.6401  155.0223 C   0  0  0  0  0  0  0  0  0  0  0  0
  148.7104  141.3392  156.1382 C   0  0  2  0  0  0  0  0  0  0  0  0
  148.4171  142.1908  157.2320 O   0  0  0  0  0  0  0  0  0  0  0  0
  150.1794  141.4894  155.6521 C   0  0  0  0  0  0  0  0  0  0  0  0
  151.1950  141.2379  156.6689 N   0  0  0  0  0  0  0  0  0  0  0  0
  151.9753  140.1385  156.8327 C   0  0  0  0  0  0  0  0  0  0  0  0
  151.8914  138.9545  155.9106 C   0  0  0  0  0  0  0  0  0  0  0  0
  152.2335  139.2936  154.6669 F   0  0  0  0  0  0  0  0  0  0  0  0
  152.7144  137.9836  156.3073 F   0  0  0  0  0  0  0  0  0  0  0  0
  150.6477  138.4762  155.8779 F   0  0  0  0  0  0  0  0  0  0  0  0
  152.8340  140.1908  157.8541 N   0  0  0  0  0  0  0  0  0  0  0  0
  152.5787  141.4298  158.4082 C   0  0  0  0  0  0  0  0  0  0  0  0
  153.1586  142.0755  159.5235 C   0  0  0  0  0  0  0  0  0  0  0  0
  152.7274  143.3624  159.9072 C   0  0  0  0  0  0  0  0  0  0  0  0
  151.7121  144.0205  159.1831 C   0  0  0  0  0  0  0  0  0  0  0  0
  151.1221  143.3950  158.0680 C   0  0  0  0  0  0  0  0  0  0  0  0
  151.5574  142.1111  157.6892 C   0  0  0  0  0  0  0  0  0  0  0  0
  148.5714  140.3108  156.4739 H   0  0  0  0  0  0  0  0  0  0  0  0
  147.2695  139.3802  152.6591 H   0  0  0  0  0  0  0  0  0  0  0  0
  146.0449  140.4574  153.3313 H   0  0  0  0  0  0  0  0  0  0  0  0
  146.8158  139.2343  154.3572 H   0  0  0  0  0  0  0  0  0  0  0  0
  147.7550  142.6917  154.7374 H   0  0  0  0  0  0  0  0  0  0  0  0
  146.6736  141.4557  155.3628 H   0  0  0  0  0  0  0  0  0  0  0  0
  148.6039  143.0814  156.9779 H   0  0  0  0  0  0  0  0  0  0  0  0
  150.3537  140.8262  154.8053 H   0  0  0  0  0  0  0  0  0  0  0  0
  150.3547  142.4915  155.2591 H   0  0  0  0  0  0  0  0  0  0  0  0
  153.9361  141.5796  160.0855 H   0  0  0  0  0  0  0  0  0  0  0  0
  153.1774  143.8467  160.7615 H   0  0  0  0  0  0  0  0  0  0  0  0
  151.3861  145.0053  159.4842 H   0  0  0  0  0  0  0  0  0  0  0  0
  150.3427  143.8943  157.5121 H   0  0  0  0  0  0  0  0  0  0  0  0
  1  2  1  0  0  0  0
  1 21  1  0  0  0  0
  1 22  1  0  0  0  0
  1 23  1  0  0  0  0
  2  3  1  0  0  0  0
  3  4  1  0  0  0  0
  3 24  1  0  0  0  0
  3 25  1  0  0  0  0
  4 20  1  0  0  0  0
  4  5  1  0  0  0  0
  4  6  1  0  0  0  0
  5 26  1  0  0  0  0
  6  7  1  0  0  0  0
  6 27  1  0  0  0  0
  6 28  1  0  0  0  0
  7 19  1  0  0  0  0
  7  8  1  0  0  0  0
  8  9  1  0  0  0  0
  8 13  2  0  0  0  0
  9 10  1  0  0  0  0
  9 11  1  0  0  0  0
  9 12  1  0  0  0  0
 13 14  1  0  0  0  0
 14 19  2  0  0  0  0
 14 15  1  0  0  0  0
 15 16  2  0  0  0  0
 15 29  1  0  0  0  0
 16 17  1  0  0  0  0
 16 30  1  0  0  0  0
 17 18  2  0  0  0  0
 17 31  1  0  0  0  0
 18 19  1  0  0  0  0
 18 32  1  0  0  0  0
M  END
> <s_m_source_file>
AV-unprocessed.smi

> <i_m_source_file_index>
2766

> <i_lp_mmshare_version>
43012

> <i_f3d_flags>
0

> <s_epik_input>
W0NIM11PW0NIMl1bQ0BASF0oW09IXSlbQ0gyXW4oYyhuMSlDKEYpKEYpRiljKGMxMilbY0hdW2NIXVtjSF1bY0hdMg==

> <s_epik_cmdline>
J2VwaWtfcHl0aG9uJywgJy1waCcsICc3LjAnLCAnLXRuJywgJzgnLCAnLW1hJywgJzIwMCcsICctbWV0YWxfYmluZGluZycsICctaW1hZScsICc8aW5maWxlLm1hZT4nLCAnLW9tYWUnLCAnPG91dGZpbGUubWFlPic=

> <r_epik_Ionization_Penalty>
0.00044827

> <r_epik_Ionization_Penalty_Charging>
0

> <r_epik_Ionization_Penalty_Neutral>
0.00044827

> <r_epik_State_Penalty>
0.000276591

> <r_epik_Charging_Adjusted_Penalty>
0.000276591

> <i_epik_Tot_Q>
0

> <i_epik_Tot_abs_Q>
0

> <r_epik_Metal_State_Penalty>
-0

> <b_epik_Metal_Only>
0

> <s_lp_Force_Field>
OPLS_2005

> <r_lp_Energy>
17.0941

> <b_lp_Chiralities_Consistent>
1

> <s_lp_Variant>
AV-unprocessed.smi:2766-2

> <Gold.Version>
5.8.1

> <Gold.Id.Protein>
6NUR|6NUR_protein|mol2

> <Gold.PLP.Fitness>
42.7324

> <Gold.PLP.PLP>
-38.0599

> <Gold.PLP.part.hbond>
-2.0000

> <Gold.PLP.part.metal>
0.0000

> <Gold.PLP.part.buried>
-3.5731

> <Gold.PLP.part.nonpolar>
-31.9679

> <Gold.PLP.part.repulsive>
0.4648

> <Gold.PLP.ligand.clash>
0.0000

> <Gold.PLP.ligand.torsion>
0.6488

> <Gold.PLP.Chemscore.Hbond>
1.9760

> <Gold.PLP.Chemscore.CHOScore>
0.0000

> <Gold.PLP.Chemscore.Metal>
0.0000

> <Gold.Chemscore.Hbonds>
donor molecule, donor type, donor heavy atom, donor atom, acceptor molecule, acceptor atom, score
      L1  H     5    26       P1  8028  0.80
      P1  H  7997  8010       L1    13  0.94

> <Gold.PLP.Chemscore.Internal.Correction>
0.0420

> <Gold.Rescore>
     Score         DG    S(hbond)    S(metal)    S(lipo)     H(rot)  DE(clash)    DE(int)     intcor
     13.04     -14.34       1.04        0.00      96.62       2.32       0.12       1.18       ----

> <Gold.Chemscore.Fitness>
13.0449

> <Gold.Chemscore.DG>
-14.3383

> <Gold.Chemscore.ZeroCoef>
-5.4800

> <Gold.Chemscore.Hbond>
1.0430

> <Gold.Chemscore.Metal>
0.0000

> <Gold.Chemscore.Lipo>
96.6199

> <Gold.Chemscore.Internal_Hbond>
0.0000

> <Gold.Chemscore.DEClash>
0.1180

> <Gold.Chemscore.DEInternal>
1.1754

> <Gold.Chemscore.Rot>
2.3164

> <Gold.Chemscore.Internal.Correction>
   9.000000E+99

> <Gold.Chemscore.Hbonds>
donor molecule, donor type, donor heavy atom, donor atom, acceptor molecule, acceptor atom, score
      L1  H     5    26       P1  8028  0.43
      P1  H  7997  8010       L1    13  0.32

> <Gold.Chemscore.Hbond.Weighted>
-3.4837

> <Gold.Chemscore.Metal.Weighted>
-0.0000

> <Gold.Chemscore.Lipo.Weighted>
-11.3045

> <Gold.Chemscore.Internal_Hbond.Weighted>
0.0000

> <Gold.Chemscore.DEClash.Weighted>
0.1180

> <Gold.Chemscore.DEInternal.Weighted>
1.1754

> <Gold.Chemscore.Rot.Weighted>
5.9299

> <Gold.Chemscore.Internal.Correction.Weighted>
   9.000000E+99

> <Gold.Protein.RotatedTorsions>
[ 6907 6896 6895 6894 ] final    9.30 input  -60.11 | X-H torsion
[ 7974 7965 7964 7962 ] final  -19.40 input  175.53 | X-H torsion
[ 8008 7997 7996 7995 ] final   36.27 input   59.86 | X-H torsion
[ 10167 10162 10161 10158 ] final   32.94 input  -65.29 | X-H torsion
[ 10718 10713 10712 10709 ] final  -47.64 input   66.30 | X-H torsion
[ 10763 10752 10751 10750 ] final  131.77 input  -60.55 | X-H torsion
[ 11005 11000 10999 10996 ] final  -66.50 input  -57.11 | X-H torsion

> <Gold.Protein.ActiveResidues>
 VAL166  LYS551  ARG553  GLY616  TRP617  ASP618  TYR619  PRO620  LYS621  CYS622 
 ASP623  PHE694  ASN695  SER759  ASP760  ASP761  ALA762  ILE779  LEU786  VAL792 
 PHE793  MET794  SER795  GLU796  ALA797  LYS798  CYS799  TRP800  GLU811  SER814 

> <Gold.Protein.RotatedAtoms>
  151.7199  135.0896  160.0282 H   0  0  0  0  0  0  0  0  0  0  0  0  # atno 6907 bound_to 6896
  152.3608  133.6290  159.6022 H   0  0  0  0  0  0  0  0  0  0  0  0  # atno 6908 bound_to 6896
  150.7603  133.9342  159.3478 H   0  0  0  0  0  0  0  0  0  0  0  0  # atno 6909 bound_to 6896
  146.1843  140.4056  142.8482 H   0  0  0  0  0  0  0  0  0  0  0  0  # atno 7974 bound_to 7965
  155.1847  140.3303  155.4369 H   0  0  0  0  0  0  0  0  0  0  0  0  # atno 8008 bound_to 7997
  156.2464  140.1921  156.6893 H   0  0  0  0  0  0  0  0  0  0  0  0  # atno 8009 bound_to 7997
  154.6247  140.0590  156.9645 H   0  0  0  0  0  0  0  0  0  0  0  0  # atno 8010 bound_to 7997
  140.4452  144.1128  150.6181 H   0  0  0  0  0  0  0  0  0  0  0  0  # atno 10167 bound_to 10162
  156.2065  130.4158  149.9172 H   0  0  0  0  0  0  0  0  0  0  0  0  # atno 10718 bound_to 10713
  153.7798  135.3170  155.3364 H   0  0  0  0  0  0  0  0  0  0  0  0  # atno 10763 bound_to 10752
  154.8166  135.4632  154.0662 H   0  0  0  0  0  0  0  0  0  0  0  0  # atno 10764 bound_to 10752
  153.1947  135.6914  153.8392 H   0  0  0  0  0  0  0  0  0  0  0  0  # atno 10765 bound_to 10752
  141.1484  133.6700  156.6149 H   0  0  0  0  0  0  0  0  0  0  0  0  # atno 11005 bound_to 11000
  144.8370  140.6797  143.6254 LP  0  0  0  0  0  0  0  0  0  0  0  0  # atno 17320 bound_to 7965
  145.3984  139.1602  143.4191 LP  0  0  0  0  0  0  0  0  0  0  0  0  # atno 17321 bound_to 7965
  140.4271  143.2585  151.9642 LP  0  0  0  0  0  0  0  0  0  0  0  0  # atno 17342 bound_to 10162
  139.4792  144.5778  151.7983 LP  0  0  0  0  0  0  0  0  0  0  0  0  # atno 17343 bound_to 10162
  156.6864  130.8878  151.3582 LP  0  0  0  0  0  0  0  0  0  0  0  0  # atno 17370 bound_to 10713
  157.7015  130.9338  150.0799 LP  0  0  0  0  0  0  0  0  0  0  0  0  # atno 17371 bound_to 10713
  140.3586  134.7707  157.4517 LP  0  0  0  0  0  0  0  0  0  0  0  0  # atno 17394 bound_to 11000
  140.0803  134.5740  155.8547 LP  0  0  0  0  0  0  0  0  0  0  0  0  # atno 17395 bound_to 11000

$$$$
