AV-unprocessed.smi:1487|AV-procd|sdf|6019|dock8
  -GOLD-   22720 6123D 1   1.00000     0.00000
 Structure written by MMmdl.
 49 51  0  0  0  0  0  0  0  0  3 V2000
  152.3175  143.9718  160.9343 C   0  0  0  0  0  0  0  0  0  0  0  0
  152.0395  143.0522  159.7572 C   0  0  0  0  0  0  0  0  0  0  0  0
  151.0748  143.4495  158.8042 C   0  0  0  0  0  0  0  0  0  0  0  0
  150.8433  142.5878  157.7389 C   0  0  0  0  0  0  0  0  0  0  0  0
  149.9703  142.6906  156.6540 N   0  3  0  0  0  0  0  0  0  0  0  0
  150.0962  141.5896  155.8628 C   0  0  0  0  0  0  0  0  0  0  0  0
  151.0365  140.7833  156.4267 N   0  0  0  0  0  0  0  0  0  0  0  0
  151.5509  139.4829  155.9716 C   0  0  0  0  0  0  0  0  0  0  0  0
  150.4582  138.5871  155.3561 C   0  0  2  0  0  0  0  0  0  0  0  0
  151.0017  137.3174  155.0518 O   0  0  0  0  0  0  0  0  0  0  0  0
  149.8842  139.1972  154.0620 C   0  0  0  0  0  0  0  0  0  0  0  0
  148.6450  138.5129  153.6122 N   0  3  1  0  0  0  0  0  0  0  0  0
  147.8646  137.9155  154.7281 C   0  0  0  0  0  0  0  0  0  0  0  0
  146.6916  137.0790  154.1941 C   0  0  0  0  0  0  0  0  0  0  0  0
  145.7798  137.9230  153.2924 C   0  0  0  0  0  0  0  0  0  0  0  0
  146.5889  138.6131  152.1814 C   0  0  2  0  0  0  0  0  0  0  0  0
  147.0323  137.6651  151.2305 O   0  0  0  0  0  0  0  0  0  0  0  0
  147.7997  139.3797  152.7492 C   0  0  0  0  0  0  0  0  0  0  0  0
  151.5320  141.3668  157.5999 C   0  0  0  0  0  0  0  0  0  0  0  0
  152.4846  140.9599  158.5315 C   0  0  0  0  0  0  0  0  0  0  0  0
  152.7359  141.8234  159.6219 C   0  0  0  0  0  0  0  0  0  0  0  0
  153.7709  141.4054  160.6525 C   0  0  0  0  0  0  0  0  0  0  0  0
  151.6620  144.8430  160.9238 H   0  0  0  0  0  0  0  0  0  0  0  0
  153.3474  144.3281  160.9050 H   0  0  0  0  0  0  0  0  0  0  0  0
  152.1581  143.4484  161.8774 H   0  0  0  0  0  0  0  0  0  0  0  0
  150.5405  144.3837  158.9005 H   0  0  0  0  0  0  0  0  0  0  0  0
  149.5490  141.3934  154.9517 H   0  0  0  0  0  0  0  0  0  0  0  0
  152.3213  139.6885  155.2271 H   0  0  0  0  0  0  0  0  0  0  0  0
  152.0558  138.9839  156.7991 H   0  0  0  0  0  0  0  0  0  0  0  0
  149.6701  138.4482  156.0955 H   0  0  0  0  0  0  0  0  0  0  0  0
  151.8149  137.2175  155.5235 H   0  0  0  0  0  0  0  0  0  0  0  0
  149.6783  140.2603  154.1955 H   0  0  0  0  0  0  0  0  0  0  0  0
  150.6481  139.1339  153.2851 H   0  0  0  0  0  0  0  0  0  0  0  0
  148.5015  137.2782  155.3405 H   0  0  0  0  0  0  0  0  0  0  0  0
  147.4939  138.7078  155.3805 H   0  0  0  0  0  0  0  0  0  0  0  0
  147.0749  136.2232  153.6368 H   0  0  0  0  0  0  0  0  0  0  0  0
  146.1158  136.6713  155.0253 H   0  0  0  0  0  0  0  0  0  0  0  0
  144.9871  137.3068  152.8664 H   0  0  0  0  0  0  0  0  0  0  0  0
  145.2849  138.6832  153.8984 H   0  0  0  0  0  0  0  0  0  0  0  0
  145.9420  139.3128  151.6513 H   0  0  0  0  0  0  0  0  0  0  0  0
  147.4561  136.9540  151.6876 H   0  0  0  0  0  0  0  0  0  0  0  0
  147.4545  140.2333  153.3347 H   0  0  0  0  0  0  0  0  0  0  0  0
  148.3929  139.7832  151.9270 H   0  0  0  0  0  0  0  0  0  0  0  0
  153.0126  140.0229  158.4354 H   0  0  0  0  0  0  0  0  0  0  0  0
  154.2526  140.4667  160.3772 H   0  0  0  0  0  0  0  0  0  0  0  0
  153.3038  141.2672  161.6279 H   0  0  0  0  0  0  0  0  0  0  0  0
  154.5498  142.1628  160.7448 H   0  0  0  0  0  0  0  0  0  0  0  0
  148.9458  137.7510  153.0205 H   0  0  0  0  0  0  0  0  0  0  0  0
  149.3359  143.4563  156.4645 H   0  0  0  0  0  0  0  0  0  0  0  0
  1  2  1  0  0  0  0
  1 23  1  0  0  0  0
  1 24  1  0  0  0  0
  1 25  1  0  0  0  0
  2 21  1  0  0  0  0
  2  3  2  0  0  0  0
  3  4  1  0  0  0  0
  3 26  1  0  0  0  0
  4 19  2  0  0  0  0
  4  5  1  0  0  0  0
  5  6  2  0  0  0  0
  5 49  1  0  0  0  0
  6  7  1  0  0  0  0
  6 27  1  0  0  0  0
  7  8  1  0  0  0  0
  7 19  1  0  0  0  0
  8  9  1  0  0  0  0
  8 28  1  0  0  0  0
  8 29  1  0  0  0  0
  9 10  1  0  0  0  0
  9 11  1  0  0  0  0
  9 30  1  0  0  0  0
 10 31  1  0  0  0  0
 11 12  1  0  0  0  0
 11 32  1  0  0  0  0
 11 33  1  0  0  0  0
 12 18  1  0  0  0  0
 12 13  1  0  0  0  0
 12 48  1  0  0  0  0
 13 14  1  0  0  0  0
 13 34  1  0  0  0  0
 13 35  1  0  0  0  0
 14 15  1  0  0  0  0
 14 36  1  0  0  0  0
 14 37  1  0  0  0  0
 15 16  1  0  0  0  0
 15 38  1  0  0  0  0
 15 39  1  0  0  0  0
 16 17  1  0  0  0  0
 16 18  1  0  0  0  0
 16 40  1  0  0  0  0
 17 41  1  0  0  0  0
 18 42  1  0  0  0  0
 18 43  1  0  0  0  0
 19 20  1  0  0  0  0
 20 21  2  0  0  0  0
 20 44  1  0  0  0  0
 21 22  1  0  0  0  0
 22 45  1  0  0  0  0
 22 46  1  0  0  0  0
 22 47  1  0  0  0  0
M  CHG  1   5   1
M  CHG  1  12   1
M  END
> <s_m_source_file>
AV-unprocessed.smi

> <i_m_source_file_index>
1487

> <i_lp_mmshare_version>
43012

> <i_f3d_flags>
0

> <s_epik_input>
W0NIM11jKFtjSF0xKWMoW0NIM10pW2NIXWMoYzEyKW4oW2NIXW4yKVtDSDJdW0NASF0oW09IXSlbQ0gyXU4zW0NIMl1bQ0gyXVtDSDJdW0NAQEhdKFtPSF0pW0NIMl0z

> <s_epik_cmdline>
J2VwaWtfcHl0aG9uJywgJy1waCcsICc3LjAnLCAnLXRuJywgJzgnLCAnLW1hJywgJzIwMCcsICctbWV0YWxfYmluZGluZycsICctaW1hZScsICc8aW5maWxlLm1hZT4nLCAnLW9tYWUnLCAnPG91dGZpbGUubWFlPic=

> <r_epik_Ionization_Penalty>
1.1857

> <r_epik_Ionization_Penalty_Charging>
1.1857

> <r_epik_Ionization_Penalty_Neutral>
1.75578e-06

> <r_epik_State_Penalty>
1.26953

> <r_epik_Charging_Adjusted_Penalty>
2.45524

> <i_epik_Tot_Q>
2

> <i_epik_Tot_abs_Q>
2

> <r_epik_Metal_State_Penalty>
5.28243

> <b_epik_Metal_Only>
0

> <s_lp_Force_Field>
OPLS_2005

> <r_lp_Energy>
30.6325

> <b_lp_Chiralities_Consistent>
1

> <s_lp_Variant>
AV-unprocessed.smi:1487-13

> <Gold.Version>
5.8.1

> <Gold.Id.Protein>
6NUR|6NUR_protein|mol2

> <Gold.PLP.Fitness>
58.9216

> <Gold.PLP.PLP>
-42.8917

> <Gold.PLP.part.hbond>
-4.5477

> <Gold.PLP.part.metal>
0.0000

> <Gold.PLP.part.buried>
-1.2698

> <Gold.PLP.part.nonpolar>
-39.7874

> <Gold.PLP.part.repulsive>
0.0886

> <Gold.PLP.ligand.clash>
0.0000

> <Gold.PLP.ligand.torsion>
0.7248

> <Gold.PLP.Chemscore.Hbond>
5.8160

> <Gold.PLP.Chemscore.CHOScore>
0.0000

> <Gold.PLP.Chemscore.Metal>
0.0000

> <Gold.Chemscore.Hbonds>
donor molecule, donor type, donor heavy atom, donor atom, acceptor molecule, acceptor atom, score
      L1  H     5    49       P1  8028  2.00
      L1  H    12    48       P1  7948  2.00
      L1  H    17    41       P1  7948  0.80
      P1  H  7954  7966       L1    17  0.95

> <Gold.PLP.Chemscore.Internal.Correction>
0.0315

> <Gold.Rescore>
     Score         DG    S(hbond)    S(metal)    S(lipo)     H(rot)  DE(clash)    DE(int)     intcor
     20.22     -23.66       3.28        0.00     121.76       2.74       1.70       1.74       ----

> <Gold.Chemscore.Fitness>
20.2210

> <Gold.Chemscore.DG>
-23.6587

> <Gold.Chemscore.ZeroCoef>
-5.4800

> <Gold.Chemscore.Hbond>
3.2763

> <Gold.Chemscore.Metal>
0.0000

> <Gold.Chemscore.Lipo>
121.7613

> <Gold.Chemscore.Internal_Hbond>
0.0000

> <Gold.Chemscore.DEClash>
1.6967

> <Gold.Chemscore.DEInternal>
1.7410

> <Gold.Chemscore.Rot>
2.7384

> <Gold.Chemscore.Internal.Correction>
   9.000000E+99

> <Gold.Chemscore.Hbonds>
donor molecule, donor type, donor heavy atom, donor atom, acceptor molecule, acceptor atom, score
      L1  H     5    49       P1  8028  0.93
      L1  H    12    48       P1  7948  1.00
      L1  H    17    41       P1  7948  0.79
      P1  H  7954  7966       L1    17  0.22

> <Gold.Chemscore.Hbond.Weighted>
-10.9430

> <Gold.Chemscore.Metal.Weighted>
-0.0000

> <Gold.Chemscore.Lipo.Weighted>
-14.2461

> <Gold.Chemscore.Internal_Hbond.Weighted>
0.0000

> <Gold.Chemscore.DEClash.Weighted>
1.6967

> <Gold.Chemscore.DEInternal.Weighted>
1.7410

> <Gold.Chemscore.Rot.Weighted>
7.0103

> <Gold.Chemscore.Internal.Correction.Weighted>
   9.000000E+99

> <Gold.Protein.RotatedTorsions>
[ 6907 6896 6895 6894 ] final -121.01 input  -60.11 | X-H torsion
[ 7974 7965 7964 7962 ] final   93.39 input  175.53 | X-H torsion
[ 8008 7997 7996 7995 ] final   82.38 input   59.86 | X-H torsion
[ 10167 10162 10161 10158 ] final  175.73 input  -65.29 | X-H torsion
[ 10718 10713 10712 10709 ] final  162.74 input   66.30 | X-H torsion
[ 10763 10752 10751 10750 ] final  143.79 input  -60.55 | X-H torsion
[ 11005 11000 10999 10996 ] final   18.00 input  -57.11 | X-H torsion

> <Gold.Protein.ActiveResidues>
 VAL166  LYS551  ARG553  GLY616  TRP617  ASP618  TYR619  PRO620  LYS621  CYS622 
 ASP623  PHE694  ASN695  SER759  ASP760  ASP761  ALA762  ILE779  LEU786  VAL792 
 PHE793  MET794  SER795  GLU796  ALA797  LYS798  CYS799  TRP800  GLU811  SER814 

> <Gold.Protein.RotatedAtoms>
  150.8444  133.7884  159.3048 H   0  0  0  0  0  0  0  0  0  0  0  0  # atno 6907 bound_to 6896
  151.5575  135.1064  159.9974 H   0  0  0  0  0  0  0  0  0  0  0  0  # atno 6908 bound_to 6896
  152.4501  133.7570  159.6782 H   0  0  0  0  0  0  0  0  0  0  0  0  # atno 6909 bound_to 6896
  145.4796  139.2279  143.2890 H   0  0  0  0  0  0  0  0  0  0  0  0  # atno 7974 bound_to 7965
  155.9099  140.3428  155.6090 H   0  0  0  0  0  0  0  0  0  0  0  0  # atno 8008 bound_to 7997
  155.7400  140.0806  157.2269 H   0  0  0  0  0  0  0  0  0  0  0  0  # atno 8009 bound_to 7997
  154.4054  140.1572  156.2592 H   0  0  0  0  0  0  0  0  0  0  0  0  # atno 8010 bound_to 7997
  139.5188  144.2997  152.0389 H   0  0  0  0  0  0  0  0  0  0  0  0  # atno 10167 bound_to 10162
  157.1183  131.0486  151.2426 H   0  0  0  0  0  0  0  0  0  0  0  0  # atno 10718 bound_to 10713
  153.9782  135.2944  155.3422 H   0  0  0  0  0  0  0  0  0  0  0  0  # atno 10763 bound_to 10752
  154.7284  135.5079  153.8926 H   0  0  0  0  0  0  0  0  0  0  0  0  # atno 10764 bound_to 10752
  153.0867  135.6695  154.0049 H   0  0  0  0  0  0  0  0  0  0  0  0  # atno 10765 bound_to 10752
  140.4297  134.1433  155.7679 H   0  0  0  0  0  0  0  0  0  0  0  0  # atno 11005 bound_to 11000
  146.2349  140.5581  142.8959 LP  0  0  0  0  0  0  0  0  0  0  0  0  # atno 17320 bound_to 7965
  144.7897  140.6007  143.6550 LP  0  0  0  0  0  0  0  0  0  0  0  0  # atno 17321 bound_to 7965
  140.2445  144.4234  150.6246 LP  0  0  0  0  0  0  0  0  0  0  0  0  # atno 17342 bound_to 10162
  140.6267  143.2182  151.6581 LP  0  0  0  0  0  0  0  0  0  0  0  0  # atno 17343 bound_to 10162
  157.4498  130.7592  149.7142 LP  0  0  0  0  0  0  0  0  0  0  0  0  # atno 17370 bound_to 10713
  155.9834  130.4000  150.3364 LP  0  0  0  0  0  0  0  0  0  0  0  0  # atno 17371 bound_to 10713
  141.1751  133.8531  157.1448 LP  0  0  0  0  0  0  0  0  0  0  0  0  # atno 17394 bound_to 11000
  140.0143  134.9974  157.0461 LP  0  0  0  0  0  0  0  0  0  0  0  0  # atno 17395 bound_to 11000

$$$$
