AV-unprocessed.smi:2795|AV-procd|sdf|10780|dock7
  -GOLD-   2272015213D 1   1.00000     0.00000
 Structure written by MMmdl.
 36 37  0  0  0  0  0  0  0  0  1 V2000
  145.5598  143.7513  153.5043 C   0  0  0  0  0  0  0  0  0  0  0  0
  145.7711  142.9712  154.7071 N   0  0  0  0  0  0  0  0  0  0  0  0
  144.9497  142.8815  155.7620 C   0  0  0  0  0  0  0  0  0  0  0  0
  145.3883  142.0937  156.7343 N   0  0  0  0  0  0  0  0  0  0  0  0
  146.6121  141.6313  156.2580 C   0  0  0  0  0  0  0  0  0  0  0  0
  146.8636  142.1637  155.0109 C   0  0  0  0  0  0  0  0  0  0  0  0
  148.0259  141.9844  154.0829 C   0  0  0  0  0  0  0  0  0  0  0  0
  149.2279  141.2519  154.7057 C   0  0  0  0  0  0  0  0  0  0  0  0
  149.7278  141.9497  155.8846 N   0  0  0  0  0  0  0  0  0  0  0  0
  150.7070  141.5044  156.6871 C   0  0  0  0  0  0  0  0  0  0  0  0
  151.2798  140.4277  156.5175 O   0  0  0  0  0  0  0  0  0  0  0  0
  151.0945  142.4113  157.8596 C   0  0  2  0  0  0  0  0  0  0  0  0
  151.5857  143.7937  157.3780 C   0  0  0  0  0  0  0  0  0  0  0  0
  152.0508  144.6402  158.5677 C   0  0  0  0  0  0  0  0  0  0  0  0
  153.0832  143.8556  159.3839 C   0  0  0  0  0  0  0  0  0  0  0  0
  152.5275  142.4735  159.7629 C   0  0  0  0  0  0  0  0  0  0  0  0
  152.1350  141.7654  158.5906 O   0  0  0  0  0  0  0  0  0  0  0  0
  144.5728  144.2148  153.5225 H   0  0  0  0  0  0  0  0  0  0  0  0
  145.6304  143.1057  152.6285 H   0  0  0  0  0  0  0  0  0  0  0  0
  146.3174  144.5324  153.4358 H   0  0  0  0  0  0  0  0  0  0  0  0
  144.0072  143.4062  155.8198 H   0  0  0  0  0  0  0  0  0  0  0  0
  147.2136  140.9548  156.8471 H   0  0  0  0  0  0  0  0  0  0  0  0
  147.6879  141.4400  153.2005 H   0  0  0  0  0  0  0  0  0  0  0  0
  148.3498  142.9636  153.7282 H   0  0  0  0  0  0  0  0  0  0  0  0
  148.9342  140.2471  155.0107 H   0  0  0  0  0  0  0  0  0  0  0  0
  150.0298  141.1353  153.9746 H   0  0  0  0  0  0  0  0  0  0  0  0
  149.3051  142.8405  156.1022 H   0  0  0  0  0  0  0  0  0  0  0  0
  150.2282  142.5385  158.5126 H   0  0  0  0  0  0  0  0  0  0  0  0
  152.4137  143.6786  156.6766 H   0  0  0  0  0  0  0  0  0  0  0  0
  150.7913  144.3135  156.8411 H   0  0  0  0  0  0  0  0  0  0  0  0
  152.4752  145.5829  158.2212 H   0  0  0  0  0  0  0  0  0  0  0  0
  151.1964  144.8916  159.1975 H   0  0  0  0  0  0  0  0  0  0  0  0
  153.9957  143.7327  158.7993 H   0  0  0  0  0  0  0  0  0  0  0  0
  153.3579  144.4121  160.2803 H   0  0  0  0  0  0  0  0  0  0  0  0
  153.2896  141.8942  160.2844 H   0  0  0  0  0  0  0  0  0  0  0  0
  151.6797  142.5687  160.4430 H   0  0  0  0  0  0  0  0  0  0  0  0
  1  2  1  0  0  0  0
  1 18  1  0  0  0  0
  1 19  1  0  0  0  0
  1 20  1  0  0  0  0
  2  6  1  0  0  0  0
  2  3  1  0  0  0  0
  3  4  2  0  0  0  0
  3 21  1  0  0  0  0
  4  5  1  0  0  0  0
  5  6  2  0  0  0  0
  5 22  1  0  0  0  0
  6  7  1  0  0  0  0
  7  8  1  0  0  0  0
  7 23  1  0  0  0  0
  7 24  1  0  0  0  0
  8  9  1  0  0  0  0
  8 25  1  0  0  0  0
  8 26  1  0  0  0  0
  9 10  1  0  0  0  0
  9 27  1  0  0  0  0
 10 11  2  0  0  0  0
 10 12  1  0  0  0  0
 12 17  1  0  0  0  0
 12 13  1  0  0  0  0
 12 28  1  0  0  0  0
 13 14  1  0  0  0  0
 13 29  1  0  0  0  0
 13 30  1  0  0  0  0
 14 15  1  0  0  0  0
 14 31  1  0  0  0  0
 14 32  1  0  0  0  0
 15 16  1  0  0  0  0
 15 33  1  0  0  0  0
 15 34  1  0  0  0  0
 16 17  1  0  0  0  0
 16 35  1  0  0  0  0
 16 36  1  0  0  0  0
M  END
> <s_m_source_file>
AV-unprocessed.smi

> <i_m_source_file_index>
2795

> <i_lp_mmshare_version>
43012

> <i_f3d_flags>
0

> <s_epik_input>
W0NIM11uMVtjSF1uW2NIXWMxW0NIMl1bQ0gyXVtOSF1DKD1PKVtDQEBIXTJbQ0gyXVtDSDJdW0NIMl1bQ0gyXU8y

> <s_epik_cmdline>
J2VwaWtfcHl0aG9uJywgJy1waCcsICc3LjAnLCAnLXRuJywgJzgnLCAnLW1hJywgJzIwMCcsICctbWV0YWxfYmluZGluZycsICctaW1hZScsICc8aW5maWxlLm1hZT4nLCAnLW9tYWUnLCAnPG91dGZpbGUubWFlPic=

> <r_lp_tautomer_probability>
1

> <r_epik_Ionization_Penalty>
0.870864

> <r_epik_Ionization_Penalty_Charging>
0.870864

> <r_epik_Ionization_Penalty_Neutral>
4.06047e-08

> <r_epik_State_Penalty>
0.90819

> <r_epik_Charging_Adjusted_Penalty>
1.77905

> <i_epik_Tot_Q>
0

> <i_epik_Tot_abs_Q>
0

> <r_epik_Metal_State_Penalty>
0.360563

> <b_epik_Metal_Only>
0

> <s_lp_Force_Field>
OPLS_2005

> <r_lp_Energy>
9.35516

> <b_lp_Chiralities_Consistent>
1

> <s_lp_Variant>
AV-unprocessed.smi:2795-3

> <Gold.Version>
5.8.1

> <Gold.Id.Protein>
6NUR|6NUR_protein|mol2

> <Gold.PLP.Fitness>
43.0345

> <Gold.PLP.PLP>
-40.2423

> <Gold.PLP.part.hbond>
-1.0000

> <Gold.PLP.part.metal>
0.0000

> <Gold.PLP.part.buried>
-4.3458

> <Gold.PLP.part.nonpolar>
-33.9994

> <Gold.PLP.part.repulsive>
0.1723

> <Gold.PLP.ligand.clash>
0.0000

> <Gold.PLP.ligand.torsion>
0.1063

> <Gold.PLP.Chemscore.Hbond>
1.0000

> <Gold.PLP.Chemscore.CHOScore>
0.0000

> <Gold.PLP.Chemscore.Metal>
0.0000

> <Gold.Chemscore.Hbonds>
donor molecule, donor type, donor heavy atom, donor atom, acceptor molecule, acceptor atom, score
      L1  H     9    27       P1  8028  1.00

> <Gold.PLP.Chemscore.Internal.Correction>
0.0047

> <Gold.Rescore>
     Score         DG    S(hbond)    S(metal)    S(lipo)     H(rot)  DE(clash)    DE(int)     intcor
     14.48     -14.69       0.97        0.00      89.62       1.76       0.11       0.10       ----

> <Gold.Chemscore.Fitness>
14.4799

> <Gold.Chemscore.DG>
-14.6941

> <Gold.Chemscore.ZeroCoef>
-5.4800

> <Gold.Chemscore.Hbond>
0.9673

> <Gold.Chemscore.Metal>
0.0000

> <Gold.Chemscore.Lipo>
89.6168

> <Gold.Chemscore.Internal_Hbond>
0.0000

> <Gold.Chemscore.DEClash>
0.1106

> <Gold.Chemscore.DEInternal>
0.1036

> <Gold.Chemscore.Rot>
1.7585

> <Gold.Chemscore.Internal.Correction>
   9.000000E+99

> <Gold.Chemscore.Hbonds>
donor molecule, donor type, donor heavy atom, donor atom, acceptor molecule, acceptor atom, score
      L1  H     9    27       P1  8028  0.94

> <Gold.Chemscore.Hbond.Weighted>
-3.2307

> <Gold.Chemscore.Metal.Weighted>
-0.0000

> <Gold.Chemscore.Lipo.Weighted>
-10.4852

> <Gold.Chemscore.Internal_Hbond.Weighted>
0.0000

> <Gold.Chemscore.DEClash.Weighted>
0.1106

> <Gold.Chemscore.DEInternal.Weighted>
0.1036

> <Gold.Chemscore.Rot.Weighted>
4.5018

> <Gold.Chemscore.Internal.Correction.Weighted>
   9.000000E+99

> <Gold.Protein.RotatedTorsions>
[ 6907 6896 6895 6894 ] final  158.02 input  -60.11 | X-H torsion
[ 7974 7965 7964 7962 ] final  -29.45 input  175.53 | X-H torsion
[ 8008 7997 7996 7995 ] final   78.55 input   59.86 | X-H torsion
[ 10167 10162 10161 10158 ] final  128.91 input  -65.29 | X-H torsion
[ 10718 10713 10712 10709 ] final  -87.23 input   66.30 | X-H torsion
[ 10763 10752 10751 10750 ] final  -46.52 input  -60.55 | X-H torsion
[ 11005 11000 10999 10996 ] final   11.88 input  -57.11 | X-H torsion

> <Gold.Protein.ActiveResidues>
 VAL166  LYS551  ARG553  GLY616  TRP617  ASP618  TYR619  PRO620  LYS621  CYS622 
 ASP623  PHE694  ASN695  SER759  ASP760  ASP761  ALA762  ILE779  LEU786  VAL792 
 PHE793  MET794  SER795  GLU796  ALA797  LYS798  CYS799  TRP800  GLU811  SER814 

> <Gold.Protein.RotatedAtoms>
  152.0066  133.3845  159.4202 H   0  0  0  0  0  0  0  0  0  0  0  0  # atno 6907 bound_to 6896
  150.6904  134.3776  159.5029 H   0  0  0  0  0  0  0  0  0  0  0  0  # atno 6908 bound_to 6896
  152.1531  134.8972  160.0597 H   0  0  0  0  0  0  0  0  0  0  0  0  # atno 6909 bound_to 6896
  146.1215  140.5414  142.8733 H   0  0  0  0  0  0  0  0  0  0  0  0  # atno 7974 bound_to 7965
  155.8573  140.3455  155.5733 H   0  0  0  0  0  0  0  0  0  0  0  0  # atno 8008 bound_to 7997
  155.7972  140.0880  157.1996 H   0  0  0  0  0  0  0  0  0  0  0  0  # atno 8009 bound_to 7997
  154.4010  140.1472  156.3219 H   0  0  0  0  0  0  0  0  0  0  0  0  # atno 8010 bound_to 7997
  139.5504  144.6808  151.4342 H   0  0  0  0  0  0  0  0  0  0  0  0  # atno 10167 bound_to 10162
  155.9986  130.4792  150.4835 H   0  0  0  0  0  0  0  0  0  0  0  0  # atno 10718 bound_to 10713
  154.0463  135.6637  153.4795 H   0  0  0  0  0  0  0  0  0  0  0  0  # atno 10763 bound_to 10752
  153.0481  135.5101  154.7794 H   0  0  0  0  0  0  0  0  0  0  0  0  # atno 10764 bound_to 10752
  154.6786  135.3041  154.9611 H   0  0  0  0  0  0  0  0  0  0  0  0  # atno 10765 bound_to 10752
  140.4982  134.0772  155.7787 H   0  0  0  0  0  0  0  0  0  0  0  0  # atno 11005 bound_to 11000
  144.7602  140.5403  143.6741 LP  0  0  0  0  0  0  0  0  0  0  0  0  # atno 17320 bound_to 7965
  145.5455  139.1476  143.3423 LP  0  0  0  0  0  0  0  0  0  0  0  0  # atno 17321 bound_to 7965
  140.6764  143.8179  150.7064 LP  0  0  0  0  0  0  0  0  0  0  0  0  # atno 17342 bound_to 10162
  140.1619  143.4268  152.2061 LP  0  0  0  0  0  0  0  0  0  0  0  0  # atno 17343 bound_to 10162
  157.2837  131.0612  151.2180 LP  0  0  0  0  0  0  0  0  0  0  0  0  # atno 17370 bound_to 10713
  157.3217  130.6940  149.6273 LP  0  0  0  0  0  0  0  0  0  0  0  0  # atno 17371 bound_to 10713
  141.1449  133.9073  157.2239 LP  0  0  0  0  0  0  0  0  0  0  0  0  # atno 17394 bound_to 11000
  139.9729  135.0123  156.9557 LP  0  0  0  0  0  0  0  0  0  0  0  0  # atno 17395 bound_to 11000

$$$$
