AV-unprocessed.smi:763|AV-procd|sdf|3634|dock7
  -GOLD-   22720 1 33D 1   1.00000     0.00000
 Structure written by MMmdl.
 44 45  0  0  0  0  0  0  0  0  1 V2000
  145.3257  132.1779  149.7905 C   0  0  0  0  0  0  0  0  0  0  0  0
  144.8747  133.0590  150.8071 O   0  0  0  0  0  0  0  0  0  0  0  0
  145.9138  133.7912  151.4418 C   0  0  0  0  0  0  0  0  0  0  0  0
  146.8859  132.8736  152.1977 C   0  0  0  0  0  0  0  0  0  0  0  0
  147.8771  133.6813  152.8253 O   0  0  0  0  0  0  0  0  0  0  0  0
  148.8218  133.0696  153.6269 C   0  0  0  0  0  0  0  0  0  0  0  0
  148.8249  131.7152  153.7089 N   0  0  0  0  0  0  0  0  0  0  0  0
  149.7516  131.1219  154.4901 C   0  0  0  0  0  0  0  0  0  0  0  0
  150.7158  131.8385  155.2234 C   0  0  0  0  0  0  0  0  0  0  0  0
  150.7117  133.2431  155.1400 C   0  0  0  0  0  0  0  0  0  0  0  0
  149.7467  133.8766  154.3274 C   0  0  0  0  0  0  0  0  0  0  0  0
  149.6884  135.2678  154.2057 N   0  0  0  0  0  0  0  0  0  0  0  0
  150.7001  136.4591  154.9552 S   0  0  0  0  0  0  0  0  0  0  0  0
  151.0458  135.9096  156.2754 O   0  0  0  0  0  0  0  0  0  0  0  0
  151.7420  136.7714  153.9650 O   0  0  0  0  0  0  0  0  0  0  0  0
  149.5522  137.9041  155.1578 C   0  0  2  0  0  0  0  0  0  0  0  0
  148.1011  137.4610  154.8787 C   0  0  0  0  0  0  0  0  0  0  0  0
  147.1124  138.6297  155.0033 C   0  0  0  0  0  0  0  0  0  0  0  0
  147.5161  139.7927  154.0860 C   0  0  0  0  0  0  0  0  0  0  0  0
  148.9454  140.2623  154.3932 C   0  0  0  0  0  0  0  0  0  0  0  0
  149.9591  139.1090  154.2739 C   0  0  1  0  0  0  0  0  0  0  0  0
  151.2236  139.6088  154.6570 O   0  0  0  0  0  0  0  0  0  0  0  0
  144.4673  131.6982  149.3204 H   0  0  0  0  0  0  0  0  0  0  0  0
  145.9647  131.3907  150.1905 H   0  0  0  0  0  0  0  0  0  0  0  0
  145.8742  132.7150  149.0158 H   0  0  0  0  0  0  0  0  0  0  0  0
  146.4414  134.4275  150.7295 H   0  0  0  0  0  0  0  0  0  0  0  0
  145.4349  134.4601  152.1573 H   0  0  0  0  0  0  0  0  0  0  0  0
  146.3386  132.3096  152.9549 H   0  0  0  0  0  0  0  0  0  0  0  0
  147.3489  132.1626  151.5120 H   0  0  0  0  0  0  0  0  0  0  0  0
  149.7234  130.0431  154.5315 H   0  0  0  0  0  0  0  0  0  0  0  0
  151.4406  131.3237  155.8365 H   0  0  0  0  0  0  0  0  0  0  0  0
  151.4408  133.8141  155.6953 H   0  0  0  0  0  0  0  0  0  0  0  0
  148.9516  135.6156  153.6095 H   0  0  0  0  0  0  0  0  0  0  0  0
  149.6169  138.2005  156.2057 H   0  0  0  0  0  0  0  0  0  0  0  0
  148.0304  137.0398  153.8753 H   0  0  0  0  0  0  0  0  0  0  0  0
  147.8118  136.6662  155.5668 H   0  0  0  0  0  0  0  0  0  0  0  0
  146.1057  138.2927  154.7548 H   0  0  0  0  0  0  0  0  0  0  0  0
  147.0770  138.9722  156.0382 H   0  0  0  0  0  0  0  0  0  0  0  0
  147.4484  139.4796  153.0433 H   0  0  0  0  0  0  0  0  0  0  0  0
  146.8179  140.6215  154.2076 H   0  0  0  0  0  0  0  0  0  0  0  0
  149.2197  141.0724  153.7164 H   0  0  0  0  0  0  0  0  0  0  0  0
  148.9763  140.6793  155.4011 H   0  0  0  0  0  0  0  0  0  0  0  0
  150.0179  138.7992  153.2302 H   0  0  0  0  0  0  0  0  0  0  0  0
  151.3683  139.3974  155.5673 H   0  0  0  0  0  0  0  0  0  0  0  0
  1  2  1  0  0  0  0
  1 23  1  0  0  0  0
  1 24  1  0  0  0  0
  1 25  1  0  0  0  0
  2  3  1  0  0  0  0
  3  4  1  0  0  0  0
  3 26  1  0  0  0  0
  3 27  1  0  0  0  0
  4  5  1  0  0  0  0
  4 28  1  0  0  0  0
  4 29  1  0  0  0  0
  5  6  1  0  0  0  0
  6 11  1  0  0  0  0
  6  7  2  0  0  0  0
  7  8  1  0  0  0  0
  8  9  2  0  0  0  0
  8 30  1  0  0  0  0
  9 10  1  0  0  0  0
  9 31  1  0  0  0  0
 10 11  2  0  0  0  0
 10 32  1  0  0  0  0
 11 12  1  0  0  0  0
 12 13  1  0  0  0  0
 12 33  1  0  0  0  0
 13 14  2  0  0  0  0
 13 15  2  0  0  0  0
 13 16  1  0  0  0  0
 16 21  1  0  0  0  0
 16 17  1  0  0  0  0
 16 34  1  0  0  0  0
 17 18  1  0  0  0  0
 17 35  1  0  0  0  0
 17 36  1  0  0  0  0
 18 19  1  0  0  0  0
 18 37  1  0  0  0  0
 18 38  1  0  0  0  0
 19 20  1  0  0  0  0
 19 39  1  0  0  0  0
 19 40  1  0  0  0  0
 20 21  1  0  0  0  0
 20 41  1  0  0  0  0
 20 42  1  0  0  0  0
 21 22  1  0  0  0  0
 21 43  1  0  0  0  0
 22 44  1  0  0  0  0
M  END
> <s_m_source_file>
AV-unprocessed.smi

> <i_m_source_file_index>
763

> <i_lp_mmshare_version>
43012

> <i_f3d_flags>
0

> <s_epik_input>
W0NIM11PW0NIMl1bQ0gyXU9jMW5bY0hdW2NIXVtjSF1jMVtOSF1TKD1PKSg9TylbQ0BASF0yW0NIMl1bQ0gyXVtDSDJdW0NIMl1bQ0BIXTJbT0hd

> <s_epik_cmdline>
J2VwaWtfcHl0aG9uJywgJy1waCcsICc3LjAnLCAnLXRuJywgJzgnLCAnLW1hJywgJzIwMCcsICctbWV0YWxfYmluZGluZycsICctaW1hZScsICc8aW5maWxlLm1hZT4nLCAnLW9tYWUnLCAnPG91dGZpbGUubWFlPic=

> <r_epik_Ionization_Penalty>
0.124685

> <r_epik_Ionization_Penalty_Charging>
0

> <r_epik_Ionization_Penalty_Neutral>
0.124685

> <r_epik_State_Penalty>
0.114154

> <r_epik_Charging_Adjusted_Penalty>
0.114154

> <i_epik_Tot_Q>
0

> <i_epik_Tot_abs_Q>
0

> <r_epik_Metal_State_Penalty>
0.443785

> <b_epik_Metal_Only>
0

> <s_lp_Force_Field>
OPLS_2005

> <r_lp_Energy>
9.05246

> <b_lp_Chiralities_Consistent>
1

> <s_lp_Variant>
AV-unprocessed.smi:763-1

> <Gold.Version>
5.8.1

> <Gold.Id.Protein>
6NUR|6NUR_protein|mol2

> <Gold.PLP.Fitness>
41.9943

> <Gold.PLP.PLP>
-34.0848

> <Gold.PLP.part.hbond>
-3.0000

> <Gold.PLP.part.metal>
0.0000

> <Gold.PLP.part.buried>
-5.7188

> <Gold.PLP.part.nonpolar>
-27.8485

> <Gold.PLP.part.repulsive>
2.5884

> <Gold.PLP.ligand.clash>
0.0000

> <Gold.PLP.ligand.torsion>
0.9319

> <Gold.PLP.Chemscore.Hbond>
2.8160

> <Gold.PLP.Chemscore.CHOScore>
0.0000

> <Gold.PLP.Chemscore.Metal>
0.0000

> <Gold.Chemscore.Hbonds>
donor molecule, donor type, donor heavy atom, donor atom, acceptor molecule, acceptor atom, score
      L1  H    12    33       P1  7948  0.61
      P1  H  7989  7998       L1    22  1.00
      P1  H 10752 10763       L1    15  1.00

> <Gold.PLP.Chemscore.Internal.Correction>
1.3253

> <Gold.Rescore>
     Score         DG    S(hbond)    S(metal)    S(lipo)     H(rot)  DE(clash)    DE(int)     intcor
     13.33     -16.19       2.64        0.00      68.81       2.41       0.23       2.62       ----

> <Gold.Chemscore.Fitness>
13.3321

> <Gold.Chemscore.DG>
-16.1861

> <Gold.Chemscore.ZeroCoef>
-5.4800

> <Gold.Chemscore.Hbond>
2.6386

> <Gold.Chemscore.Metal>
0.0000

> <Gold.Chemscore.Lipo>
68.8100

> <Gold.Chemscore.Internal_Hbond>
0.0000

> <Gold.Chemscore.DEClash>
0.2343

> <Gold.Chemscore.DEInternal>
2.6197

> <Gold.Chemscore.Rot>
2.4052

> <Gold.Chemscore.Internal.Correction>
   9.000000E+99

> <Gold.Chemscore.Hbonds>
donor molecule, donor type, donor heavy atom, donor atom, acceptor molecule, acceptor atom, score
      L1  H    12    33       P1  7948  0.53
      P1  H  7989  7998       L1    22  0.60
      P1  H 10752 10763       L1    15  0.70

> <Gold.Chemscore.Hbond.Weighted>
-8.8128

> <Gold.Chemscore.Metal.Weighted>
-0.0000

> <Gold.Chemscore.Lipo.Weighted>
-8.0508

> <Gold.Chemscore.Internal_Hbond.Weighted>
0.0000

> <Gold.Chemscore.DEClash.Weighted>
0.2343

> <Gold.Chemscore.DEInternal.Weighted>
2.6197

> <Gold.Chemscore.Rot.Weighted>
6.1574

> <Gold.Chemscore.Internal.Correction.Weighted>
   9.000000E+99

> <Gold.Protein.RotatedTorsions>
[ 6907 6896 6895 6894 ] final   79.84 input  -60.11 | X-H torsion
[ 7974 7965 7964 7962 ] final -117.84 input  175.53 | X-H torsion
[ 8008 7997 7996 7995 ] final   86.65 input   59.86 | X-H torsion
[ 10167 10162 10161 10158 ] final -156.48 input  -65.29 | X-H torsion
[ 10718 10713 10712 10709 ] final  117.61 input   66.30 | X-H torsion
[ 10763 10752 10751 10750 ] final   32.66 input  -60.55 | X-H torsion
[ 11005 11000 10999 10996 ] final  -80.67 input  -57.11 | X-H torsion

> <Gold.Protein.ActiveResidues>
 VAL166  LYS551  ARG553  GLY616  TRP617  ASP618  TYR619  PRO620  LYS621  CYS622 
 ASP623  PHE694  ASN695  SER759  ASP760  ASP761  ALA762  ILE779  LEU786  VAL792 
 PHE793  MET794  SER795  GLU796  ALA797  LYS798  CYS799  TRP800  GLU811  SER814 

> <Gold.Protein.RotatedAtoms>
  152.5213  134.3450  159.9230 H   0  0  0  0  0  0  0  0  0  0  0  0  # atno 6907 bound_to 6896
  151.3400  133.3960  159.2678 H   0  0  0  0  0  0  0  0  0  0  0  0  # atno 6908 bound_to 6896
  150.9811  134.9184  159.7902 H   0  0  0  0  0  0  0  0  0  0  0  0  # atno 6909 bound_to 6896
  145.0807  140.8423  143.4041 H   0  0  0  0  0  0  0  0  0  0  0  0  # atno 7974 bound_to 7965
  155.9654  140.3390  155.6528 H   0  0  0  0  0  0  0  0  0  0  0  0  # atno 8008 bound_to 7997
  155.6744  140.0730  157.2526 H   0  0  0  0  0  0  0  0  0  0  0  0  # atno 8009 bound_to 7997
  154.4153  140.1686  156.1901 H   0  0  0  0  0  0  0  0  0  0  0  0  # atno 8010 bound_to 7997
  139.6847  143.9522  152.2355 H   0  0  0  0  0  0  0  0  0  0  0  0  # atno 10167 bound_to 10162
  157.6085  131.1039  150.7639 H   0  0  0  0  0  0  0  0  0  0  0  0  # atno 10718 bound_to 10713
  153.0251  135.6407  154.1390 H   0  0  0  0  0  0  0  0  0  0  0  0  # atno 10763 bound_to 10752
  154.1120  135.2852  155.3230 H   0  0  0  0  0  0  0  0  0  0  0  0  # atno 10764 bound_to 10752
  154.6325  135.5488  153.7759 H   0  0  0  0  0  0  0  0  0  0  0  0  # atno 10765 bound_to 10752
  141.1667  133.7161  156.8307 H   0  0  0  0  0  0  0  0  0  0  0  0  # atno 11005 bound_to 11000
  145.1182  139.2711  143.5602 LP  0  0  0  0  0  0  0  0  0  0  0  0  # atno 17320 bound_to 7965
  146.3531  140.0798  142.8618 LP  0  0  0  0  0  0  0  0  0  0  0  0  # atno 17321 bound_to 7965
  139.9321  144.6734  150.8352 LP  0  0  0  0  0  0  0  0  0  0  0  0  # atno 17342 bound_to 10162
  140.7664  143.3301  151.2429 LP  0  0  0  0  0  0  0  0  0  0  0  0  # atno 17343 bound_to 10162
  156.8022  130.4925  149.5368 LP  0  0  0  0  0  0  0  0  0  0  0  0  # atno 17370 bound_to 10713
  156.1179  130.6089  151.0149 LP  0  0  0  0  0  0  0  0  0  0  0  0  # atno 17371 bound_to 10713
  140.2053  134.8867  157.3215 LP  0  0  0  0  0  0  0  0  0  0  0  0  # atno 17394 bound_to 11000
  140.2144  134.4100  155.7597 LP  0  0  0  0  0  0  0  0  0  0  0  0  # atno 17395 bound_to 11000

$$$$
