#       Name:                AV-unprocessed.smi:2708
#       Creating user name   scv26
#       Creation time:       Fri Mar 27 14:49:55 2020


#       File generated by GOLD software.
#

@<TRIPOS>MOLECULE
AV-unprocessed.smi:2708
    42    42     1
SMALL
NO_CHARGES


@<TRIPOS>ATOM
      1 ****        -3.1273   0.7688  -1.8339 C.3            1 S1                 0.0000
      2 ****        -2.7292   2.0680  -1.1125 C.3            1 S1                 0.0000
      3 ****        -1.2874   2.0351  -0.8774 N.am           1 S1                 0.0000
      4 ****        -0.6301   2.7296   0.0655 C.2            1 S1                 0.0000
      5 ****        -1.1820   3.4812   0.8695 O.2            1 S1                 0.0000
      6 ****         0.8866   2.5407   0.1121 C.3            1 S1                 0.0000
      7 ****         1.2285   1.3158   0.9094 C.2            1 S1                 0.0000
      8 ****         1.5917   1.2693   2.2316 C.2            1 S1                 0.0000
      9 ****         1.8887  -0.3609   2.7657 S.3            1 S1                 0.0000
     10 ****         1.5080  -0.9422   1.1404 C.2            1 S1                 0.0000
     11 ****         1.5069  -2.3909   0.7155 C.3            1 S1                 0.0000
     12 ****         0.0848  -2.8078   0.2927 C.3            1 S1                 0.0000
     13 ****         1.9429  -3.3154   1.8730 C.3            1 S1                 0.0000
     14 ****         2.5008  -2.5979  -0.4439 C.3            1 S1                 0.0000
     15 ****         1.1955   0.0549   0.3051 N.2            1 S1                 0.0000
     16 ****        -3.0980   3.2579  -2.0129 C.2            1 S1                 0.0000
     17 ****        -4.0202   4.0031  -1.6155 O.co2          1 S1                 0.0000
     18 ****        -2.4609   3.4020  -3.0809 O.co2          1 S1                -1.0000
     19 ****        -3.2653   2.1375  -0.1639 H              1 S1                 0.0000
     20 ****        -4.1963   0.7478  -2.0495 H              1 S1                 0.0000
     21 ****        -2.9038  -0.1013  -1.2156 H              1 S1                 0.0000
     22 ****        -2.5943   0.6458  -2.7782 H              1 S1                 0.0000
     23 ****        -0.7446   1.4520  -1.4974 H              1 S1                 0.0000
     24 ****         1.2771   2.4661  -0.9038 H              1 S1                 0.0000
     25 ****         1.3445   3.4273   0.5525 H              1 S1                 0.0000
     26 ****         1.6944   2.0928   2.9225 H              1 S1                 0.0000
     27 ****         0.0486  -3.8562  -0.0049 H              1 S1                 0.0000
     28 ****        -0.2703  -2.2177  -0.5532 H              1 S1                 0.0000
     29 ****        -0.6263  -2.6718   1.1083 H              1 S1                 0.0000
     30 ****         1.2685  -3.2380   2.7267 H              1 S1                 0.0000
     31 ****         2.9493  -3.0778   2.2201 H              1 S1                 0.0000
     32 ****         1.9486  -4.3614   1.5641 H              1 S1                 0.0000
     33 ****         2.5324  -3.6412  -0.7600 H              1 S1                 0.0000
     34 ****         3.5124  -2.3095  -0.1553 H              1 S1                 0.0000
     35 ****         2.2263  -2.0042  -1.3167 H              1 S1                 0.0000
     36 ****        -2.1745   3.6006   0.8423 LP             1 S1                 0.0000
     37 ****        -0.6378   3.9722   1.5498 LP             1 S1                 0.0000
     38 ****         0.9614  -0.0873  -0.6566 LP             1 S1                 0.0000
     39 ****        -4.3011   4.7885  -2.1669 LP             1 S1                 0.0000
     40 ****        -4.4768   3.8135  -0.7462 LP             1 S1                 0.0000
     41 ****        -2.6770   4.1624  -3.6933 LP             1 S1                 0.0000
     42 ****        -1.7360   2.7566  -3.3216 LP             1 S1                 0.0000
@<TRIPOS>BOND
    1    1    2 1     
    2    1   20 1     
    3    1   21 1     
    4    1   22 1     
    5    2   19 1     
    6    2    3 1     
    7    2   16 1     
    8    3    4 am    
    9    3   23 1     
   10    4    5 2     
   11    4    6 1     
   12    6    7 1     
   13    6   24 1     
   14    6   25 1     
   15    7   15 1     
   16    7    8 2     
   17    8    9 1     
   18    8   26 1     
   19    9   10 1     
   20   10   11 1     
   21   10   15 2     
   22   11   12 1     
   23   11   13 1     
   24   11   14 1     
   25   12   27 1     
   26   12   28 1     
   27   12   29 1     
   28   13   30 1     
   29   13   31 1     
   30   13   32 1     
   31   14   33 1     
   32   14   34 1     
   33   14   35 1     
   34   16   17 ar    
   35   16   18 ar    
   36    5   36 1     
   37    5   37 1     
   38   15   38 1     
   39   17   39 1     
   40   17   40 1     
   41   18   41 1     
   42   18   42 1     
@<TRIPOS>SUBSTRUCTURE
      1 S1             1
@<TRIPOS>SET
LONE_PAIRS      STATIC     ATOMS    <user>   **** ""
7 36 37 38 39 40 41 42
DONOR_HYDROGENS      STATIC     ATOMS    <user>   **** ""
1 23
ATOM$BLUE        STATIC     ATOMS    COLORGROUP SYSTEM
7 36 37 38 39 40 41 42
ATOM$RED        STATIC     ATOMS    COLORGROUP SYSTEM
1 23
