AV-unprocessed.smi:15|AV-procd|sdf|80|dock10
  -GOLD-   2262015213D 1   1.00000     0.00000
 Structure written by MMmdl.
 53 56  0  0  0  0  0  0  0  0  1 V2000
  154.4294  140.1808  161.8261 C   0  0  0  0  0  0  0  0  0  0  0  0
  153.4019  141.1433  161.2168 C   0  0  0  0  0  0  0  0  0  0  0  0
  153.2362  140.9575  159.7752 N   0  0  0  0  0  0  0  0  0  0  0  0
  153.0701  142.1186  158.8986 C   0  0  0  0  0  0  0  0  0  0  0  0
  152.6573  143.3951  159.6558 C   0  0  1  0  0  0  0  0  0  0  0  0
  152.4883  144.6138  158.7517 C   0  0  0  0  0  0  0  0  0  0  0  0
  151.5234  145.5005  159.5244 C   0  0  0  0  0  0  0  0  0  0  0  0
  150.9174  144.5654  160.5751 C   0  0  0  0  0  0  0  0  0  0  0  0
  151.3553  143.2664  160.2066 O   0  0  0  0  0  0  0  0  0  0  0  0
  152.5672  139.8519  159.3658 C   0  0  0  0  0  0  0  0  0  0  0  0
  153.0192  138.6493  159.8048 N   0  0  0  0  0  0  0  0  0  0  0  0
  152.4181  137.5214  159.4159 C   0  0  0  0  0  0  0  0  0  0  0  0
  151.3744  137.3711  158.5987 N   0  0  0  0  0  0  0  0  0  0  0  0
  150.9237  138.5755  158.1447 C   0  0  0  0  0  0  0  0  0  0  0  0
  151.4524  139.8550  158.4772 C   0  0  0  0  0  0  0  0  0  0  0  0
  150.7401  140.8447  157.8081 N   0  0  0  0  0  0  0  0  0  0  0  0
  149.8391  140.1896  157.1291 C   0  0  0  0  0  0  0  0  0  0  0  0
  149.8853  138.8208  157.2636 N   0  0  0  0  0  0  0  0  0  0  0  0
  149.0141  137.8511  156.6194 C   0  0  0  0  0  0  0  0  0  0  0  0
  149.4305  137.4997  155.1649 C   0  0  1  0  0  0  0  0  0  0  0  0
  148.2748  137.2166  154.3984 O   0  0  0  0  0  0  0  0  0  0  0  0
  150.2296  138.5936  154.4664 C   0  0  0  0  0  0  0  0  0  0  0  0
  151.6471  138.3402  154.9701 C   0  0  0  0  0  0  0  0  0  0  0  0
  151.7265  136.9370  155.2051 O   0  0  0  0  0  0  0  0  0  0  0  0
  150.4396  136.3394  155.0645 C   0  0  1  0  0  0  0  0  0  0  0  0
  150.2655  135.1837  156.0609 C   0  0  0  0  0  0  0  0  0  0  0  0
  154.4681  140.2985  162.9091 H   0  0  0  0  0  0  0  0  0  0  0  0
  155.4334  140.3646  161.4449 H   0  0  0  0  0  0  0  0  0  0  0  0
  154.1704  139.1429  161.6149 H   0  0  0  0  0  0  0  0  0  0  0  0
  152.4454  140.9796  161.7152 H   0  0  0  0  0  0  0  0  0  0  0  0
  153.6916  142.1727  161.4267 H   0  0  0  0  0  0  0  0  0  0  0  0
  154.0127  142.2982  158.3828 H   0  0  0  0  0  0  0  0  0  0  0  0
  152.3467  141.9017  158.1116 H   0  0  0  0  0  0  0  0  0  0  0  0
  153.3668  143.6296  160.4509 H   0  0  0  0  0  0  0  0  0  0  0  0
  153.4352  145.1073  158.5310 H   0  0  0  0  0  0  0  0  0  0  0  0
  152.0337  144.3196  157.8047 H   0  0  0  0  0  0  0  0  0  0  0  0
  152.0422  146.3311  160.0043 H   0  0  0  0  0  0  0  0  0  0  0  0
  150.7615  145.9162  158.8640 H   0  0  0  0  0  0  0  0  0  0  0  0
  151.3002  144.8034  161.5687 H   0  0  0  0  0  0  0  0  0  0  0  0
  149.8289  144.6172  160.6073 H   0  0  0  0  0  0  0  0  0  0  0  0
  152.8361  136.6083  159.8133 H   0  0  0  0  0  0  0  0  0  0  0  0
  149.1161  140.6897  156.5011 H   0  0  0  0  0  0  0  0  0  0  0  0
  148.9940  136.9518  157.2359 H   0  0  0  0  0  0  0  0  0  0  0  0
  148.0000  138.2524  156.6376 H   0  0  0  0  0  0  0  0  0  0  0  0
  148.5480  136.9462  153.5351 H   0  0  0  0  0  0  0  0  0  0  0  0
  150.2102  138.4429  153.3855 H   0  0  0  0  0  0  0  0  0  0  0  0
  149.8813  139.6086  154.6544 H   0  0  0  0  0  0  0  0  0  0  0  0
  152.4046  138.6685  154.2582 H   0  0  0  0  0  0  0  0  0  0  0  0
  151.8199  138.8627  155.9115 H   0  0  0  0  0  0  0  0  0  0  0  0
  150.4058  135.9312  154.0523 H   0  0  0  0  0  0  0  0  0  0  0  0
  149.2719  134.7431  155.9791 H   0  0  0  0  0  0  0  0  0  0  0  0
  150.4074  135.5118  157.0906 H   0  0  0  0  0  0  0  0  0  0  0  0
  150.9937  134.3959  155.8677 H   0  0  0  0  0  0  0  0  0  0  0  0
  1  2  1  0  0  0  0
  1 27  1  0  0  0  0
  1 28  1  0  0  0  0
  1 29  1  0  0  0  0
  2  3  1  0  0  0  0
  2 30  1  0  0  0  0
  2 31  1  0  0  0  0
  3  4  1  0  0  0  0
  3 10  1  0  0  0  0
  4  5  1  0  0  0  0
  4 32  1  0  0  0  0
  4 33  1  0  0  0  0
  5  9  1  0  0  0  0
  5  6  1  0  0  0  0
  5 34  1  0  0  0  0
  6  7  1  0  0  0  0
  6 35  1  0  0  0  0
  6 36  1  0  0  0  0
  7  8  1  0  0  0  0
  7 37  1  0  0  0  0
  7 38  1  0  0  0  0
  8  9  1  0  0  0  0
  8 39  1  0  0  0  0
  8 40  1  0  0  0  0
 10 15  1  0  0  0  0
 10 11  2  0  0  0  0
 11 12  1  0  0  0  0
 12 13  2  0  0  0  0
 12 41  1  0  0  0  0
 13 14  1  0  0  0  0
 14 18  1  0  0  0  0
 14 15  2  0  0  0  0
 15 16  1  0  0  0  0
 16 17  2  0  0  0  0
 17 18  1  0  0  0  0
 17 42  1  0  0  0  0
 18 19  1  0  0  0  0
 19 20  1  0  0  0  0
 19 43  1  0  0  0  0
 19 44  1  0  0  0  0
 20 25  1  0  0  0  0
 20 21  1  0  0  0  0
 20 22  1  0  0  0  0
 21 45  1  0  0  0  0
 22 23  1  0  0  0  0
 22 46  1  0  0  0  0
 22 47  1  0  0  0  0
 23 24  1  0  0  0  0
 23 48  1  0  0  0  0
 23 49  1  0  0  0  0
 24 25  1  0  0  0  0
 25 26  1  0  0  0  0
 25 50  1  0  0  0  0
 26 51  1  0  0  0  0
 26 52  1  0  0  0  0
 26 53  1  0  0  0  0
M  END
> <s_m_source_file>
AV-unprocessed.smi

> <i_m_source_file_index>
15

> <i_lp_mmshare_version>
43012

> <i_f3d_flags>
0

> <s_epik_input>
TzFbQ0gyXVtDSDJdW0NIMl1bQ0BIXTFbQ0gyXU4oW0NIMl1bQ0gzXSljKG5bY0hdbjIpYyhjMjMpbltjSF1uM1tDSDJdW0NAQF00KFtPSF0pW0NIMl1bQ0gyXU9bQ0BIXTRbQ0gzXQ==

> <s_epik_cmdline>
J2VwaWtfcHl0aG9uJywgJy1waCcsICc3LjAnLCAnLXRuJywgJzgnLCAnLW1hJywgJzIwMCcsICctbWV0YWxfYmluZGluZycsICctaW1hZScsICc8aW5maWxlLm1hZT4nLCAnLW9tYWUnLCAnPG91dGZpbGUubWFlPic=

> <r_lp_tautomer_probability>
1

> <r_epik_Ionization_Penalty>
0.00360814

> <r_epik_Ionization_Penalty_Charging>
0

> <r_epik_Ionization_Penalty_Neutral>
0.00360814

> <r_epik_State_Penalty>
0.00237482

> <r_epik_Charging_Adjusted_Penalty>
0.00237482

> <i_epik_Tot_Q>
0

> <i_epik_Tot_abs_Q>
0

> <r_epik_Metal_State_Penalty>
-0

> <b_epik_Metal_Only>
0

> <s_lp_Force_Field>
OPLS_2005

> <r_lp_Energy>
45.9982

> <b_lp_Chiralities_Consistent>
1

> <s_lp_Variant>
AV-unprocessed.smi:15-2

> <Gold.Version>
5.8.1

> <Gold.Id.Protein>
6NUR|6NUR_protein|mol2

> <Gold.PLP.Fitness>
50.5959

> <Gold.PLP.PLP>
-47.5269

> <Gold.PLP.part.hbond>
-2.4806

> <Gold.PLP.part.metal>
0.0000

> <Gold.PLP.part.buried>
-8.1427

> <Gold.PLP.part.nonpolar>
-37.5706

> <Gold.PLP.part.repulsive>
0.1477

> <Gold.PLP.ligand.clash>
0.0000

> <Gold.PLP.ligand.torsion>
1.9122

> <Gold.PLP.Chemscore.Hbond>
2.0000

> <Gold.PLP.Chemscore.CHOScore>
0.0000

> <Gold.PLP.Chemscore.Metal>
0.0000

> <Gold.Chemscore.Hbonds>
donor molecule, donor type, donor heavy atom, donor atom, acceptor molecule, acceptor atom, score
      L1  H    21    45       P1  7948  1.00
      P1  H 10752 10764       L1    24  1.00

> <Gold.PLP.Chemscore.Internal.Correction>
0.8934

> <Gold.Rescore>
     Score         DG    S(hbond)    S(metal)    S(lipo)     H(rot)  DE(clash)    DE(int)     intcor
     12.39     -18.49       1.95        0.00     109.08       2.44       0.36       5.74       ----

> <Gold.Chemscore.Fitness>
12.3936

> <Gold.Chemscore.DG>
-18.4873

> <Gold.Chemscore.ZeroCoef>
-5.4800

> <Gold.Chemscore.Hbond>
1.9458

> <Gold.Chemscore.Metal>
0.0000

> <Gold.Chemscore.Lipo>
109.0831

> <Gold.Chemscore.Internal_Hbond>
0.0000

> <Gold.Chemscore.DEClash>
0.3572

> <Gold.Chemscore.DEInternal>
5.7364

> <Gold.Chemscore.Rot>
2.4431

> <Gold.Chemscore.Internal.Correction>
   9.000000E+99

> <Gold.Chemscore.Hbonds>
donor molecule, donor type, donor heavy atom, donor atom, acceptor molecule, acceptor atom, score
      L1  H    21    45       P1  7948  1.00
      P1  H 10752 10764       L1    24  0.44

> <Gold.Chemscore.Hbond.Weighted>
-6.4990

> <Gold.Chemscore.Metal.Weighted>
-0.0000

> <Gold.Chemscore.Lipo.Weighted>
-12.7627

> <Gold.Chemscore.Internal_Hbond.Weighted>
0.0000

> <Gold.Chemscore.DEClash.Weighted>
0.3572

> <Gold.Chemscore.DEInternal.Weighted>
5.7364

> <Gold.Chemscore.Rot.Weighted>
6.2544

> <Gold.Chemscore.Internal.Correction.Weighted>
   9.000000E+99

> <Gold.Protein.RotatedTorsions>
[ 6907 6896 6895 6894 ] final  -22.10 input  -60.11 | X-H torsion
[ 7974 7965 7964 7962 ] final   25.81 input  175.53 | X-H torsion
[ 8008 7997 7996 7995 ] final   79.16 input   59.86 | X-H torsion
[ 10167 10162 10161 10158 ] final   26.80 input  -65.29 | X-H torsion
[ 10718 10713 10712 10709 ] final   86.35 input   66.30 | X-H torsion
[ 10763 10752 10751 10750 ] final  -65.63 input  -60.55 | X-H torsion
[ 11005 11000 10999 10996 ] final   66.12 input  -57.11 | X-H torsion

> <Gold.Protein.ActiveResidues>
 VAL166  LYS551  ARG553  GLY616  TRP617  ASP618  TYR619  PRO620  LYS621  CYS622 
 ASP623  PHE694  ASN695  SER759  ASP760  ASP761  ALA762  ILE779  LEU786  VAL792 
 PHE793  MET794  SER795  GLU796  ALA797  LYS798  CYS799  TRP800  GLU811  SER814 

> <Gold.Protein.RotatedAtoms>
  151.2236  135.0528  159.8959 H   0  0  0  0  0  0  0  0  0  0  0  0  # atno 6907 bound_to 6896
  152.5413  134.0614  159.8164 H   0  0  0  0  0  0  0  0  0  0  0  0  # atno 6908 bound_to 6896
  151.0783  133.5362  159.2654 H   0  0  0  0  0  0  0  0  0  0  0  0  # atno 6909 bound_to 6896
  146.1870  139.7415  142.8859 H   0  0  0  0  0  0  0  0  0  0  0  0  # atno 7974 bound_to 7965
  155.8658  140.3451  155.5787 H   0  0  0  0  0  0  0  0  0  0  0  0  # atno 8008 bound_to 7997
  155.7883  140.0868  157.2042 H   0  0  0  0  0  0  0  0  0  0  0  0  # atno 8009 bound_to 7997
  154.4014  140.1488  156.3120 H   0  0  0  0  0  0  0  0  0  0  0  0  # atno 8010 bound_to 7997
  140.4992  144.0342  150.6326 H   0  0  0  0  0  0  0  0  0  0  0  0  # atno 10167 bound_to 10162
  157.6927  131.0212  150.2960 H   0  0  0  0  0  0  0  0  0  0  0  0  # atno 10718 bound_to 10713
  154.3479  135.6143  153.5628 H   0  0  0  0  0  0  0  0  0  0  0  0  # atno 10763 bound_to 10752
  152.9800  135.5785  154.4778 H   0  0  0  0  0  0  0  0  0  0  0  0  # atno 10764 bound_to 10752
  154.4493  135.2852  155.1769 H   0  0  0  0  0  0  0  0  0  0  0  0  # atno 10765 bound_to 10752
  139.9852  134.6680  156.0190 H   0  0  0  0  0  0  0  0  0  0  0  0  # atno 11005 bound_to 11000
  145.3909  141.0372  143.3124 LP  0  0  0  0  0  0  0  0  0  0  0  0  # atno 17320 bound_to 7965
  144.8415  139.5465  143.6898 LP  0  0  0  0  0  0  0  0  0  0  0  0  # atno 17321 bound_to 7965
  140.3633  143.2895  152.0359 LP  0  0  0  0  0  0  0  0  0  0  0  0  # atno 17342 bound_to 10162
  139.4868  144.6286  151.7115 LP  0  0  0  0  0  0  0  0  0  0  0  0  # atno 17343 bound_to 10162
  156.3483  130.3827  149.7350 LP  0  0  0  0  0  0  0  0  0  0  0  0  # atno 17370 bound_to 10713
  156.4836  130.8052  151.3066 LP  0  0  0  0  0  0  0  0  0  0  0  0  # atno 17371 bound_to 10713
  141.1518  133.6547  156.4036 LP  0  0  0  0  0  0  0  0  0  0  0  0  # atno 17394 bound_to 11000
  140.5017  134.6479  157.5251 LP  0  0  0  0  0  0  0  0  0  0  0  0  # atno 17395 bound_to 11000

$$$$
