AV-unprocessed.smi:2062|AV-procd|sdf|8401|dock7
  -GOLD-   2272011 83D 1   1.00000     0.00000
 Structure written by MMmdl.
 42 43  0  0  0  0  0  0  0  0  1 V2000
  149.6645  141.4621  155.8775 C   0  0  0  0  0  0  0  0  0  0  0  0
  149.3739  141.1641  154.3980 C   0  0  0  0  0  0  0  0  0  0  0  0
  148.3026  142.1347  153.8712 C   0  0  0  0  0  0  0  0  0  0  0  0
  148.9592  139.6867  154.2008 C   0  0  0  0  0  0  0  0  0  0  0  0
  149.7782  138.6997  154.9065 N   0  0  0  0  0  0  0  0  0  0  0  0
  151.1232  138.5765  154.3513 C   0  0  0  0  0  0  0  0  0  0  0  0
  151.9520  137.5070  155.0831 C   0  0  0  0  0  0  0  0  0  0  0  0
  151.2631  136.2622  155.0478 O   0  0  0  0  0  0  0  0  0  0  0  0
  149.9692  136.3276  155.6431 C   0  0  2  0  0  0  0  0  0  0  0  0
  149.3262  134.9319  155.5697 C   0  0  0  0  0  0  0  0  0  0  0  0
  148.6018  134.7380  154.3180 N   0  0  0  0  0  0  0  0  0  0  0  0
  147.6600  133.8071  154.1109 C   0  0  0  0  0  0  0  0  0  0  0  0
  147.2793  133.0230  154.9802 O   0  0  0  0  0  0  0  0  0  0  0  0
  147.2043  133.8480  152.8484 N   0  0  0  0  0  0  0  0  0  0  0  0
  146.2354  133.0061  152.2484 C   0  0  0  0  0  0  0  0  0  0  0  0
  145.9847  131.8164  152.7983 N   0  0  0  0  0  0  0  0  0  0  0  0
  145.0038  131.1097  152.0962 C   0  0  0  0  0  0  0  0  0  0  0  0
  144.5146  131.7820  151.0036 C   0  0  0  0  0  0  0  0  0  0  0  0
  145.2693  133.3411  150.8089 S   0  0  0  0  0  0  0  0  0  0  0  0
  149.1377  137.3881  154.8950 C   0  0  0  0  0  0  0  0  0  0  0  0
  148.7825  141.2958  156.4966 H   0  0  0  0  0  0  0  0  0  0  0  0
  149.9790  142.4967  156.0169 H   0  0  0  0  0  0  0  0  0  0  0  0
  150.4636  140.8246  156.2573 H   0  0  0  0  0  0  0  0  0  0  0  0
  150.3010  141.3470  153.8527 H   0  0  0  0  0  0  0  0  0  0  0  0
  147.3639  142.0190  154.4138 H   0  0  0  0  0  0  0  0  0  0  0  0
  148.0930  141.9739  152.8142 H   0  0  0  0  0  0  0  0  0  0  0  0
  148.6244  143.1703  153.9845 H   0  0  0  0  0  0  0  0  0  0  0  0
  147.9328  139.5772  154.5541 H   0  0  0  0  0  0  0  0  0  0  0  0
  148.9185  139.4476  153.1368 H   0  0  0  0  0  0  0  0  0  0  0  0
  151.0652  138.3262  153.2909 H   0  0  0  0  0  0  0  0  0  0  0  0
  151.6486  139.5279  154.4234 H   0  0  0  0  0  0  0  0  0  0  0  0
  152.9253  137.3897  154.6067 H   0  0  0  0  0  0  0  0  0  0  0  0
  152.1347  137.8003  156.1182 H   0  0  0  0  0  0  0  0  0  0  0  0
  150.0704  136.6260  156.6882 H   0  0  0  0  0  0  0  0  0  0  0  0
  150.0869  134.1568  155.6790 H   0  0  0  0  0  0  0  0  0  0  0  0
  148.6274  134.7975  156.3957 H   0  0  0  0  0  0  0  0  0  0  0  0
  148.8567  135.3397  153.5484 H   0  0  0  0  0  0  0  0  0  0  0  0
  147.6056  134.5497  152.2441 H   0  0  0  0  0  0  0  0  0  0  0  0
  144.7121  130.1305  152.4458 H   0  0  0  0  0  0  0  0  0  0  0  0
  143.7587  131.4563  150.3047 H   0  0  0  0  0  0  0  0  0  0  0  0
  148.1504  137.4576  155.3534 H   0  0  0  0  0  0  0  0  0  0  0  0
  148.9798  137.0645  153.8646 H   0  0  0  0  0  0  0  0  0  0  0  0
  1  2  1  0  0  0  0
  1 21  1  0  0  0  0
  1 22  1  0  0  0  0
  1 23  1  0  0  0  0
  2  3  1  0  0  0  0
  2  4  1  0  0  0  0
  2 24  1  0  0  0  0
  3 25  1  0  0  0  0
  3 26  1  0  0  0  0
  3 27  1  0  0  0  0
  4  5  1  0  0  0  0
  4 28  1  0  0  0  0
  4 29  1  0  0  0  0
  5 20  1  0  0  0  0
  5  6  1  0  0  0  0
  6  7  1  0  0  0  0
  6 30  1  0  0  0  0
  6 31  1  0  0  0  0
  7  8  1  0  0  0  0
  7 32  1  0  0  0  0
  7 33  1  0  0  0  0
  8  9  1  0  0  0  0
  9 10  1  0  0  0  0
  9 20  1  0  0  0  0
  9 34  1  0  0  0  0
 10 11  1  0  0  0  0
 10 35  1  0  0  0  0
 10 36  1  0  0  0  0
 11 12  1  0  0  0  0
 11 37  1  0  0  0  0
 12 13  2  0  0  0  0
 12 14  1  0  0  0  0
 14 15  1  0  0  0  0
 14 38  1  0  0  0  0
 15 19  1  0  0  0  0
 15 16  2  0  0  0  0
 16 17  1  0  0  0  0
 17 18  2  0  0  0  0
 17 39  1  0  0  0  0
 18 19  1  0  0  0  0
 18 40  1  0  0  0  0
 20 41  1  0  0  0  0
 20 42  1  0  0  0  0
M  END
> <s_m_source_file>
AV-unprocessed.smi

> <i_m_source_file_index>
2062

> <i_lp_mmshare_version>
43012

> <i_f3d_flags>
0

> <s_epik_input>
W0NIM11bQ0hdKFtDSDNdKVtDSDJdTjFbQ0gyXVtDSDJdT1tDQEhdKFtDSDJdMSlbQ0gyXVtOSF1DKD1PKVtOSF1jMm5bY0hdW2NIXXMy

> <s_epik_cmdline>
J2VwaWtfcHl0aG9uJywgJy1waCcsICc3LjAnLCAnLXRuJywgJzgnLCAnLW1hJywgJzIwMCcsICctbWV0YWxfYmluZGluZycsICctaW1hZScsICc8aW5maWxlLm1hZT4nLCAnLW9tYWUnLCAnPG91dGZpbGUubWFlPic=

> <r_lp_tautomer_probability>
0.999

> <r_epik_Ionization_Penalty>
1.11227

> <r_epik_Ionization_Penalty_Charging>
0

> <r_epik_Ionization_Penalty_Neutral>
1.11227

> <r_epik_State_Penalty>
1.17021

> <r_epik_Charging_Adjusted_Penalty>
1.17021

> <i_epik_Tot_Q>
0

> <i_epik_Tot_abs_Q>
0

> <r_epik_Metal_State_Penalty>
1.22349

> <b_epik_Metal_Only>
0

> <s_lp_Force_Field>
OPLS_2005

> <r_lp_Energy>
23.0648

> <b_lp_Chiralities_Consistent>
1

> <s_lp_Variant>
AV-unprocessed.smi:2062-6

> <Gold.Version>
5.8.1

> <Gold.Id.Protein>
6NUR|6NUR_protein|mol2

> <Gold.PLP.Fitness>
41.8894

> <Gold.PLP.PLP>
-34.2889

> <Gold.PLP.part.hbond>
-3.0000

> <Gold.PLP.part.metal>
0.0000

> <Gold.PLP.part.buried>
-5.4163

> <Gold.PLP.part.nonpolar>
-27.1901

> <Gold.PLP.part.repulsive>
0.4123

> <Gold.PLP.ligand.clash>
0.0000

> <Gold.PLP.ligand.torsion>
0.7171

> <Gold.PLP.Chemscore.Hbond>
3.0000

> <Gold.PLP.Chemscore.CHOScore>
0.0000

> <Gold.PLP.Chemscore.Metal>
0.0000

> <Gold.Chemscore.Hbonds>
donor molecule, donor type, donor heavy atom, donor atom, acceptor molecule, acceptor atom, score
      L1  H    11    37       P1  7948  1.00
      L1  H    14    38       P1  7948  0.71
      P1  H 10752 10763       L1     8  0.20
      L1  C    17    39       P1 10956  0.02

> <Gold.PLP.Chemscore.Internal.Correction>
0.0348

> <Gold.Rescore>
     Score         DG    S(hbond)    S(metal)    S(lipo)     H(rot)  DE(clash)    DE(int)     intcor
     15.55     -17.82       2.40        0.00      74.59       1.72       0.09       2.18       ----

> <Gold.Chemscore.Fitness>
15.5530

> <Gold.Chemscore.DG>
-17.8235

> <Gold.Chemscore.ZeroCoef>
-5.4800

> <Gold.Chemscore.Hbond>
2.4008

> <Gold.Chemscore.Metal>
0.0000

> <Gold.Chemscore.Lipo>
74.5876

> <Gold.Chemscore.Internal_Hbond>
0.0000

> <Gold.Chemscore.DEClash>
0.0949

> <Gold.Chemscore.DEInternal>
2.1757

> <Gold.Chemscore.Rot>
1.7195

> <Gold.Chemscore.Internal.Correction>
   9.000000E+99

> <Gold.Chemscore.Hbonds>
donor molecule, donor type, donor heavy atom, donor atom, acceptor molecule, acceptor atom, score
      L1  H    11    37       P1  7948  0.78
      L1  H    14    38       P1  7948  0.45

> <Gold.Chemscore.Hbond.Weighted>
-8.0186

> <Gold.Chemscore.Metal.Weighted>
-0.0000

> <Gold.Chemscore.Lipo.Weighted>
-8.7267

> <Gold.Chemscore.Internal_Hbond.Weighted>
0.0000

> <Gold.Chemscore.DEClash.Weighted>
0.0949

> <Gold.Chemscore.DEInternal.Weighted>
2.1757

> <Gold.Chemscore.Rot.Weighted>
4.4019

> <Gold.Chemscore.Internal.Correction.Weighted>
   9.000000E+99

> <Gold.Protein.RotatedTorsions>
[ 6907 6896 6895 6894 ] final   56.61 input  -60.11 | X-H torsion
[ 7974 7965 7964 7962 ] final -156.20 input  175.53 | X-H torsion
[ 8008 7997 7996 7995 ] final  179.63 input   59.86 | X-H torsion
[ 10167 10162 10161 10158 ] final   19.05 input  -65.29 | X-H torsion
[ 10718 10713 10712 10709 ] final  117.28 input   66.30 | X-H torsion
[ 10763 10752 10751 10750 ] final   62.39 input  -60.55 | X-H torsion
[ 11005 11000 10999 10996 ] final -122.89 input  -57.11 | X-H torsion

> <Gold.Protein.ActiveResidues>
 VAL166  LYS551  ARG553  GLY616  TRP617  ASP618  TYR619  PRO620  LYS621  CYS622 
 ASP623  PHE694  ASN695  SER759  ASP760  ASP761  ALA762  ILE779  LEU786  VAL792 
 PHE793  MET794  SER795  GLU796  ALA797  LYS798  CYS799  TRP800  GLU811  SER814 

> <Gold.Protein.RotatedAtoms>
  152.3652  134.6814  160.0193 H   0  0  0  0  0  0  0  0  0  0  0  0  # atno 6907 bound_to 6896
  151.7125  133.3307  159.3302 H   0  0  0  0  0  0  0  0  0  0  0  0  # atno 6908 bound_to 6896
  150.7633  134.6454  159.6304 H   0  0  0  0  0  0  0  0  0  0  0  0  # atno 6909 bound_to 6896
  144.7604  140.4143  143.5980 H   0  0  0  0  0  0  0  0  0  0  0  0  # atno 7974 bound_to 7965
  156.0412  140.1304  157.0153 H   0  0  0  0  0  0  0  0  0  0  0  0  # atno 8008 bound_to 7997
  154.4392  140.1030  156.6311 H   0  0  0  0  0  0  0  0  0  0  0  0  # atno 8009 bound_to 7997
  155.5663  140.3465  155.4506 H   0  0  0  0  0  0  0  0  0  0  0  0  # atno 8010 bound_to 7997
  140.5608  143.9341  150.6641 H   0  0  0  0  0  0  0  0  0  0  0  0  # atno 10167 bound_to 10162
  157.6107  131.1035  150.7592 H   0  0  0  0  0  0  0  0  0  0  0  0  # atno 10718 bound_to 10713
  152.9981  135.5467  154.6185 H   0  0  0  0  0  0  0  0  0  0  0  0  # atno 10763 bound_to 10752
  154.5490  135.2825  155.1028 H   0  0  0  0  0  0  0  0  0  0  0  0  # atno 10764 bound_to 10752
  154.2275  135.6439  153.5217 H   0  0  0  0  0  0  0  0  0  0  0  0  # atno 10765 bound_to 10752
  140.9961  134.0470  157.3596 H   0  0  0  0  0  0  0  0  0  0  0  0  # atno 11005 bound_to 11000
  145.6638  139.1586  143.2793 LP  0  0  0  0  0  0  0  0  0  0  0  0  # atno 17320 bound_to 7965
  146.1661  140.6716  142.9255 LP  0  0  0  0  0  0  0  0  0  0  0  0  # atno 17321 bound_to 7965
  140.2792  143.3401  152.1167 LP  0  0  0  0  0  0  0  0  0  0  0  0  # atno 17342 bound_to 10162
  139.5069  144.6822  151.5979 LP  0  0  0  0  0  0  0  0  0  0  0  0  # atno 17343 bound_to 10162
  156.7970  130.4908  149.5375 LP  0  0  0  0  0  0  0  0  0  0  0  0  # atno 17370 bound_to 10713
  156.1209  130.6109  151.0191 LP  0  0  0  0  0  0  0  0  0  0  0  0  # atno 17371 bound_to 10713
  139.9015  135.0166  156.7291 LP  0  0  0  0  0  0  0  0  0  0  0  0  # atno 17394 bound_to 11000
  140.6964  133.9345  155.7997 LP  0  0  0  0  0  0  0  0  0  0  0  0  # atno 17395 bound_to 11000

$$$$
