AV-unprocessed.smi:2834|AV-procd|sdf|10916|dock3
  -GOLD-   2272015363D 1   1.00000     0.00000
 Structure written by MMmdl.
 35 36  0  0  0  0  0  0  0  0  1 V2000
  143.6703  135.9766  152.5778 C   0  0  0  0  0  0  0  0  0  0  0  0
  144.1353  134.5062  152.6295 C   0  0  1  0  0  0  0  0  0  0  0  0
  144.0563  133.9865  154.0016 N   0  0  0  0  0  0  0  0  0  0  0  0
  144.6956  134.4380  155.0930 C   0  0  0  0  0  0  0  0  0  0  0  0
  145.4739  135.3917  155.0907 O   0  0  0  0  0  0  0  0  0  0  0  0
  144.3706  133.7139  156.1765 N   0  0  0  0  0  0  0  0  0  0  0  0
  144.8346  133.8948  157.5039 C   0  0  0  0  0  0  0  0  0  0  0  0
  144.4084  133.1305  158.6209 C   0  0  0  0  0  0  0  0  0  0  0  0
  145.0138  133.5256  159.7305 N   0  0  0  0  0  0  0  0  0  0  0  0
  145.8298  134.5380  159.3451 N   0  0  0  0  0  0  0  0  0  0  0  0
  146.6596  135.2069  160.3306 C   0  0  0  0  0  0  0  0  0  0  0  0
  146.6723  134.4726  161.6815 C   0  0  0  0  0  0  0  0  0  0  0  0
  147.4070  135.1672  162.5494 F   0  0  0  0  0  0  0  0  0  0  0  0
  145.4356  134.3574  162.1664 F   0  0  0  0  0  0  0  0  0  0  0  0
  147.2066  133.2583  161.5470 F   0  0  0  0  0  0  0  0  0  0  0  0
  145.7447  134.7904  157.9901 C   0  0  0  0  0  0  0  0  0  0  0  0
  143.4059  133.6118  151.6305 C   0  0  0  0  0  0  0  0  0  0  0  0
  144.3969  132.4756  151.4033 C   0  0  0  0  0  0  0  0  0  0  0  0
  145.6841  133.0675  151.5239 O   0  0  0  0  0  0  0  0  0  0  0  0
  145.5816  134.3516  152.1346 C   0  0  0  0  0  0  0  0  0  0  0  0
  143.7976  136.3980  151.5802 H   0  0  0  0  0  0  0  0  0  0  0  0
  144.2435  136.5952  153.2692 H   0  0  0  0  0  0  0  0  0  0  0  0
  142.6162  136.0801  152.8348 H   0  0  0  0  0  0  0  0  0  0  0  0
  143.4403  133.1970  154.1300 H   0  0  0  0  0  0  0  0  0  0  0  0
  143.7199  132.9547  156.0379 H   0  0  0  0  0  0  0  0  0  0  0  0
  143.6953  132.3202  158.6638 H   0  0  0  0  0  0  0  0  0  0  0  0
  147.6728  135.2795  159.9327 H   0  0  0  0  0  0  0  0  0  0  0  0
  146.3002  136.2292  160.4583 H   0  0  0  0  0  0  0  0  0  0  0  0
  146.3287  135.5640  157.5137 H   0  0  0  0  0  0  0  0  0  0  0  0
  142.4294  133.2592  151.9616 H   0  0  0  0  0  0  0  0  0  0  0  0
  143.2556  134.1475  150.6921 H   0  0  0  0  0  0  0  0  0  0  0  0
  144.2875  131.7152  152.1776 H   0  0  0  0  0  0  0  0  0  0  0  0
  144.2667  131.9936  150.4342 H   0  0  0  0  0  0  0  0  0  0  0  0
  145.8090  135.0931  151.3676 H   0  0  0  0  0  0  0  0  0  0  0  0
  146.3204  134.4721  152.9279 H   0  0  0  0  0  0  0  0  0  0  0  0
  1  2  1  0  0  0  0
  1 21  1  0  0  0  0
  1 22  1  0  0  0  0
  1 23  1  0  0  0  0
  2 20  1  0  0  0  0
  2  3  1  0  0  0  0
  2 17  1  0  0  0  0
  3  4  1  0  0  0  0
  3 24  1  0  0  0  0
  4  5  2  0  0  0  0
  4  6  1  0  0  0  0
  6  7  1  0  0  0  0
  6 25  1  0  0  0  0
  7 16  2  0  0  0  0
  7  8  1  0  0  0  0
  8  9  2  0  0  0  0
  8 26  1  0  0  0  0
  9 10  1  0  0  0  0
 10 11  1  0  0  0  0
 10 16  1  0  0  0  0
 11 12  1  0  0  0  0
 11 27  1  0  0  0  0
 11 28  1  0  0  0  0
 12 13  1  0  0  0  0
 12 14  1  0  0  0  0
 12 15  1  0  0  0  0
 16 29  1  0  0  0  0
 17 18  1  0  0  0  0
 17 30  1  0  0  0  0
 17 31  1  0  0  0  0
 18 19  1  0  0  0  0
 18 32  1  0  0  0  0
 18 33  1  0  0  0  0
 19 20  1  0  0  0  0
 20 34  1  0  0  0  0
 20 35  1  0  0  0  0
M  END
> <s_m_source_file>
AV-unprocessed.smi

> <i_m_source_file_index>
2834

> <i_lp_mmshare_version>
43012

> <i_f3d_flags>
0

> <s_epik_input>
W0NIMl0xT1tDSDJdW0NIMl1bQ0BAXTEoW0NIM10pW05IXUMoPU8pW05IXWMyW2NIXW5uKFtjSF0yKVtDSDJdQyhGKShGKUY=

> <s_epik_cmdline>
J2VwaWtfcHl0aG9uJywgJy1waCcsICc3LjAnLCAnLXRuJywgJzgnLCAnLW1hJywgJzIwMCcsICctbWV0YWxfYmluZGluZycsICctaW1hZScsICc8aW5maWxlLm1hZT4nLCAnLW9tYWUnLCAnPG91dGZpbGUubWFlPic=

> <r_lp_tautomer_probability>
1

> <r_epik_Ionization_Penalty>
3.3002e-05

> <r_epik_Ionization_Penalty_Charging>
0

> <r_epik_Ionization_Penalty_Neutral>
3.3002e-05

> <r_epik_State_Penalty>
-0

> <r_epik_Charging_Adjusted_Penalty>
0

> <i_epik_Tot_Q>
0

> <i_epik_Tot_abs_Q>
0

> <r_epik_Metal_State_Penalty>
-0

> <b_epik_Metal_Only>
0

> <s_lp_Force_Field>
OPLS_2005

> <r_lp_Energy>
24.6434

> <b_lp_Chiralities_Consistent>
1

> <s_lp_Variant>
AV-unprocessed.smi:2834-1

> <Gold.Version>
5.8.1

> <Gold.Id.Protein>
6NUR|6NUR_protein|mol2

> <Gold.PLP.Fitness>
32.1378

> <Gold.PLP.PLP>
-26.3504

> <Gold.PLP.part.hbond>
-2.0000

> <Gold.PLP.part.metal>
0.0000

> <Gold.PLP.part.buried>
-4.5506

> <Gold.PLP.part.nonpolar>
-20.1598

> <Gold.PLP.part.repulsive>
0.1484

> <Gold.PLP.ligand.clash>
0.0000

> <Gold.PLP.ligand.torsion>
0.1413

> <Gold.PLP.Chemscore.Hbond>
2.0000

> <Gold.PLP.Chemscore.CHOScore>
0.0000

> <Gold.PLP.Chemscore.Metal>
0.0000

> <Gold.Chemscore.Hbonds>
donor molecule, donor type, donor heavy atom, donor atom, acceptor molecule, acceptor atom, score
      L1  H     3    24       P1 10957  1.00
      L1  H     6    25       P1 10957  1.00

> <Gold.PLP.Chemscore.Internal.Correction>
0.0700

> <Gold.Rescore>
     Score         DG    S(hbond)    S(metal)    S(lipo)     H(rot)  DE(clash)    DE(int)     intcor
      9.11     -13.30       1.97        0.00      40.07       1.34       0.00       4.20       ----

> <Gold.Chemscore.Fitness>
9.1068

> <Gold.Chemscore.DG>
-13.3026

> <Gold.Chemscore.ZeroCoef>
-5.4800

> <Gold.Chemscore.Hbond>
1.9668

> <Gold.Chemscore.Metal>
0.0000

> <Gold.Chemscore.Lipo>
40.0703

> <Gold.Chemscore.Internal_Hbond>
0.0000

> <Gold.Chemscore.DEClash>
0.0000

> <Gold.Chemscore.DEInternal>
4.1958

> <Gold.Chemscore.Rot>
1.3417

> <Gold.Chemscore.Internal.Correction>
   9.000000E+99

> <Gold.Chemscore.Hbonds>
donor molecule, donor type, donor heavy atom, donor atom, acceptor molecule, acceptor atom, score
      L1  H     3    24       P1 10957  1.00
      L1  H     6    25       P1 10957  0.92

> <Gold.Chemscore.Hbond.Weighted>
-6.5690

> <Gold.Chemscore.Metal.Weighted>
-0.0000

> <Gold.Chemscore.Lipo.Weighted>
-4.6882

> <Gold.Chemscore.Internal_Hbond.Weighted>
0.0000

> <Gold.Chemscore.DEClash.Weighted>
0.0000

> <Gold.Chemscore.DEInternal.Weighted>
4.1958

> <Gold.Chemscore.Rot.Weighted>
3.4347

> <Gold.Chemscore.Internal.Correction.Weighted>
   9.000000E+99

> <Gold.Protein.RotatedTorsions>
[ 6907 6896 6895 6894 ] final   51.44 input  -60.11 | X-H torsion
[ 7974 7965 7964 7962 ] final  -63.13 input  175.53 | X-H torsion
[ 8008 7997 7996 7995 ] final  164.82 input   59.86 | X-H torsion
[ 10167 10162 10161 10158 ] final    7.31 input  -65.29 | X-H torsion
[ 10718 10713 10712 10709 ] final  174.83 input   66.30 | X-H torsion
[ 10763 10752 10751 10750 ] final -101.06 input  -60.55 | X-H torsion
[ 11005 11000 10999 10996 ] final -111.81 input  -57.11 | X-H torsion

> <Gold.Protein.ActiveResidues>
 VAL166  LYS551  ARG553  GLY616  TRP617  ASP618  TYR619  PRO620  LYS621  CYS622 
 ASP623  PHE694  ASN695  SER759  ASP760  ASP761  ALA762  ILE779  LEU786  VAL792 
 PHE793  MET794  SER795  GLU796  ALA797  LYS798  CYS799  TRP800  GLU811  SER814 

> <Gold.Protein.RotatedAtoms>
  152.3127  134.7478  160.0332 H   0  0  0  0  0  0  0  0  0  0  0  0  # atno 6907 bound_to 6896
  151.7953  133.3358  159.3519 H   0  0  0  0  0  0  0  0  0  0  0  0  # atno 6908 bound_to 6896
  150.7328  134.5734  159.5946 H   0  0  0  0  0  0  0  0  0  0  0  0  # atno 6909 bound_to 6896
  145.7828  140.8753  143.0321 H   0  0  0  0  0  0  0  0  0  0  0  0  # atno 7974 bound_to 7965
  156.1850  140.1686  156.8202 H   0  0  0  0  0  0  0  0  0  0  0  0  # atno 8008 bound_to 7997
  154.5404  140.0738  156.8532 H   0  0  0  0  0  0  0  0  0  0  0  0  # atno 8009 bound_to 7997
  155.3227  140.3374  155.4243 H   0  0  0  0  0  0  0  0  0  0  0  0  # atno 8010 bound_to 7997
  140.6379  143.7843  150.7385 H   0  0  0  0  0  0  0  0  0  0  0  0  # atno 10167 bound_to 10162
  156.9438  131.0009  151.2963 H   0  0  0  0  0  0  0  0  0  0  0  0  # atno 10718 bound_to 10713
  154.7628  135.4912  153.9497 H   0  0  0  0  0  0  0  0  0  0  0  0  # atno 10763 bound_to 10752
  153.1272  135.6745  153.9246 H   0  0  0  0  0  0  0  0  0  0  0  0  # atno 10764 bound_to 10752
  153.8960  135.3115  155.3427 H   0  0  0  0  0  0  0  0  0  0  0  0  # atno 10765 bound_to 10752
  141.0712  133.9376  157.2481 H   0  0  0  0  0  0  0  0  0  0  0  0  # atno 11005 bound_to 11000
  144.6794  140.0013  143.7484 LP  0  0  0  0  0  0  0  0  0  0  0  0  # atno 17320 bound_to 7965
  146.0057  139.3127  143.0901 LP  0  0  0  0  0  0  0  0  0  0  0  0  # atno 17321 bound_to 7965
  140.1468  143.4392  152.2157 LP  0  0  0  0  0  0  0  0  0  0  0  0  # atno 17342 bound_to 10162
  139.5589  144.7392  151.4213 LP  0  0  0  0  0  0  0  0  0  0  0  0  # atno 17343 bound_to 10162
  157.5768  130.8348  149.8466 LP  0  0  0  0  0  0  0  0  0  0  0  0  # atno 17370 bound_to 10713
  156.0393  130.3743  150.1478 LP  0  0  0  0  0  0  0  0  0  0  0  0  # atno 17371 bound_to 10713
  139.9525  135.0172  156.9035 LP  0  0  0  0  0  0  0  0  0  0  0  0  # atno 17394 bound_to 11000
  140.5669  134.0480  155.7417 LP  0  0  0  0  0  0  0  0  0  0  0  0  # atno 17395 bound_to 11000

$$$$
