AV-unprocessed.smi:1103|AV-procd|sdf|4771|dock5
  -GOLD-   22720 3313D 1   1.00000     0.00000
 Structure written by MMmdl.
 44 45  0  0  0  0  0  0  0  0  2 V2000
  146.8135  143.9331  159.5295 C   0  0  0  0  0  0  0  0  0  0  0  0
  148.0291  144.5636  160.2246 C   0  0  0  0  0  0  0  0  0  0  0  0
  149.2094  144.6630  159.3291 N   0  3  1  0  0  0  0  0  0  0  0  0
  150.4271  145.1049  160.0560 C   0  0  0  0  0  0  0  0  0  0  0  0
  151.5940  145.3385  159.0849 C   0  0  0  0  0  0  0  0  0  0  0  0
  151.8827  144.0761  158.2641 C   0  0  0  0  0  0  0  0  0  0  0  0
  150.6117  143.6077  157.5346 C   0  0  1  0  0  0  0  0  0  0  0  0
  150.8905  142.3304  156.7119 C   0  0  0  0  0  0  0  0  0  0  0  0
  149.7935  141.9818  155.8140 N   0  0  0  0  0  0  0  0  0  0  0  0
  149.7544  140.8917  155.0326 C   0  0  0  0  0  0  0  0  0  0  0  0
  150.6642  140.0621  154.9921 O   0  0  0  0  0  0  0  0  0  0  0  0
  148.4951  140.7259  154.1738 C   0  0  0  0  0  0  0  0  0  0  0  0
  147.4363  141.6456  154.5562 N   0  0  0  0  0  0  0  0  0  0  0  0
  146.6956  142.4850  153.7498 C   0  0  0  0  0  0  0  0  0  0  0  0
  145.8165  143.1559  154.5516 C   0  0  0  0  0  0  0  0  0  0  0  0
  144.7882  144.1793  154.1650 C   0  0  0  0  0  0  0  0  0  0  0  0
  146.1049  142.6529  155.8522 C   0  0  0  0  0  0  0  0  0  0  0  0
  147.0743  141.7528  155.8524 N   0  0  0  0  0  0  0  0  0  0  0  0
  149.4588  143.4218  158.5470 C   0  0  0  0  0  0  0  0  0  0  0  0
  145.9425  143.9605  160.1849 H   0  0  0  0  0  0  0  0  0  0  0  0
  146.9842  142.8898  159.2663 H   0  0  0  0  0  0  0  0  0  0  0  0
  146.5568  144.4735  158.6177 H   0  0  0  0  0  0  0  0  0  0  0  0
  147.7394  145.5635  160.5501 H   0  0  0  0  0  0  0  0  0  0  0  0
  148.2885  144.0093  161.1277 H   0  0  0  0  0  0  0  0  0  0  0  0
  150.2217  146.0311  160.5944 H   0  0  0  0  0  0  0  0  0  0  0  0
  150.7001  144.3572  160.8025 H   0  0  0  0  0  0  0  0  0  0  0  0
  151.3543  146.1656  158.4151 H   0  0  0  0  0  0  0  0  0  0  0  0
  152.4858  145.6362  159.6373 H   0  0  0  0  0  0  0  0  0  0  0  0
  152.6783  144.2777  157.5459 H   0  0  0  0  0  0  0  0  0  0  0  0
  152.2485  143.2864  158.9219 H   0  0  0  0  0  0  0  0  0  0  0  0
  150.3235  144.3996  156.8412 H   0  0  0  0  0  0  0  0  0  0  0  0
  151.8078  142.4457  156.1318 H   0  0  0  0  0  0  0  0  0  0  0  0
  151.0581  141.4858  157.3809 H   0  0  0  0  0  0  0  0  0  0  0  0
  149.0001  142.6066  155.7965 H   0  0  0  0  0  0  0  0  0  0  0  0
  148.7522  140.8812  153.1247 H   0  0  0  0  0  0  0  0  0  0  0  0
  148.1123  139.7086  154.2652 H   0  0  0  0  0  0  0  0  0  0  0  0
  146.8517  142.5310  152.6820 H   0  0  0  0  0  0  0  0  0  0  0  0
  144.1787  144.4831  155.0164 H   0  0  0  0  0  0  0  0  0  0  0  0
  144.1077  143.7974  153.4036 H   0  0  0  0  0  0  0  0  0  0  0  0
  145.2498  145.0809  153.7625 H   0  0  0  0  0  0  0  0  0  0  0  0
  145.6404  142.9138  156.7917 H   0  0  0  0  0  0  0  0  0  0  0  0
  149.6858  142.6012  159.2298 H   0  0  0  0  0  0  0  0  0  0  0  0
  148.5521  143.1428  158.0121 H   0  0  0  0  0  0  0  0  0  0  0  0
  149.0013  145.3937  158.6635 H   0  0  0  0  0  0  0  0  0  0  0  0
  1  2  1  0  0  0  0
  1 20  1  0  0  0  0
  1 21  1  0  0  0  0
  1 22  1  0  0  0  0
  2  3  1  0  0  0  0
  2 23  1  0  0  0  0
  2 24  1  0  0  0  0
  3 19  1  0  0  0  0
  3  4  1  0  0  0  0
  3 44  1  0  0  0  0
  4  5  1  0  0  0  0
  4 25  1  0  0  0  0
  4 26  1  0  0  0  0
  5  6  1  0  0  0  0
  5 27  1  0  0  0  0
  5 28  1  0  0  0  0
  6  7  1  0  0  0  0
  6 29  1  0  0  0  0
  6 30  1  0  0  0  0
  7  8  1  0  0  0  0
  7 19  1  0  0  0  0
  7 31  1  0  0  0  0
  8  9  1  0  0  0  0
  8 32  1  0  0  0  0
  8 33  1  0  0  0  0
  9 10  1  0  0  0  0
  9 34  1  0  0  0  0
 10 11  2  0  0  0  0
 10 12  1  0  0  0  0
 12 13  1  0  0  0  0
 12 35  1  0  0  0  0
 12 36  1  0  0  0  0
 13 18  1  0  0  0  0
 13 14  1  0  0  0  0
 14 15  2  0  0  0  0
 14 37  1  0  0  0  0
 15 16  1  0  0  0  0
 15 17  1  0  0  0  0
 16 38  1  0  0  0  0
 16 39  1  0  0  0  0
 16 40  1  0  0  0  0
 17 18  2  0  0  0  0
 17 41  1  0  0  0  0
 19 42  1  0  0  0  0
 19 43  1  0  0  0  0
M  CHG  1   3   1
M  END
> <s_m_source_file>
AV-unprocessed.smi

> <i_m_source_file_index>
1103

> <i_lp_mmshare_version>
43012

> <i_f3d_flags>
0

> <s_epik_input>
W0NIM11bQ0gyXU4xW0NIMl1bQ0gyXVtDSDJdW0NASF0oW0NIMl0xKVtDSDJdW05IXUMoPU8pW0NIMl1uMltjSF1jKFtDSDNdKVtjSF1uMg==

> <s_epik_cmdline>
J2VwaWtfcHl0aG9uJywgJy1waCcsICc3LjAnLCAnLXRuJywgJzgnLCAnLW1hJywgJzIwMCcsICctbWV0YWxfYmluZGluZycsICctaW1hZScsICc8aW5maWxlLm1hZT4nLCAnLW9tYWUnLCAnPG91dGZpbGUubWFlPic=

> <r_lp_tautomer_probability>
1

> <r_epik_Ionization_Penalty>
0.000672456

> <r_epik_Ionization_Penalty_Charging>
0.000647327

> <r_epik_Ionization_Penalty_Neutral>
2.51297e-05

> <r_epik_State_Penalty>
0.000409793

> <r_epik_Charging_Adjusted_Penalty>
0.00105712

> <i_epik_Tot_Q>
1

> <i_epik_Tot_abs_Q>
1

> <r_epik_Metal_State_Penalty>
-0

> <b_epik_Metal_Only>
0

> <s_lp_Force_Field>
OPLS_2005

> <r_lp_Energy>
19.0507

> <b_lp_Chiralities_Consistent>
1

> <s_lp_Variant>
AV-unprocessed.smi:1103-1

> <Gold.Version>
5.8.1

> <Gold.Id.Protein>
6NUR|6NUR_protein|mol2

> <Gold.PLP.Fitness>
51.0039

> <Gold.PLP.PLP>
-41.2695

> <Gold.PLP.part.hbond>
-3.0000

> <Gold.PLP.part.metal>
0.0000

> <Gold.PLP.part.buried>
-3.9824

> <Gold.PLP.part.nonpolar>
-35.5320

> <Gold.PLP.part.repulsive>
0.4875

> <Gold.PLP.ligand.clash>
0.0000

> <Gold.PLP.ligand.torsion>
0.3306

> <Gold.PLP.Chemscore.Hbond>
3.4496

> <Gold.PLP.Chemscore.CHOScore>
0.0000

> <Gold.PLP.Chemscore.Metal>
0.0000

> <Gold.Chemscore.Hbonds>
donor molecule, donor type, donor heavy atom, donor atom, acceptor molecule, acceptor atom, score
      L1  H     3    44       P1  8029  1.89
      L1  H     9    34       P1  8028  0.50
      P1  H  7989  7998       L1    11  0.80

> <Gold.PLP.Chemscore.Internal.Correction>
0.0467

> <Gold.Rescore>
     Score         DG    S(hbond)    S(metal)    S(lipo)     H(rot)  DE(clash)    DE(int)     intcor
     16.46     -19.78       2.19        0.00      96.48       1.68       1.79       1.53       ----

> <Gold.Chemscore.Fitness>
16.4603

> <Gold.Chemscore.DG>
-19.7794

> <Gold.Chemscore.ZeroCoef>
-5.4800

> <Gold.Chemscore.Hbond>
2.1908

> <Gold.Chemscore.Metal>
0.0000

> <Gold.Chemscore.Lipo>
96.4838

> <Gold.Chemscore.Internal_Hbond>
0.0000

> <Gold.Chemscore.DEClash>
1.7937

> <Gold.Chemscore.DEInternal>
1.5255

> <Gold.Chemscore.Rot>
1.6823

> <Gold.Chemscore.Internal.Correction>
   9.000000E+99

> <Gold.Chemscore.Hbonds>
donor molecule, donor type, donor heavy atom, donor atom, acceptor molecule, acceptor atom, score
      L1  H     3    44       P1  8029  0.90
      L1  H     9    34       P1  8028  0.49
      P1  H  7989  7998       L1    11  0.12

> <Gold.Chemscore.Hbond.Weighted>
-7.3174

> <Gold.Chemscore.Metal.Weighted>
-0.0000

> <Gold.Chemscore.Lipo.Weighted>
-11.2886

> <Gold.Chemscore.Internal_Hbond.Weighted>
0.0000

> <Gold.Chemscore.DEClash.Weighted>
1.7937

> <Gold.Chemscore.DEInternal.Weighted>
1.5255

> <Gold.Chemscore.Rot.Weighted>
4.3066

> <Gold.Chemscore.Internal.Correction.Weighted>
   9.000000E+99

> <Gold.Protein.RotatedTorsions>
[ 6907 6896 6895 6894 ] final -172.21 input  -60.11 | X-H torsion
[ 7974 7965 7964 7962 ] final   -4.13 input  175.53 | X-H torsion
[ 8008 7997 7996 7995 ] final -151.82 input   59.86 | X-H torsion
[ 10167 10162 10161 10158 ] final   58.71 input  -65.29 | X-H torsion
[ 10718 10713 10712 10709 ] final  -39.38 input   66.30 | X-H torsion
[ 10763 10752 10751 10750 ] final  -25.10 input  -60.55 | X-H torsion
[ 11005 11000 10999 10996 ] final   86.21 input  -57.11 | X-H torsion

> <Gold.Protein.ActiveResidues>
 VAL166  LYS551  ARG553  GLY616  TRP617  ASP618  TYR619  PRO620  LYS621  CYS622 
 ASP623  PHE694  ASN695  SER759  ASP760  ASP761  ALA762  ILE779  LEU786  VAL792 
 PHE793  MET794  SER795  GLU796  ALA797  LYS798  CYS799  TRP800  GLU811  SER814 

> <Gold.Protein.RotatedAtoms>
  151.5364  133.3440  159.2927 H   0  0  0  0  0  0  0  0  0  0  0  0  # atno 6907 bound_to 6896
  150.8562  134.7904  159.7059 H   0  0  0  0  0  0  0  0  0  0  0  0  # atno 6908 bound_to 6896
  152.4595  134.5225  159.9838 H   0  0  0  0  0  0  0  0  0  0  0  0  # atno 6909 bound_to 6896
  146.2378  140.1825  142.8332 H   0  0  0  0  0  0  0  0  0  0  0  0  # atno 7974 bound_to 7965
  155.6454  140.0706  157.2604 H   0  0  0  0  0  0  0  0  0  0  0  0  # atno 8008 bound_to 7997
  154.4174  140.1743  156.1668 H   0  0  0  0  0  0  0  0  0  0  0  0  # atno 8009 bound_to 7997
  155.9821  140.3353  155.6676 H   0  0  0  0  0  0  0  0  0  0  0  0  # atno 8010 bound_to 7997
  140.1842  144.4151  150.6601 H   0  0  0  0  0  0  0  0  0  0  0  0  # atno 10167 bound_to 10162
  156.2931  130.4231  149.8218 H   0  0  0  0  0  0  0  0  0  0  0  0  # atno 10718 bound_to 10713
  153.6944  135.6960  153.5080 H   0  0  0  0  0  0  0  0  0  0  0  0  # atno 10763 bound_to 10752
  153.2389  135.4312  155.0675 H   0  0  0  0  0  0  0  0  0  0  0  0  # atno 10764 bound_to 10752
  154.8363  135.3503  154.6485 H   0  0  0  0  0  0  0  0  0  0  0  0  # atno 10765 bound_to 10752
  139.8950  134.8340  156.2690 H   0  0  0  0  0  0  0  0  0  0  0  0  # atno 11005 bound_to 11000
  144.9923  140.8558  143.5332 LP  0  0  0  0  0  0  0  0  0  0  0  0  # atno 17320 bound_to 7965
  145.1833  139.2340  143.5281 LP  0  0  0  0  0  0  0  0  0  0  0  0  # atno 17321 bound_to 7965
  140.6499  143.2222  151.6101 LP  0  0  0  0  0  0  0  0  0  0  0  0  # atno 17342 bound_to 10162
  139.5283  144.2992  152.1087 LP  0  0  0  0  0  0  0  0  0  0  0  0  # atno 17343 bound_to 10162
  156.5624  130.8389  151.3332 LP  0  0  0  0  0  0  0  0  0  0  0  0  # atno 17370 bound_to 10713
  157.7348  130.9752  150.2047 LP  0  0  0  0  0  0  0  0  0  0  0  0  # atno 17371 bound_to 10713
  141.0113  133.7094  156.1117 LP  0  0  0  0  0  0  0  0  0  0  0  0  # atno 17394 bound_to 11000
  140.7363  134.4199  157.5560 LP  0  0  0  0  0  0  0  0  0  0  0  0  # atno 17395 bound_to 11000

$$$$
