AV-unprocessed.smi:648|AV-procd|sdf|3172|dock6
  -GOLD-   22720 0 93D 1   1.00000     0.00000
 Structure written by MMmdl.
 46 47  0  0  0  0  0  0  0  0  2 V2000
  142.0791  135.6694  153.8207 C   0  0  0  0  0  0  0  0  0  0  0  0
  143.2981  135.7011  152.8869 C   0  0  2  0  0  0  0  0  0  0  0  0
  143.4451  134.3697  152.1249 C   0  0  0  0  0  0  0  0  0  0  0  0
  144.6495  134.3335  151.1538 C   0  0  0  0  0  0  0  0  0  0  0  0
  144.8711  132.8711  150.7097 C   0  0  0  0  0  0  0  0  0  0  0  0
  144.3444  135.1370  149.8687 C   0  0  0  0  0  0  0  0  0  0  0  0
  145.9449  134.8118  151.8770 C   0  0  0  0  0  0  0  0  0  0  0  0
  145.8546  136.0850  152.7731 C   0  0  2  0  0  0  0  0  0  0  0  0
  145.8365  137.3734  151.9055 C   0  0  0  0  0  0  0  0  0  0  0  0
  147.0810  137.5971  151.2700 O   0  0  0  0  0  0  0  0  0  0  0  0
  147.1051  136.1845  153.5824 N   0  3  0  0  0  0  0  0  0  0  0  0
  147.1729  137.1618  154.6941 C   0  0  0  0  0  0  0  0  0  0  0  0
  147.4294  138.5763  154.1552 C   0  0  0  0  0  0  0  0  0  0  0  0
  148.7803  139.0205  154.4371 N   0  0  0  0  0  0  0  0  0  0  0  0
  149.9204  138.8141  153.7760 C   0  0  0  0  0  0  0  0  0  0  0  0
  150.9761  139.3842  154.3398 N   0  0  0  0  0  0  0  0  0  0  0  0
  150.3736  139.9626  155.4212 C   0  0  0  0  0  0  0  0  0  0  0  0
  149.0576  139.7751  155.5258 N   0  0  0  0  0  0  0  0  0  0  0  0
  144.5891  135.9983  153.6728 C   0  0  0  0  0  0  0  0  0  0  0  0
  142.1760  134.8901  154.5774 H   0  0  0  0  0  0  0  0  0  0  0  0
  141.1618  135.4786  153.2628 H   0  0  0  0  0  0  0  0  0  0  0  0
  141.9557  136.6215  154.3378 H   0  0  0  0  0  0  0  0  0  0  0  0
  143.1186  136.5030  152.1727 H   0  0  0  0  0  0  0  0  0  0  0  0
  143.5498  133.5676  152.8575 H   0  0  0  0  0  0  0  0  0  0  0  0
  142.5257  134.1512  151.5795 H   0  0  0  0  0  0  0  0  0  0  0  0
  145.7098  132.7895  150.0169 H   0  0  0  0  0  0  0  0  0  0  0  0
  143.9911  132.4670  150.2075 H   0  0  0  0  0  0  0  0  0  0  0  0
  145.0835  132.2178  151.5567 H   0  0  0  0  0  0  0  0  0  0  0  0
  145.2353  135.2568  149.2516 H   0  0  0  0  0  0  0  0  0  0  0  0
  143.9336  136.1236  150.0601 H   0  0  0  0  0  0  0  0  0  0  0  0
  143.5982  134.6271  149.2580 H   0  0  0  0  0  0  0  0  0  0  0  0
  146.2645  133.9840  152.5083 H   0  0  0  0  0  0  0  0  0  0  0  0
  146.7504  134.9274  151.1503 H   0  0  0  0  0  0  0  0  0  0  0  0
  145.0669  137.3085  151.1354 H   0  0  0  0  0  0  0  0  0  0  0  0
  145.6246  138.2671  152.4810 H   0  0  0  0  0  0  0  0  0  0  0  0
  147.7490  137.1191  151.7385 H   0  0  0  0  0  0  0  0  0  0  0  0
  147.2972  135.2663  153.9563 H   0  0  0  0  0  0  0  0  0  0  0  0
  146.2305  137.1583  155.2425 H   0  0  0  0  0  0  0  0  0  0  0  0
  147.9595  136.8934  155.3981 H   0  0  0  0  0  0  0  0  0  0  0  0
  147.2726  138.6097  153.0759 H   0  0  0  0  0  0  0  0  0  0  0  0
  146.7312  139.2866  154.6005 H   0  0  0  0  0  0  0  0  0  0  0  0
  149.9804  138.2386  152.8637 H   0  0  0  0  0  0  0  0  0  0  0  0
  150.9208  140.5392  156.1525 H   0  0  0  0  0  0  0  0  0  0  0  0
  144.4720  136.9142  154.2530 H   0  0  0  0  0  0  0  0  0  0  0  0
  144.6962  135.1960  154.4023 H   0  0  0  0  0  0  0  0  0  0  0  0
  147.8496  136.4189  152.9406 H   0  0  0  0  0  0  0  0  0  0  0  0
  1  2  1  0  0  0  0
  1 20  1  0  0  0  0
  1 21  1  0  0  0  0
  1 22  1  0  0  0  0
  2 19  1  0  0  0  0
  2  3  1  0  0  0  0
  2 23  1  0  0  0  0
  3  4  1  0  0  0  0
  3 24  1  0  0  0  0
  3 25  1  0  0  0  0
  4  5  1  0  0  0  0
  4  6  1  0  0  0  0
  4  7  1  0  0  0  0
  5 26  1  0  0  0  0
  5 27  1  0  0  0  0
  5 28  1  0  0  0  0
  6 29  1  0  0  0  0
  6 30  1  0  0  0  0
  6 31  1  0  0  0  0
  7  8  1  0  0  0  0
  7 32  1  0  0  0  0
  7 33  1  0  0  0  0
  8  9  1  0  0  0  0
  8 11  1  0  0  0  0
  8 19  1  0  0  0  0
  9 10  1  0  0  0  0
  9 34  1  0  0  0  0
  9 35  1  0  0  0  0
 10 36  1  0  0  0  0
 11 12  1  0  0  0  0
 11 37  1  0  0  0  0
 11 46  1  0  0  0  0
 12 13  1  0  0  0  0
 12 38  1  0  0  0  0
 12 39  1  0  0  0  0
 13 14  1  0  0  0  0
 13 40  1  0  0  0  0
 13 41  1  0  0  0  0
 14 18  1  0  0  0  0
 14 15  1  0  0  0  0
 15 16  2  0  0  0  0
 15 42  1  0  0  0  0
 16 17  1  0  0  0  0
 17 18  2  0  0  0  0
 17 43  1  0  0  0  0
 19 44  1  0  0  0  0
 19 45  1  0  0  0  0
M  CHG  1  11   1
M  END
> <s_m_source_file>
AV-unprocessed.smi

> <i_m_source_file_index>
648

> <i_lp_mmshare_version>
43012

> <i_f3d_flags>
0

> <s_epik_input>
W0NIM11DMShbQ0gzXSlbQ0gyXVtDQEBIXShbQ0gzXSlbQ0gyXVtDQF0oW0NIMl0xKShbQ0gyXVtPSF0pW05IXVtDSDJdW0NIMl1uMltjSF1uW2NIXW4y

> <s_epik_cmdline>
J2VwaWtfcHl0aG9uJywgJy1waCcsICc3LjAnLCAnLXRuJywgJzgnLCAnLW1hJywgJzIwMCcsICctbWV0YWxfYmluZGluZycsICctaW1hZScsICc8aW5maWxlLm1hZT4nLCAnLW9tYWUnLCAnPG91dGZpbGUubWFlPic=

> <r_lp_tautomer_probability>
1

> <r_epik_Ionization_Penalty>
0.00942316

> <r_epik_Ionization_Penalty_Charging>
0.00942185

> <r_epik_Ionization_Penalty_Neutral>
1.31257e-06

> <r_epik_State_Penalty>
0.00715409

> <r_epik_Charging_Adjusted_Penalty>
0.0165759

> <i_epik_Tot_Q>
1

> <i_epik_Tot_abs_Q>
1

> <r_epik_Metal_State_Penalty>
0.00715563

> <b_epik_Metal_Only>
0

> <s_lp_Force_Field>
OPLS_2005

> <r_lp_Energy>
31.5344

> <b_lp_Chiralities_Consistent>
1

> <s_lp_Variant>
AV-unprocessed.smi:648-3

> <Gold.Version>
5.8.1

> <Gold.Id.Protein>
6NUR|6NUR_protein|mol2

> <Gold.PLP.Fitness>
43.6955

> <Gold.PLP.PLP>
-27.3360

> <Gold.PLP.part.hbond>
-3.4987

> <Gold.PLP.part.metal>
0.0000

> <Gold.PLP.part.buried>
-0.2839

> <Gold.PLP.part.nonpolar>
-23.4353

> <Gold.PLP.part.repulsive>
0.1548

> <Gold.PLP.ligand.clash>
0.0000

> <Gold.PLP.ligand.torsion>
0.9540

> <Gold.PLP.Chemscore.Hbond>
4.5672

> <Gold.PLP.Chemscore.CHOScore>
1.4913

> <Gold.PLP.Chemscore.Metal>
0.0000

> <Gold.Chemscore.Hbonds>
donor molecule, donor type, donor heavy atom, donor atom, acceptor molecule, acceptor atom, score
      L1  H    10    36       P1  7948  0.86
      L1  H    11    46       P1  7948  2.00
      P1  H  7954  7966       L1    10  0.55
      P1  H  7989  7998       L1    16  1.00
      L1  C    15    42       P1  7948  1.00
      L1  C    15    42       P1  7957  0.43

> <Gold.PLP.Chemscore.Internal.Correction>
0.0919

> <Gold.Rescore>
     Score         DG    S(hbond)    S(metal)    S(lipo)     H(rot)  DE(clash)    DE(int)     intcor
     10.64     -13.57       2.93        0.00      55.07       3.17       0.96       1.97       ----

> <Gold.Chemscore.Fitness>
10.6383

> <Gold.Chemscore.DG>
-13.5719

> <Gold.Chemscore.ZeroCoef>
-5.4800

> <Gold.Chemscore.Hbond>
2.9273

> <Gold.Chemscore.Metal>
0.0000

> <Gold.Chemscore.Lipo>
55.0651

> <Gold.Chemscore.Internal_Hbond>
0.0000

> <Gold.Chemscore.DEClash>
0.9607

> <Gold.Chemscore.DEInternal>
1.9729

> <Gold.Chemscore.Rot>
3.1750

> <Gold.Chemscore.Internal.Correction>
   9.000000E+99

> <Gold.Chemscore.Hbonds>
donor molecule, donor type, donor heavy atom, donor atom, acceptor molecule, acceptor atom, score
      L1  H    10    36       P1  7948  0.81
      L1  H    11    46       P1  7948  0.95
      P1  H  7954  7966       L1    10  0.03
      P1  H  7989  7998       L1    16  0.28

> <Gold.Chemscore.Hbond.Weighted>
-9.7772

> <Gold.Chemscore.Metal.Weighted>
-0.0000

> <Gold.Chemscore.Lipo.Weighted>
-6.4426

> <Gold.Chemscore.Internal_Hbond.Weighted>
0.0000

> <Gold.Chemscore.DEClash.Weighted>
0.9607

> <Gold.Chemscore.DEInternal.Weighted>
1.9729

> <Gold.Chemscore.Rot.Weighted>
8.1279

> <Gold.Chemscore.Internal.Correction.Weighted>
   9.000000E+99

> <Gold.Protein.RotatedTorsions>
[ 6907 6896 6895 6894 ] final    2.04 input  -60.11 | X-H torsion
[ 7974 7965 7964 7962 ] final -116.08 input  175.53 | X-H torsion
[ 8008 7997 7996 7995 ] final   73.05 input   59.86 | X-H torsion
[ 10167 10162 10161 10158 ] final  -79.99 input  -65.29 | X-H torsion
[ 10718 10713 10712 10709 ] final  -66.85 input   66.30 | X-H torsion
[ 10763 10752 10751 10750 ] final   38.03 input  -60.55 | X-H torsion
[ 11005 11000 10999 10996 ] final   60.95 input  -57.11 | X-H torsion

> <Gold.Protein.ActiveResidues>
 VAL166  LYS551  ARG553  GLY616  TRP617  ASP618  TYR619  PRO620  LYS621  CYS622 
 ASP623  PHE694  ASN695  SER759  ASP760  ASP761  ALA762  ILE779  LEU786  VAL792 
 PHE793  MET794  SER795  GLU796  ALA797  LYS798  CYS799  TRP800  GLU811  SER814 

> <Gold.Protein.RotatedAtoms>
  151.6024  135.1046  160.0062 H   0  0  0  0  0  0  0  0  0  0  0  0  # atno 6907 bound_to 6896
  152.4251  133.7177  159.6526 H   0  0  0  0  0  0  0  0  0  0  0  0  # atno 6908 bound_to 6896
  150.8139  133.8299  159.3191 H   0  0  0  0  0  0  0  0  0  0  0  0  # atno 6909 bound_to 6896
  145.1009  140.8551  143.3926 H   0  0  0  0  0  0  0  0  0  0  0  0  # atno 7974 bound_to 7965
  155.7779  140.3482  155.5281 H   0  0  0  0  0  0  0  0  0  0  0  0  # atno 8008 bound_to 7997
  155.8758  140.0994  157.1540 H   0  0  0  0  0  0  0  0  0  0  0  0  # atno 8009 bound_to 7997
  154.4021  140.1332  156.4122 H   0  0  0  0  0  0  0  0  0  0  0  0  # atno 8010 bound_to 7997
  140.4543  143.2473  151.8443 H   0  0  0  0  0  0  0  0  0  0  0  0  # atno 10167 bound_to 10162
  156.0589  130.4268  150.1769 H   0  0  0  0  0  0  0  0  0  0  0  0  # atno 10718 bound_to 10713
  153.0015  135.6261  154.2240 H   0  0  0  0  0  0  0  0  0  0  0  0  # atno 10763 bound_to 10752
  154.1982  135.2805  155.3001 H   0  0  0  0  0  0  0  0  0  0  0  0  # atno 10764 bound_to 10752
  154.5704  135.5678  153.7149 H   0  0  0  0  0  0  0  0  0  0  0  0  # atno 10765 bound_to 10752
  140.0195  134.6174  155.9660 H   0  0  0  0  0  0  0  0  0  0  0  0  # atno 11005 bound_to 11000
  145.0956  139.2859  143.5712 LP  0  0  0  0  0  0  0  0  0  0  0  0  # atno 17320 bound_to 7965
  146.3529  140.0507  142.8636 LP  0  0  0  0  0  0  0  0  0  0  0  0  # atno 17321 bound_to 7965
  139.4799  144.5083  151.8967 LP  0  0  0  0  0  0  0  0  0  0  0  0  # atno 17342 bound_to 10162
  140.4170  144.2294  150.5887 LP  0  0  0  0  0  0  0  0  0  0  0  0  # atno 17343 bound_to 10162
  156.9841  130.9873  151.3430 LP  0  0  0  0  0  0  0  0  0  0  0  0  # atno 17370 bound_to 10713
  157.5582  130.8228  149.8232 LP  0  0  0  0  0  0  0  0  0  0  0  0  # atno 17371 bound_to 10713
  141.1765  133.6541  156.4848 LP  0  0  0  0  0  0  0  0  0  0  0  0  # atno 17394 bound_to 11000
  140.4412  134.7014  157.4992 LP  0  0  0  0  0  0  0  0  0  0  0  0  # atno 17395 bound_to 11000

$$$$
