AV-unprocessed.smi:3057|AV-procd|sdf|11668|dock3
  -GOLD-   2272017 73D 1   1.00000     0.00000
 Structure written by MMmdl.
 41 43  0  0  0  0  0  0  0  0  2 V2000
  150.3805  139.7307  157.1103 C   0  0  0  0  0  0  0  0  0  0  0  0
  150.5614  140.0119  155.6062 C   0  0  2  0  0  0  0  0  0  0  0  0
  149.8704  141.3228  155.1892 C   0  0  0  0  0  0  0  0  0  0  0  0
  148.4948  140.8826  154.6667 C   0  0  0  0  0  0  0  0  0  0  0  0
  148.7426  139.4350  154.2742 C   0  0  0  0  0  0  0  0  0  0  0  0
  148.0005  138.7991  153.5274 O   0  0  0  0  0  0  0  0  0  0  0  0
  149.8966  139.0058  154.8007 N   0  0  0  0  0  0  0  0  0  0  0  0
  150.6676  137.8275  154.3951 C   0  0  2  0  0  0  0  0  0  0  0  0
  150.1422  136.5546  155.0809 C   0  0  0  0  0  0  0  0  0  0  0  0
  150.5148  136.2386  156.2115 O   0  0  0  0  0  0  0  0  0  0  0  0
  149.2844  135.8165  154.3603 N   0  0  0  0  0  0  0  0  0  0  0  0
  148.6672  134.5681  154.7992 C   0  0  0  0  0  0  0  0  0  0  0  0
  148.9634  133.3764  153.8650 C   0  0  0  0  0  0  0  0  0  0  0  0
  147.8256  133.0430  152.9153 C   0  0  0  0  0  0  0  0  0  0  0  0
  147.2237  131.7660  152.8867 C   0  0  0  0  0  0  0  0  0  0  0  0
  146.1771  131.5168  151.9751 C   0  0  0  0  0  0  0  0  0  0  0  0
  145.7526  132.5495  151.1138 C   0  0  0  0  0  0  0  0  0  0  0  0
  146.3864  133.8068  151.1863 C   0  0  0  0  0  0  0  0  0  0  0  0
  147.3868  134.0061  152.0728 N   0  3  0  0  0  0  0  0  0  0  0  0
  152.1308  138.0890  154.8328 C   0  0  0  0  0  0  0  0  0  0  0  0
  152.2883  139.8736  155.1152 S   0  0  0  0  0  0  0  0  0  0  0  0
  149.3267  139.7206  157.3907 H   0  0  0  0  0  0  0  0  0  0  0  0
  150.8735  140.4957  157.7106 H   0  0  0  0  0  0  0  0  0  0  0  0
  150.8060  138.7688  157.3964 H   0  0  0  0  0  0  0  0  0  0  0  0
  149.7927  142.0383  156.0087 H   0  0  0  0  0  0  0  0  0  0  0  0
  150.4240  141.8099  154.3850 H   0  0  0  0  0  0  0  0  0  0  0  0
  147.7385  140.9184  155.4515 H   0  0  0  0  0  0  0  0  0  0  0  0
  148.1582  141.4840  153.8219 H   0  0  0  0  0  0  0  0  0  0  0  0
  150.6152  137.7256  153.3094 H   0  0  0  0  0  0  0  0  0  0  0  0
  149.0298  136.1519  153.4424 H   0  0  0  0  0  0  0  0  0  0  0  0
  148.9740  134.3368  155.8204 H   0  0  0  0  0  0  0  0  0  0  0  0
  147.5910  134.7393  154.8343 H   0  0  0  0  0  0  0  0  0  0  0  0
  149.8583  133.5849  153.2774 H   0  0  0  0  0  0  0  0  0  0  0  0
  149.1993  132.4935  154.4604 H   0  0  0  0  0  0  0  0  0  0  0  0
  147.5632  130.9839  153.5506 H   0  0  0  0  0  0  0  0  0  0  0  0
  145.7063  130.5453  151.9370 H   0  0  0  0  0  0  0  0  0  0  0  0
  144.9520  132.3799  150.4086 H   0  0  0  0  0  0  0  0  0  0  0  0
  146.1252  134.6521  150.5665 H   0  0  0  0  0  0  0  0  0  0  0  0
  152.3731  137.5904  155.7725 H   0  0  0  0  0  0  0  0  0  0  0  0
  152.8503  137.7510  154.0868 H   0  0  0  0  0  0  0  0  0  0  0  0
  147.8308  134.9240  152.1074 H   0  0  0  0  0  0  0  0  0  0  0  0
  1  2  1  0  0  0  0
  1 22  1  0  0  0  0
  1 23  1  0  0  0  0
  1 24  1  0  0  0  0
  2  7  1  0  0  0  0
  2 21  1  0  0  0  0
  2  3  1  0  0  0  0
  3  4  1  0  0  0  0
  3 25  1  0  0  0  0
  3 26  1  0  0  0  0
  4  5  1  0  0  0  0
  4 27  1  0  0  0  0
  4 28  1  0  0  0  0
  5  6  2  0  0  0  0
  5  7  1  0  0  0  0
  7  8  1  0  0  0  0
  8  9  1  0  0  0  0
  8 20  1  0  0  0  0
  8 29  1  0  0  0  0
  9 10  2  0  0  0  0
  9 11  1  0  0  0  0
 11 12  1  0  0  0  0
 11 30  1  0  0  0  0
 12 13  1  0  0  0  0
 12 31  1  0  0  0  0
 12 32  1  0  0  0  0
 13 14  1  0  0  0  0
 13 33  1  0  0  0  0
 13 34  1  0  0  0  0
 14 19  1  0  0  0  0
 14 15  2  0  0  0  0
 15 16  1  0  0  0  0
 15 35  1  0  0  0  0
 16 17  2  0  0  0  0
 16 36  1  0  0  0  0
 17 18  1  0  0  0  0
 17 37  1  0  0  0  0
 18 19  2  0  0  0  0
 18 38  1  0  0  0  0
 19 41  1  0  0  0  0
 20 21  1  0  0  0  0
 20 39  1  0  0  0  0
 20 40  1  0  0  0  0
M  CHG  1  19   1
M  END
> <s_m_source_file>
AV-unprocessed.smi

> <i_m_source_file_index>
3057

> <i_lp_mmshare_version>
43012

> <i_f3d_flags>
0

> <s_epik_input>
W0NIMl0xW0NIMl1DKD1PKU4oW0NAQF0xMltDSDNdKVtDQEhdKFtDSDJdUzIpQyg9TylbTkhdW0NIMl1bQ0gyXWMzW2NIXVtjSF1bY0hdW2NIXW4z

> <s_epik_cmdline>
J2VwaWtfcHl0aG9uJywgJy1waCcsICc3LjAnLCAnLXRuJywgJzgnLCAnLW1hJywgJzIwMCcsICctbWV0YWxfYmluZGluZycsICctaW1hZScsICc8aW5maWxlLm1hZT4nLCAnLW9tYWUnLCAnPG91dGZpbGUubWFlPic=

> <r_epik_Ionization_Penalty>
1.8888

> <r_epik_Ionization_Penalty_Charging>
1.8888

> <r_epik_Ionization_Penalty_Neutral>
1.66252e-07

> <r_epik_State_Penalty>
2.00916

> <r_epik_Charging_Adjusted_Penalty>
3.89796

> <i_epik_Tot_Q>
1

> <i_epik_Tot_abs_Q>
1

> <r_epik_Metal_State_Penalty>
2.03343

> <b_epik_Metal_Only>
0

> <s_lp_Force_Field>
OPLS_2005

> <r_lp_Energy>
33.0381

> <b_lp_Chiralities_Consistent>
1

> <s_lp_Variant>
AV-unprocessed.smi:3057-8

> <Gold.Version>
5.8.1

> <Gold.Id.Protein>
6NUR|6NUR_protein|mol2

> <Gold.PLP.Fitness>
44.4933

> <Gold.PLP.PLP>
-37.4629

> <Gold.PLP.part.hbond>
-2.0000

> <Gold.PLP.part.metal>
0.0000

> <Gold.PLP.part.buried>
-0.3525

> <Gold.PLP.part.nonpolar>
-35.5576

> <Gold.PLP.part.repulsive>
0.3880

> <Gold.PLP.ligand.clash>
0.0000

> <Gold.PLP.ligand.torsion>
0.9937

> <Gold.PLP.Chemscore.Hbond>
3.0000

> <Gold.PLP.Chemscore.CHOScore>
0.0000

> <Gold.PLP.Chemscore.Metal>
0.0000

> <Gold.Chemscore.Hbonds>
donor molecule, donor type, donor heavy atom, donor atom, acceptor molecule, acceptor atom, score
      L1  H    11    30       P1  7948  1.00
      L1  H    19    41       P1  7948  2.00

> <Gold.PLP.Chemscore.Internal.Correction>
0.0177

> <Gold.Rescore>
     Score         DG    S(hbond)    S(metal)    S(lipo)     H(rot)  DE(clash)    DE(int)     intcor
     16.73     -17.66       1.91        0.00      85.22       1.62       0.03       0.90       ----

> <Gold.Chemscore.Fitness>
16.7332

> <Gold.Chemscore.DG>
-17.6583

> <Gold.Chemscore.ZeroCoef>
-5.4800

> <Gold.Chemscore.Hbond>
1.9053

> <Gold.Chemscore.Metal>
0.0000

> <Gold.Chemscore.Lipo>
85.2174

> <Gold.Chemscore.Internal_Hbond>
0.0000

> <Gold.Chemscore.DEClash>
0.0251

> <Gold.Chemscore.DEInternal>
0.9001

> <Gold.Chemscore.Rot>
1.6234

> <Gold.Chemscore.Internal.Correction>
   9.000000E+99

> <Gold.Chemscore.Hbonds>
donor molecule, donor type, donor heavy atom, donor atom, acceptor molecule, acceptor atom, score
      L1  H    11    30       P1  7948  0.93
      L1  H    19    41       P1  7948  0.70

> <Gold.Chemscore.Hbond.Weighted>
-6.3637

> <Gold.Chemscore.Metal.Weighted>
-0.0000

> <Gold.Chemscore.Lipo.Weighted>
-9.9704

> <Gold.Chemscore.Internal_Hbond.Weighted>
0.0000

> <Gold.Chemscore.DEClash.Weighted>
0.0251

> <Gold.Chemscore.DEInternal.Weighted>
0.9001

> <Gold.Chemscore.Rot.Weighted>
4.1558

> <Gold.Chemscore.Internal.Correction.Weighted>
   9.000000E+99

> <Gold.Protein.RotatedTorsions>
[ 6907 6896 6895 6894 ] final   -2.02 input  -60.11 | X-H torsion
[ 7974 7965 7964 7962 ] final  -26.74 input  175.53 | X-H torsion
[ 8008 7997 7996 7995 ] final  137.05 input   59.86 | X-H torsion
[ 10167 10162 10161 10158 ] final -153.04 input  -65.29 | X-H torsion
[ 10718 10713 10712 10709 ] final    4.11 input   66.30 | X-H torsion
[ 10763 10752 10751 10750 ] final   88.10 input  -60.55 | X-H torsion
[ 11005 11000 10999 10996 ] final -123.63 input  -57.11 | X-H torsion

> <Gold.Protein.ActiveResidues>
 VAL166  LYS551  ARG553  GLY616  TRP617  ASP618  TYR619  PRO620  LYS621  CYS622 
 ASP623  PHE694  ASN695  SER759  ASP760  ASP761  ALA762  ILE779  LEU786  VAL792 
 PHE793  MET794  SER795  GLU796  ALA797  LYS798  CYS799  TRP800  GLU811  SER814 

> <Gold.Protein.RotatedAtoms>
  151.5367  135.1068  159.9915 H   0  0  0  0  0  0  0  0  0  0  0  0  # atno 6907 bound_to 6896
  152.4554  133.7708  159.6808 H   0  0  0  0  0  0  0  0  0  0  0  0  # atno 6908 bound_to 6896
  150.8496  133.7742  159.3055 H   0  0  0  0  0  0  0  0  0  0  0  0  # atno 6909 bound_to 6896
  146.1405  140.5059  142.8654 H   0  0  0  0  0  0  0  0  0  0  0  0  # atno 7974 bound_to 7965
  156.3003  140.2429  156.3846 H   0  0  0  0  0  0  0  0  0  0  0  0  # atno 8008 bound_to 7997
  154.8670  140.0417  157.1720 H   0  0  0  0  0  0  0  0  0  0  0  0  # atno 8009 bound_to 7997
  154.8836  140.2953  155.5415 H   0  0  0  0  0  0  0  0  0  0  0  0  # atno 8010 bound_to 7997
  139.7130  143.9078  152.2475 H   0  0  0  0  0  0  0  0  0  0  0  0  # atno 10167 bound_to 10162
  156.8877  130.5676  149.5651 H   0  0  0  0  0  0  0  0  0  0  0  0  # atno 10718 bound_to 10713
  153.1734  135.4519  154.9933 H   0  0  0  0  0  0  0  0  0  0  0  0  # atno 10763 bound_to 10752
  154.7982  135.3245  154.7618 H   0  0  0  0  0  0  0  0  0  0  0  0  # atno 10764 bound_to 10752
  153.8092  135.6956  153.4898 H   0  0  0  0  0  0  0  0  0  0  0  0  # atno 10765 bound_to 10752
  140.9904  134.0547  157.3661 H   0  0  0  0  0  0  0  0  0  0  0  0  # atno 11005 bound_to 11000
  144.7787  140.5795  143.6620 LP  0  0  0  0  0  0  0  0  0  0  0  0  # atno 17320 bound_to 7965
  145.5057  139.1481  143.3632 LP  0  0  0  0  0  0  0  0  0  0  0  0  # atno 17321 bound_to 7965
  139.8952  144.6943  150.8726 LP  0  0  0  0  0  0  0  0  0  0  0  0  # atno 17342 bound_to 10162
  140.7737  143.3555  151.1929 LP  0  0  0  0  0  0  0  0  0  0  0  0  # atno 17343 bound_to 10162
  156.0645  130.5691  150.9260 LP  0  0  0  0  0  0  0  0  0  0  0  0  # atno 17370 bound_to 10713
  157.6102  131.0937  150.8808 LP  0  0  0  0  0  0  0  0  0  0  0  0  # atno 17371 bound_to 10713
  139.8989  135.0156  156.7172 LP  0  0  0  0  0  0  0  0  0  0  0  0  # atno 17394 bound_to 11000
  140.7049  133.9274  155.8048 LP  0  0  0  0  0  0  0  0  0  0  0  0  # atno 17395 bound_to 11000

$$$$
