AV-unprocessed.smi:187|AV-procd|sdf|1471|dock3
  -GOLD-   2262019293D 1   1.00000     0.00000
 Structure written by MMmdl.
 53 56  0  0  0  0  0  0  0  0  1 V2000
  150.1296  141.6892  156.7810 C   0  0  0  0  0  0  0  0  0  0  0  0
  151.5045  141.5762  157.4728 C   0  0  1  0  0  0  0  0  0  0  0  0
  151.5003  142.4323  158.7571 C   0  0  0  0  0  0  0  0  0  0  0  0
  152.8181  142.3053  159.5322 C   0  0  0  0  0  0  0  0  0  0  0  0
  153.0956  140.8258  159.8524 C   0  0  2  0  0  0  0  0  0  0  0  0
  154.4192  140.6620  160.6103 C   0  0  0  0  0  0  0  0  0  0  0  0
  155.5235  141.1128  160.0099 N   0  0  0  0  0  0  0  0  0  0  0  0
  154.4481  140.1365  161.7217 O   0  0  0  0  0  0  0  0  0  0  0  0
  153.1087  140.0115  158.5450 C   0  0  0  0  0  0  0  0  0  0  0  0
  151.8684  140.1847  157.7877 N   0  0  0  0  0  0  0  0  0  0  0  0
  151.8245  139.2887  156.7728 C   0  0  0  0  0  0  0  0  0  0  0  0
  152.6593  139.4176  155.7071 N   0  0  0  0  0  0  0  0  0  0  0  0
  152.6299  138.5144  154.7222 C   0  0  0  0  0  0  0  0  0  0  0  0
  151.8641  137.4268  154.6091 N   0  0  0  0  0  0  0  0  0  0  0  0
  151.0323  137.2917  155.6819 C   0  0  0  0  0  0  0  0  0  0  0  0
  150.9550  138.1663  156.8012 C   0  0  0  0  0  0  0  0  0  0  0  0
  150.0107  137.7007  157.7071 N   0  0  0  0  0  0  0  0  0  0  0  0
  149.5580  136.6071  157.1558 C   0  0  0  0  0  0  0  0  0  0  0  0
  150.0970  136.3013  155.9256 N   0  0  0  0  0  0  0  0  0  0  0  0
  149.8144  135.1492  155.1208 C   0  0  0  0  0  0  0  0  0  0  0  0
  148.3750  134.7649  154.7749 C   0  0  0  0  0  0  0  0  0  0  0  0
  148.7849  133.2741  154.7616 C   0  0  0  0  0  0  0  0  0  0  0  0
  147.8022  132.2891  155.4192 C   0  0  0  0  0  0  0  0  0  0  0  0
  147.3698  132.7379  156.6869 O   0  0  0  0  0  0  0  0  0  0  0  0
  149.2493  132.7010  153.4056 C   0  0  0  0  0  0  0  0  0  0  0  0
  148.1904  132.5990  152.4761 O   0  0  0  0  0  0  0  0  0  0  0  0
  149.9431  133.7290  155.6789 C   0  0  0  0  0  0  0  0  0  0  0  0
  149.8685  142.7330  156.6048 H   0  0  0  0  0  0  0  0  0  0  0  0
  149.3419  141.2511  157.3949 H   0  0  0  0  0  0  0  0  0  0  0  0
  150.1099  141.1914  155.8120 H   0  0  0  0  0  0  0  0  0  0  0  0
  152.2647  141.9804  156.8025 H   0  0  0  0  0  0  0  0  0  0  0  0
  151.3231  143.4790  158.5077 H   0  0  0  0  0  0  0  0  0  0  0  0
  150.6751  142.1257  159.4016 H   0  0  0  0  0  0  0  0  0  0  0  0
  153.6307  142.7275  158.9387 H   0  0  0  0  0  0  0  0  0  0  0  0
  152.7639  142.8908  160.4509 H   0  0  0  0  0  0  0  0  0  0  0  0
  152.2861  140.4508  160.4818 H   0  0  0  0  0  0  0  0  0  0  0  0
  156.4182  141.0267  160.4695 H   0  0  0  0  0  0  0  0  0  0  0  0
  155.4585  141.5384  159.0966 H   0  0  0  0  0  0  0  0  0  0  0  0
  153.9491  140.3161  157.9185 H   0  0  0  0  0  0  0  0  0  0  0  0
  153.2566  138.9556  158.7785 H   0  0  0  0  0  0  0  0  0  0  0  0
  153.3193  138.6876  153.9092 H   0  0  0  0  0  0  0  0  0  0  0  0
  148.8092  135.9935  157.6351 H   0  0  0  0  0  0  0  0  0  0  0  0
  150.4105  135.2640  154.2139 H   0  0  0  0  0  0  0  0  0  0  0  0
  147.6752  135.0053  155.5778 H   0  0  0  0  0  0  0  0  0  0  0  0
  148.0207  135.1575  153.8215 H   0  0  0  0  0  0  0  0  0  0  0  0
  146.9294  132.1195  154.7882 H   0  0  0  0  0  0  0  0  0  0  0  0
  148.2690  131.3144  155.5629 H   0  0  0  0  0  0  0  0  0  0  0  0
  146.6154  132.2309  156.9446 H   0  0  0  0  0  0  0  0  0  0  0  0
  150.0177  133.3292  152.9550 H   0  0  0  0  0  0  0  0  0  0  0  0
  149.7014  131.7166  153.5290 H   0  0  0  0  0  0  0  0  0  0  0  0
  148.4668  132.0432  151.7638 H   0  0  0  0  0  0  0  0  0  0  0  0
  150.9029  133.2510  155.4798 H   0  0  0  0  0  0  0  0  0  0  0  0
  149.6955  133.6755  156.7408 H   0  0  0  0  0  0  0  0  0  0  0  0
  1  2  1  0  0  0  0
  1 28  1  0  0  0  0
  1 29  1  0  0  0  0
  1 30  1  0  0  0  0
  2 10  1  0  0  0  0
  2  3  1  0  0  0  0
  2 31  1  0  0  0  0
  3  4  1  0  0  0  0
  3 32  1  0  0  0  0
  3 33  1  0  0  0  0
  4  5  1  0  0  0  0
  4 34  1  0  0  0  0
  4 35  1  0  0  0  0
  5  6  1  0  0  0  0
  5  9  1  0  0  0  0
  5 36  1  0  0  0  0
  6  7  1  0  0  0  0
  6  8  2  0  0  0  0
  7 37  1  0  0  0  0
  7 38  1  0  0  0  0
  9 10  1  0  0  0  0
  9 39  1  0  0  0  0
  9 40  1  0  0  0  0
 10 11  1  0  0  0  0
 11 16  1  0  0  0  0
 11 12  2  0  0  0  0
 12 13  1  0  0  0  0
 13 14  2  0  0  0  0
 13 41  1  0  0  0  0
 14 15  1  0  0  0  0
 15 19  1  0  0  0  0
 15 16  2  0  0  0  0
 16 17  1  0  0  0  0
 17 18  2  0  0  0  0
 18 19  1  0  0  0  0
 18 42  1  0  0  0  0
 19 20  1  0  0  0  0
 20 27  1  0  0  0  0
 20 21  1  0  0  0  0
 20 43  1  0  0  0  0
 21 22  1  0  0  0  0
 21 44  1  0  0  0  0
 21 45  1  0  0  0  0
 22 23  1  0  0  0  0
 22 25  1  0  0  0  0
 22 27  1  0  0  0  0
 23 24  1  0  0  0  0
 23 46  1  0  0  0  0
 23 47  1  0  0  0  0
 24 48  1  0  0  0  0
 25 26  1  0  0  0  0
 25 49  1  0  0  0  0
 25 50  1  0  0  0  0
 26 51  1  0  0  0  0
 27 52  1  0  0  0  0
 27 53  1  0  0  0  0
M  END
> <s_m_source_file>
AV-unprocessed.smi

> <i_m_source_file_index>
187

> <i_lp_mmshare_version>
43012

> <i_f3d_flags>
0

> <s_epik_input>
W0NIM11bQ0BASF0xW0NIMl1bQ0gyXVtDQEBIXShDKD1PKVtOSDJdKVtDSDJdTjFjKG5bY0hdbjIpYyhjMjMpbltjSF1uM1tDSF0oW0NIMl00KVtDSDJdQzQoW0NIMl1bT0hdKVtDSDJdW09IXQ==

> <s_epik_cmdline>
J2VwaWtfcHl0aG9uJywgJy1waCcsICc3LjAnLCAnLXRuJywgJzgnLCAnLW1hJywgJzIwMCcsICctbWV0YWxfYmluZGluZycsICctaW1hZScsICc8aW5maWxlLm1hZT4nLCAnLW9tYWUnLCAnPG91dGZpbGUubWFlPic=

> <r_lp_tautomer_probability>
1

> <r_epik_Ionization_Penalty>
0.0017711

> <r_epik_Ionization_Penalty_Charging>
0

> <r_epik_Ionization_Penalty_Neutral>
0.0017711

> <r_epik_State_Penalty>
0.00107211

> <r_epik_Charging_Adjusted_Penalty>
0.00107211

> <i_epik_Tot_Q>
0

> <i_epik_Tot_abs_Q>
0

> <r_epik_Metal_State_Penalty>
-0

> <b_epik_Metal_Only>
0

> <s_lp_Force_Field>
OPLS_2005

> <r_lp_Energy>
43.5948

> <b_lp_Chiralities_Consistent>
1

> <s_lp_Variant>
AV-unprocessed.smi:187-4

> <Gold.Version>
5.8.1

> <Gold.Id.Protein>
6NUR|6NUR_protein|mol2

> <Gold.PLP.Fitness>
47.4617

> <Gold.PLP.PLP>
-38.8012

> <Gold.PLP.part.hbond>
-3.8422

> <Gold.PLP.part.metal>
0.0000

> <Gold.PLP.part.buried>
-6.4703

> <Gold.PLP.part.nonpolar>
-28.0849

> <Gold.PLP.part.repulsive>
0.1893

> <Gold.PLP.ligand.clash>
0.0000

> <Gold.PLP.ligand.torsion>
0.4181

> <Gold.PLP.Chemscore.Hbond>
2.9199

> <Gold.PLP.Chemscore.CHOScore>
0.0000

> <Gold.PLP.Chemscore.Metal>
0.0000

> <Gold.Chemscore.Hbonds>
donor molecule, donor type, donor heavy atom, donor atom, acceptor molecule, acceptor atom, score
      L1  H    26    51       P1 10747  1.00
      P1  H  7997  8010       L1    12  1.00
      P1  H 10752 10764       L1    14  0.80

> <Gold.PLP.Chemscore.Internal.Correction>
0.7371

> <Gold.Rescore>
     Score         DG    S(hbond)    S(metal)    S(lipo)     H(rot)  DE(clash)    DE(int)     intcor
     12.47     -12.94       2.55        0.00      78.13       3.99       0.02       0.45       ----

> <Gold.Chemscore.Fitness>
12.4743

> <Gold.Chemscore.DG>
-12.9396

> <Gold.Chemscore.ZeroCoef>
-5.4800

> <Gold.Chemscore.Hbond>
2.5549

> <Gold.Chemscore.Metal>
0.0000

> <Gold.Chemscore.Lipo>
78.1296

> <Gold.Chemscore.Internal_Hbond>
0.0000

> <Gold.Chemscore.DEClash>
0.0202

> <Gold.Chemscore.DEInternal>
0.4451

> <Gold.Chemscore.Rot>
3.9902

> <Gold.Chemscore.Internal.Correction>
   9.000000E+99

> <Gold.Chemscore.Hbonds>
donor molecule, donor type, donor heavy atom, donor atom, acceptor molecule, acceptor atom, score
      L1  H    26    51       P1 10747  0.99
      P1  H  7997  8010       L1    12  0.82
      P1  H 10752 10764       L1    14  0.44

> <Gold.Chemscore.Hbond.Weighted>
-8.5333

> <Gold.Chemscore.Metal.Weighted>
-0.0000

> <Gold.Chemscore.Lipo.Weighted>
-9.1412

> <Gold.Chemscore.Internal_Hbond.Weighted>
0.0000

> <Gold.Chemscore.DEClash.Weighted>
0.0202

> <Gold.Chemscore.DEInternal.Weighted>
0.4451

> <Gold.Chemscore.Rot.Weighted>
10.2148

> <Gold.Chemscore.Internal.Correction.Weighted>
   9.000000E+99

> <Gold.Protein.RotatedTorsions>
[ 6907 6896 6895 6894 ] final    2.90 input  -60.11 | X-H torsion
[ 7974 7965 7964 7962 ] final  -84.00 input  175.53 | X-H torsion
[ 8008 7997 7996 7995 ] final   89.52 input   59.86 | X-H torsion
[ 10167 10162 10161 10158 ] final  -97.92 input  -65.29 | X-H torsion
[ 10718 10713 10712 10709 ] final  -92.43 input   66.30 | X-H torsion
[ 10763 10752 10751 10750 ] final  -70.00 input  -60.55 | X-H torsion
[ 11005 11000 10999 10996 ] final  145.54 input  -57.11 | X-H torsion

> <Gold.Protein.ActiveResidues>
 VAL166  LYS551  ARG553  GLY616  TRP617  ASP618  TYR619  PRO620  LYS621  CYS622 
 ASP623  PHE694  ASN695  SER759  ASP760  ASP761  ALA762  ILE779  LEU786  VAL792 
 PHE793  MET794  SER795  GLU796  ALA797  LYS798  CYS799  TRP800  GLU811  SER814 

> <Gold.Protein.RotatedAtoms>
  151.6164  135.1036  160.0092 H   0  0  0  0  0  0  0  0  0  0  0  0  # atno 6907 bound_to 6896
  152.4181  133.7067  159.6466 H   0  0  0  0  0  0  0  0  0  0  0  0  # atno 6908 bound_to 6896
  150.8069  133.8420  159.3223 H   0  0  0  0  0  0  0  0  0  0  0  0  # atno 6909 bound_to 6896
  145.5124  140.9539  143.1700 H   0  0  0  0  0  0  0  0  0  0  0  0  # atno 7974 bound_to 7965
  156.0010  140.3360  155.6845 H   0  0  0  0  0  0  0  0  0  0  0  0  # atno 8008 bound_to 7997
  155.6290  140.0683  157.2672 H   0  0  0  0  0  0  0  0  0  0  0  0  # atno 8009 bound_to 7997
  154.4249  140.1763  156.1440 H   0  0  0  0  0  0  0  0  0  0  0  0  # atno 8010 bound_to 7997
  140.2784  143.3298  152.0465 H   0  0  0  0  0  0  0  0  0  0  0  0  # atno 10167 bound_to 10162
  156.0002  130.4987  150.5624 H   0  0  0  0  0  0  0  0  0  0  0  0  # atno 10718 bound_to 10713
  154.4115  135.6008  153.5955 H   0  0  0  0  0  0  0  0  0  0  0  0  # atno 10763 bound_to 10752
  152.9790  135.5930  154.4064 H   0  0  0  0  0  0  0  0  0  0  0  0  # atno 10764 bound_to 10752
  154.3877  135.2841  155.2152 H   0  0  0  0  0  0  0  0  0  0  0  0  # atno 10765 bound_to 10752
  140.0720  134.9146  157.1361 H   0  0  0  0  0  0  0  0  0  0  0  0  # atno 11005 bound_to 11000
  144.7720  139.6713  143.7191 LP  0  0  0  0  0  0  0  0  0  0  0  0  # atno 17320 bound_to 7965
  146.2158  139.5547  142.9651 LP  0  0  0  0  0  0  0  0  0  0  0  0  # atno 17321 bound_to 7965
  139.4969  144.6608  151.6468 LP  0  0  0  0  0  0  0  0  0  0  0  0  # atno 17342 bound_to 10162
  140.5832  143.9910  150.6280 LP  0  0  0  0  0  0  0  0  0  0  0  0  # atno 17343 bound_to 10162
  157.3532  131.0737  151.1697 LP  0  0  0  0  0  0  0  0  0  0  0  0  # atno 17370 bound_to 10713
  157.2506  130.6612  149.5930 LP  0  0  0  0  0  0  0  0  0  0  0  0  # atno 17371 bound_to 10713
  140.3613  134.2491  155.7187 LP  0  0  0  0  0  0  0  0  0  0  0  0  # atno 17394 bound_to 11000
  141.2015  133.7960  157.0435 LP  0  0  0  0  0  0  0  0  0  0  0  0  # atno 17395 bound_to 11000

$$$$
