AV-unprocessed.smi:2990|AV-procd|sdf|11395|dock3
  -GOLD-   2272016323D 1   1.00000     0.00000
 Structure written by MMmdl.
 40 42  0  0  0  0  0  0  0  0  2 V2000
  149.0458  140.9156  154.2167 C   0  0  0  0  0  0  0  0  0  0  0  0
  149.9411  141.1279  155.3910 C   0  0  0  0  0  0  0  0  0  0  0  0
  150.1729  142.3148  156.0194 N   0  3  0  0  0  0  0  0  0  0  0  0
  151.0655  142.1237  157.0751 C   0  0  0  0  0  0  0  0  0  0  0  0
  151.5961  143.0249  157.9931 C   0  0  0  0  0  0  0  0  0  0  0  0
  152.4838  142.4996  158.9551 C   0  0  0  0  0  0  0  0  0  0  0  0
  152.8115  141.1285  158.9800 C   0  0  0  0  0  0  0  0  0  0  0  0
  152.2688  140.2249  158.0424 C   0  0  0  0  0  0  0  0  0  0  0  0
  151.3936  140.7521  157.0929 C   0  0  0  0  0  0  0  0  0  0  0  0
  150.6786  140.1784  156.0341 N   0  0  0  0  0  0  0  0  0  0  0  0
  150.8013  138.7370  155.7627 C   0  0  0  0  0  0  0  0  0  0  0  0
  151.9019  138.4125  154.7329 C   0  0  2  0  0  0  0  0  0  0  0  0
  151.6366  137.1714  154.1105 O   0  0  0  0  0  0  0  0  0  0  0  0
  153.3011  138.3512  155.3628 C   0  0  0  0  0  0  0  0  0  0  0  0
  154.2599  138.7536  154.3937 O   0  0  0  0  0  0  0  0  0  0  0  0
  155.5314  138.2283  154.4754 C   0  0  0  0  0  0  0  0  0  0  0  0
  156.4188  138.5374  153.4238 C   0  0  0  0  0  0  0  0  0  0  0  0
  157.7365  138.0407  153.4226 C   0  0  0  0  0  0  0  0  0  0  0  0
  158.1818  137.2247  154.4786 C   0  0  0  0  0  0  0  0  0  0  0  0
  157.3077  136.9093  155.5352 C   0  0  0  0  0  0  0  0  0  0  0  0
  155.9897  137.4072  155.5372 C   0  0  0  0  0  0  0  0  0  0  0  0
  148.5569  141.8480  153.9335 H   0  0  0  0  0  0  0  0  0  0  0  0
  148.2776  140.1804  154.4567 H   0  0  0  0  0  0  0  0  0  0  0  0
  149.6225  140.5532  153.3655 H   0  0  0  0  0  0  0  0  0  0  0  0
  151.3450  144.0754  157.9771 H   0  0  0  0  0  0  0  0  0  0  0  0
  152.9204  143.1612  159.6894 H   0  0  0  0  0  0  0  0  0  0  0  0
  153.4927  140.7613  159.7340 H   0  0  0  0  0  0  0  0  0  0  0  0
  152.5226  139.1756  158.0750 H   0  0  0  0  0  0  0  0  0  0  0  0
  151.0269  138.2516  156.7128 H   0  0  0  0  0  0  0  0  0  0  0  0
  149.8345  138.3436  155.4481 H   0  0  0  0  0  0  0  0  0  0  0  0
  151.9027  139.1731  153.9512 H   0  0  0  0  0  0  0  0  0  0  0  0
  151.5520  137.3148  153.1802 H   0  0  0  0  0  0  0  0  0  0  0  0
  153.3468  138.9957  156.2426 H   0  0  0  0  0  0  0  0  0  0  0  0
  153.5133  137.3282  155.6793 H   0  0  0  0  0  0  0  0  0  0  0  0
  156.0855  139.1628  152.6088 H   0  0  0  0  0  0  0  0  0  0  0  0
  158.4048  138.2859  152.6105 H   0  0  0  0  0  0  0  0  0  0  0  0
  159.1915  136.8415  154.4778 H   0  0  0  0  0  0  0  0  0  0  0  0
  157.6485  136.2829  156.3464 H   0  0  0  0  0  0  0  0  0  0  0  0
  155.3497  137.1422  156.3649 H   0  0  0  0  0  0  0  0  0  0  0  0
  149.7493  143.1915  155.7441 H   0  0  0  0  0  0  0  0  0  0  0  0
  1  2  1  0  0  0  0
  1 22  1  0  0  0  0
  1 23  1  0  0  0  0
  1 24  1  0  0  0  0
  2 10  1  0  0  0  0
  2  3  2  0  0  0  0
  3  4  1  0  0  0  0
  3 40  1  0  0  0  0
  4  9  2  0  0  0  0
  4  5  1  0  0  0  0
  5  6  2  0  0  0  0
  5 25  1  0  0  0  0
  6  7  1  0  0  0  0
  6 26  1  0  0  0  0
  7  8  2  0  0  0  0
  7 27  1  0  0  0  0
  8  9  1  0  0  0  0
  8 28  1  0  0  0  0
  9 10  1  0  0  0  0
 10 11  1  0  0  0  0
 11 12  1  0  0  0  0
 11 29  1  0  0  0  0
 11 30  1  0  0  0  0
 12 13  1  0  0  0  0
 12 14  1  0  0  0  0
 12 31  1  0  0  0  0
 13 32  1  0  0  0  0
 14 15  1  0  0  0  0
 14 33  1  0  0  0  0
 14 34  1  0  0  0  0
 15 16  1  0  0  0  0
 16 21  1  0  0  0  0
 16 17  2  0  0  0  0
 17 18  1  0  0  0  0
 17 35  1  0  0  0  0
 18 19  2  0  0  0  0
 18 36  1  0  0  0  0
 19 20  1  0  0  0  0
 19 37  1  0  0  0  0
 20 21  2  0  0  0  0
 20 38  1  0  0  0  0
 21 39  1  0  0  0  0
M  CHG  1   3   1
M  END
> <s_m_source_file>
AV-unprocessed.smi

> <i_m_source_file_index>
2990

> <i_lp_mmshare_version>
43012

> <i_f3d_flags>
0

> <s_epik_input>
W2NIXTFbY0hdW2NIXVtjSF1jKGMxMiluKGMobjIpW0NIM10pW0NIMl1bQ0BIXShbT0hdKVtDSDJdT2MzW2NIXVtjSF1bY0hdW2NIXVtjSF0z

> <s_epik_cmdline>
J2VwaWtfcHl0aG9uJywgJy1waCcsICc3LjAnLCAnLXRuJywgJzgnLCAnLW1hJywgJzIwMCcsICctbWV0YWxfYmluZGluZycsICctaW1hZScsICc8aW5maWxlLm1hZT4nLCAnLW9tYWUnLCAnPG91dGZpbGUubWFlPic=

> <r_lp_tautomer_probability>
1

> <r_epik_Ionization_Penalty>
1.00673

> <r_epik_Ionization_Penalty_Charging>
1.00673

> <r_epik_Ionization_Penalty_Neutral>
2.3993e-06

> <r_epik_State_Penalty>
1.05579

> <r_epik_Charging_Adjusted_Penalty>
2.06252

> <i_epik_Tot_Q>
1

> <i_epik_Tot_abs_Q>
1

> <r_epik_Metal_State_Penalty>
5.03947

> <b_epik_Metal_Only>
0

> <s_lp_Force_Field>
OPLS_2005

> <r_lp_Energy>
19.3411

> <b_lp_Chiralities_Consistent>
1

> <s_lp_Variant>
AV-unprocessed.smi:2990-3

> <Gold.Version>
5.8.1

> <Gold.Id.Protein>
6NUR|6NUR_protein|mol2

> <Gold.PLP.Fitness>
51.9366

> <Gold.PLP.PLP>
-43.8765

> <Gold.PLP.part.hbond>
-4.0000

> <Gold.PLP.part.metal>
0.0000

> <Gold.PLP.part.buried>
0.1754

> <Gold.PLP.part.nonpolar>
-41.2207

> <Gold.PLP.part.repulsive>
0.1458

> <Gold.PLP.ligand.clash>
0.0000

> <Gold.PLP.ligand.torsion>
1.1947

> <Gold.PLP.Chemscore.Hbond>
3.4563

> <Gold.PLP.Chemscore.CHOScore>
0.0000

> <Gold.PLP.Chemscore.Metal>
0.0000

> <Gold.Chemscore.Hbonds>
donor molecule, donor type, donor heavy atom, donor atom, acceptor molecule, acceptor atom, score
      L1  H     3    40       P1  8028  2.00
      L1  H    13    32       P1  7949  0.43
      P1  H 10752 10765       L1    13  0.90

> <Gold.PLP.Chemscore.Internal.Correction>
0.0806

> <Gold.Rescore>
     Score         DG    S(hbond)    S(metal)    S(lipo)     H(rot)  DE(clash)    DE(int)     intcor
     20.85     -22.37       1.94        0.00     135.18       2.12       0.24       1.28       ----

> <Gold.Chemscore.Fitness>
20.8504

> <Gold.Chemscore.DG>
-22.3680

> <Gold.Chemscore.ZeroCoef>
-5.4800

> <Gold.Chemscore.Hbond>
1.9446

> <Gold.Chemscore.Metal>
0.0000

> <Gold.Chemscore.Lipo>
135.1826

> <Gold.Chemscore.Internal_Hbond>
0.0000

> <Gold.Chemscore.DEClash>
0.2370

> <Gold.Chemscore.DEInternal>
1.2805

> <Gold.Chemscore.Rot>
2.1184

> <Gold.Chemscore.Internal.Correction>
   9.000000E+99

> <Gold.Chemscore.Hbonds>
donor molecule, donor type, donor heavy atom, donor atom, acceptor molecule, acceptor atom, score
      L1  H     3    40       P1  8028  1.00
      L1  H    13    32       P1  7949  0.39
      P1  H 10752 10765       L1    13  0.17

> <Gold.Chemscore.Hbond.Weighted>
-6.4948

> <Gold.Chemscore.Metal.Weighted>
-0.0000

> <Gold.Chemscore.Lipo.Weighted>
-15.8164

> <Gold.Chemscore.Internal_Hbond.Weighted>
0.0000

> <Gold.Chemscore.DEClash.Weighted>
0.2370

> <Gold.Chemscore.DEInternal.Weighted>
1.2805

> <Gold.Chemscore.Rot.Weighted>
5.4231

> <Gold.Chemscore.Internal.Correction.Weighted>
   9.000000E+99

> <Gold.Protein.RotatedTorsions>
[ 6907 6896 6895 6894 ] final  105.05 input  -60.11 | X-H torsion
[ 7974 7965 7964 7962 ] final  -92.05 input  175.53 | X-H torsion
[ 8008 7997 7996 7995 ] final   92.56 input   59.86 | X-H torsion
[ 10167 10162 10161 10158 ] final  -49.04 input  -65.29 | X-H torsion
[ 10718 10713 10712 10709 ] final  -10.36 input   66.30 | X-H torsion
[ 10763 10752 10751 10750 ] final  146.33 input  -60.55 | X-H torsion
[ 11005 11000 10999 10996 ] final  178.48 input  -57.11 | X-H torsion

> <Gold.Protein.ActiveResidues>
 VAL166  LYS551  ARG553  GLY616  TRP617  ASP618  TYR619  PRO620  LYS621  CYS622 
 ASP623  PHE694  ASN695  SER759  ASP760  ASP761  ALA762  ILE779  LEU786  VAL792 
 PHE793  MET794  SER795  GLU796  ALA797  LYS798  CYS799  TRP800  GLU811  SER814 

> <Gold.Protein.RotatedAtoms>
  152.5243  133.9585  159.7705 H   0  0  0  0  0  0  0  0  0  0  0  0  # atno 6907 bound_to 6896
  150.9881  133.6169  159.2719 H   0  0  0  0  0  0  0  0  0  0  0  0  # atno 6908 bound_to 6896
  151.3322  135.0850  159.9396 H   0  0  0  0  0  0  0  0  0  0  0  0  # atno 6909 bound_to 6896
  145.4049  140.9540  143.2266 H   0  0  0  0  0  0  0  0  0  0  0  0  # atno 7974 bound_to 7965
  156.0367  140.3324  155.7199 H   0  0  0  0  0  0  0  0  0  0  0  0  # atno 8008 bound_to 7997
  155.5805  140.0636  157.2802 H   0  0  0  0  0  0  0  0  0  0  0  0  # atno 8009 bound_to 7997
  154.4376  140.1845  156.0959 H   0  0  0  0  0  0  0  0  0  0  0  0  # atno 8010 bound_to 7997
  140.6703  143.2714  151.4158 H   0  0  0  0  0  0  0  0  0  0  0  0  # atno 10167 bound_to 10162
  156.6746  130.5019  149.5989 H   0  0  0  0  0  0  0  0  0  0  0  0  # atno 10718 bound_to 10713
  154.0200  135.2907  155.3382 H   0  0  0  0  0  0  0  0  0  0  0  0  # atno 10763 bound_to 10752
  154.7052  135.5172  153.8587 H   0  0  0  0  0  0  0  0  0  0  0  0  # atno 10764 bound_to 10752
  153.0685  135.6639  154.0423 H   0  0  0  0  0  0  0  0  0  0  0  0  # atno 10765 bound_to 10752
  140.3956  134.6823  157.4532 H   0  0  0  0  0  0  0  0  0  0  0  0  # atno 11005 bound_to 11000
  144.8348  139.5568  143.6927 LP  0  0  0  0  0  0  0  0  0  0  0  0  # atno 17320 bound_to 7965
  146.2733  139.6690  142.9280 LP  0  0  0  0  0  0  0  0  0  0  0  0  # atno 17321 bound_to 7965
  139.5969  144.1379  152.2154 LP  0  0  0  0  0  0  0  0  0  0  0  0  # atno 17342 bound_to 10162
  140.0751  144.5747  150.7163 LP  0  0  0  0  0  0  0  0  0  0  0  0  # atno 17343 bound_to 10162
  156.1913  130.6561  151.1064 LP  0  0  0  0  0  0  0  0  0  0  0  0  # atno 17370 bound_to 10713
  157.7065  131.0754  150.6649 LP  0  0  0  0  0  0  0  0  0  0  0  0  # atno 17371 bound_to 10713
  140.0374  134.6317  155.9025 LP  0  0  0  0  0  0  0  0  0  0  0  0  # atno 17394 bound_to 11000
  141.1875  133.6560  156.5285 LP  0  0  0  0  0  0  0  0  0  0  0  0  # atno 17395 bound_to 11000

$$$$
