AV-unprocessed.smi:980|AV-procd|sdf|4311|dock6
  -GOLD-   22720 2213D 1   1.00000     0.00000
 Structure written by MMmdl.
 44 45  0  0  0  0  0  0  0  0  1 V2000
  152.7164  131.3952  163.4447 C   0  0  0  0  0  0  0  0  0  0  0  0
  153.7850  132.2409  164.1700 C   0  0  0  0  0  0  0  0  0  0  0  0
  153.1768  132.7408  165.4952 C   0  0  0  0  0  0  0  0  0  0  0  0
  154.9952  131.3312  164.4593 C   0  0  0  0  0  0  0  0  0  0  0  0
  154.2177  133.4205  163.3218 C   0  0  0  0  0  0  0  0  0  0  0  0
  154.6984  133.4090  162.0319 C   0  0  0  0  0  0  0  0  0  0  0  0
  155.0673  135.0081  161.4473 S   0  0  0  0  0  0  0  0  0  0  0  0
  154.5664  135.6559  163.0015 C   0  0  0  0  0  0  0  0  0  0  0  0
  154.5523  137.1138  163.3170 C   0  0  0  0  0  0  0  0  0  0  0  0
  155.1857  137.9573  162.2036 C   0  0  0  0  0  0  0  0  0  0  0  0
  154.3641  139.1231  161.9102 N   0  0  0  0  0  0  0  0  0  0  0  0
  154.6537  140.0355  160.9715 C   0  0  0  0  0  0  0  0  0  0  0  0
  155.6690  139.9861  160.2764 O   0  0  0  0  0  0  0  0  0  0  0  0
  153.6424  141.1746  160.7860 C   0  0  2  0  0  0  0  0  0  0  0  0
  154.0351  142.0763  159.5931 C   0  0  0  0  0  0  0  0  0  0  0  0
  153.2070  143.3478  159.5387 C   0  0  0  0  0  0  0  0  0  0  0  0
  152.4759  143.7984  160.5726 C   0  0  0  0  0  0  0  0  0  0  0  0
  152.3987  143.0901  161.9135 C   0  0  0  0  0  0  0  0  0  0  0  0
  153.4915  142.0154  162.0698 C   0  0  0  0  0  0  0  0  0  0  0  0
  154.1466  134.7161  163.8512 N   0  0  0  0  0  0  0  0  0  0  0  0
  152.4056  130.5436  164.0509 H   0  0  0  0  0  0  0  0  0  0  0  0
  153.0920  130.9990  162.5004 H   0  0  0  0  0  0  0  0  0  0  0  0
  151.8220  131.9804  163.2276 H   0  0  0  0  0  0  0  0  0  0  0  0
  152.3181  133.3891  165.3168 H   0  0  0  0  0  0  0  0  0  0  0  0
  153.9000  133.3084  166.0817 H   0  0  0  0  0  0  0  0  0  0  0  0
  152.8386  131.9102  166.1154 H   0  0  0  0  0  0  0  0  0  0  0  0
  154.7069  130.4627  165.0521 H   0  0  0  0  0  0  0  0  0  0  0  0
  155.7713  131.8590  165.0148 H   0  0  0  0  0  0  0  0  0  0  0  0
  155.4444  130.9646  163.5355 H   0  0  0  0  0  0  0  0  0  0  0  0
  154.8563  132.5596  161.3840 H   0  0  0  0  0  0  0  0  0  0  0  0
  153.5201  137.4244  163.4844 H   0  0  0  0  0  0  0  0  0  0  0  0
  155.0834  137.2707  164.2565 H   0  0  0  0  0  0  0  0  0  0  0  0
  156.1846  138.2822  162.4996 H   0  0  0  0  0  0  0  0  0  0  0  0
  155.2956  137.3567  161.2990 H   0  0  0  0  0  0  0  0  0  0  0  0
  153.5132  139.2353  162.4421 H   0  0  0  0  0  0  0  0  0  0  0  0
  152.6686  140.7319  160.5676 H   0  0  0  0  0  0  0  0  0  0  0  0
  155.0868  142.3630  159.6408 H   0  0  0  0  0  0  0  0  0  0  0  0
  153.8973  141.5310  158.6587 H   0  0  0  0  0  0  0  0  0  0  0  0
  153.2339  143.9076  158.6153 H   0  0  0  0  0  0  0  0  0  0  0  0
  151.8973  144.7043  160.4659 H   0  0  0  0  0  0  0  0  0  0  0  0
  152.4835  143.8250  162.7143 H   0  0  0  0  0  0  0  0  0  0  0  0
  151.4103  142.6381  162.0000 H   0  0  0  0  0  0  0  0  0  0  0  0
  153.2600  141.3793  162.9250 H   0  0  0  0  0  0  0  0  0  0  0  0
  154.4401  142.5042  162.2986 H   0  0  0  0  0  0  0  0  0  0  0  0
  1  2  1  0  0  0  0
  1 21  1  0  0  0  0
  1 22  1  0  0  0  0
  1 23  1  0  0  0  0
  2  3  1  0  0  0  0
  2  4  1  0  0  0  0
  2  5  1  0  0  0  0
  3 24  1  0  0  0  0
  3 25  1  0  0  0  0
  3 26  1  0  0  0  0
  4 27  1  0  0  0  0
  4 28  1  0  0  0  0
  4 29  1  0  0  0  0
  5 20  1  0  0  0  0
  5  6  2  0  0  0  0
  6  7  1  0  0  0  0
  6 30  1  0  0  0  0
  7  8  1  0  0  0  0
  8  9  1  0  0  0  0
  8 20  2  0  0  0  0
  9 10  1  0  0  0  0
  9 31  1  0  0  0  0
  9 32  1  0  0  0  0
 10 11  1  0  0  0  0
 10 33  1  0  0  0  0
 10 34  1  0  0  0  0
 11 12  1  0  0  0  0
 11 35  1  0  0  0  0
 12 13  2  0  0  0  0
 12 14  1  0  0  0  0
 14 19  1  0  0  0  0
 14 15  1  0  0  0  0
 14 36  1  0  0  0  0
 15 16  1  0  0  0  0
 15 37  1  0  0  0  0
 15 38  1  0  0  0  0
 16 17  2  0  0  0  0
 16 39  1  0  0  0  0
 17 18  1  0  0  0  0
 17 40  1  0  0  0  0
 18 19  1  0  0  0  0
 18 41  1  0  0  0  0
 18 42  1  0  0  0  0
 19 43  1  0  0  0  0
 19 44  1  0  0  0  0
M  END
> <s_m_source_file>
AV-unprocessed.smi

> <i_m_source_file_index>
980

> <i_lp_mmshare_version>
43012

> <i_f3d_flags>
0

> <s_epik_input>
W0NIM11DKFtDSDNdKShbQ0gzXSljMVtjSF1zYyhuMSlbQ0gyXVtDSDJdW05IXUMoPU8pW0NAQEhdMltDSDJdW0NIXT1bQ0hdW0NIMl1bQ0gyXTI=

> <s_epik_cmdline>
J2VwaWtfcHl0aG9uJywgJy1waCcsICc3LjAnLCAnLXRuJywgJzgnLCAnLW1hJywgJzIwMCcsICctbWV0YWxfYmluZGluZycsICctaW1hZScsICc8aW5maWxlLm1hZT4nLCAnLW9tYWUnLCAnPG91dGZpbGUubWFlPic=

> <r_epik_Ionization_Penalty>
0.000809238

> <r_epik_Ionization_Penalty_Charging>
0

> <r_epik_Ionization_Penalty_Neutral>
0.000809238

> <r_epik_State_Penalty>
0.000520038

> <r_epik_Charging_Adjusted_Penalty>
0.000520038

> <i_epik_Tot_Q>
0

> <i_epik_Tot_abs_Q>
0

> <r_epik_Metal_State_Penalty>
-0

> <b_epik_Metal_Only>
0

> <s_lp_Force_Field>
OPLS_2005

> <r_lp_Energy>
0.0985756

> <b_lp_Chiralities_Consistent>
1

> <s_lp_Variant>
AV-unprocessed.smi:980-1

> <Gold.Version>
5.8.1

> <Gold.Id.Protein>
6NUR|6NUR_protein|mol2

> <Gold.PLP.Fitness>
41.9808

> <Gold.PLP.PLP>
-42.8845

> <Gold.PLP.part.hbond>
0.0000

> <Gold.PLP.part.metal>
0.0000

> <Gold.PLP.part.buried>
-4.9291

> <Gold.PLP.part.nonpolar>
-37.4889

> <Gold.PLP.part.repulsive>
0.0745

> <Gold.PLP.ligand.clash>
0.0000

> <Gold.PLP.ligand.torsion>
0.4746

> <Gold.PLP.Chemscore.Hbond>
0.0000

> <Gold.PLP.Chemscore.CHOScore>
0.0000

> <Gold.PLP.Chemscore.Metal>
0.0000

> <Gold.PLP.Chemscore.Internal.Correction>
0.0455

> <Gold.Rescore>
     Score         DG    S(hbond)    S(metal)    S(lipo)     H(rot)  DE(clash)    DE(int)     intcor
     18.57     -18.95       0.92        0.00     119.63       1.41       0.00       0.38       ----

> <Gold.Chemscore.Fitness>
18.5722

> <Gold.Chemscore.DG>
-18.9502

> <Gold.Chemscore.ZeroCoef>
-5.4800

> <Gold.Chemscore.Hbond>
0.9227

> <Gold.Chemscore.Metal>
0.0000

> <Gold.Chemscore.Lipo>
119.6321

> <Gold.Chemscore.Internal_Hbond>
0.0000

> <Gold.Chemscore.DEClash>
0.0015

> <Gold.Chemscore.DEInternal>
0.3765

> <Gold.Chemscore.Rot>
1.4097

> <Gold.Chemscore.Internal.Correction>
   9.000000E+99

> <Gold.Chemscore.Hbond.Weighted>
-3.0819

> <Gold.Chemscore.Metal.Weighted>
-0.0000

> <Gold.Chemscore.Lipo.Weighted>
-13.9970

> <Gold.Chemscore.Internal_Hbond.Weighted>
0.0000

> <Gold.Chemscore.DEClash.Weighted>
0.0015

> <Gold.Chemscore.DEInternal.Weighted>
0.3765

> <Gold.Chemscore.Rot.Weighted>
3.6087

> <Gold.Chemscore.Internal.Correction.Weighted>
   9.000000E+99

> <Gold.Protein.RotatedTorsions>
[ 6907 6896 6895 6894 ] final -155.65 input  -60.11 | X-H torsion
[ 7974 7965 7964 7962 ] final -168.83 input  175.53 | X-H torsion
[ 8008 7997 7996 7995 ] final -146.17 input   59.86 | X-H torsion
[ 10167 10162 10161 10158 ] final   -6.15 input  -65.29 | X-H torsion
[ 10718 10713 10712 10709 ] final  -31.49 input   66.30 | X-H torsion
[ 10763 10752 10751 10750 ] final -165.21 input  -60.55 | X-H torsion
[ 11005 11000 10999 10996 ] final -139.29 input  -57.11 | X-H torsion

> <Gold.Protein.ActiveResidues>
 VAL166  LYS551  ARG553  GLY616  TRP617  ASP618  TYR619  PRO620  LYS621  CYS622 
 ASP623  PHE694  ASN695  SER759  ASP760  ASP761  ALA762  ILE779  LEU786  VAL792 
 PHE793  MET794  SER795  GLU796  ALA797  LYS798  CYS799  TRP800  GLU811  SER814 

> <Gold.Protein.RotatedAtoms>
  151.2758  133.4233  159.2623 H   0  0  0  0  0  0  0  0  0  0  0  0  # atno 6907 bound_to 6896
  151.0405  134.9604  159.8169 H   0  0  0  0  0  0  0  0  0  0  0  0  # atno 6908 bound_to 6896
  152.5364  134.2716  159.9026 H   0  0  0  0  0  0  0  0  0  0  0  0  # atno 6909 bound_to 6896
  144.7196  140.2312  143.6304 H   0  0  0  0  0  0  0  0  0  0  0  0  # atno 7974 bound_to 7965
  155.5550  140.0620  157.2841 H   0  0  0  0  0  0  0  0  0  0  0  0  # atno 8008 bound_to 7997
  154.4408  140.1896  156.0770 H   0  0  0  0  0  0  0  0  0  0  0  0  # atno 8009 bound_to 7997
  156.0488  140.3287  155.7331 H   0  0  0  0  0  0  0  0  0  0  0  0  # atno 8010 bound_to 7997
  140.6987  143.6227  150.8597 H   0  0  0  0  0  0  0  0  0  0  0  0  # atno 10167 bound_to 10162
  156.3866  130.4365  149.7427 H   0  0  0  0  0  0  0  0  0  0  0  0  # atno 10718 bound_to 10713
  154.6954  135.2978  154.9419 H   0  0  0  0  0  0  0  0  0  0  0  0  # atno 10763 bound_to 10752
  154.0369  135.6662  153.4790 H   0  0  0  0  0  0  0  0  0  0  0  0  # atno 10764 bound_to 10752
  153.0642  135.5098  154.8068 H   0  0  0  0  0  0  0  0  0  0  0  0  # atno 10765 bound_to 10752
  140.8534  134.2258  157.4748 H   0  0  0  0  0  0  0  0  0  0  0  0  # atno 11005 bound_to 11000
  145.8409  139.2129  143.1828 LP  0  0  0  0  0  0  0  0  0  0  0  0  # atno 17320 bound_to 7965
  146.0347  140.8223  142.9858 LP  0  0  0  0  0  0  0  0  0  0  0  0  # atno 17321 bound_to 7965
  139.9947  143.5809  152.2897 LP  0  0  0  0  0  0  0  0  0  0  0  0  # atno 17342 bound_to 10162
  139.6477  144.7659  151.2211 LP  0  0  0  0  0  0  0  0  0  0  0  0  # atno 17343 bound_to 10162
  156.4497  130.7901  151.2922 LP  0  0  0  0  0  0  0  0  0  0  0  0  # atno 17370 bound_to 10713
  157.7496  131.0099  150.3286 LP  0  0  0  0  0  0  0  0  0  0  0  0  # atno 17371 bound_to 10713
  139.8704  134.9694  156.4665 LP  0  0  0  0  0  0  0  0  0  0  0  0  # atno 17394 bound_to 11000
  140.8765  133.7949  155.9420 LP  0  0  0  0  0  0  0  0  0  0  0  0  # atno 17395 bound_to 11000

$$$$
