AV-unprocessed.smi:678|AV-procd|sdf|3318|dock9
  -GOLD-   22720 0283D 1   1.00000     0.00000
 Structure written by MMmdl.
 50 51  0  0  0  0  0  0  0  0  1 V2000
  153.4227  141.2985  161.0789 C   0  0  0  0  0  0  0  0  0  0  0  0
  152.6447  141.9210  159.9326 C   0  0  0  0  0  0  0  0  0  0  0  0
  152.6817  143.2502  159.6945 C   0  0  0  0  0  0  0  0  0  0  0  0
  151.9402  143.8330  158.6026 C   0  0  0  0  0  0  0  0  0  0  0  0
  151.2059  143.0199  157.8302 C   0  0  0  0  0  0  0  0  0  0  0  0
  151.1467  141.6327  158.0594 N   0  0  0  0  0  0  0  0  0  0  0  0
  150.3090  140.8397  157.1436 C   0  0  0  0  0  0  0  0  0  0  0  0
  151.1225  139.9131  156.2293 C   0  0  0  0  0  0  0  0  0  0  0  0
  151.9032  140.3767  155.3968 O   0  0  0  0  0  0  0  0  0  0  0  0
  150.9039  138.5978  156.3805 N   0  0  0  0  0  0  0  0  0  0  0  0
  151.5520  137.5374  155.6142 C   0  0  0  0  0  0  0  0  0  0  0  0
  150.7881  136.2042  155.7057 C   0  0  1  0  0  0  0  0  0  0  0  0
  150.0813  135.8053  154.3914 C   0  0  0  0  0  0  0  0  0  0  0  0
  149.4414  134.4952  154.4843 N   0  0  0  0  0  0  0  0  0  0  0  0
  148.7865  134.0941  153.2378 C   0  0  0  0  0  0  0  0  0  0  0  0
  148.2541  132.6452  153.1891 C   0  0  0  0  0  0  0  0  0  0  0  0
  149.3536  131.6445  152.7974 C   0  0  0  0  0  0  0  0  0  0  0  0
  147.0663  132.5449  152.2213 C   0  0  0  0  0  0  0  0  0  0  0  0
  150.4370  133.5097  154.8884 C   0  0  0  0  0  0  0  0  0  0  0  0
  151.1362  133.9047  156.1989 C   0  0  0  0  0  0  0  0  0  0  0  0
  151.7286  135.1905  156.0510 O   0  0  0  0  0  0  0  0  0  0  0  0
  151.8392  141.0307  159.0757 C   0  0  0  0  0  0  0  0  0  0  0  0
  151.7850  139.8128  159.2577 O   0  0  0  0  0  0  0  0  0  0  0  0
  153.9610  142.0542  161.6519 H   0  0  0  0  0  0  0  0  0  0  0  0
  154.1508  140.5808  160.6998 H   0  0  0  0  0  0  0  0  0  0  0  0
  152.7485  140.7778  161.7597 H   0  0  0  0  0  0  0  0  0  0  0  0
  153.2750  143.8943  160.3269 H   0  0  0  0  0  0  0  0  0  0  0  0
  151.9786  144.8952  158.4107 H   0  0  0  0  0  0  0  0  0  0  0  0
  150.6281  143.3739  156.9887 H   0  0  0  0  0  0  0  0  0  0  0  0
  149.5855  140.2507  157.7108 H   0  0  0  0  0  0  0  0  0  0  0  0
  149.7077  141.4947  156.5116 H   0  0  0  0  0  0  0  0  0  0  0  0
  150.2391  138.3075  157.0828 H   0  0  0  0  0  0  0  0  0  0  0  0
  151.6864  137.8287  154.5711 H   0  0  0  0  0  0  0  0  0  0  0  0
  152.5547  137.4071  156.0223 H   0  0  0  0  0  0  0  0  0  0  0  0
  150.0494  136.2772  156.5062 H   0  0  0  0  0  0  0  0  0  0  0  0
  149.3367  136.5630  154.1541 H   0  0  0  0  0  0  0  0  0  0  0  0
  150.8035  135.8077  153.5733 H   0  0  0  0  0  0  0  0  0  0  0  0
  147.9675  134.7835  153.0269 H   0  0  0  0  0  0  0  0  0  0  0  0
  149.4922  134.2154  152.4146 H   0  0  0  0  0  0  0  0  0  0  0  0
  147.8771  132.3662  154.1727 H   0  0  0  0  0  0  0  0  0  0  0  0
  149.7703  131.8771  151.8170 H   0  0  0  0  0  0  0  0  0  0  0  0
  148.9637  130.6269  152.7608 H   0  0  0  0  0  0  0  0  0  0  0  0
  150.1720  131.6524  153.5178 H   0  0  0  0  0  0  0  0  0  0  0  0
  147.3609  132.8026  151.2035 H   0  0  0  0  0  0  0  0  0  0  0  0
  146.2617  133.2195  152.5157 H   0  0  0  0  0  0  0  0  0  0  0  0
  146.6563  131.5346  152.2034 H   0  0  0  0  0  0  0  0  0  0  0  0
  149.9639  132.5352  155.0141 H   0  0  0  0  0  0  0  0  0  0  0  0
  151.1844  133.3944  154.1017 H   0  0  0  0  0  0  0  0  0  0  0  0
  150.4280  133.9142  157.0288 H   0  0  0  0  0  0  0  0  0  0  0  0
  151.9124  133.1809  156.4474 H   0  0  0  0  0  0  0  0  0  0  0  0
  1  2  1  0  0  0  0
  1 24  1  0  0  0  0
  1 25  1  0  0  0  0
  1 26  1  0  0  0  0
  2 22  1  0  0  0  0
  2  3  2  0  0  0  0
  3  4  1  0  0  0  0
  3 27  1  0  0  0  0
  4  5  2  0  0  0  0
  4 28  1  0  0  0  0
  5  6  1  0  0  0  0
  5 29  1  0  0  0  0
  6  7  1  0  0  0  0
  6 22  1  0  0  0  0
  7  8  1  0  0  0  0
  7 30  1  0  0  0  0
  7 31  1  0  0  0  0
  8  9  2  0  0  0  0
  8 10  1  0  0  0  0
 10 11  1  0  0  0  0
 10 32  1  0  0  0  0
 11 12  1  0  0  0  0
 11 33  1  0  0  0  0
 11 34  1  0  0  0  0
 12 21  1  0  0  0  0
 12 13  1  0  0  0  0
 12 35  1  0  0  0  0
 13 14  1  0  0  0  0
 13 36  1  0  0  0  0
 13 37  1  0  0  0  0
 14 15  1  0  0  0  0
 14 19  1  0  0  0  0
 15 16  1  0  0  0  0
 15 38  1  0  0  0  0
 15 39  1  0  0  0  0
 16 17  1  0  0  0  0
 16 18  1  0  0  0  0
 16 40  1  0  0  0  0
 17 41  1  0  0  0  0
 17 42  1  0  0  0  0
 17 43  1  0  0  0  0
 18 44  1  0  0  0  0
 18 45  1  0  0  0  0
 18 46  1  0  0  0  0
 19 20  1  0  0  0  0
 19 47  1  0  0  0  0
 19 48  1  0  0  0  0
 20 21  1  0  0  0  0
 20 49  1  0  0  0  0
 20 50  1  0  0  0  0
 22 23  2  0  0  0  0
M  END
> <s_m_source_file>
AV-unprocessed.smi

> <i_m_source_file_index>
678

> <i_lp_mmshare_version>
43012

> <i_f3d_flags>
0

> <s_epik_input>
W0NIM11jMVtjSF1bY0hdW2NIXW4oYzE9TylbQ0gyXUMoPU8pW05IXVtDSDJdW0NAQEhdMltDSDJdTihbQ0gyXVtDSDJdTzIpW0NIMl1bQ0hdKFtDSDNdKVtDSDNd

> <s_epik_cmdline>
J2VwaWtfcHl0aG9uJywgJy1waCcsICc3LjAnLCAnLXRuJywgJzgnLCAnLW1hJywgJzIwMCcsICctbWV0YWxfYmluZGluZycsICctaW1hZScsICc8aW5maWxlLm1hZT4nLCAnLW9tYWUnLCAnPG91dGZpbGUubWFlPic=

> <r_lp_tautomer_probability>
1

> <r_epik_Ionization_Penalty>
1.11669

> <r_epik_Ionization_Penalty_Charging>
7.32459e-07

> <r_epik_Ionization_Penalty_Neutral>
1.11669

> <r_epik_State_Penalty>
1.17516

> <r_epik_Charging_Adjusted_Penalty>
1.17516

> <i_epik_Tot_Q>
0

> <i_epik_Tot_abs_Q>
0

> <r_epik_Metal_State_Penalty>
1.17513

> <b_epik_Metal_Only>
0

> <s_lp_Force_Field>
OPLS_2005

> <r_lp_Energy>
33.1266

> <b_lp_Chiralities_Consistent>
1

> <s_lp_Variant>
AV-unprocessed.smi:678-6

> <Gold.Version>
5.8.1

> <Gold.Id.Protein>
6NUR|6NUR_protein|mol2

> <Gold.PLP.Fitness>
48.8862

> <Gold.PLP.PLP>
-42.7386

> <Gold.PLP.part.hbond>
-2.0000

> <Gold.PLP.part.metal>
0.0000

> <Gold.PLP.part.buried>
-1.7231

> <Gold.PLP.part.nonpolar>
-37.3613

> <Gold.PLP.part.repulsive>
0.1794

> <Gold.PLP.ligand.clash>
0.0000

> <Gold.PLP.ligand.torsion>
1.2372

> <Gold.PLP.Chemscore.Hbond>
1.8480

> <Gold.PLP.Chemscore.CHOScore>
1.0000

> <Gold.PLP.Chemscore.Metal>
0.0000

> <Gold.Chemscore.Hbonds>
donor molecule, donor type, donor heavy atom, donor atom, acceptor molecule, acceptor atom, score
      P1  H  7989  7998       L1     9  0.74
      P1  H 10752 10764       L1    21  1.00
      L1  C     5    29       P1  8028  0.93

> <Gold.PLP.Chemscore.Internal.Correction>
0.0779

> <Gold.Rescore>
     Score         DG    S(hbond)    S(metal)    S(lipo)     H(rot)  DE(clash)    DE(int)     intcor
     17.18     -18.91       1.77        0.00     104.23       1.82       0.07       1.66       ----

> <Gold.Chemscore.Fitness>
17.1780

> <Gold.Chemscore.DG>
-18.9098

> <Gold.Chemscore.ZeroCoef>
-5.4800

> <Gold.Chemscore.Hbond>
1.7681

> <Gold.Chemscore.Metal>
0.0000

> <Gold.Chemscore.Lipo>
104.2284

> <Gold.Chemscore.Internal_Hbond>
0.0000

> <Gold.Chemscore.DEClash>
0.0702

> <Gold.Chemscore.DEInternal>
1.6617

> <Gold.Chemscore.Rot>
1.8243

> <Gold.Chemscore.Internal.Correction>
   9.000000E+99

> <Gold.Chemscore.Hbonds>
donor molecule, donor type, donor heavy atom, donor atom, acceptor molecule, acceptor atom, score
      P1  H  7989  7998       L1     9  0.73
      P1  H 10752 10764       L1    21  0.63

> <Gold.Chemscore.Hbond.Weighted>
-5.9054

> <Gold.Chemscore.Metal.Weighted>
-0.0000

> <Gold.Chemscore.Lipo.Weighted>
-12.1947

> <Gold.Chemscore.Internal_Hbond.Weighted>
0.0000

> <Gold.Chemscore.DEClash.Weighted>
0.0702

> <Gold.Chemscore.DEInternal.Weighted>
1.6617

> <Gold.Chemscore.Rot.Weighted>
4.6703

> <Gold.Chemscore.Internal.Correction.Weighted>
   9.000000E+99

> <Gold.Protein.RotatedTorsions>
[ 6907 6896 6895 6894 ] final   20.25 input  -60.11 | X-H torsion
[ 7974 7965 7964 7962 ] final  144.01 input  175.53 | X-H torsion
[ 8008 7997 7996 7995 ] final   38.73 input   59.86 | X-H torsion
[ 10167 10162 10161 10158 ] final -174.97 input  -65.29 | X-H torsion
[ 10718 10713 10712 10709 ] final   94.60 input   66.30 | X-H torsion
[ 10763 10752 10751 10750 ] final  -28.23 input  -60.55 | X-H torsion
[ 11005 11000 10999 10996 ] final  146.48 input  -57.11 | X-H torsion

> <Gold.Protein.ActiveResidues>
 VAL166  LYS551  ARG553  GLY616  TRP617  ASP618  TYR619  PRO620  LYS621  CYS622 
 ASP623  PHE694  ASN695  SER759  ASP760  ASP761  ALA762  ILE779  LEU786  VAL792 
 PHE793  MET794  SER795  GLU796  ALA797  LYS798  CYS799  TRP800  GLU811  SER814 

> <Gold.Protein.RotatedAtoms>
  151.8935  135.0407  160.0499 H   0  0  0  0  0  0  0  0  0  0  0  0  # atno 6907 bound_to 6896
  152.2416  133.5136  159.5282 H   0  0  0  0  0  0  0  0  0  0  0  0  # atno 6908 bound_to 6896
  150.7055  134.0997  159.4004 H   0  0  0  0  0  0  0  0  0  0  0  0  # atno 6909 bound_to 6896
  144.8872  139.5611  143.5815 H   0  0  0  0  0  0  0  0  0  0  0  0  # atno 7974 bound_to 7965
  155.2250  140.3334  155.4310 H   0  0  0  0  0  0  0  0  0  0  0  0  # atno 8008 bound_to 7997
  156.2318  140.1854  156.7270 H   0  0  0  0  0  0  0  0  0  0  0  0  # atno 8009 bound_to 7997
  154.5991  140.0626  156.9329 H   0  0  0  0  0  0  0  0  0  0  0  0  # atno 8010 bound_to 7997
  139.5605  144.1881  152.1231 H   0  0  0  0  0  0  0  0  0  0  0  0  # atno 10167 bound_to 10162
  157.6946  131.0518  150.4211 H   0  0  0  0  0  0  0  0  0  0  0  0  # atno 10718 bound_to 10713
  153.7449  135.6930  153.4958 H   0  0  0  0  0  0  0  0  0  0  0  0  # atno 10763 bound_to 10752
  153.2043  135.4425  155.0303 H   0  0  0  0  0  0  0  0  0  0  0  0  # atno 10764 bound_to 10752
  154.8207  135.3421  154.6973 H   0  0  0  0  0  0  0  0  0  0  0  0  # atno 10765 bound_to 10752
  140.0797  134.9104  157.1480 H   0  0  0  0  0  0  0  0  0  0  0  0  # atno 11005 bound_to 11000
  146.3032  139.7493  142.9076 LP  0  0  0  0  0  0  0  0  0  0  0  0  # atno 17320 bound_to 7965
  145.3847  141.0363  143.3157 LP  0  0  0  0  0  0  0  0  0  0  0  0  # atno 17321 bound_to 7965
  140.1394  144.5216  150.6753 LP  0  0  0  0  0  0  0  0  0  0  0  0  # atno 17342 bound_to 10162
  140.6884  143.2362  151.5197 LP  0  0  0  0  0  0  0  0  0  0  0  0  # atno 17343 bound_to 10162
  156.4586  130.4027  149.6590 LP  0  0  0  0  0  0  0  0  0  0  0  0  # atno 17370 bound_to 10713
  156.3714  130.7532  151.2516 LP  0  0  0  0  0  0  0  0  0  0  0  0  # atno 17371 bound_to 10713
  140.3506  134.2602  155.7199 LP  0  0  0  0  0  0  0  0  0  0  0  0  # atno 17394 bound_to 11000
  141.2042  133.7892  157.0299 LP  0  0  0  0  0  0  0  0  0  0  0  0  # atno 17395 bound_to 11000

$$$$
