AV-unprocessed.smi:2336|AV-procd|sdf|9328|dock5
  -GOLD-   2272012543D 1   1.00000     0.00000
 Structure written by MMmdl.
 50 51  0  0  0  0  0  0  0  0  2 V2000
  145.1309  136.6565  155.4164 C   0  0  0  0  0  0  0  0  0  0  0  0
  145.5709  138.1209  155.5873 C   0  0  0  0  0  0  0  0  0  0  0  0
  144.3512  139.0537  155.6823 C   0  0  0  0  0  0  0  0  0  0  0  0
  146.6227  138.6356  154.5593 C   0  0  1  0  0  0  0  0  0  0  0  0
  146.2019  138.5058  153.0721 C   0  0  0  0  0  0  0  0  0  0  0  0
  146.5168  137.1880  152.5366 N   0  0  0  0  0  0  0  0  0  0  0  0
  145.6015  136.3181  152.0905 C   0  0  0  0  0  0  0  0  0  0  0  0
  144.3949  136.5588  152.0833 O   0  0  0  0  0  0  0  0  0  0  0  0
  146.1815  135.1838  151.6609 N   0  0  0  0  0  0  0  0  0  0  0  0
  145.5907  134.0123  151.1091 C   0  0  0  0  0  0  0  0  0  0  0  0
  144.2527  133.9182  150.6521 C   0  0  0  0  0  0  0  0  0  0  0  0
  143.8006  132.6880  150.1338 C   0  0  0  0  0  0  0  0  0  0  0  0
  144.5743  131.5854  150.0502 N   0  0  0  0  0  0  0  0  0  0  0  0
  145.8463  131.6757  150.4914 C   0  0  0  0  0  0  0  0  0  0  0  0
  146.3976  132.8572  151.0263 C   0  0  0  0  0  0  0  0  0  0  0  0
  147.6836  132.8776  151.4526 F   0  0  0  0  0  0  0  0  0  0  0  0
  147.1336  139.9720  154.9180 N   0  0  0  0  0  0  0  0  0  0  0  0
  148.1763  140.5048  154.0304 C   0  0  0  0  0  0  0  0  0  0  0  0
  148.4756  141.9709  154.3992 C   0  0  0  0  0  0  0  0  0  0  0  0
  148.9254  142.0898  155.8069 N   0  3  0  0  0  0  0  0  0  0  0  0
  150.3260  141.6613  156.0276 C   0  0  0  0  0  0  0  0  0  0  0  0
  147.9506  141.4443  156.7183 C   0  0  0  0  0  0  0  0  0  0  0  0
  147.6477  139.9930  156.2910 C   0  0  0  0  0  0  0  0  0  0  0  0
  144.4976  136.5242  154.5401 H   0  0  0  0  0  0  0  0  0  0  0  0
  144.5484  136.3303  156.2781 H   0  0  0  0  0  0  0  0  0  0  0  0
  145.9824  135.9821  155.3324 H   0  0  0  0  0  0  0  0  0  0  0  0
  146.0467  138.1723  156.5668 H   0  0  0  0  0  0  0  0  0  0  0  0
  143.7655  139.0445  154.7628 H   0  0  0  0  0  0  0  0  0  0  0  0
  144.6555  140.0830  155.8738 H   0  0  0  0  0  0  0  0  0  0  0  0
  143.6900  138.7518  156.4952 H   0  0  0  0  0  0  0  0  0  0  0  0
  147.4611  137.9483  154.6828 H   0  0  0  0  0  0  0  0  0  0  0  0
  145.1332  138.6831  152.9462 H   0  0  0  0  0  0  0  0  0  0  0  0
  146.7199  139.2517  152.4675 H   0  0  0  0  0  0  0  0  0  0  0  0
  147.4902  136.9220  152.5083 H   0  0  0  0  0  0  0  0  0  0  0  0
  147.1895  135.1612  151.7146 H   0  0  0  0  0  0  0  0  0  0  0  0
  143.5631  134.7460  150.6887 H   0  0  0  0  0  0  0  0  0  0  0  0
  142.7859  132.5871  149.7783 H   0  0  0  0  0  0  0  0  0  0  0  0
  146.4436  130.7791  150.4165 H   0  0  0  0  0  0  0  0  0  0  0  0
  149.0872  139.9103  154.1022 H   0  0  0  0  0  0  0  0  0  0  0  0
  147.8613  140.4595  152.9908 H   0  0  0  0  0  0  0  0  0  0  0  0
  149.2296  142.3875  153.7305 H   0  0  0  0  0  0  0  0  0  0  0  0
  147.5771  142.5749  154.2648 H   0  0  0  0  0  0  0  0  0  0  0  0
  150.4636  140.5981  155.8319 H   0  0  0  0  0  0  0  0  0  0  0  0
  150.6264  141.8569  157.0573 H   0  0  0  0  0  0  0  0  0  0  0  0
  151.0023  142.2160  155.3766 H   0  0  0  0  0  0  0  0  0  0  0  0
  148.3213  141.4722  157.7436 H   0  0  0  0  0  0  0  0  0  0  0  0
  147.0281  142.0266  156.7095 H   0  0  0  0  0  0  0  0  0  0  0  0
  146.9002  139.5831  156.9713 H   0  0  0  0  0  0  0  0  0  0  0  0
  148.5346  139.3648  156.3808 H   0  0  0  0  0  0  0  0  0  0  0  0
  148.9112  143.0755  156.0274 H   0  0  0  0  0  0  0  0  0  0  0  0
  1  2  1  0  0  0  0
  1 24  1  0  0  0  0
  1 25  1  0  0  0  0
  1 26  1  0  0  0  0
  2  3  1  0  0  0  0
  2  4  1  0  0  0  0
  2 27  1  0  0  0  0
  3 28  1  0  0  0  0
  3 29  1  0  0  0  0
  3 30  1  0  0  0  0
  4  5  1  0  0  0  0
  4 17  1  0  0  0  0
  4 31  1  0  0  0  0
  5  6  1  0  0  0  0
  5 32  1  0  0  0  0
  5 33  1  0  0  0  0
  6  7  1  0  0  0  0
  6 34  1  0  0  0  0
  7  8  2  0  0  0  0
  7  9  1  0  0  0  0
  9 10  1  0  0  0  0
  9 35  1  0  0  0  0
 10 15  1  0  0  0  0
 10 11  2  0  0  0  0
 11 12  1  0  0  0  0
 11 36  1  0  0  0  0
 12 13  2  0  0  0  0
 12 37  1  0  0  0  0
 13 14  1  0  0  0  0
 14 15  2  0  0  0  0
 14 38  1  0  0  0  0
 15 16  1  0  0  0  0
 17 23  1  0  0  0  0
 17 18  1  0  0  0  0
 18 19  1  0  0  0  0
 18 39  1  0  0  0  0
 18 40  1  0  0  0  0
 19 20  1  0  0  0  0
 19 41  1  0  0  0  0
 19 42  1  0  0  0  0
 20 21  1  0  0  0  0
 20 22  1  0  0  0  0
 20 50  1  0  0  0  0
 21 43  1  0  0  0  0
 21 44  1  0  0  0  0
 21 45  1  0  0  0  0
 22 23  1  0  0  0  0
 22 46  1  0  0  0  0
 22 47  1  0  0  0  0
 23 48  1  0  0  0  0
 23 49  1  0  0  0  0
M  CHG  1  20   1
M  END
> <s_m_source_file>
AV-unprocessed.smi

> <i_m_source_file_index>
2336

> <i_lp_mmshare_version>
43012

> <i_f3d_flags>
0

> <s_epik_input>
W0NIMl0xW0NIMl1OKFtDSDNdKVtDSDJdW0NIMl1OMVtDQEhdKFtDSF0oW0NIM10pW0NIM10pW0NIMl1bTkhdQyg9TylbTkhdYzJbY0hdW2NIXW5bY0hdYzJG

> <s_epik_cmdline>
J2VwaWtfcHl0aG9uJywgJy1waCcsICc3LjAnLCAnLXRuJywgJzgnLCAnLW1hJywgJzIwMCcsICctbWV0YWxfYmluZGluZycsICctaW1hZScsICc8aW5maWxlLm1hZT4nLCAnLW9tYWUnLCAnPG91dGZpbGUubWFlPic=

> <r_epik_Ionization_Penalty>
0.0313013

> <r_epik_Ionization_Penalty_Charging>
0.0272987

> <r_epik_Ionization_Penalty_Neutral>
0.00400259

> <r_epik_State_Penalty>
0.0776825

> <r_epik_Charging_Adjusted_Penalty>
0.104981

> <i_epik_Tot_Q>
1

> <i_epik_Tot_abs_Q>
1

> <r_epik_Metal_State_Penalty>
0.0776139

> <b_epik_Metal_Only>
0

> <s_lp_Force_Field>
OPLS_2005

> <r_lp_Energy>
31.1795

> <b_lp_Chiralities_Consistent>
1

> <s_lp_Variant>
AV-unprocessed.smi:2336-2

> <Gold.Version>
5.8.1

> <Gold.Id.Protein>
6NUR|6NUR_protein|mol2

> <Gold.PLP.Fitness>
45.1009

> <Gold.PLP.PLP>
-28.3101

> <Gold.PLP.part.hbond>
-3.9768

> <Gold.PLP.part.metal>
0.0000

> <Gold.PLP.part.buried>
0.8817

> <Gold.PLP.part.nonpolar>
-26.1550

> <Gold.PLP.part.repulsive>
1.3886

> <Gold.PLP.ligand.clash>
0.0000

> <Gold.PLP.ligand.torsion>
0.5389

> <Gold.PLP.Chemscore.Hbond>
4.0458

> <Gold.PLP.Chemscore.CHOScore>
1.7900

> <Gold.PLP.Chemscore.Metal>
0.0000

> <Gold.Chemscore.Hbonds>
donor molecule, donor type, donor heavy atom, donor atom, acceptor molecule, acceptor atom, score
      L1  H     6    34       P1  7948  1.00
      L1  H     9    35       P1  7948  0.98
      L1  H    20    50       P1  8028  2.00
      P1  H 10785 10796       L1    13  0.07
      L1  C    12    37       P1 10186  0.90
      L1  C    14    38       P1 10747  0.85

> <Gold.PLP.Chemscore.Internal.Correction>
0.3611

> <Gold.Rescore>
     Score         DG    S(hbond)    S(metal)    S(lipo)     H(rot)  DE(clash)    DE(int)     intcor
     16.05     -18.83       2.83        0.00      70.01       1.67       1.25       1.53       ----

> <Gold.Chemscore.Fitness>
16.0517

> <Gold.Chemscore.DG>
-18.8347

> <Gold.Chemscore.ZeroCoef>
-5.4800

> <Gold.Chemscore.Hbond>
2.8288

> <Gold.Chemscore.Metal>
0.0000

> <Gold.Chemscore.Lipo>
70.0134

> <Gold.Chemscore.Internal_Hbond>
0.0000

> <Gold.Chemscore.DEClash>
1.2491

> <Gold.Chemscore.DEInternal>
1.5339

> <Gold.Chemscore.Rot>
1.6739

> <Gold.Chemscore.Internal.Correction>
   9.000000E+99

> <Gold.Chemscore.Hbonds>
donor molecule, donor type, donor heavy atom, donor atom, acceptor molecule, acceptor atom, score
      L1  H     6    34       P1  7948  0.99
      L1  H     9    35       P1  7948  0.81
      L1  H    20    50       P1  8028  0.98
      P1  H 10785 10796       L1    13  0.03

> <Gold.Chemscore.Hbond.Weighted>
-9.4483

> <Gold.Chemscore.Metal.Weighted>
-0.0000

> <Gold.Chemscore.Lipo.Weighted>
-8.1916

> <Gold.Chemscore.Internal_Hbond.Weighted>
0.0000

> <Gold.Chemscore.DEClash.Weighted>
1.2491

> <Gold.Chemscore.DEInternal.Weighted>
1.5339

> <Gold.Chemscore.Rot.Weighted>
4.2851

> <Gold.Chemscore.Internal.Correction.Weighted>
   9.000000E+99

> <Gold.Protein.RotatedTorsions>
[ 6907 6896 6895 6894 ] final   71.05 input  -60.11 | X-H torsion
[ 7974 7965 7964 7962 ] final  114.27 input  175.53 | X-H torsion
[ 8008 7997 7996 7995 ] final   27.54 input   59.86 | X-H torsion
[ 10167 10162 10161 10158 ] final  113.77 input  -65.29 | X-H torsion
[ 10718 10713 10712 10709 ] final   94.60 input   66.30 | X-H torsion
[ 10763 10752 10751 10750 ] final -135.59 input  -60.55 | X-H torsion
[ 11005 11000 10999 10996 ] final   55.84 input  -57.11 | X-H torsion

> <Gold.Protein.ActiveResidues>
 VAL166  LYS551  ARG553  GLY616  TRP617  ASP618  TYR619  PRO620  LYS621  CYS622 
 ASP623  PHE694  ASN695  SER759  ASP760  ASP761  ALA762  ILE779  LEU786  VAL792 
 PHE793  MET794  SER795  GLU796  ALA797  LYS798  CYS799  TRP800  GLU811  SER814 

> <Gold.Protein.RotatedAtoms>
  152.4786  134.4778  159.9655 H   0  0  0  0  0  0  0  0  0  0  0  0  # atno 6907 bound_to 6896
  151.4789  133.3545  159.2843 H   0  0  0  0  0  0  0  0  0  0  0  0  # atno 6908 bound_to 6896
  150.8843  134.8264  159.7308 H   0  0  0  0  0  0  0  0  0  0  0  0  # atno 6909 bound_to 6896
  145.2066  139.2926  143.4290 H   0  0  0  0  0  0  0  0  0  0  0  0  # atno 7974 bound_to 7965
  155.0445  140.3173  155.4713 H   0  0  0  0  0  0  0  0  0  0  0  0  # atno 8008 bound_to 7997
  156.2847  140.2157  156.5513 H   0  0  0  0  0  0  0  0  0  0  0  0  # atno 8009 bound_to 7997
  154.7262  140.0485  157.0672 H   0  0  0  0  0  0  0  0  0  0  0  0  # atno 8010 bound_to 7997
  139.6437  144.7125  151.2185 H   0  0  0  0  0  0  0  0  0  0  0  0  # atno 10167 bound_to 10162
  157.6946  131.0518  150.4212 H   0  0  0  0  0  0  0  0  0  0  0  0  # atno 10718 bound_to 10713
  154.8700  135.3699  154.4923 H   0  0  0  0  0  0  0  0  0  0  0  0  # atno 10763 bound_to 10752
  153.5569  135.7023  153.5570 H   0  0  0  0  0  0  0  0  0  0  0  0  # atno 10764 bound_to 10752
  153.3663  135.4033  155.1720 H   0  0  0  0  0  0  0  0  0  0  0  0  # atno 10765 bound_to 10752
  140.0576  134.5648  155.9190 H   0  0  0  0  0  0  0  0  0  0  0  0  # atno 11005 bound_to 11000
  146.3406  140.2327  142.8593 LP  0  0  0  0  0  0  0  0  0  0  0  0  # atno 17320 bound_to 7965
  144.9897  140.8535  143.5347 LP  0  0  0  0  0  0  0  0  0  0  0  0  # atno 17321 bound_to 7965
  140.7504  143.6267  150.8461 LP  0  0  0  0  0  0  0  0  0  0  0  0  # atno 17342 bound_to 10162
  139.9908  143.5849  152.2911 LP  0  0  0  0  0  0  0  0  0  0  0  0  # atno 17343 bound_to 10162
  156.4587  130.4027  149.6590 LP  0  0  0  0  0  0  0  0  0  0  0  0  # atno 17370 bound_to 10713
  156.3713  130.7532  151.2515 LP  0  0  0  0  0  0  0  0  0  0  0  0  # atno 17371 bound_to 10713
  141.1959  133.6589  156.5664 LP  0  0  0  0  0  0  0  0  0  0  0  0  # atno 17394 bound_to 11000
  140.3820  134.7515  157.4667 LP  0  0  0  0  0  0  0  0  0  0  0  0  # atno 17395 bound_to 11000

$$$$
