AV-unprocessed.smi:910|AV-procd|sdf|4129|dock1
  -GOLD-   22720 2 33D 1   1.00000     0.00000
 Structure written by MMmdl.
 47 48  0  0  0  0  0  0  0  0  2 V2000
  151.4537  144.0602  158.5327 C   0  0  0  0  0  0  0  0  0  0  0  0
  151.2173  142.8639  157.6657 C   0  0  0  0  0  0  0  0  0  0  0  0
  150.4546  142.7657  156.5267 N   0  3  0  0  0  0  0  0  0  0  0  0
  150.5074  141.5192  156.0554 C   0  0  0  0  0  0  0  0  0  0  0  0
  149.8573  141.0115  154.9024 N   0  0  0  0  0  0  0  0  0  0  0  0
  148.5859  140.5879  154.8100 C   0  0  0  0  0  0  0  0  0  0  0  0
  147.7740  140.5877  155.7361 O   0  0  0  0  0  0  0  0  0  0  0  0
  148.3024  140.1497  153.5753 N   0  0  0  0  0  0  0  0  0  0  0  0
  147.0302  139.5649  153.1634 C   0  0  0  0  0  0  0  0  0  0  0  0
  146.7236  138.2757  153.9395 C   0  0  0  0  0  0  0  0  0  0  0  0
  145.6991  137.5713  153.2542 O   0  0  0  0  0  0  0  0  0  0  0  0
  145.8351  136.1547  153.2683 C   0  0  1  0  0  0  0  0  0  0  0  0
  145.4144  135.5842  154.6389 C   0  0  0  0  0  0  0  0  0  0  0  0
  143.9203  135.8166  154.9169 C   0  0  0  0  0  0  0  0  0  0  0  0
  143.0487  135.2433  153.7891 C   0  0  0  0  0  0  0  0  0  0  0  0
  143.4595  135.8094  152.4203 C   0  0  0  0  0  0  0  0  0  0  0  0
  144.9571  135.5750  152.1371 C   0  0  1  0  0  0  0  0  0  0  0  0
  145.3701  136.1110  150.7569 C   0  0  0  0  0  0  0  0  0  0  0  0
  151.2964  140.7485  156.8490 O   0  0  0  0  0  0  0  0  0  0  0  0
  151.7292  141.5980  157.8478 C   0  0  0  0  0  0  0  0  0  0  0  0
  152.6285  141.0230  158.8895 C   0  0  0  0  0  0  0  0  0  0  0  0
  150.9464  143.9558  159.4919 H   0  0  0  0  0  0  0  0  0  0  0  0
  151.0846  144.9711  158.0609 H   0  0  0  0  0  0  0  0  0  0  0  0
  152.5163  144.1996  158.7329 H   0  0  0  0  0  0  0  0  0  0  0  0
  149.9422  143.5455  156.1330 H   0  0  0  0  0  0  0  0  0  0  0  0
  149.0281  140.1858  152.8739 H   0  0  0  0  0  0  0  0  0  0  0  0
  146.2248  140.2889  153.2964 H   0  0  0  0  0  0  0  0  0  0  0  0
  147.0826  139.3492  152.0960 H   0  0  0  0  0  0  0  0  0  0  0  0
  147.6217  137.6618  154.0198 H   0  0  0  0  0  0  0  0  0  0  0  0
  146.4067  138.5218  154.9528 H   0  0  0  0  0  0  0  0  0  0  0  0
  146.8723  135.8813  153.0666 H   0  0  0  0  0  0  0  0  0  0  0  0
  145.6178  134.5127  154.6571 H   0  0  0  0  0  0  0  0  0  0  0  0
  146.0140  136.0151  155.4401 H   0  0  0  0  0  0  0  0  0  0  0  0
  143.6443  135.3595  155.8675 H   0  0  0  0  0  0  0  0  0  0  0  0
  143.7282  136.8851  155.0215 H   0  0  0  0  0  0  0  0  0  0  0  0
  143.1382  134.1562  153.7760 H   0  0  0  0  0  0  0  0  0  0  0  0
  141.9986  135.4642  153.9827 H   0  0  0  0  0  0  0  0  0  0  0  0
  142.8558  135.3456  151.6396 H   0  0  0  0  0  0  0  0  0  0  0  0
  143.2376  136.8768  152.3861 H   0  0  0  0  0  0  0  0  0  0  0  0
  145.1198  134.4964  152.1192 H   0  0  0  0  0  0  0  0  0  0  0  0
  145.2147  137.1878  150.6827 H   0  0  0  0  0  0  0  0  0  0  0  0
  144.7906  135.6374  149.9642 H   0  0  0  0  0  0  0  0  0  0  0  0
  146.4237  135.9124  150.5581 H   0  0  0  0  0  0  0  0  0  0  0  0
  153.6648  141.3043  158.7022 H   0  0  0  0  0  0  0  0  0  0  0  0
  152.5701  139.9345  158.9011 H   0  0  0  0  0  0  0  0  0  0  0  0
  152.3541  141.3846  159.8806 H   0  0  0  0  0  0  0  0  0  0  0  0
  150.4207  140.9549  154.0668 H   0  0  0  0  0  0  0  0  0  0  0  0
  1 22  1  0  0  0  0
  1 23  1  0  0  0  0
  1 24  1  0  0  0  0
  1  2  1  0  0  0  0
  2  3  1  0  0  0  0
  2 20  2  0  0  0  0
  3 25  1  0  0  0  0
  3  4  2  0  0  0  0
  4 19  1  0  0  0  0
  4  5  1  0  0  0  0
  5  6  1  0  0  0  0
  5 47  1  0  0  0  0
  6  8  1  0  0  0  0
  6  7  2  0  0  0  0
  8  9  1  0  0  0  0
  8 26  1  0  0  0  0
  9 10  1  0  0  0  0
  9 27  1  0  0  0  0
  9 28  1  0  0  0  0
 10 11  1  0  0  0  0
 10 29  1  0  0  0  0
 10 30  1  0  0  0  0
 11 12  1  0  0  0  0
 12 17  1  0  0  0  0
 12 13  1  0  0  0  0
 12 31  1  0  0  0  0
 13 14  1  0  0  0  0
 13 32  1  0  0  0  0
 13 33  1  0  0  0  0
 14 15  1  0  0  0  0
 14 34  1  0  0  0  0
 14 35  1  0  0  0  0
 15 16  1  0  0  0  0
 15 36  1  0  0  0  0
 15 37  1  0  0  0  0
 16 17  1  0  0  0  0
 16 38  1  0  0  0  0
 16 39  1  0  0  0  0
 17 18  1  0  0  0  0
 17 40  1  0  0  0  0
 18 41  1  0  0  0  0
 18 42  1  0  0  0  0
 18 43  1  0  0  0  0
 19 20  1  0  0  0  0
 20 21  1  0  0  0  0
 21 44  1  0  0  0  0
 21 45  1  0  0  0  0
 21 46  1  0  0  0  0
M  CHG  1   3   1
M  END
> <s_m_source_file>
AV-unprocessed.smi

> <i_m_source_file_index>
910

> <i_lp_mmshare_version>
43012

> <i_f3d_flags>
0

> <s_epik_input>
W0NIM11jMW5jKG9jMVtDSDNdKVtOSF1DKD1PKVtOSF1bQ0gyXVtDSDJdT1tDQEBIXTJbQ0gyXVtDSDJdW0NIMl1bQ0gyXVtDQEhdMltDSDNd

> <s_epik_cmdline>
J2VwaWtfcHl0aG9uJywgJy1waCcsICc3LjAnLCAnLXRuJywgJzgnLCAnLW1hJywgJzIwMCcsICctbWV0YWxfYmluZGluZycsICctaW1hZScsICc8aW5maWxlLm1hZT4nLCAnLW9tYWUnLCAnPG91dGZpbGUubWFlPic=

> <r_epik_Ionization_Penalty>
7.32931

> <r_epik_Ionization_Penalty_Charging>
7.12214

> <r_epik_Ionization_Penalty_Neutral>
0.207166

> <r_epik_State_Penalty>
2.61278

> <r_epik_Charging_Adjusted_Penalty>
9.73492

> <i_epik_Tot_Q>
1

> <i_epik_Tot_abs_Q>
1

> <r_epik_Metal_State_Penalty>
2.64585

> <b_epik_Metal_Only>
0

> <s_lp_Force_Field>
OPLS_2005

> <r_lp_Energy>
17.2334

> <b_lp_Chiralities_Consistent>
1

> <s_lp_Variant>
AV-unprocessed.smi:910-14

> <Gold.Version>
5.8.1

> <Gold.Id.Protein>
6NUR|6NUR_protein|mol2

> <Gold.PLP.Fitness>
38.4424

> <Gold.PLP.PLP>
-31.7647

> <Gold.PLP.part.hbond>
-2.0000

> <Gold.PLP.part.metal>
0.0000

> <Gold.PLP.part.buried>
-7.7085

> <Gold.PLP.part.nonpolar>
-24.0097

> <Gold.PLP.part.repulsive>
1.5346

> <Gold.PLP.ligand.clash>
0.0000

> <Gold.PLP.ligand.torsion>
1.2014

> <Gold.PLP.Chemscore.Hbond>
2.9920

> <Gold.PLP.Chemscore.CHOScore>
0.0000

> <Gold.PLP.Chemscore.Metal>
0.0000

> <Gold.Chemscore.Hbonds>
donor molecule, donor type, donor heavy atom, donor atom, acceptor molecule, acceptor atom, score
      L1  H     3    25       P1  8028  2.00
      L1  H     8    26       P1  7957  1.00

> <Gold.PLP.Chemscore.Internal.Correction>
0.1044

> <Gold.Rescore>
     Score         DG    S(hbond)    S(metal)    S(lipo)     H(rot)  DE(clash)    DE(int)     intcor
     14.68     -15.94       1.93        0.00      71.47       1.69       0.06       1.19       ----

> <Gold.Chemscore.Fitness>
14.6842

> <Gold.Chemscore.DG>
-15.9403

> <Gold.Chemscore.ZeroCoef>
-5.4800

> <Gold.Chemscore.Hbond>
1.9275

> <Gold.Chemscore.Metal>
0.0000

> <Gold.Chemscore.Lipo>
71.4665

> <Gold.Chemscore.Internal_Hbond>
0.0000

> <Gold.Chemscore.DEClash>
0.0627

> <Gold.Chemscore.DEInternal>
1.1934

> <Gold.Chemscore.Rot>
1.6949

> <Gold.Chemscore.Internal.Correction>
   9.000000E+99

> <Gold.Chemscore.Hbonds>
donor molecule, donor type, donor heavy atom, donor atom, acceptor molecule, acceptor atom, score
      L1  H     3    25       P1  8028  1.00
      L1  H     8    26       P1  7957  0.96

> <Gold.Chemscore.Hbond.Weighted>
-6.4378

> <Gold.Chemscore.Metal.Weighted>
-0.0000

> <Gold.Chemscore.Lipo.Weighted>
-8.3616

> <Gold.Chemscore.Internal_Hbond.Weighted>
0.0000

> <Gold.Chemscore.DEClash.Weighted>
0.0627

> <Gold.Chemscore.DEInternal.Weighted>
1.1934

> <Gold.Chemscore.Rot.Weighted>
4.3390

> <Gold.Chemscore.Internal.Correction.Weighted>
   9.000000E+99

> <Gold.Protein.RotatedTorsions>
[ 6907 6896 6895 6894 ] final  106.49 input  -60.11 | X-H torsion
[ 7974 7965 7964 7962 ] final  -18.87 input  175.53 | X-H torsion
[ 8008 7997 7996 7995 ] final -111.67 input   59.86 | X-H torsion
[ 10167 10162 10161 10158 ] final  -29.82 input  -65.29 | X-H torsion
[ 10718 10713 10712 10709 ] final  166.78 input   66.30 | X-H torsion
[ 10763 10752 10751 10750 ] final  135.04 input  -60.55 | X-H torsion
[ 11005 11000 10999 10996 ] final   22.58 input  -57.11 | X-H torsion

> <Gold.Protein.ActiveResidues>
 VAL166  LYS551  ARG553  GLY616  TRP617  ASP618  TYR619  PRO620  LYS621  CYS622 
 ASP623  PHE694  ASN695  SER759  ASP760  ASP761  ALA762  ILE779  LEU786  VAL792 
 PHE793  MET794  SER795  GLU796  ALA797  LYS798  CYS799  TRP800  GLU811  SER814 

> <Gold.Protein.RotatedAtoms>
  152.5191  133.9373  159.7609 H   0  0  0  0  0  0  0  0  0  0  0  0  # atno 6907 bound_to 6896
  150.9710  133.6335  159.2745 H   0  0  0  0  0  0  0  0  0  0  0  0  # atno 6908 bound_to 6896
  151.3546  135.0897  159.9467 H   0  0  0  0  0  0  0  0  0  0  0  0  # atno 6909 bound_to 6896
  146.1870  140.3982  142.8472 H   0  0  0  0  0  0  0  0  0  0  0  0  # atno 7974 bound_to 7965
  154.9934  140.0395  157.2329 H   0  0  0  0  0  0  0  0  0  0  0  0  # atno 8008 bound_to 7997
  154.7608  140.2784  155.6193 H   0  0  0  0  0  0  0  0  0  0  0  0  # atno 8009 bound_to 7997
  156.2903  140.2629  156.2386 H   0  0  0  0  0  0  0  0  0  0  0  0  # atno 8010 bound_to 7997
  140.7256  143.3898  151.1450 H   0  0  0  0  0  0  0  0  0  0  0  0  # atno 10167 bound_to 10162
  157.0609  131.0340  151.2647 H   0  0  0  0  0  0  0  0  0  0  0  0  # atno 10718 bound_to 10713
  153.8334  135.3100  155.3420 H   0  0  0  0  0  0  0  0  0  0  0  0  # atno 10763 bound_to 10752
  154.7963  135.4753  154.0172 H   0  0  0  0  0  0  0  0  0  0  0  0  # atno 10764 bound_to 10752
  153.1620  135.6862  153.8820 H   0  0  0  0  0  0  0  0  0  0  0  0  # atno 10765 bound_to 10752
  140.3790  134.1941  155.7664 H   0  0  0  0  0  0  0  0  0  0  0  0  # atno 11005 bound_to 11000
  144.8416  140.6865  143.6226 LP  0  0  0  0  0  0  0  0  0  0  0  0  # atno 17320 bound_to 7965
  145.3908  139.1617  143.4230 LP  0  0  0  0  0  0  0  0  0  0  0  0  # atno 17321 bound_to 7965
  139.7501  143.8791  152.3074 LP  0  0  0  0  0  0  0  0  0  0  0  0  # atno 17342 bound_to 10162
  139.8642  144.7101  150.9063 LP  0  0  0  0  0  0  0  0  0  0  0  0  # atno 17343 bound_to 10162
  157.4955  130.7848  149.7551 LP  0  0  0  0  0  0  0  0  0  0  0  0  # atno 17370 bound_to 10713
  155.9978  130.3897  150.2724 LP  0  0  0  0  0  0  0  0  0  0  0  0  # atno 17371 bound_to 10713
  141.1930  133.8161  157.0818 LP  0  0  0  0  0  0  0  0  0  0  0  0  # atno 17394 bound_to 11000
  140.0493  134.9814  157.1107 LP  0  0  0  0  0  0  0  0  0  0  0  0  # atno 17395 bound_to 11000

$$$$
