#       Name:                AV-unprocessed.smi:1897
#       Creating user name   scv26
#       Creation time:       Fri Mar 27 09:43:46 2020


#       File generated by GOLD software.
#

@<TRIPOS>MOLECULE
AV-unprocessed.smi:1897
    43    45     1
SMALL
NO_CHARGES


@<TRIPOS>ATOM
      1 ****        -4.4127   3.7614  -0.2542 C.3            1 S1                 0.0000
      2 ****        -3.0245   3.6964   0.2832 C.2            1 S1                 0.0000
      3 ****        -2.7582   3.6438   1.5905 N.2            1 S1                 0.0000
      4 ****        -1.3956   3.5899   1.8447 N.2            1 S1                 0.0000
      5 ****        -0.6523   3.5878   0.7291 C.2            1 S1                 0.0000
      6 ****         0.6922   3.5279   0.7564 N.pl3          1 S1                -1.0000
      7 ****         1.3735   2.3548   0.6877 C.2            1 S1                 0.0000
      8 ****         2.6014   2.2822   0.7121 O.2            1 S1                 0.0000
      9 ****         0.6576   1.2192   0.5890 N.am           1 S1                 0.0000
     10 ****         1.2030  -0.1299   0.5061 C.3            1 S1                 0.0000
     11 ****         1.6349  -0.7088   1.8612 C.3            1 S1                 0.0000
     12 ****         1.2574  -2.2022   1.8042 C.3            1 S1                 0.0000
     13 ****         0.6799  -2.4475   0.4616 N.4            1 S1                 1.0000
     14 ****         1.6699  -3.0535  -0.4708 C.3            1 S1                 0.0000
     15 ****         1.1585  -3.0884  -1.9167 C.3            1 S1                 0.0000
     16 ****         0.8162  -1.6729  -2.3879 C.3            1 S1                 0.0000
     17 ****        -0.2440  -1.0693  -1.4608 C.3            1 S1                 0.0000
     18 ****         0.1480  -1.1314   0.0327 C.3            1 S1                 0.0000
     19 ****        -1.6063   3.6740  -0.7513 S.3            1 S1                 0.0000
     20 ****        -4.8563   2.7657  -0.2601 H              1 S1                 0.0000
     21 ****        -4.4062   4.1491  -1.2729 H              1 S1                 0.0000
     22 ****        -5.0273   4.4170   0.3634 H              1 S1                 0.0000
     23 ****        -0.3481   1.3072   0.5749 H              1 S1                 0.0000
     24 ****         2.0507  -0.1436  -0.1811 H              1 S1                 0.0000
     25 ****         2.7023  -0.5626   2.0290 H              1 S1                 0.0000
     26 ****         1.1052  -0.2261   2.6841 H              1 S1                 0.0000
     27 ****         2.1074  -2.8521   2.0173 H              1 S1                 0.0000
     28 ****         0.4939  -2.4159   2.5529 H              1 S1                 0.0000
     29 ****         2.6061  -2.4940  -0.4337 H              1 S1                 0.0000
     30 ****         1.8992  -4.0655  -0.1353 H              1 S1                 0.0000
     31 ****         1.9167  -3.5239  -2.5683 H              1 S1                 0.0000
     32 ****         0.2797  -3.7305  -1.9875 H              1 S1                 0.0000
     33 ****         1.7123  -1.0513  -2.3922 H              1 S1                 0.0000
     34 ****         0.4476  -1.6951  -3.4138 H              1 S1                 0.0000
     35 ****        -0.4571  -0.0402  -1.7523 H              1 S1                 0.0000
     36 ****        -1.1764  -1.6182  -1.5993 H              1 S1                 0.0000
     37 ****        -0.7591  -0.9584   0.6157 H              1 S1                 0.0000
     38 ****        -0.0907  -3.0951   0.5424 H              1 S1                 0.0000
     39 ****        -3.4594   3.6433   2.3034 LP             1 S1                 0.0000
     40 ****        -1.0075   3.5561   2.7657 LP             1 S1                 0.0000
     41 ****         1.2097   4.3804   0.8301 LP             1 S1                 0.0000
     42 ****         3.1502   3.1149   0.7858 LP             1 S1                 0.0000
     43 ****         3.0507   1.3905   0.6582 LP             1 S1                 0.0000
@<TRIPOS>BOND
    1    1    2 1     
    2    1   20 1     
    3    1   21 1     
    4    1   22 1     
    5    2   19 1     
    6    2    3 2     
    7    3    4 1     
    8    4    5 2     
    9    5    6 1     
   10    5   19 1     
   11    6    7 1     
   12    7    8 2     
   13    7    9 am    
   14    9   10 1     
   15    9   23 1     
   16   10   18 1     
   17   10   11 1     
   18   10   24 1     
   19   11   12 1     
   20   11   25 1     
   21   11   26 1     
   22   12   13 1     
   23   12   27 1     
   24   12   28 1     
   25   13   18 1     
   26   13   14 1     
   27   13   38 1     
   28   14   15 1     
   29   14   29 1     
   30   14   30 1     
   31   15   16 1     
   32   15   31 1     
   33   15   32 1     
   34   16   17 1     
   35   16   33 1     
   36   16   34 1     
   37   17   18 1     
   38   17   35 1     
   39   17   36 1     
   40   18   37 1     
   41    3   39 1     
   42    4   40 1     
   43    6   41 1     
   44    8   42 1     
   45    8   43 1     
@<TRIPOS>SUBSTRUCTURE
      1 S1             1
@<TRIPOS>SET
LONE_PAIRS      STATIC     ATOMS    <user>   **** ""
5 39 40 41 42 43
DONOR_HYDROGENS      STATIC     ATOMS    <user>   **** ""
2 23 38
ATOM$BLUE        STATIC     ATOMS    COLORGROUP SYSTEM
5 39 40 41 42 43
ATOM$RED        STATIC     ATOMS    COLORGROUP SYSTEM
2 23 38
