AV-unprocessed.smi:930|AV-procd|sdf|4197|dock3
  -GOLD-   22720 2103D 1   1.00000     0.00000
 Structure written by MMmdl.
 31 32  0  0  0  0  0  0  0  0  2 V2000
  146.2610  137.8378  152.3693 C   0  0  0  0  0  0  0  0  0  0  0  0
  147.1588  138.7066  153.1815 C   0  0  0  0  0  0  0  0  0  0  0  0
  148.2298  138.2366  153.8250 N   0  0  0  0  0  0  0  0  0  0  0  0
  148.9089  139.2352  154.5084 N   0  0  0  0  0  0  0  0  0  0  0  0
  148.3494  140.4448  154.3650 C   0  0  0  0  0  0  0  0  0  0  0  0
  148.8530  141.5445  154.9495 N   0  5  0  0  0  0  0  0  0  0  0  0
  150.0377  141.4825  155.5993 C   0  0  0  0  0  0  0  0  0  0  0  0
  150.9477  140.6789  155.3827 O   0  0  0  0  0  0  0  0  0  0  0  0
  150.1761  142.4093  156.5587 N   0  0  0  0  0  0  0  0  0  0  0  0
  151.3433  142.5922  157.4180 C   0  0  0  0  0  0  0  0  0  0  0  0
  151.4240  141.4701  158.4741 C   0  0  0  0  0  0  0  0  0  0  0  0
  152.6027  141.6884  159.4366 C   0  0  0  0  0  0  0  0  0  0  0  0
  152.5299  143.0700  160.1055 C   0  0  0  0  0  0  0  0  0  0  0  0
  152.4546  144.1900  159.0562 C   0  0  0  0  0  0  0  0  0  0  0  0
  151.2745  143.9742  158.0946 C   0  0  0  0  0  0  0  0  0  0  0  0
  146.8953  140.4322  153.3670 S   0  0  0  0  0  0  0  0  0  0  0  0
  146.7076  137.6514  151.3925 H   0  0  0  0  0  0  0  0  0  0  0  0
  145.2945  138.3211  152.2266 H   0  0  0  0  0  0  0  0  0  0  0  0
  146.1020  136.8835  152.8719 H   0  0  0  0  0  0  0  0  0  0  0  0
  149.4028  143.0420  156.7024 H   0  0  0  0  0  0  0  0  0  0  0  0
  152.2449  142.5637  156.8034 H   0  0  0  0  0  0  0  0  0  0  0  0
  150.4941  141.4317  159.0433 H   0  0  0  0  0  0  0  0  0  0  0  0
  151.5268  140.4997  157.9870 H   0  0  0  0  0  0  0  0  0  0  0  0
  152.6109  140.9069  160.1969 H   0  0  0  0  0  0  0  0  0  0  0  0
  153.5412  141.5966  158.8886 H   0  0  0  0  0  0  0  0  0  0  0  0
  151.6538  143.1164  160.7536 H   0  0  0  0  0  0  0  0  0  0  0  0
  153.3983  143.2189  160.7476 H   0  0  0  0  0  0  0  0  0  0  0  0
  152.3592  145.1571  159.5504 H   0  0  0  0  0  0  0  0  0  0  0  0
  153.3858  144.2226  158.4893 H   0  0  0  0  0  0  0  0  0  0  0  0
  151.2693  144.7602  157.3386 H   0  0  0  0  0  0  0  0  0  0  0  0
  150.3379  144.0699  158.6460 H   0  0  0  0  0  0  0  0  0  0  0  0
  1  2  1  0  0  0  0
  1 17  1  0  0  0  0
  1 18  1  0  0  0  0
  1 19  1  0  0  0  0
  2 16  1  0  0  0  0
  2  3  2  0  0  0  0
  3  4  1  0  0  0  0
  4  5  2  0  0  0  0
  5  6  1  0  0  0  0
  5 16  1  0  0  0  0
  6  7  1  0  0  0  0
  7  8  2  0  0  0  0
  7  9  1  0  0  0  0
  9 10  1  0  0  0  0
  9 20  1  0  0  0  0
 10 15  1  0  0  0  0
 10 11  1  0  0  0  0
 10 21  1  0  0  0  0
 11 12  1  0  0  0  0
 11 22  1  0  0  0  0
 11 23  1  0  0  0  0
 12 13  1  0  0  0  0
 12 24  1  0  0  0  0
 12 25  1  0  0  0  0
 13 14  1  0  0  0  0
 13 26  1  0  0  0  0
 13 27  1  0  0  0  0
 14 15  1  0  0  0  0
 14 28  1  0  0  0  0
 14 29  1  0  0  0  0
 15 30  1  0  0  0  0
 15 31  1  0  0  0  0
M  CHG  1   6  -1
M  END
> <s_m_source_file>
AV-unprocessed.smi

> <i_m_source_file_index>
930

> <i_lp_mmshare_version>
43012

> <i_f3d_flags>
0

> <s_epik_input>
W0NIM11jMW5uYyhzMSlbTkhdQyg9TylbTkhdW0NIXTJbQ0gyXVtDSDJdW0NIMl1bQ0gyXVtDSDJdMg==

> <s_epik_cmdline>
J2VwaWtfcHl0aG9uJywgJy1waCcsICc3LjAnLCAnLXRuJywgJzgnLCAnLW1hJywgJzIwMCcsICctbWV0YWxfYmluZGluZycsICctaW1hZScsICc8aW5maWxlLm1hZT4nLCAnLW9tYWUnLCAnPG91dGZpbGUubWFlPic=

> <r_lp_tautomer_probability>
1

> <r_epik_Ionization_Penalty>
4.57239

> <r_epik_Ionization_Penalty_Charging>
4.41779

> <r_epik_Ionization_Penalty_Neutral>
0.154599

> <r_epik_State_Penalty>
4.41745

> <r_epik_Charging_Adjusted_Penalty>
8.83524

> <i_epik_Tot_Q>
-1

> <i_epik_Tot_abs_Q>
1

> <r_epik_Metal_State_Penalty>
0.779681

> <b_epik_Metal_Only>
1

> <s_lp_Force_Field>
OPLS_2005

> <r_lp_Energy>
6.76033

> <b_lp_Chiralities_Consistent>
1

> <s_lp_Variant>
AV-unprocessed.smi:930-2

> <Gold.Version>
5.8.1

> <Gold.Id.Protein>
6NUR|6NUR_protein|mol2

> <Gold.PLP.Fitness>
39.6772

> <Gold.PLP.PLP>
-34.7435

> <Gold.PLP.part.hbond>
-2.3076

> <Gold.PLP.part.metal>
0.0000

> <Gold.PLP.part.buried>
-4.8074

> <Gold.PLP.part.nonpolar>
-29.4691

> <Gold.PLP.part.repulsive>
1.0495

> <Gold.PLP.ligand.clash>
0.0000

> <Gold.PLP.ligand.torsion>
0.3322

> <Gold.PLP.Chemscore.Hbond>
1.8640

> <Gold.PLP.Chemscore.CHOScore>
0.0000

> <Gold.PLP.Chemscore.Metal>
0.0000

> <Gold.Chemscore.Hbonds>
donor molecule, donor type, donor heavy atom, donor atom, acceptor molecule, acceptor atom, score
      L1  H     9    20       P1  8028  0.58
      P1  H  7989  7998       L1     8  0.86

> <Gold.PLP.Chemscore.Internal.Correction>
0.0061

> <Gold.Rescore>
     Score         DG    S(hbond)    S(metal)    S(lipo)     H(rot)  DE(clash)    DE(int)     intcor
     14.66     -17.67       1.45        0.00      84.60       1.00       0.29       2.72       ----

> <Gold.Chemscore.Fitness>
14.6590

> <Gold.Chemscore.DG>
-17.6695

> <Gold.Chemscore.ZeroCoef>
-5.4800

> <Gold.Chemscore.Hbond>
1.4526

> <Gold.Chemscore.Metal>
0.0000

> <Gold.Chemscore.Lipo>
84.5980

> <Gold.Chemscore.Internal_Hbond>
0.0000

> <Gold.Chemscore.DEClash>
0.2878

> <Gold.Chemscore.DEInternal>
2.7228

> <Gold.Chemscore.Rot>
1.0000

> <Gold.Chemscore.Internal.Correction>
   9.000000E+99

> <Gold.Chemscore.Hbonds>
donor molecule, donor type, donor heavy atom, donor atom, acceptor molecule, acceptor atom, score
      L1  H     9    20       P1  8028  0.55
      P1  H  7989  7998       L1     8  0.60

> <Gold.Chemscore.Hbond.Weighted>
-4.8516

> <Gold.Chemscore.Metal.Weighted>
-0.0000

> <Gold.Chemscore.Lipo.Weighted>
-9.8980

> <Gold.Chemscore.Internal_Hbond.Weighted>
0.0000

> <Gold.Chemscore.DEClash.Weighted>
0.2878

> <Gold.Chemscore.DEInternal.Weighted>
2.7228

> <Gold.Chemscore.Rot.Weighted>
2.5600

> <Gold.Chemscore.Internal.Correction.Weighted>
   9.000000E+99

> <Gold.Protein.RotatedTorsions>
[ 6907 6896 6895 6894 ] final   15.06 input  -60.11 | X-H torsion
[ 7974 7965 7964 7962 ] final   98.57 input  175.53 | X-H torsion
[ 8008 7997 7996 7995 ] final   -2.55 input   59.86 | X-H torsion
[ 10167 10162 10161 10158 ] final -158.62 input  -65.29 | X-H torsion
[ 10718 10713 10712 10709 ] final   96.54 input   66.30 | X-H torsion
[ 10763 10752 10751 10750 ] final  106.59 input  -60.55 | X-H torsion
[ 11005 11000 10999 10996 ] final -159.55 input  -57.11 | X-H torsion

> <Gold.Protein.ActiveResidues>
 VAL166  LYS551  ARG553  GLY616  TRP617  ASP618  TYR619  PRO620  LYS621  CYS622 
 ASP623  PHE694  ASN695  SER759  ASP760  ASP761  ALA762  ILE779  LEU786  VAL792 
 PHE793  MET794  SER795  GLU796  ALA797  LYS798  CYS799  TRP800  GLU811  SER814 

> <Gold.Protein.RotatedAtoms>
  151.8120  135.0678  160.0413 H   0  0  0  0  0  0  0  0  0  0  0  0  # atno 6907 bound_to 6896
  152.3013  133.5654  159.5629 H   0  0  0  0  0  0  0  0  0  0  0  0  # atno 6908 bound_to 6896
  150.7275  134.0203  159.3741 H   0  0  0  0  0  0  0  0  0  0  0  0  # atno 6909 bound_to 6896
  145.4104  139.2334  143.3251 H   0  0  0  0  0  0  0  0  0  0  0  0  # atno 7974 bound_to 7965
  154.6346  140.2531  155.7394 H   0  0  0  0  0  0  0  0  0  0  0  0  # atno 8008 bound_to 7997
  156.2497  140.2900  156.0632 H   0  0  0  0  0  0  0  0  0  0  0  0  # atno 8009 bound_to 7997
  155.1692  140.0386  157.2849 H   0  0  0  0  0  0  0  0  0  0  0  0  # atno 8010 bound_to 7997
  139.6678  143.9798  152.2265 H   0  0  0  0  0  0  0  0  0  0  0  0  # atno 10167 bound_to 10162
  157.6925  131.0581  150.4507 H   0  0  0  0  0  0  0  0  0  0  0  0  # atno 10718 bound_to 10713
  153.3951  135.3872  155.1949 H   0  0  0  0  0  0  0  0  0  0  0  0  # atno 10763 bound_to 10752
  154.8723  135.3757  154.4689 H   0  0  0  0  0  0  0  0  0  0  0  0  # atno 10764 bound_to 10752
  153.5180  135.7087  153.5808 H   0  0  0  0  0  0  0  0  0  0  0  0  # atno 10765 bound_to 10752
  140.6413  134.4548  157.5233 H   0  0  0  0  0  0  0  0  0  0  0  0  # atno 11005 bound_to 11000
  146.2707  140.4815  142.8815 LP  0  0  0  0  0  0  0  0  0  0  0  0  # atno 17320 bound_to 7965
  144.8313  140.6711  143.6289 LP  0  0  0  0  0  0  0  0  0  0  0  0  # atno 17321 bound_to 7965
  139.9554  144.6593  150.8131 LP  0  0  0  0  0  0  0  0  0  0  0  0  # atno 17342 bound_to 10162
  140.7606  143.3155  151.2742 LP  0  0  0  0  0  0  0  0  0  0  0  0  # atno 17343 bound_to 10162
  156.4858  130.4084  149.6435 LP  0  0  0  0  0  0  0  0  0  0  0  0  # atno 17370 bound_to 10713
  156.3463  130.7408  151.2361 LP  0  0  0  0  0  0  0  0  0  0  0  0  # atno 17371 bound_to 10713
  139.9079  134.8409  156.1637 LP  0  0  0  0  0  0  0  0  0  0  0  0  # atno 17394 bound_to 11000
  141.0604  133.6844  156.1942 LP  0  0  0  0  0  0  0  0  0  0  0  0  # atno 17395 bound_to 11000

$$$$
