#       Name:                AV-unprocessed.smi:2439
#       Creating user name   scv26
#       Creation time:       Fri Mar 27 13:24:12 2020


#       File generated by GOLD software.
#

@<TRIPOS>MOLECULE
AV-unprocessed.smi:2439
    45    47     1
SMALL
NO_CHARGES


@<TRIPOS>ATOM
      1 ****        -1.5521  -5.2652   2.3706 N.1            1 S1                 0.0000
      2 ****        -2.0267  -4.2131   2.2915 C.1            1 S1                 0.0000
      3 ****        -2.6236  -2.8868   2.1915 C.ar           1 S1                 0.0000
      4 ****        -4.0238  -2.7772   2.0583 C.ar           1 S1                 0.0000
      5 ****        -4.6054  -1.5001   1.9592 C.ar           1 S1                 0.0000
      6 ****        -3.7586  -0.3779   1.9987 C.ar           1 S1                 0.0000
      7 ****        -2.4182  -0.4686   2.1252 N.ar           1 S1                 0.0000
      8 ****        -1.8492  -1.6956   2.2210 C.ar           1 S1                 0.0000
      9 ****        -0.4493  -1.7591   2.3544 N.pl3          1 S1                 0.0000
     10 ****         0.3914  -0.5698   2.2806 C.3            1 S1                 0.0000
     11 ****         0.6023  -0.0861   0.8354 C.3            1 S1                 0.0000
     12 ****         1.3139   1.2843   0.7986 C.3            1 S1                 0.0000
     13 ****         1.6305   1.6983  -0.5899 N.4            1 S1                 1.0000
     14 ****         0.4529   2.2205  -1.3358 C.3            1 S1                 0.0000
     15 ****         0.8499   2.7009  -2.7392 C.3            1 S1                 0.0000
     16 ****         1.5229   1.5713  -3.5266 C.3            1 S1                 0.0000
     17 ****         2.7347   1.0427  -2.7470 C.3            1 S1                 0.0000
     18 ****         2.3762   0.6253  -1.3046 C.3            1 S1                 0.0000
     19 ****         1.6225  -0.7179  -1.2103 C.3            1 S1                 0.0000
     20 ****         1.4143  -1.0424   0.1597 O.3            1 S1                 0.0000
     21 ****        -4.6491  -3.6581   2.0319 H              1 S1                 0.0000
     22 ****        -5.6743  -1.3843   1.8569 H              1 S1                 0.0000
     23 ****        -4.1672   0.6191   1.9259 H              1 S1                 0.0000
     24 ****         0.0010  -2.6614   2.4158 H              1 S1                 0.0000
     25 ****        -0.0510   0.2225   2.8856 H              1 S1                 0.0000
     26 ****         1.3535  -0.7974   2.7403 H              1 S1                 0.0000
     27 ****        -0.3638  -0.0119   0.3352 H              1 S1                 0.0000
     28 ****         0.7092   2.0482   1.2892 H              1 S1                 0.0000
     29 ****         2.2486   1.2248   1.3579 H              1 S1                 0.0000
     30 ****        -0.3204   1.4570  -1.4184 H              1 S1                 0.0000
     31 ****         0.0142   3.0501  -0.7803 H              1 S1                 0.0000
     32 ****        -0.0313   3.0551  -3.2752 H              1 S1                 0.0000
     33 ****         1.5276   3.5519  -2.6603 H              1 S1                 0.0000
     34 ****         0.8101   0.7658  -3.7060 H              1 S1                 0.0000
     35 ****         1.8367   1.9325  -4.5065 H              1 S1                 0.0000
     36 ****         3.1894   0.2075  -3.2808 H              1 S1                 0.0000
     37 ****         3.4941   1.8252  -2.7098 H              1 S1                 0.0000
     38 ****         3.3197   0.4923  -0.7727 H              1 S1                 0.0000
     39 ****         0.6697  -0.6912  -1.7404 H              1 S1                 0.0000
     40 ****         2.2137  -1.5123  -1.6665 H              1 S1                 0.0000
     41 ****         2.2649   2.4809  -0.5148 H              1 S1                 0.0000
     42 ****        -1.1419  -6.1746   2.4390 LP             1 S1                 0.0000
     43 ****        -1.8533   0.3563   2.1480 LP             1 S1                 0.0000
     44 ****         0.9674  -1.9354   0.2124 LP             1 S1                 0.0000
     45 ****         2.3029  -1.0869   0.6163 LP             1 S1                 0.0000
@<TRIPOS>BOND
    1    1    2 3     
    2    2    3 1     
    3    3    8 ar    
    4    3    4 ar    
    5    4    5 ar    
    6    4   21 1     
    7    5    6 ar    
    8    5   22 1     
    9    6    7 ar    
   10    6   23 1     
   11    7    8 ar    
   12    8    9 1     
   13    9   10 1     
   14    9   24 1     
   15   10   11 1     
   16   10   25 1     
   17   10   26 1     
   18   11   20 1     
   19   11   12 1     
   20   11   27 1     
   21   12   13 1     
   22   12   28 1     
   23   12   29 1     
   24   13   18 1     
   25   13   14 1     
   26   13   41 1     
   27   14   15 1     
   28   14   30 1     
   29   14   31 1     
   30   15   16 1     
   31   15   32 1     
   32   15   33 1     
   33   16   17 1     
   34   16   34 1     
   35   16   35 1     
   36   17   18 1     
   37   17   36 1     
   38   17   37 1     
   39   18   19 1     
   40   18   38 1     
   41   19   20 1     
   42   19   39 1     
   43   19   40 1     
   44    1   42 1     
   45    7   43 1     
   46   20   44 1     
   47   20   45 1     
@<TRIPOS>SUBSTRUCTURE
      1 S1             1
@<TRIPOS>SET
LONE_PAIRS      STATIC     ATOMS    <user>   **** ""
4 42 43 44 45
DONOR_HYDROGENS      STATIC     ATOMS    <user>   **** ""
2 24 41
ATOM$BLUE        STATIC     ATOMS    COLORGROUP SYSTEM
4 42 43 44 45
ATOM$RED        STATIC     ATOMS    COLORGROUP SYSTEM
2 24 41
