AV-unprocessed.smi:1384|AV-procd|sdf|5627|dock8
  -GOLD-   22720 5243D 1   1.00000     0.00000
 Structure written by MMmdl.
 41 42  0  0  0  0  0  0  0  0  1 V2000
  144.9583  143.7183  155.3401 C   0  0  0  0  0  0  0  0  0  0  0  0
  145.8403  142.4701  155.1932 C   0  0  2  0  0  0  0  0  0  0  0  0
  146.4641  142.0621  156.5416 C   0  0  0  0  0  0  0  0  0  0  0  0
  147.3545  140.8142  156.4027 C   0  0  0  0  0  0  0  0  0  0  0  0
  148.4484  140.9938  155.3328 C   0  0  2  0  0  0  0  0  0  0  0  0
  149.4550  141.9478  155.7960 N   0  0  0  0  0  0  0  0  0  0  0  0
  150.3144  141.7467  156.8065 C   0  0  0  0  0  0  0  0  0  0  0  0
  150.3530  140.7042  157.4618 O   0  0  0  0  0  0  0  0  0  0  0  0
  151.2823  142.9026  157.0985 C   0  0  0  0  0  0  0  0  0  0  0  0
  151.9409  142.8021  158.4126 N   0  0  0  0  0  0  0  0  0  0  0  0
  151.7749  143.8882  159.2903 C   0  0  0  0  0  0  0  0  0  0  0  0
  152.3312  143.9019  160.5091 C   0  0  0  0  0  0  0  0  0  0  0  0
  153.1168  142.7614  160.9130 C   0  0  0  0  0  0  0  0  0  0  0  0
  153.3000  141.7046  160.0879 C   0  0  0  0  0  0  0  0  0  0  0  0
  154.1247  140.4876  160.5018 C   0  0  0  0  0  0  0  0  0  0  0  0
  153.4509  139.3607  160.2678 F   0  0  0  0  0  0  0  0  0  0  0  0
  155.2660  140.4413  159.8137 F   0  0  0  0  0  0  0  0  0  0  0  0
  154.4316  140.5157  161.7996 F   0  0  0  0  0  0  0  0  0  0  0  0
  152.6856  141.7021  158.7443 C   0  0  0  0  0  0  0  0  0  0  0  0
  152.8292  140.7665  157.9552 O   0  0  0  0  0  0  0  0  0  0  0  0
  147.8298  141.4303  153.9875 C   0  0  0  0  0  0  0  0  0  0  0  0
  146.9382  142.6764  154.1323 C   0  0  0  0  0  0  0  0  0  0  0  0
  145.5397  144.5770  155.6777 H   0  0  0  0  0  0  0  0  0  0  0  0
  144.1600  143.5518  156.0636 H   0  0  0  0  0  0  0  0  0  0  0  0
  144.4919  143.9842  154.3910 H   0  0  0  0  0  0  0  0  0  0  0  0
  145.1994  141.6529  154.8583 H   0  0  0  0  0  0  0  0  0  0  0  0
  147.0517  142.8895  156.9412 H   0  0  0  0  0  0  0  0  0  0  0  0
  145.6773  141.8668  157.2710 H   0  0  0  0  0  0  0  0  0  0  0  0
  147.8038  140.5667  157.3652 H   0  0  0  0  0  0  0  0  0  0  0  0
  146.7296  139.9617  156.1332 H   0  0  0  0  0  0  0  0  0  0  0  0
  148.9392  140.0288  155.1934 H   0  0  0  0  0  0  0  0  0  0  0  0
  149.4986  142.8308  155.3081 H   0  0  0  0  0  0  0  0  0  0  0  0
  152.0260  142.9322  156.3007 H   0  0  0  0  0  0  0  0  0  0  0  0
  150.7441  143.8489  157.0181 H   0  0  0  0  0  0  0  0  0  0  0  0
  151.1788  144.7045  158.9080 H   0  0  0  0  0  0  0  0  0  0  0  0
  152.1982  144.7457  161.1698 H   0  0  0  0  0  0  0  0  0  0  0  0
  153.5610  142.7683  161.8970 H   0  0  0  0  0  0  0  0  0  0  0  0
  148.6099  141.6137  153.2479 H   0  0  0  0  0  0  0  0  0  0  0  0
  147.2297  140.6103  153.5910 H   0  0  0  0  0  0  0  0  0  0  0  0
  146.4846  142.9110  153.1686 H   0  0  0  0  0  0  0  0  0  0  0  0
  147.5529  143.5374  154.3981 H   0  0  0  0  0  0  0  0  0  0  0  0
  1  2  1  0  0  0  0
  1 23  1  0  0  0  0
  1 24  1  0  0  0  0
  1 25  1  0  0  0  0
  2 22  1  0  0  0  0
  2  3  1  0  0  0  0
  2 26  1  0  0  0  0
  3  4  1  0  0  0  0
  3 27  1  0  0  0  0
  3 28  1  0  0  0  0
  4  5  1  0  0  0  0
  4 29  1  0  0  0  0
  4 30  1  0  0  0  0
  5  6  1  0  0  0  0
  5 21  1  0  0  0  0
  5 31  1  0  0  0  0
  6  7  1  0  0  0  0
  6 32  1  0  0  0  0
  7  8  2  0  0  0  0
  7  9  1  0  0  0  0
  9 10  1  0  0  0  0
  9 33  1  0  0  0  0
  9 34  1  0  0  0  0
 10 19  1  0  0  0  0
 10 11  1  0  0  0  0
 11 12  2  0  0  0  0
 11 35  1  0  0  0  0
 12 13  1  0  0  0  0
 12 36  1  0  0  0  0
 13 14  2  0  0  0  0
 13 37  1  0  0  0  0
 14 15  1  0  0  0  0
 14 19  1  0  0  0  0
 15 16  1  0  0  0  0
 15 17  1  0  0  0  0
 15 18  1  0  0  0  0
 19 20  2  0  0  0  0
 21 22  1  0  0  0  0
 21 38  1  0  0  0  0
 21 39  1  0  0  0  0
 22 40  1  0  0  0  0
 22 41  1  0  0  0  0
M  END
> <s_m_source_file>
AV-unprocessed.smi

> <i_m_source_file_index>
1384

> <i_lp_mmshare_version>
43012

> <i_f3d_flags>
0

> <s_epik_input>
W0NIM11bQ0BASF0xW0NIMl1bQ0gyXVtDQEhdKFtDSDJdW0NIMl0xKVtOSF1DKD1PKVtDSDJdbjJbY0hdW2NIXVtjSF1jKEMoRikoRilGKWMyPU8=

> <s_epik_cmdline>
J2VwaWtfcHl0aG9uJywgJy1waCcsICc3LjAnLCAnLXRuJywgJzgnLCAnLW1hJywgJzIwMCcsICctbWV0YWxfYmluZGluZycsICctaW1hZScsICc8aW5maWxlLm1hZT4nLCAnLW9tYWUnLCAnPG91dGZpbGUubWFlPic=

> <r_lp_tautomer_probability>
1

> <r_epik_Ionization_Penalty>
2.11165e-08

> <r_epik_Ionization_Penalty_Charging>
2.06965e-09

> <r_epik_Ionization_Penalty_Neutral>
1.90469e-08

> <r_epik_State_Penalty>
-0

> <r_epik_Charging_Adjusted_Penalty>
2.06965e-09

> <i_epik_Tot_Q>
0

> <i_epik_Tot_abs_Q>
0

> <r_epik_Metal_State_Penalty>
-0

> <b_epik_Metal_Only>
0

> <s_lp_Force_Field>
OPLS_2005

> <r_lp_Energy>
18.4349

> <b_lp_Chiralities_Consistent>
1

> <s_lp_Variant>
AV-unprocessed.smi:1384-2

> <Gold.Version>
5.8.1

> <Gold.Id.Protein>
6NUR|6NUR_protein|mol2

> <Gold.PLP.Fitness>
49.1837

> <Gold.PLP.PLP>
-46.2343

> <Gold.PLP.part.hbond>
-2.0000

> <Gold.PLP.part.metal>
0.0000

> <Gold.PLP.part.buried>
-3.3587

> <Gold.PLP.part.nonpolar>
-40.4591

> <Gold.PLP.part.repulsive>
0.1373

> <Gold.PLP.ligand.clash>
0.0277

> <Gold.PLP.ligand.torsion>
0.5995

> <Gold.PLP.Chemscore.Hbond>
1.2838

> <Gold.PLP.Chemscore.CHOScore>
0.0000

> <Gold.PLP.Chemscore.Metal>
0.0000

> <Gold.Chemscore.Hbonds>
donor molecule, donor type, donor heavy atom, donor atom, acceptor molecule, acceptor atom, score
      L1  H     6    32       P1  8028  0.74
      P1  H  7997  8008       L1    20  0.60

> <Gold.PLP.Chemscore.Internal.Correction>
0.3246

> <Gold.Rescore>
     Score         DG    S(hbond)    S(metal)    S(lipo)     H(rot)  DE(clash)    DE(int)     intcor
     10.46     -17.54       1.37        0.00      97.25       1.52       0.74       6.34       ----

> <Gold.Chemscore.Fitness>
10.4607

> <Gold.Chemscore.DG>
-17.5385

> <Gold.Chemscore.ZeroCoef>
-5.4800

> <Gold.Chemscore.Hbond>
1.3719

> <Gold.Chemscore.Metal>
0.0000

> <Gold.Chemscore.Lipo>
97.2488

> <Gold.Chemscore.Internal_Hbond>
0.0000

> <Gold.Chemscore.DEClash>
0.7425

> <Gold.Chemscore.DEInternal>
6.3353

> <Gold.Chemscore.Rot>
1.5242

> <Gold.Chemscore.Internal.Correction>
   9.000000E+99

> <Gold.Chemscore.Hbonds>
donor molecule, donor type, donor heavy atom, donor atom, acceptor molecule, acceptor atom, score
      L1  H     6    32       P1  8028  0.70
      P1  H  7997  8008       L1    20  0.60

> <Gold.Chemscore.Hbond.Weighted>
-4.5823

> <Gold.Chemscore.Metal.Weighted>
-0.0000

> <Gold.Chemscore.Lipo.Weighted>
-11.3781

> <Gold.Chemscore.Internal_Hbond.Weighted>
0.0000

> <Gold.Chemscore.DEClash.Weighted>
0.7425

> <Gold.Chemscore.DEInternal.Weighted>
6.3353

> <Gold.Chemscore.Rot.Weighted>
3.9019

> <Gold.Chemscore.Internal.Correction.Weighted>
   9.000000E+99

> <Gold.Protein.RotatedTorsions>
[ 6907 6896 6895 6894 ] final   46.91 input  -60.11 | X-H torsion
[ 7974 7965 7964 7962 ] final  170.28 input  175.53 | X-H torsion
[ 8008 7997 7996 7995 ] final  -75.17 input   59.86 | X-H torsion
[ 10167 10162 10161 10158 ] final -143.98 input  -65.29 | X-H torsion
[ 10718 10713 10712 10709 ] final   60.57 input   66.30 | X-H torsion
[ 10763 10752 10751 10750 ] final  161.54 input  -60.55 | X-H torsion
[ 11005 11000 10999 10996 ] final   94.13 input  -57.11 | X-H torsion

> <Gold.Protein.ActiveResidues>
 VAL166  LYS551  ARG553  GLY616  TRP617  ASP618  TYR619  PRO620  LYS621  CYS622 
 ASP623  PHE694  ASN695  SER759  ASP760  ASP761  ALA762  ILE779  LEU786  VAL792 
 PHE793  MET794  SER795  GLU796  ALA797  LYS798  CYS799  TRP800  GLU811  SER814 

> <Gold.Protein.RotatedAtoms>
  152.2619  134.8024  160.0428 H   0  0  0  0  0  0  0  0  0  0  0  0  # atno 6907 bound_to 6896
  151.8668  133.3462  159.3730 H   0  0  0  0  0  0  0  0  0  0  0  0  # atno 6908 bound_to 6896
  150.7120  134.5080  159.5637 H   0  0  0  0  0  0  0  0  0  0  0  0  # atno 6909 bound_to 6896
  144.7328  139.9179  143.6418 H   0  0  0  0  0  0  0  0  0  0  0  0  # atno 7974 bound_to 7965
  154.5394  140.0748  156.8483 H   0  0  0  0  0  0  0  0  0  0  0  0  # atno 8008 bound_to 7997
  155.3212  140.3396  155.4223 H   0  0  0  0  0  0  0  0  0  0  0  0  # atno 8009 bound_to 7997
  156.1859  140.1669  156.8172 H   0  0  0  0  0  0  0  0  0  0  0  0  # atno 8010 bound_to 7997
  139.7942  143.7924  152.2653 H   0  0  0  0  0  0  0  0  0  0  0  0  # atno 10167 bound_to 10162
  157.5763  130.8946  149.9352 H   0  0  0  0  0  0  0  0  0  0  0  0  # atno 10718 bound_to 10713
  154.2645  135.2767  155.2764 H   0  0  0  0  0  0  0  0  0  0  0  0  # atno 10763 bound_to 10752
  154.5355  135.5717  153.6798 H   0  0  0  0  0  0  0  0  0  0  0  0  # atno 10764 bound_to 10752
  152.9956  135.6238  154.2797 H   0  0  0  0  0  0  0  0  0  0  0  0  # atno 10765 bound_to 10752
  139.8802  134.8828  156.3819 H   0  0  0  0  0  0  0  0  0  0  0  0  # atno 11005 bound_to 11000
  146.0952  139.3943  143.0381 LP  0  0  0  0  0  0  0  0  0  0  0  0  # atno 17320 bound_to 7965
  145.7656  140.9917  143.1177 LP  0  0  0  0  0  0  0  0  0  0  0  0  # atno 17321 bound_to 7965
  139.8024  144.7368  150.9806 LP  0  0  0  0  0  0  0  0  0  0  0  0  # atno 17342 bound_to 10162
  140.7820  143.4331  151.0663 LP  0  0  0  0  0  0  0  0  0  0  0  0  # atno 17343 bound_to 10162
  156.0807  130.3673  150.0585 LP  0  0  0  0  0  0  0  0  0  0  0  0  # atno 17370 bound_to 10713
  156.8731  130.9531  151.3607 LP  0  0  0  0  0  0  0  0  0  0  0  0  # atno 17371 bound_to 10713
  140.9393  133.7525  156.0126 LP  0  0  0  0  0  0  0  0  0  0  0  0  # atno 17394 bound_to 11000
  140.8238  134.3258  157.5372 LP  0  0  0  0  0  0  0  0  0  0  0  0  # atno 17395 bound_to 11000

$$$$
