AV-unprocessed.smi:99|AV-procd|sdf|896|dock7
  -GOLD-   2262017393D 1   1.00000     0.00000
 Structure written by MMmdl.
 52 55  0  0  0  0  0  0  0  0  2 V2000
  146.7357  137.4118  158.7746 O   0  0  0  0  0  0  0  0  0  0  0  0
  146.5723  136.2272  159.0728 C   0  0  0  0  0  0  0  0  0  0  0  0
  146.2256  135.2737  158.1871 O   0  0  0  0  0  0  0  0  0  0  0  0
  146.0194  135.5944  156.8207 C   0  0  0  0  0  0  0  0  0  0  0  0
  147.3753  135.6022  156.1034 C   0  0  1  0  0  0  0  0  0  0  0  0
  148.3928  136.0500  156.9930 O   0  0  0  0  0  0  0  0  0  0  0  0
  149.6394  135.5556  156.5850 C   0  0  2  0  0  0  0  0  0  0  0  0
  150.5048  136.7035  156.1004 N   0  0  0  0  0  0  0  0  0  0  0  0
  149.9713  137.7593  155.3788 C   0  0  0  0  0  0  0  0  0  0  0  0
  150.7459  138.7759  154.9473 C   0  0  0  0  0  0  0  0  0  0  0  0
  152.1754  138.7653  155.2448 C   0  0  0  0  0  0  0  0  0  0  0  0
  152.8725  139.6982  154.8510 O   0  0  0  0  0  0  0  0  0  0  0  0
  152.6772  137.7109  155.9504 N   0  5  0  0  0  0  0  0  0  0  0  0
  151.8967  136.6788  156.3846 C   0  0  0  0  0  0  0  0  0  0  0  0
  152.3395  135.7127  157.0067 O   0  0  0  0  0  0  0  0  0  0  0  0
  149.3787  134.4891  155.4931 C   0  0  2  0  0  0  0  0  0  0  0  0
  149.6437  134.9657  154.1817 O   0  0  0  0  0  0  0  0  0  0  0  0
  147.8951  134.2236  155.6991 C   0  0  2  0  0  0  0  0  0  0  0  0
  147.2815  133.6709  154.5371 O   0  0  0  0  0  0  0  0  0  0  0  0
  147.6346  132.4556  154.0650 C   0  0  0  0  0  0  0  0  0  0  0  0
  148.5468  131.7733  154.5358 O   0  0  0  0  0  0  0  0  0  0  0  0
  146.7712  132.0030  152.9374 C   0  0  0  0  0  0  0  0  0  0  0  0
  146.1406  132.9678  152.1177 C   0  0  0  0  0  0  0  0  0  0  0  0
  145.3405  132.5708  151.0289 C   0  0  0  0  0  0  0  0  0  0  0  0
  145.1587  131.2041  150.7488 C   0  0  0  0  0  0  0  0  0  0  0  0
  145.7777  130.2347  151.5591 C   0  0  0  0  0  0  0  0  0  0  0  0
  146.5800  130.6298  152.6472 C   0  0  0  0  0  0  0  0  0  0  0  0
  146.7637  135.6886  160.4505 C   0  0  0  0  0  0  0  0  0  0  0  0
  146.5853  134.3055  160.6859 C   0  0  0  0  0  0  0  0  0  0  0  0
  146.7359  133.7734  161.9813 C   0  0  0  0  0  0  0  0  0  0  0  0
  147.0667  134.6177  163.0570 C   0  0  0  0  0  0  0  0  0  0  0  0
  147.2511  135.9947  162.8351 C   0  0  0  0  0  0  0  0  0  0  0  0
  147.1033  136.5280  161.5402 C   0  0  0  0  0  0  0  0  0  0  0  0
  145.3619  134.8448  156.3795 H   0  0  0  0  0  0  0  0  0  0  0  0
  145.5347  136.5655  156.7081 H   0  0  0  0  0  0  0  0  0  0  0  0
  147.3480  136.2707  155.2412 H   0  0  0  0  0  0  0  0  0  0  0  0
  150.1399  135.1582  157.4697 H   0  0  0  0  0  0  0  0  0  0  0  0
  148.9183  137.7833  155.1445 H   0  0  0  0  0  0  0  0  0  0  0  0
  150.3138  139.5903  154.3845 H   0  0  0  0  0  0  0  0  0  0  0  0
  149.9857  133.6034  155.6818 H   0  0  0  0  0  0  0  0  0  0  0  0
  148.9373  135.5409  153.9282 H   0  0  0  0  0  0  0  0  0  0  0  0
  147.7991  133.5523  156.5540 H   0  0  0  0  0  0  0  0  0  0  0  0
  146.2721  134.0230  152.3087 H   0  0  0  0  0  0  0  0  0  0  0  0
  144.8686  133.3166  150.4066 H   0  0  0  0  0  0  0  0  0  0  0  0
  144.5457  130.8994  149.9135 H   0  0  0  0  0  0  0  0  0  0  0  0
  145.6380  129.1853  151.3461 H   0  0  0  0  0  0  0  0  0  0  0  0
  147.0427  129.8606  153.2481 H   0  0  0  0  0  0  0  0  0  0  0  0
  146.3243  133.6386  159.8768 H   0  0  0  0  0  0  0  0  0  0  0  0
  146.5942  132.7160  162.1496 H   0  0  0  0  0  0  0  0  0  0  0  0
  147.1782  134.2102  164.0507 H   0  0  0  0  0  0  0  0  0  0  0  0
  147.5012  136.6456  163.6597 H   0  0  0  0  0  0  0  0  0  0  0  0
  147.2444  137.5907  161.4073 H   0  0  0  0  0  0  0  0  0  0  0  0
  1  2  2  0  0  0  0
  2  3  1  0  0  0  0
  2 28  1  0  0  0  0
  3  4  1  0  0  0  0
  4  5  1  0  0  0  0
  4 34  1  0  0  0  0
  4 35  1  0  0  0  0
  5 18  1  0  0  0  0
  5  6  1  0  0  0  0
  5 36  1  0  0  0  0
  6  7  1  0  0  0  0
  7  8  1  0  0  0  0
  7 16  1  0  0  0  0
  7 37  1  0  0  0  0
  8 14  1  0  0  0  0
  8  9  1  0  0  0  0
  9 10  2  0  0  0  0
  9 38  1  0  0  0  0
 10 11  1  0  0  0  0
 10 39  1  0  0  0  0
 11 12  2  0  0  0  0
 11 13  1  0  0  0  0
 13 14  1  0  0  0  0
 14 15  2  0  0  0  0
 16 17  1  0  0  0  0
 16 18  1  0  0  0  0
 16 40  1  0  0  0  0
 17 41  1  0  0  0  0
 18 19  1  0  0  0  0
 18 42  1  0  0  0  0
 19 20  1  0  0  0  0
 20 21  2  0  0  0  0
 20 22  1  0  0  0  0
 22 27  1  0  0  0  0
 22 23  2  0  0  0  0
 23 24  1  0  0  0  0
 23 43  1  0  0  0  0
 24 25  2  0  0  0  0
 24 44  1  0  0  0  0
 25 26  1  0  0  0  0
 25 45  1  0  0  0  0
 26 27  2  0  0  0  0
 26 46  1  0  0  0  0
 27 47  1  0  0  0  0
 28 33  1  0  0  0  0
 28 29  2  0  0  0  0
 29 30  1  0  0  0  0
 29 48  1  0  0  0  0
 30 31  2  0  0  0  0
 30 49  1  0  0  0  0
 31 32  1  0  0  0  0
 31 50  1  0  0  0  0
 32 33  2  0  0  0  0
 32 51  1  0  0  0  0
 33 52  1  0  0  0  0
M  CHG  1  13  -1
M  END
> <s_m_source_file>
AV-unprocessed.smi

> <i_m_source_file_index>
99

> <i_lp_mmshare_version>
43012

> <i_f3d_flags>
0

> <s_epik_input>
W2NIXTFbY0hdW2NIXVtjSF1bY0hdYzFDKD1PKU9bQ0gyXVtDQEBIXTJPW0NAQEhdKG4zW2NIXVtjSF1jKD1PKVtuSF1jMz1PKVtDQEBIXShbT0hdKVtDQEhdMk9DKD1PKWM0W2NIXVtjSF1bY0hdW2NIXVtjSF00

> <s_epik_cmdline>
J2VwaWtfcHl0aG9uJywgJy1waCcsICc3LjAnLCAnLXRuJywgJzgnLCAnLW1hJywgJzIwMCcsICctbWV0YWxfYmluZGluZycsICctaW1hZScsICc8aW5maWxlLm1hZT4nLCAnLW9tYWUnLCAnPG91dGZpbGUubWFlPic=

> <r_lp_tautomer_probability>
1

> <r_epik_Ionization_Penalty>
2.89159

> <r_epik_Ionization_Penalty_Charging>
2.1077e-08

> <r_epik_Ionization_Penalty_Neutral>
2.89159

> <r_epik_State_Penalty>
2.88671

> <r_epik_Charging_Adjusted_Penalty>
2.88671

> <i_epik_Tot_Q>
-1

> <i_epik_Tot_abs_Q>
1

> <r_epik_Metal_State_Penalty>
0.0727308

> <b_epik_Metal_Only>
1

> <s_epik_Chemistry_Notes>
This compound has an ester and may undergo hydrolysis at high or low pH. This compound contains an acetal/aminal-like group ( X-CH(R)-Y where X, Y are N, S, or O) that may be acid/base labile, releasing an aldehyde.

> <s_lp_Force_Field>
OPLS_2005

> <r_lp_Energy>
52.3549

> <b_lp_Chiralities_Consistent>
1

> <s_lp_Variant>
AV-unprocessed.smi:99-32

> <Gold.Version>
5.8.1

> <Gold.Id.Protein>
6NUR|6NUR_protein|mol2

> <Gold.PLP.Fitness>
51.4629

> <Gold.PLP.PLP>
-46.8478

> <Gold.PLP.part.hbond>
-5.4876

> <Gold.PLP.part.metal>
0.0000

> <Gold.PLP.part.buried>
-2.7068

> <Gold.PLP.part.nonpolar>
-39.4288

> <Gold.PLP.part.repulsive>
0.1290

> <Gold.PLP.ligand.clash>
0.0000

> <Gold.PLP.ligand.torsion>
1.3356

> <Gold.PLP.Chemscore.Hbond>
2.2901

> <Gold.PLP.Chemscore.CHOScore>
0.0000

> <Gold.PLP.Chemscore.Metal>
0.0000

> <Gold.Chemscore.Hbonds>
donor molecule, donor type, donor heavy atom, donor atom, acceptor molecule, acceptor atom, score
      L1  H    17    41       P1  7948  0.21
      P1  H  7989  7998       L1    12  0.33
      P1  H  7997  8008       L1    12  1.00
      P1  H 10752 10763       L1    15  0.31

> <Gold.PLP.Chemscore.Internal.Correction>
0.4159

> <Gold.Rescore>
     Score         DG    S(hbond)    S(metal)    S(lipo)     H(rot)  DE(clash)    DE(int)     intcor
     10.50     -14.92       1.35        0.00     110.68       3.13       0.37       4.04       ----

> <Gold.Chemscore.Fitness>
10.5004

> <Gold.Chemscore.DG>
-14.9158

> <Gold.Chemscore.ZeroCoef>
-5.4800

> <Gold.Chemscore.Hbond>
1.3506

> <Gold.Chemscore.Metal>
0.0000

> <Gold.Chemscore.Lipo>
110.6777

> <Gold.Chemscore.Internal_Hbond>
0.0000

> <Gold.Chemscore.DEClash>
0.3729

> <Gold.Chemscore.DEInternal>
4.0425

> <Gold.Chemscore.Rot>
3.1346

> <Gold.Chemscore.Internal.Correction>
   9.000000E+99

> <Gold.Chemscore.Hbonds>
donor molecule, donor type, donor heavy atom, donor atom, acceptor molecule, acceptor atom, score
      L1  H    17    41       P1  7948  0.18
      P1  H  7989  7998       L1    12  0.22
      P1  H  7997  8008       L1    12  0.93
      P1  H 10752 10763       L1    15  0.01

> <Gold.Chemscore.Hbond.Weighted>
-4.5111

> <Gold.Chemscore.Metal.Weighted>
-0.0000

> <Gold.Chemscore.Lipo.Weighted>
-12.9493

> <Gold.Chemscore.Internal_Hbond.Weighted>
0.0000

> <Gold.Chemscore.DEClash.Weighted>
0.3729

> <Gold.Chemscore.DEInternal.Weighted>
4.0425

> <Gold.Chemscore.Rot.Weighted>
8.0246

> <Gold.Chemscore.Internal.Correction.Weighted>
   9.000000E+99

> <Gold.Protein.RotatedTorsions>
[ 6907 6896 6895 6894 ] final   12.33 input  -60.11 | X-H torsion
[ 7974 7965 7964 7962 ] final -121.07 input  175.53 | X-H torsion
[ 8008 7997 7996 7995 ] final  -20.83 input   59.86 | X-H torsion
[ 10167 10162 10161 10158 ] final   88.54 input  -65.29 | X-H torsion
[ 10718 10713 10712 10709 ] final  160.18 input   66.30 | X-H torsion
[ 10763 10752 10751 10750 ] final  129.33 input  -60.55 | X-H torsion
[ 11005 11000 10999 10996 ] final -160.92 input  -57.11 | X-H torsion

> <Gold.Protein.ActiveResidues>
 VAL166  LYS551  ARG553  GLY616  TRP617  ASP618  TYR619  PRO620  LYS621  CYS622 
 ASP623  PHE694  ASN695  SER759  ASP760  ASP761  ALA762  ILE779  LEU786  VAL792 
 PHE793  MET794  SER795  GLU796  ALA797  LYS798  CYS799  TRP800  GLU811  SER814 

> <Gold.Protein.RotatedAtoms>
  151.7686  135.0792  160.0356 H   0  0  0  0  0  0  0  0  0  0  0  0  # atno 6907 bound_to 6896
  152.3304  133.5948  159.5814 H   0  0  0  0  0  0  0  0  0  0  0  0  # atno 6908 bound_to 6896
  150.7419  133.9792  159.3612 H   0  0  0  0  0  0  0  0  0  0  0  0  # atno 6909 bound_to 6896
  145.0444  140.8169  143.4247 H   0  0  0  0  0  0  0  0  0  0  0  0  # atno 7974 bound_to 7965
  154.4744  140.2051  155.9914 H   0  0  0  0  0  0  0  0  0  0  0  0  # atno 8008 bound_to 7997
  156.1065  140.3236  155.7984 H   0  0  0  0  0  0  0  0  0  0  0  0  # atno 8009 bound_to 7997
  155.4708  140.0531  157.2970 H   0  0  0  0  0  0  0  0  0  0  0  0  # atno 8010 bound_to 7997
  139.8663  144.6517  150.9001 H   0  0  0  0  0  0  0  0  0  0  0  0  # atno 10167 bound_to 10162
  157.1540  131.0571  151.2266 H   0  0  0  0  0  0  0  0  0  0  0  0  # atno 10718 bound_to 10713
  153.7400  135.3225  155.3302 H   0  0  0  0  0  0  0  0  0  0  0  0  # atno 10763 bound_to 10752
  154.8298  135.4542  154.1036 H   0  0  0  0  0  0  0  0  0  0  0  0  # atno 10764 bound_to 10752
  153.2208  135.6948  153.8084 H   0  0  0  0  0  0  0  0  0  0  0  0  # atno 10765 bound_to 10752
  140.6262  134.4699  157.5227 H   0  0  0  0  0  0  0  0  0  0  0  0  # atno 11005 bound_to 11000
  145.1607  139.2460  143.5393 LP  0  0  0  0  0  0  0  0  0  0  0  0  # atno 17320 bound_to 7965
  146.3512  140.1333  142.8596 LP  0  0  0  0  0  0  0  0  0  0  0  0  # atno 17321 bound_to 7965
  140.7767  143.3702  151.1664 LP  0  0  0  0  0  0  0  0  0  0  0  0  # atno 17342 bound_to 10162
  139.7326  143.9048  152.3024 LP  0  0  0  0  0  0  0  0  0  0  0  0  # atno 17343 bound_to 10162
  157.4194  130.7429  149.6901 LP  0  0  0  0  0  0  0  0  0  0  0  0  # atno 17370 bound_to 10713
  155.9765  130.4074  150.3773 LP  0  0  0  0  0  0  0  0  0  0  0  0  # atno 17371 bound_to 10713
  139.9134  134.8297  156.1449 LP  0  0  0  0  0  0  0  0  0  0  0  0  # atno 17394 bound_to 11000
  141.0708  133.6798  156.2136 LP  0  0  0  0  0  0  0  0  0  0  0  0  # atno 17395 bound_to 11000

$$$$
