#       Name:                AV-unprocessed.smi:2892
#       Creating user name   scv26
#       Creation time:       Fri Mar 27 15:59:12 2020


#       File generated by GOLD software.
#

@<TRIPOS>MOLECULE
AV-unprocessed.smi:2892
    49    49     1
SMALL
NO_CHARGES


@<TRIPOS>ATOM
      1 ****        -4.3704  -1.0910  -1.3931 C.3            1 S1                 0.0000
      2 ****        -3.8728   0.1973  -0.7210 C.3            1 S1                 0.0000
      3 ****        -2.3339   0.3928  -0.7688 C.3            1 S1                 0.0000
      4 ****        -1.6282  -0.7052   0.0610 C.3            1 S1                 0.0000
      5 ****        -1.8982   1.8164  -0.2997 C.3            1 S1                 0.0000
      6 ****        -0.4421   1.9210  -0.3785 N.am           1 S1                 0.0000
      7 ****         0.3536   2.5927   0.4701 C.2            1 S1                 0.0000
      8 ****        -0.0691   3.2456   1.4240 O.2            1 S1                 0.0000
      9 ****         1.8619   2.5206   0.2049 C.3            1 S1                 0.0000
     10 ****         2.2986   1.1088  -0.0969 C.2            1 S1                 0.0000
     11 ****         2.6526   0.5527  -1.3592 C.2            1 S1                 0.0000
     12 ****         2.9249  -0.7554  -1.0794 C.2            1 S1                 0.0000
     13 ****         2.7451  -0.9335   0.2759 N.pl3          1 S1                 0.0000
     14 ****         2.8840  -2.1585   1.0491 C.3            1 S1                 0.0000
     15 ****         1.5198  -2.6338   1.5743 C.3            1 S1                 0.0000
     16 ****         3.9103  -1.9947   2.1822 C.3            1 S1                 0.0000
     17 ****         2.3674   0.2150   0.8798 N.2            1 S1                 0.0000
     18 ****        -2.4897   2.9058  -1.2132 C.2            1 S1                 0.0000
     19 ****        -2.1744   2.8855  -2.4246 O.co2          1 S1                 0.0000
     20 ****        -3.2518   3.7413  -0.6797 O.co2          1 S1                -1.0000
     21 ****        -5.4599  -1.1117  -1.4202 H              1 S1                 0.0000
     22 ****        -4.0456  -1.9831  -0.8587 H              1 S1                 0.0000
     23 ****        -4.0138  -1.1616  -2.4210 H              1 S1                 0.0000
     24 ****        -4.3764   1.0236  -1.2217 H              1 S1                 0.0000
     25 ****        -4.2162   0.2260   0.3137 H              1 S1                 0.0000
     26 ****        -2.0163   0.2649  -1.8051 H              1 S1                 0.0000
     27 ****        -1.8979  -0.6372   1.1153 H              1 S1                 0.0000
     28 ****        -0.5424  -0.6366  -0.0057 H              1 S1                 0.0000
     29 ****        -1.8863  -1.7050  -0.2850 H              1 S1                 0.0000
     30 ****        -2.2366   1.9765   0.7260 H              1 S1                 0.0000
     31 ****        -0.0032   1.4315  -1.1443 H              1 S1                 0.0000
     32 ****         2.0984   3.1796  -0.6310 H              1 S1                 0.0000
     33 ****         2.4019   2.9082   1.0698 H              1 S1                 0.0000
     34 ****         2.6851   1.0374  -2.3237 H              1 S1                 0.0000
     35 ****         3.2228  -1.5666  -1.7271 H              1 S1                 0.0000
     36 ****         3.2627  -2.9238   0.3703 H              1 S1                 0.0000
     37 ****         1.6125  -3.5853   2.0981 H              1 S1                 0.0000
     38 ****         0.8121  -2.7757   0.7569 H              1 S1                 0.0000
     39 ****         1.0847  -1.9144   2.2690 H              1 S1                 0.0000
     40 ****         4.0678  -2.9388   2.7040 H              1 S1                 0.0000
     41 ****         3.5821  -1.2615   2.9199 H              1 S1                 0.0000
     42 ****         4.8752  -1.6684   1.7929 H              1 S1                 0.0000
     43 ****        -1.0523   3.2954   1.5994 LP             1 S1                 0.0000
     44 ****         0.5708   3.7262   2.0237 LP             1 S1                 0.0000
     45 ****         2.1806   0.3592   1.8516 LP             1 S1                 0.0000
     46 ****        -2.5406   3.5761  -3.0482 LP             1 S1                 0.0000
     47 ****        -1.5562   2.1787  -2.7686 LP             1 S1                 0.0000
     48 ****        -3.6625   4.4672  -1.2314 LP             1 S1                 0.0000
     49 ****        -3.4505   3.6835   0.2987 LP             1 S1                 0.0000
@<TRIPOS>BOND
    1    1    2 1     
    2    1   21 1     
    3    1   22 1     
    4    1   23 1     
    5    2    3 1     
    6    2   24 1     
    7    2   25 1     
    8    3    4 1     
    9    3    5 1     
   10    3   26 1     
   11    4   27 1     
   12    4   28 1     
   13    4   29 1     
   14    5    6 1     
   15    5   18 1     
   16    5   30 1     
   17    6    7 am    
   18    6   31 1     
   19    7    8 2     
   20    7    9 1     
   21    9   10 1     
   22    9   32 1     
   23    9   33 1     
   24   10   17 2     
   25   10   11 1     
   26   11   12 2     
   27   11   34 1     
   28   12   13 1     
   29   12   35 1     
   30   13   14 1     
   31   13   17 1     
   32   14   15 1     
   33   14   16 1     
   34   14   36 1     
   35   15   37 1     
   36   15   38 1     
   37   15   39 1     
   38   16   40 1     
   39   16   41 1     
   40   16   42 1     
   41   18   19 ar    
   42   18   20 ar    
   43    8   43 1     
   44    8   44 1     
   45   17   45 1     
   46   19   46 1     
   47   19   47 1     
   48   20   48 1     
   49   20   49 1     
@<TRIPOS>SUBSTRUCTURE
      1 S1             1
@<TRIPOS>SET
LONE_PAIRS      STATIC     ATOMS    <user>   **** ""
7 43 44 45 46 47 48 49
DONOR_HYDROGENS      STATIC     ATOMS    <user>   **** ""
1 31
ATOM$BLUE        STATIC     ATOMS    COLORGROUP SYSTEM
7 43 44 45 46 47 48 49
ATOM$RED        STATIC     ATOMS    COLORGROUP SYSTEM
1 31
