AV-unprocessed.smi:109|AV-procd|sdf|1048|dock6
  -GOLD-   2262018 93D 1   1.00000     0.00000
 Structure written by MMmdl.
 58 61  0  0  0  0  0  0  0  0  1 V2000
  150.9305  144.6034  157.7340 O   0  0  0  0  0  0  0  0  0  0  0  0
  152.1535  144.0500  157.2986 C   0  0  0  0  0  0  0  0  0  0  0  0
  152.9420  143.5047  158.5024 C   0  0  0  0  0  0  0  0  0  0  0  0
  152.2018  142.4008  159.2975 C   0  0  1  0  0  0  0  0  0  0  0  0
  152.5011  141.0932  158.7087 N   0  0  0  0  0  0  0  0  0  0  0  0
  152.0388  140.7317  157.4909 C   0  0  0  0  0  0  0  0  0  0  0  0
  152.6812  139.8048  156.7333 N   0  0  0  0  0  0  0  0  0  0  0  0
  152.1946  139.4629  155.5364 C   0  0  0  0  0  0  0  0  0  0  0  0
  151.0997  139.9150  154.9205 N   0  0  0  0  0  0  0  0  0  0  0  0
  150.4526  140.8470  155.6786 C   0  0  0  0  0  0  0  0  0  0  0  0
  150.8547  141.3067  156.9626 C   0  0  0  0  0  0  0  0  0  0  0  0
  149.9474  142.2482  157.4300 N   0  0  0  0  0  0  0  0  0  0  0  0
  149.0580  142.3297  156.4767 C   0  0  0  0  0  0  0  0  0  0  0  0
  149.2856  141.5178  155.3855 N   0  0  0  0  0  0  0  0  0  0  0  0
  148.4700  141.3521  154.1384 C   0  0  2  0  0  0  0  0  0  0  0  0
  147.6195  142.4554  154.0482 O   0  0  0  0  0  0  0  0  0  0  0  0
  146.2551  142.0571  154.1554 C   0  0  2  0  0  0  0  0  0  0  0  0
  145.4724  143.0969  154.9741 C   0  0  0  0  0  0  0  0  0  0  0  0
  144.0866  142.9793  154.7340 O   0  0  0  0  0  0  0  0  0  0  0  0
  146.2872  140.6480  154.7592 C   0  0  1  0  0  0  0  0  0  0  0  0
  145.1914  139.8792  154.3048 O   0  0  0  0  0  0  0  0  0  0  0  0
  147.5870  140.0910  154.2038 C   0  0  2  0  0  0  0  0  0  0  0  0
  148.0936  139.0645  155.0387 O   0  0  0  0  0  0  0  0  0  0  0  0
  152.5536  142.3773  160.8127 C   0  0  0  0  0  0  0  0  0  0  0  0
  152.3970  143.7872  161.4383 C   0  0  0  0  0  0  0  0  0  0  0  0
  152.7394  143.8099  162.9361 C   0  0  0  0  0  0  0  0  0  0  0  0
  154.1595  143.2893  163.1867 C   0  0  0  0  0  0  0  0  0  0  0  0
  154.3279  141.8827  162.6006 C   0  0  0  0  0  0  0  0  0  0  0  0
  153.9823  141.8524  161.1026 C   0  0  0  0  0  0  0  0  0  0  0  0
  149.1986  141.3421  153.3269 H   0  0  0  0  0  0  0  0  0  0  0  0
  145.8716  142.0172  153.1337 H   0  0  0  0  0  0  0  0  0  0  0  0
  146.3109  140.6919  155.8493 H   0  0  0  0  0  0  0  0  0  0  0  0
  147.4532  139.7238  153.1850 H   0  0  0  0  0  0  0  0  0  0  0  0
  150.2828  144.4727  157.0584 H   0  0  0  0  0  0  0  0  0  0  0  0
  151.9463  143.2543  156.5827 H   0  0  0  0  0  0  0  0  0  0  0  0
  152.7147  144.8240  156.7749 H   0  0  0  0  0  0  0  0  0  0  0  0
  153.9121  143.1322  158.1699 H   0  0  0  0  0  0  0  0  0  0  0  0
  153.1445  144.3533  159.1538 H   0  0  0  0  0  0  0  0  0  0  0  0
  151.1361  142.6180  159.2338 H   0  0  0  0  0  0  0  0  0  0  0  0
  153.1853  140.5441  159.2090 H   0  0  0  0  0  0  0  0  0  0  0  0
  152.7631  138.7197  154.9967 H   0  0  0  0  0  0  0  0  0  0  0  0
  148.2053  142.9869  156.5507 H   0  0  0  0  0  0  0  0  0  0  0  0
  145.6678  142.9926  156.0410 H   0  0  0  0  0  0  0  0  0  0  0  0
  145.7786  144.1034  154.6879 H   0  0  0  0  0  0  0  0  0  0  0  0
  143.9387  143.0149  153.8012 H   0  0  0  0  0  0  0  0  0  0  0  0
  144.6842  140.4083  153.7082 H   0  0  0  0  0  0  0  0  0  0  0  0
  148.5606  138.4437  154.5001 H   0  0  0  0  0  0  0  0  0  0  0  0
  151.8505  141.7080  161.3115 H   0  0  0  0  0  0  0  0  0  0  0  0
  153.0393  144.4938  160.9107 H   0  0  0  0  0  0  0  0  0  0  0  0
  151.3777  144.1536  161.3146 H   0  0  0  0  0  0  0  0  0  0  0  0
  152.6432  144.8247  163.3230 H   0  0  0  0  0  0  0  0  0  0  0  0
  152.0215  143.1993  163.4853 H   0  0  0  0  0  0  0  0  0  0  0  0
  154.8856  143.9660  162.7341 H   0  0  0  0  0  0  0  0  0  0  0  0
  154.3707  143.2766  164.2564 H   0  0  0  0  0  0  0  0  0  0  0  0
  155.3516  141.5385  162.7517 H   0  0  0  0  0  0  0  0  0  0  0  0
  153.6855  141.1837  163.1377 H   0  0  0  0  0  0  0  0  0  0  0  0
  154.0929  140.8232  160.7649 H   0  0  0  0  0  0  0  0  0  0  0  0
  154.7120  142.4436  160.5478 H   0  0  0  0  0  0  0  0  0  0  0  0
  1  2  1  0  0  0  0
  1 34  1  0  0  0  0
  2  3  1  0  0  0  0
  2 35  1  0  0  0  0
  2 36  1  0  0  0  0
  3  4  1  0  0  0  0
  3 37  1  0  0  0  0
  3 38  1  0  0  0  0
  4  5  1  0  0  0  0
  4 24  1  0  0  0  0
  4 39  1  0  0  0  0
  5  6  1  0  0  0  0
  5 40  1  0  0  0  0
  6 11  1  0  0  0  0
  6  7  2  0  0  0  0
  7  8  1  0  0  0  0
  8  9  2  0  0  0  0
  8 41  1  0  0  0  0
  9 10  1  0  0  0  0
 10 14  1  0  0  0  0
 10 11  2  0  0  0  0
 11 12  1  0  0  0  0
 12 13  2  0  0  0  0
 13 14  1  0  0  0  0
 13 42  1  0  0  0  0
 14 15  1  0  0  0  0
 15 30  1  0  0  0  0
 15 22  1  0  0  0  0
 15 16  1  0  0  0  0
 16 17  1  0  0  0  0
 17 31  1  0  0  0  0
 17 18  1  0  0  0  0
 17 20  1  0  0  0  0
 18 19  1  0  0  0  0
 18 43  1  0  0  0  0
 18 44  1  0  0  0  0
 19 45  1  0  0  0  0
 20 32  1  0  0  0  0
 20 21  1  0  0  0  0
 20 22  1  0  0  0  0
 21 46  1  0  0  0  0
 22 33  1  0  0  0  0
 22 23  1  0  0  0  0
 23 47  1  0  0  0  0
 24 29  1  0  0  0  0
 24 25  1  0  0  0  0
 24 48  1  0  0  0  0
 25 26  1  0  0  0  0
 25 49  1  0  0  0  0
 25 50  1  0  0  0  0
 26 27  1  0  0  0  0
 26 51  1  0  0  0  0
 26 52  1  0  0  0  0
 27 28  1  0  0  0  0
 27 53  1  0  0  0  0
 27 54  1  0  0  0  0
 28 29  1  0  0  0  0
 28 55  1  0  0  0  0
 28 56  1  0  0  0  0
 29 57  1  0  0  0  0
 29 58  1  0  0  0  0
M  END
> <s_m_source_file>
AV-unprocessed.smi

> <i_m_source_file_index>
109

> <i_lp_mmshare_version>
43012

> <i_f3d_flags>
0

> <s_epik_input>
W0NIMl0xW0NIMl1bQ0gyXVtDSDJdW0NIMl1bQ0hdMVtDQEhdKFtDSDJdW0NIMl1bT0hdKVtOSF1jKG5bY0hdbjIpYyhjMjMpbltjSF1uM1tDQEBIXTRPW0NASF0oW0NIMl1bT0hdKVtDQEBIXShbT0hdKVtDQEhdNFtPSF0=

> <s_epik_cmdline>
J2VwaWtfcHl0aG9uJywgJy1waCcsICc3LjAnLCAnLXRuJywgJzgnLCAnLW1hJywgJzIwMCcsICctbWV0YWxfYmluZGluZycsICctaW1hZScsICc8aW5maWxlLm1hZT4nLCAnLW9tYWUnLCAnPG91dGZpbGUubWFlPic=

> <r_lp_tautomer_probability>
1

> <r_epik_Ionization_Penalty>
0.000793976

> <r_epik_Ionization_Penalty_Charging>
0

> <r_epik_Ionization_Penalty_Neutral>
0.000793976

> <r_epik_State_Penalty>
-0

> <r_epik_Charging_Adjusted_Penalty>
0

> <i_epik_Tot_Q>
0

> <i_epik_Tot_abs_Q>
0

> <r_epik_Metal_State_Penalty>
-0

> <b_epik_Metal_Only>
0

> <s_epik_Chemistry_Notes>
This compound contains an acetal/aminal-like group ( X-CH(R)-Y where X, Y are N, S, or O) that may be acid/base labile, releasing an aldehyde.

> <s_lp_Force_Field>
OPLS_2005

> <r_lp_Energy>
53.2153

> <b_lp_Chiralities_Consistent>
1

> <s_lp_Variant>
AV-unprocessed.smi:109-18

> <Gold.Version>
5.8.1

> <Gold.Id.Protein>
6NUR|6NUR_protein|mol2

> <Gold.PLP.Fitness>
64.6913

> <Gold.PLP.PLP>
-52.3638

> <Gold.PLP.part.hbond>
-5.4949

> <Gold.PLP.part.metal>
0.0000

> <Gold.PLP.part.buried>
2.0568

> <Gold.PLP.part.nonpolar>
-50.2061

> <Gold.PLP.part.repulsive>
0.9411

> <Gold.PLP.ligand.clash>
0.0000

> <Gold.PLP.ligand.torsion>
1.4157

> <Gold.PLP.Chemscore.Hbond>
4.5773

> <Gold.PLP.Chemscore.CHOScore>
0.4202

> <Gold.PLP.Chemscore.Metal>
0.0000

> <Gold.Chemscore.Hbonds>
donor molecule, donor type, donor heavy atom, donor atom, acceptor molecule, acceptor atom, score
      L1  H     1    34       P1  8028  1.00
      L1  H    19    45       P1 10174  0.52
      L1  H    21    46       P1 10175  0.98
      P1  H  7989  7998       L1     9  1.00
      P1  H  7997  8010       L1     7  1.00
      L1  C    13    42       P1  8028  0.48

> <Gold.PLP.Chemscore.Internal.Correction>
0.1663

> <Gold.Rescore>
     Score         DG    S(hbond)    S(metal)    S(lipo)     H(rot)  DE(clash)    DE(int)     intcor
      7.16     -14.81       2.53        0.00     127.17       5.47       4.92       2.73       ----

> <Gold.Chemscore.Fitness>
7.1557

> <Gold.Chemscore.DG>
-14.8081

> <Gold.Chemscore.ZeroCoef>
-5.4800

> <Gold.Chemscore.Hbond>
2.5277

> <Gold.Chemscore.Metal>
0.0000

> <Gold.Chemscore.Lipo>
127.1700

> <Gold.Chemscore.Internal_Hbond>
0.0000

> <Gold.Chemscore.DEClash>
4.9209

> <Gold.Chemscore.DEInternal>
2.7314

> <Gold.Chemscore.Rot>
5.4662

> <Gold.Chemscore.Internal.Correction>
   9.000000E+99

> <Gold.Chemscore.Hbonds>
donor molecule, donor type, donor heavy atom, donor atom, acceptor molecule, acceptor atom, score
      L1  H     1    34       P1  8028  0.73
      L1  H    19    45       P1 10174  0.07
      L1  H    21    46       P1 10175  0.91
      P1  H  7989  7998       L1     9  0.24
      P1  H  7997  8010       L1     7  0.50

> <Gold.Chemscore.Hbond.Weighted>
-8.4427

> <Gold.Chemscore.Metal.Weighted>
-0.0000

> <Gold.Chemscore.Lipo.Weighted>
-14.8789

> <Gold.Chemscore.Internal_Hbond.Weighted>
0.0000

> <Gold.Chemscore.DEClash.Weighted>
4.9209

> <Gold.Chemscore.DEInternal.Weighted>
2.7314

> <Gold.Chemscore.Rot.Weighted>
13.9935

> <Gold.Chemscore.Internal.Correction.Weighted>
   9.000000E+99

> <Gold.Protein.RotatedTorsions>
[ 6907 6896 6895 6894 ] final  -35.67 input  -60.11 | X-H torsion
[ 7974 7965 7964 7962 ] final   40.71 input  175.53 | X-H torsion
[ 8008 7997 7996 7995 ] final   68.25 input   59.86 | X-H torsion
[ 10167 10162 10161 10158 ] final  101.21 input  -65.29 | X-H torsion
[ 10718 10713 10712 10709 ] final  -24.50 input   66.30 | X-H torsion
[ 10763 10752 10751 10750 ] final  -93.02 input  -60.55 | X-H torsion
[ 11005 11000 10999 10996 ] final  -22.74 input  -57.11 | X-H torsion

> <Gold.Protein.ActiveResidues>
 VAL166  LYS551  ARG553  GLY616  TRP617  ASP618  TYR619  PRO620  LYS621  CYS622 
 ASP623  PHE694  ASN695  SER759  ASP760  ASP761  ALA762  ILE779  LEU786  VAL792 
 PHE793  MET794  SER795  GLU796  ALA797  LYS798  CYS799  TRP800  GLU811  SER814 

> <Gold.Protein.RotatedAtoms>
  151.0369  134.9579  159.8140 H   0  0  0  0  0  0  0  0  0  0  0  0  # atno 6907 bound_to 6896
  152.5356  134.2708  159.8981 H   0  0  0  0  0  0  0  0  0  0  0  0  # atno 6908 bound_to 6896
  151.2719  133.4208  159.2656 H   0  0  0  0  0  0  0  0  0  0  0  0  # atno 6909 bound_to 6896
  146.0883  139.5501  142.9492 H   0  0  0  0  0  0  0  0  0  0  0  0  # atno 7974 bound_to 7965
  155.7054  140.3495  155.4951 H   0  0  0  0  0  0  0  0  0  0  0  0  # atno 8008 bound_to 7997
  155.9403  140.1100  157.1083 H   0  0  0  0  0  0  0  0  0  0  0  0  # atno 8009 bound_to 7997
  154.4101  140.1214  156.4905 H   0  0  0  0  0  0  0  0  0  0  0  0  # atno 8010 bound_to 7997
  139.7458  144.6998  151.0506 H   0  0  0  0  0  0  0  0  0  0  0  0  # atno 10167 bound_to 10162
  156.4769  130.4536  149.6835 H   0  0  0  0  0  0  0  0  0  0  0  0  # atno 10718 bound_to 10713
  154.6918  135.5210  153.8403 H   0  0  0  0  0  0  0  0  0  0  0  0  # atno 10763 bound_to 10752
  153.0638  135.6578  154.0411 H   0  0  0  0  0  0  0  0  0  0  0  0  # atno 10764 bound_to 10752
  154.0284  135.2987  155.3351 H   0  0  0  0  0  0  0  0  0  0  0  0  # atno 10765 bound_to 10752
  140.8686  133.7737  156.0159 H   0  0  0  0  0  0  0  0  0  0  0  0  # atno 11005 bound_to 11000
  145.6088  141.0343  143.1978 LP  0  0  0  0  0  0  0  0  0  0  0  0  # atno 17320 bound_to 7965
  144.7341  139.7636  143.7336 LP  0  0  0  0  0  0  0  0  0  0  0  0  # atno 17321 bound_to 7965
  140.7792  143.4868  150.9945 LP  0  0  0  0  0  0  0  0  0  0  0  0  # atno 17342 bound_to 10162
  139.8556  143.7381  152.3176 LP  0  0  0  0  0  0  0  0  0  0  0  0  # atno 17343 bound_to 10162
  156.3561  130.7457  151.2423 LP  0  0  0  0  0  0  0  0  0  0  0  0  # atno 17370 bound_to 10713
  157.7487  131.0363  150.4404 LP  0  0  0  0  0  0  0  0  0  0  0  0  # atno 17371 bound_to 10713
  140.8600  134.2852  157.5239 LP  0  0  0  0  0  0  0  0  0  0  0  0  # atno 17394 bound_to 11000
  139.8711  134.9513  156.4080 LP  0  0  0  0  0  0  0  0  0  0  0  0  # atno 17395 bound_to 11000

$$$$
