AV-unprocessed.smi:56|AV-procd|sdf|579|dock3
  -GOLD-   2262016483D 1   1.00000     0.00000
 Structure written by MMmdl.
 23 24  0  0  0  0  0  0  0  0  2 V2000
  142.8900  133.6115  152.2488 O   0  0  0  0  0  0  0  0  0  0  0  0
  144.2590  133.6512  151.8823 C   0  0  1  0  0  0  0  0  0  0  0  0
  145.0960  134.0316  153.0689 C   0  0  0  0  0  0  0  0  0  0  0  0
  146.0007  135.0392  153.2675 C   0  0  0  0  0  0  0  0  0  0  0  0
  146.4439  134.8555  154.6092 C   0  0  0  0  0  0  0  0  0  0  0  0
  145.8685  133.8224  155.2015 N   0  0  0  0  0  0  0  0  0  0  0  0
  145.0521  133.3273  154.2532 N   0  0  0  0  0  0  0  0  0  0  0  0
  144.6169  132.3132  151.2244 C   0  0  0  0  0  0  0  0  0  0  0  0
  144.0739  132.4336  149.7938 C   0  0  0  0  0  0  0  0  0  0  0  0
  143.9667  133.8786  149.5054 N   0  3  0  0  0  0  0  0  0  0  0  0
  144.4069  134.6211  150.7021 C   0  0  0  0  0  0  0  0  0  0  0  0
  144.4817  132.5107  154.4220 H   0  0  0  0  0  0  0  0  0  0  0  0
  142.7850  133.0336  152.9886 H   0  0  0  0  0  0  0  0  0  0  0  0
  146.3064  135.7977  152.5623 H   0  0  0  0  0  0  0  0  0  0  0  0
  147.1626  135.4391  155.1654 H   0  0  0  0  0  0  0  0  0  0  0  0
  145.7013  132.2089  151.1645 H   0  0  0  0  0  0  0  0  0  0  0  0
  144.2361  131.4446  151.7638 H   0  0  0  0  0  0  0  0  0  0  0  0
  144.7178  131.9334  149.0699 H   0  0  0  0  0  0  0  0  0  0  0  0
  143.0799  131.9909  149.7214 H   0  0  0  0  0  0  0  0  0  0  0  0
  144.5342  134.1312  148.7087 H   0  0  0  0  0  0  0  0  0  0  0  0
  143.8610  135.5562  150.8337 H   0  0  0  0  0  0  0  0  0  0  0  0
  145.4590  134.8716  150.5575 H   0  0  0  0  0  0  0  0  0  0  0  0
  142.9993  134.0985  149.3161 H   0  0  0  0  0  0  0  0  0  0  0  0
  1  2  1  0  0  0  0
  1 13  1  0  0  0  0
  2 11  1  0  0  0  0
  2  3  1  0  0  0  0
  2  8  1  0  0  0  0
  3  7  1  0  0  0  0
  3  4  2  0  0  0  0
  4  5  1  0  0  0  0
  4 14  1  0  0  0  0
  5  6  2  0  0  0  0
  5 15  1  0  0  0  0
  6  7  1  0  0  0  0
  7 12  1  0  0  0  0
  8  9  1  0  0  0  0
  8 16  1  0  0  0  0
  8 17  1  0  0  0  0
  9 10  1  0  0  0  0
  9 18  1  0  0  0  0
  9 19  1  0  0  0  0
 10 11  1  0  0  0  0
 10 20  1  0  0  0  0
 10 23  1  0  0  0  0
 11 21  1  0  0  0  0
 11 22  1  0  0  0  0
M  CHG  1  10   1
M  END
> <s_m_source_file>
AV-unprocessed.smi

> <i_m_source_file_index>
56

> <i_lp_mmshare_version>
43012

> <i_f3d_flags>
0

> <s_epik_input>
W0NIMl0xW05IXVtDSDJdW0NIMl1bQ0BAXTEoW09IXSljMltjSF1bY0hdbltuSF0y

> <s_epik_cmdline>
J2VwaWtfcHl0aG9uJywgJy1waCcsICc3LjAnLCAnLXRuJywgJzgnLCAnLW1hJywgJzIwMCcsICctbWV0YWxfYmluZGluZycsICctaW1hZScsICc8aW5maWxlLm1hZT4nLCAnLW9tYWUnLCAnPG91dGZpbGUubWFlPic=

> <r_lp_tautomer_probability>
0.5

> <r_epik_Ionization_Penalty>
0.00599842

> <r_epik_Ionization_Penalty_Charging>
0.00599115

> <r_epik_Ionization_Penalty_Neutral>
7.26593e-06

> <r_epik_State_Penalty>
0.41068

> <r_epik_Charging_Adjusted_Penalty>
0.416671

> <i_epik_Tot_Q>
1

> <i_epik_Tot_abs_Q>
1

> <r_epik_Metal_State_Penalty>
0.410678

> <b_epik_Metal_Only>
0

> <s_lp_Force_Field>
OPLS_2005

> <r_lp_Energy>
26.3948

> <b_lp_Chiralities_Consistent>
1

> <s_lp_Variant>
AV-unprocessed.smi:56-3

> <Gold.Version>
5.8.1

> <Gold.Id.Protein>
6NUR|6NUR_protein|mol2

> <Gold.PLP.Fitness>
31.2388

> <Gold.PLP.PLP>
-17.5775

> <Gold.PLP.part.hbond>
-3.6898

> <Gold.PLP.part.metal>
0.0000

> <Gold.PLP.part.buried>
-4.1550

> <Gold.PLP.part.nonpolar>
-10.4822

> <Gold.PLP.part.repulsive>
0.1558

> <Gold.PLP.ligand.clash>
0.0000

> <Gold.PLP.ligand.torsion>
0.0782

> <Gold.PLP.Chemscore.Hbond>
4.6010

> <Gold.PLP.Chemscore.CHOScore>
0.0000

> <Gold.PLP.Chemscore.Metal>
0.0000

> <Gold.Chemscore.Hbonds>
donor molecule, donor type, donor heavy atom, donor atom, acceptor molecule, acceptor atom, score
      L1  H     1    13       P1 10957  0.62
      L1  H     7    12       P1 10957  0.98
      L1  H    10    20       P1  7921  0.99
      L1  H    10    23       P1 10186  2.00

> <Gold.PLP.Chemscore.Internal.Correction>
0.0147

> <Gold.Rescore>
     Score         DG    S(hbond)    S(metal)    S(lipo)     H(rot)  DE(clash)    DE(int)     intcor
     16.46     -16.54       3.34        0.00      32.13       1.50       0.00       0.08       ----

> <Gold.Chemscore.Fitness>
16.4591

> <Gold.Chemscore.DG>
-16.5430

> <Gold.Chemscore.ZeroCoef>
-5.4800

> <Gold.Chemscore.Hbond>
3.3355

> <Gold.Chemscore.Metal>
0.0000

> <Gold.Chemscore.Lipo>
32.1261

> <Gold.Chemscore.Internal_Hbond>
0.0000

> <Gold.Chemscore.DEClash>
0.0000

> <Gold.Chemscore.DEInternal>
0.0839

> <Gold.Chemscore.Rot>
1.4985

> <Gold.Chemscore.Internal.Correction>
   9.000000E+99

> <Gold.Chemscore.Hbonds>
donor molecule, donor type, donor heavy atom, donor atom, acceptor molecule, acceptor atom, score
      L1  H     1    13       P1 10957  0.35
      L1  H     7    12       P1 10957  0.71
      L1  H    10    20       P1  7921  0.92
      L1  H    10    23       P1 10186  0.93

> <Gold.Chemscore.Hbond.Weighted>
-11.1405

> <Gold.Chemscore.Metal.Weighted>
-0.0000

> <Gold.Chemscore.Lipo.Weighted>
-3.7587

> <Gold.Chemscore.Internal_Hbond.Weighted>
0.0000

> <Gold.Chemscore.DEClash.Weighted>
0.0000

> <Gold.Chemscore.DEInternal.Weighted>
0.0839

> <Gold.Chemscore.Rot.Weighted>
3.8362

> <Gold.Chemscore.Internal.Correction.Weighted>
   9.000000E+99

> <Gold.Protein.RotatedTorsions>
[ 6907 6896 6895 6894 ] final   14.06 input  -60.11 | X-H torsion
[ 7974 7965 7964 7962 ] final -165.85 input  175.53 | X-H torsion
[ 8008 7997 7996 7995 ] final   43.26 input   59.86 | X-H torsion
[ 10167 10162 10161 10158 ] final  -75.18 input  -65.29 | X-H torsion
[ 10718 10713 10712 10709 ] final   99.96 input   66.30 | X-H torsion
[ 10763 10752 10751 10750 ] final  -76.03 input  -60.55 | X-H torsion
[ 11005 11000 10999 10996 ] final  -26.48 input  -57.11 | X-H torsion

> <Gold.Protein.ActiveResidues>
 VAL166  LYS551  ARG553  GLY616  TRP617  ASP618  TYR619  PRO620  LYS621  CYS622 
 ASP623  PHE694  ASN695  SER759  ASP760  ASP761  ALA762  ILE779  LEU786  VAL792 
 PHE793  MET794  SER795  GLU796  ALA797  LYS798  CYS799  TRP800  GLU811  SER814 

> <Gold.Protein.RotatedAtoms>
  151.7963  135.0721  160.0393 H   0  0  0  0  0  0  0  0  0  0  0  0  # atno 6907 bound_to 6896
  152.3121  133.5759  159.5696 H   0  0  0  0  0  0  0  0  0  0  0  0  # atno 6908 bound_to 6896
  150.7325  134.0053  159.3693 H   0  0  0  0  0  0  0  0  0  0  0  0  # atno 6909 bound_to 6896
  144.7260  140.2753  143.6244 H   0  0  0  0  0  0  0  0  0  0  0  0  # atno 7974 bound_to 7965
  155.2997  140.3384  155.4248 H   0  0  0  0  0  0  0  0  0  0  0  0  # atno 8008 bound_to 7997
  156.2007  140.1732  156.7945 H   0  0  0  0  0  0  0  0  0  0  0  0  # atno 8009 bound_to 7997
  154.5555  140.0697  156.8721 H   0  0  0  0  0  0  0  0  0  0  0  0  # atno 8010 bound_to 7997
  140.4965  143.2369  151.7823 H   0  0  0  0  0  0  0  0  0  0  0  0  # atno 10167 bound_to 10162
  157.6865  131.0684  150.5027 H   0  0  0  0  0  0  0  0  0  0  0  0  # atno 10718 bound_to 10713
  154.4944  135.5811  153.6483 H   0  0  0  0  0  0  0  0  0  0  0  0  # atno 10763 bound_to 10752
  152.9868  135.6120  154.3083 H   0  0  0  0  0  0  0  0  0  0  0  0  # atno 10764 bound_to 10752
  154.2986  135.2847  155.2601 H   0  0  0  0  0  0  0  0  0  0  0  0  # atno 10765 bound_to 10752
  140.9033  133.7509  156.0573 H   0  0  0  0  0  0  0  0  0  0  0  0  # atno 11005 bound_to 11000
  145.8002  139.1961  143.2052 LP  0  0  0  0  0  0  0  0  0  0  0  0  # atno 17320 bound_to 7965
  146.0683  140.7897  142.9701 LP  0  0  0  0  0  0  0  0  0  0  0  0  # atno 17321 bound_to 7965
  139.4862  144.4580  151.9575 LP  0  0  0  0  0  0  0  0  0  0  0  0  # atno 17342 bound_to 10162
  140.3668  144.2905  150.5925 LP  0  0  0  0  0  0  0  0  0  0  0  0  # atno 17343 bound_to 10162
  156.5348  130.4193  149.6183 LP  0  0  0  0  0  0  0  0  0  0  0  0  # atno 17370 bound_to 10713
  156.3037  130.7191  151.2068 LP  0  0  0  0  0  0  0  0  0  0  0  0  # atno 17371 bound_to 10713
  140.8202  134.3298  157.5384 LP  0  0  0  0  0  0  0  0  0  0  0  0  # atno 17394 bound_to 11000
  139.8745  134.9305  156.3503 LP  0  0  0  0  0  0  0  0  0  0  0  0  # atno 17395 bound_to 11000

$$$$
