#       Name:                AV-unprocessed.smi:133
#       Creating user name   scv26
#       Creation time:       Thu Mar 26 18:30:52 2020


#       File generated by GOLD software.
#

@<TRIPOS>MOLECULE
AV-unprocessed.smi:133
    55    58     1
SMALL
NO_CHARGES


@<TRIPOS>ATOM
      1 ****         0.3748   1.8763  -3.6725 O.2            1 S1                 0.0000
      2 ****         0.7738   1.3683  -2.6255 C.2            1 S1                 0.0000
      3 ****         2.2195   1.6572  -2.1810 C.3            1 S1                 0.0000
      4 ****         2.6420   0.9925  -0.9260 N.am           1 S1                 0.0000
      5 ****         3.2167  -0.3011  -1.0020 C.2            1 S1                 0.0000
      6 ****         3.3625  -0.8717  -2.0838 O.2            1 S1                 0.0000
      7 ****         3.5999  -0.8972   0.2731 C.2            1 S1                 0.0000
      8 ****         4.1431  -2.1260   0.2971 F              1 S1                 0.0000
      9 ****         3.4109  -0.2355   1.4330 C.2            1 S1                 0.0000
     10 ****         2.8538   1.0283   1.4914 N.am           1 S1                 0.0000
     11 ****         2.6497   1.7276   2.8154 C.3            1 S1                 0.0000
     12 ****         1.2951   1.3379   3.4197 C.3            1 S1                 0.0000
     13 ****         1.6883   0.2789   4.4280 C.3            1 S1                 0.0000
     14 ****         3.0555   0.7776   4.8788 C.3            1 S1                 0.0000
     15 ****         3.6499   1.3151   3.7022 O.3            1 S1                 0.0000
     16 ****         2.4378   1.6656   0.3024 C.2            1 S1                 0.0000
     17 ****         1.8973   2.7731   0.3355 O.2            1 S1                 0.0000
     18 ****         0.0301   0.5543  -1.8498 N.am           1 S1                 0.0000
     19 ****        -1.3093   0.1226  -2.0408 C.ar           1 S1                 0.0000
     20 ****        -2.2781   0.8753  -2.7617 C.ar           1 S1                 0.0000
     21 ****        -3.5994   0.3985  -2.9077 C.ar           1 S1                 0.0000
     22 ****        -3.9350  -0.8300  -2.3149 C.ar           1 S1                 0.0000
     23 ****        -2.9994  -1.5601  -1.5944 C.ar           1 S1                 0.0000
     24 ****        -1.6801  -1.1017  -1.4375 C.ar           1 S1                 0.0000
     25 ****        -3.5890  -2.8327  -1.0508 C.3            1 S1                 0.0000
     26 ****        -5.0967  -2.7159  -1.3817 C.3            1 S1                 0.0000
     27 ****        -5.2711  -1.5200  -2.3490 C.3            1 S1                 0.0000
     28 ****         2.8836   1.3850  -3.0028 H              1 S1                 0.0000
     29 ****         2.3372   2.7393  -2.1042 H              1 S1                 0.0000
     30 ****         3.7060  -0.7260   2.3489 H              1 S1                 0.0000
     31 ****         2.7551   2.7969   2.6262 H              1 S1                 0.0000
     32 ****         0.8765   2.2094   3.9244 H              1 S1                 0.0000
     33 ****         0.5862   0.9924   2.6659 H              1 S1                 0.0000
     34 ****         0.9770   0.1841   5.2489 H              1 S1                 0.0000
     35 ****         1.7813  -0.6925   3.9408 H              1 S1                 0.0000
     36 ****         2.9466   1.5747   5.6157 H              1 S1                 0.0000
     37 ****         3.6698  -0.0102   5.3156 H              1 S1                 0.0000
     38 ****         0.5114   0.1353  -1.0677 H              1 S1                 0.0000
     39 ****        -2.0318   1.8293  -3.2016 H              1 S1                 0.0000
     40 ****        -4.3341   0.9673  -3.4583 H              1 S1                 0.0000
     41 ****        -0.9640  -1.6821  -0.8737 H              1 S1                 0.0000
     42 ****        -3.1375  -3.6862  -1.5573 H              1 S1                 0.0000
     43 ****        -3.4097  -2.9273   0.0206 H              1 S1                 0.0000
     44 ****        -5.5127  -3.6420  -1.7794 H              1 S1                 0.0000
     45 ****        -5.6363  -2.4955  -0.4598 H              1 S1                 0.0000
     46 ****        -6.0722  -0.8501  -2.0350 H              1 S1                 0.0000
     47 ****        -5.4772  -1.8590  -3.3647 H              1 S1                 0.0000
     48 ****         0.9847   2.4590  -4.2097 LP             1 S1                 0.0000
     49 ****        -0.5593   1.7066  -3.9864 LP             1 S1                 0.0000
     50 ****         3.0734  -0.4224  -2.9291 LP             1 S1                 0.0000
     51 ****         3.7701  -1.7843  -2.1168 LP             1 S1                 0.0000
     52 ****         4.2215   2.0985   3.9465 LP             1 S1                 0.0000
     53 ****         4.2139   0.6146   3.2648 LP             1 S1                 0.0000
     54 ****         1.5964   3.2082  -0.5131 LP             1 S1                 0.0000
     55 ****         1.7599   3.2364   1.2110 LP             1 S1                 0.0000
@<TRIPOS>BOND
    1    1    2 2     
    2    2    3 1     
    3    2   18 am    
    4    3    4 1     
    5    3   28 1     
    6    3   29 1     
    7    4   16 am    
    8    4    5 am    
    9    5    6 2     
   10    5    7 1     
   11    7    8 1     
   12    7    9 2     
   13    9   10 1     
   14    9   30 1     
   15   10   11 1     
   16   10   16 am    
   17   11   15 1     
   18   11   12 1     
   19   11   31 1     
   20   12   13 1     
   21   12   32 1     
   22   12   33 1     
   23   13   14 1     
   24   13   34 1     
   25   13   35 1     
   26   14   15 1     
   27   14   36 1     
   28   14   37 1     
   29   16   17 2     
   30   18   19 1     
   31   18   38 1     
   32   19   24 ar    
   33   19   20 ar    
   34   20   21 ar    
   35   20   39 1     
   36   21   22 ar    
   37   21   40 1     
   38   22   27 1     
   39   22   23 ar    
   40   23   24 ar    
   41   23   25 1     
   42   24   41 1     
   43   25   26 1     
   44   25   42 1     
   45   25   43 1     
   46   26   27 1     
   47   26   44 1     
   48   26   45 1     
   49   27   46 1     
   50   27   47 1     
   51    1   48 1     
   52    1   49 1     
   53    6   50 1     
   54    6   51 1     
   55   15   52 1     
   56   15   53 1     
   57   17   54 1     
   58   17   55 1     
@<TRIPOS>SUBSTRUCTURE
      1 S1             1
@<TRIPOS>SET
LONE_PAIRS      STATIC     ATOMS    <user>   **** ""
8 48 49 50 51 52 53 54 55
DONOR_HYDROGENS      STATIC     ATOMS    <user>   **** ""
1 38
ATOM$BLUE        STATIC     ATOMS    COLORGROUP SYSTEM
8 48 49 50 51 52 53 54 55
ATOM$RED        STATIC     ATOMS    COLORGROUP SYSTEM
1 38
