AV-unprocessed.smi:1803|AV-procd|sdf|7293|dock9
  -GOLD-   22720 8553D 1   1.00000     0.00000
 Structure written by MMmdl.
 35 37  0  0  0  0  0  0  0  0  3 V2000
  154.9418  139.9852  159.3565 O   0  0  0  0  0  0  0  0  0  0  0  0
  154.2954  139.6834  160.3590 C   0  0  0  0  0  0  0  0  0  0  0  0
  154.1903  138.4121  160.8249 N   0  5  0  0  0  0  0  0  0  0  0  0
  154.4566  138.0830  162.1026 C   0  0  0  0  0  0  0  0  0  0  0  0
  155.1559  138.8846  162.9222 N   0  0  0  0  0  0  0  0  0  0  0  0
  155.3230  138.3529  164.1934 N   0  0  0  0  0  0  0  0  0  0  0  0
  154.7307  137.1643  164.3049 C   0  0  0  0  0  0  0  0  0  0  0  0
  153.9229  136.5829  162.8642 S   0  0  0  0  0  0  0  0  0  0  0  0
  153.6454  140.6544  161.0289 N   0  0  0  0  0  0  0  0  0  0  0  0
  153.5887  142.0614  160.6464 C   0  0  2  0  0  0  0  0  0  0  0  0
  152.7186  142.9036  161.5700 C   0  0  0  0  0  0  0  0  0  0  0  0
  152.4232  144.1472  160.7248 C   0  0  0  0  0  0  0  0  0  0  0  0
  152.5124  143.7322  159.3029 N   0  3  2  0  0  0  0  0  0  0  0  0
  151.2932  144.0340  158.5057 C   0  0  0  0  0  0  0  0  0  0  0  0
  151.2806  143.2327  157.1954 C   0  0  0  0  0  0  0  0  0  0  0  0
  151.2472  141.7164  157.4643 C   0  0  0  0  0  0  0  0  0  0  0  0
  151.8349  141.3491  158.8403 C   0  0  0  0  0  0  0  0  0  0  0  0
  152.9717  142.3152  159.2585 C   0  0  2  0  0  0  0  0  0  0  0  0
  154.7702  136.6264  165.2403 H   0  0  0  0  0  0  0  0  0  0  0  0
  153.1233  140.3827  161.8493 H   0  0  0  0  0  0  0  0  0  0  0  0
  154.5974  142.4795  160.6687 H   0  0  0  0  0  0  0  0  0  0  0  0
  151.7883  142.3801  161.7957 H   0  0  0  0  0  0  0  0  0  0  0  0
  153.2079  143.1417  162.5151 H   0  0  0  0  0  0  0  0  0  0  0  0
  151.4603  144.5886  160.9853 H   0  0  0  0  0  0  0  0  0  0  0  0
  153.1857  144.9070  160.8989 H   0  0  0  0  0  0  0  0  0  0  0  0
  150.3975  143.7915  159.0803 H   0  0  0  0  0  0  0  0  0  0  0  0
  151.2583  145.1048  158.3028 H   0  0  0  0  0  0  0  0  0  0  0  0
  150.4293  143.5209  156.5780 H   0  0  0  0  0  0  0  0  0  0  0  0
  152.1729  143.4812  156.6190 H   0  0  0  0  0  0  0  0  0  0  0  0
  150.2222  141.3478  157.4089 H   0  0  0  0  0  0  0  0  0  0  0  0
  151.7965  141.2033  156.6740 H   0  0  0  0  0  0  0  0  0  0  0  0
  151.0437  141.3781  159.5907 H   0  0  0  0  0  0  0  0  0  0  0  0
  152.1836  140.3164  158.8108 H   0  0  0  0  0  0  0  0  0  0  0  0
  153.7585  142.2396  158.5063 H   0  0  0  0  0  0  0  0  0  0  0  0
  153.2638  144.2725  158.8986 H   0  0  0  0  0  0  0  0  0  0  0  0
  1  2  2  0  0  0  0
  2  3  1  0  0  0  0
  2  9  1  0  0  0  0
  3  4  1  0  0  0  0
  4  8  1  0  0  0  0
  4  5  2  0  0  0  0
  5  6  1  0  0  0  0
  6  7  2  0  0  0  0
  7  8  1  0  0  0  0
  7 19  1  0  0  0  0
  9 10  1  0  0  0  0
  9 20  1  0  0  0  0
 10 18  1  0  0  0  0
 10 11  1  0  0  0  0
 10 21  1  0  0  0  0
 11 12  1  0  0  0  0
 11 22  1  0  0  0  0
 11 23  1  0  0  0  0
 12 13  1  0  0  0  0
 12 24  1  0  0  0  0
 12 25  1  0  0  0  0
 13 18  1  0  0  0  0
 13 14  1  0  0  0  0
 13 35  1  0  0  0  0
 14 15  1  0  0  0  0
 14 26  1  0  0  0  0
 14 27  1  0  0  0  0
 15 16  1  0  0  0  0
 15 28  1  0  0  0  0
 15 29  1  0  0  0  0
 16 17  1  0  0  0  0
 16 30  1  0  0  0  0
 16 31  1  0  0  0  0
 17 18  1  0  0  0  0
 17 32  1  0  0  0  0
 17 33  1  0  0  0  0
 18 34  1  0  0  0  0
M  CHG  1   3  -1
M  CHG  1  13   1
M  END
> <s_m_source_file>
AV-unprocessed.smi

> <i_m_source_file_index>
1803

> <i_lp_mmshare_version>
43012

> <i_f3d_flags>
0

> <s_epik_input>
czFbY0hdbm5jMVtOSF1DKD1PKVtOSF1bQ0BIXShbQ0gyXVtDSDJdMilbQ0BASF0oTjIzKVtDSDJdW0NIMl1bQ0gyXVtDSDJdMw==

> <s_epik_cmdline>
J2VwaWtfcHl0aG9uJywgJy1waCcsICc3LjAnLCAnLXRuJywgJzgnLCAnLW1hJywgJzIwMCcsICctbWV0YWxfYmluZGluZycsICctaW1hZScsICc8aW5maWxlLm1hZT4nLCAnLW9tYWUnLCAnPG91dGZpbGUubWFlPic=

> <r_lp_tautomer_probability>
1

> <r_epik_Ionization_Penalty>
3.78828

> <r_epik_Ionization_Penalty_Charging>
3.7591

> <r_epik_Ionization_Penalty_Neutral>
0.0291838

> <r_epik_State_Penalty>
3.757

> <r_epik_Charging_Adjusted_Penalty>
7.51609

> <i_epik_Tot_Q>
0

> <i_epik_Tot_abs_Q>
2

> <r_epik_Metal_State_Penalty>
0.558016

> <b_epik_Metal_Only>
1

> <s_lp_Force_Field>
OPLS_2005

> <r_lp_Energy>
34.1757

> <b_lp_Chiralities_Consistent>
1

> <s_lp_Variant>
AV-unprocessed.smi:1803-15

> <Gold.Version>
5.8.1

> <Gold.Id.Protein>
6NUR|6NUR_protein|mol2

> <Gold.PLP.Fitness>
39.1376

> <Gold.PLP.PLP>
-37.2106

> <Gold.PLP.part.hbond>
-1.0000

> <Gold.PLP.part.metal>
0.0000

> <Gold.PLP.part.buried>
-5.8305

> <Gold.PLP.part.nonpolar>
-29.4762

> <Gold.PLP.part.repulsive>
0.0822

> <Gold.PLP.ligand.clash>
0.0000

> <Gold.PLP.ligand.torsion>
0.5409

> <Gold.PLP.Chemscore.Hbond>
1.0000

> <Gold.PLP.Chemscore.CHOScore>
0.0000

> <Gold.PLP.Chemscore.Metal>
0.0000

> <Gold.Chemscore.Hbonds>
donor molecule, donor type, donor heavy atom, donor atom, acceptor molecule, acceptor atom, score
      P1  H  7997  8010       L1     1  1.00

> <Gold.PLP.Chemscore.Internal.Correction>
0.0089

> <Gold.Rescore>
     Score         DG    S(hbond)    S(metal)    S(lipo)     H(rot)  DE(clash)    DE(int)     intcor
     17.35     -17.92       0.92        0.00     101.97       1.00       0.07       0.50       ----

> <Gold.Chemscore.Fitness>
17.3542

> <Gold.Chemscore.DG>
-17.9200

> <Gold.Chemscore.ZeroCoef>
-5.4800

> <Gold.Chemscore.Hbond>
0.9189

> <Gold.Chemscore.Metal>
0.0000

> <Gold.Chemscore.Lipo>
101.9732

> <Gold.Chemscore.Internal_Hbond>
0.0000

> <Gold.Chemscore.DEClash>
0.0663

> <Gold.Chemscore.DEInternal>
0.4995

> <Gold.Chemscore.Rot>
1.0000

> <Gold.Chemscore.Internal.Correction>
   9.000000E+99

> <Gold.Chemscore.Hbonds>
donor molecule, donor type, donor heavy atom, donor atom, acceptor molecule, acceptor atom, score
      P1  H  7997  8010       L1     1  0.90

> <Gold.Chemscore.Hbond.Weighted>
-3.0691

> <Gold.Chemscore.Metal.Weighted>
-0.0000

> <Gold.Chemscore.Lipo.Weighted>
-11.9309

> <Gold.Chemscore.Internal_Hbond.Weighted>
0.0000

> <Gold.Chemscore.DEClash.Weighted>
0.0663

> <Gold.Chemscore.DEInternal.Weighted>
0.4995

> <Gold.Chemscore.Rot.Weighted>
2.5600

> <Gold.Chemscore.Internal.Correction.Weighted>
   9.000000E+99

> <Gold.Protein.RotatedTorsions>
[ 6907 6896 6895 6894 ] final  -60.47 input  -60.11 | X-H torsion
[ 7974 7965 7964 7962 ] final    7.31 input  175.53 | X-H torsion
[ 8008 7997 7996 7995 ] final  -12.38 input   59.86 | X-H torsion
[ 10167 10162 10161 10158 ] final  111.09 input  -65.29 | X-H torsion
[ 10718 10713 10712 10709 ] final  174.25 input   66.30 | X-H torsion
[ 10763 10752 10751 10750 ] final  135.28 input  -60.55 | X-H torsion
[ 11005 11000 10999 10996 ] final  -89.14 input  -57.11 | X-H torsion

> <Gold.Protein.ActiveResidues>
 VAL166  LYS551  ARG553  GLY616  TRP617  ASP618  TYR619  PRO620  LYS621  CYS622 
 ASP623  PHE694  ASN695  SER759  ASP760  ASP761  ALA762  ILE779  LEU786  VAL792 
 PHE793  MET794  SER795  GLU796  ALA797  LYS798  CYS799  TRP800  GLU811  SER814 

> <Gold.Protein.RotatedAtoms>
  150.7854  134.6833  159.6455 H   0  0  0  0  0  0  0  0  0  0  0  0  # atno 6907 bound_to 6896
  152.3949  134.6379  160.0102 H   0  0  0  0  0  0  0  0  0  0  0  0  # atno 6908 bound_to 6896
  151.6668  133.3278  159.3223 H   0  0  0  0  0  0  0  0  0  0  0  0  # atno 6909 bound_to 6896
  146.2428  140.0102  142.8407 H   0  0  0  0  0  0  0  0  0  0  0  0  # atno 7974 bound_to 7965
  154.5383  140.2278  155.8685 H   0  0  0  0  0  0  0  0  0  0  0  0  # atno 8008 bound_to 7997
  156.1833  140.3095  155.9152 H   0  0  0  0  0  0  0  0  0  0  0  0  # atno 8009 bound_to 7997
  155.3310  140.0445  157.3033 H   0  0  0  0  0  0  0  0  0  0  0  0  # atno 8010 bound_to 7997
  139.6638  144.7128  151.1816 H   0  0  0  0  0  0  0  0  0  0  0  0  # atno 10167 bound_to 10162
  156.9524  131.0035  151.2946 H   0  0  0  0  0  0  0  0  0  0  0  0  # atno 10718 bound_to 10713
  153.8375  135.3095  155.3423 H   0  0  0  0  0  0  0  0  0  0  0  0  # atno 10763 bound_to 10752
  154.7947  135.4762  154.0136 H   0  0  0  0  0  0  0  0  0  0  0  0  # atno 10764 bound_to 10752
  153.1596  135.6858  153.8853 H   0  0  0  0  0  0  0  0  0  0  0  0  # atno 10765 bound_to 10752
  141.1590  133.7612  156.9553 H   0  0  0  0  0  0  0  0  0  0  0  0  # atno 11005 bound_to 11000
  145.1335  140.9531  143.4531 LP  0  0  0  0  0  0  0  0  0  0  0  0  # atno 17320 bound_to 7965
  145.0365  139.3296  143.5998 LP  0  0  0  0  0  0  0  0  0  0  0  0  # atno 17321 bound_to 7965
  140.7591  143.5952  150.8755 LP  0  0  0  0  0  0  0  0  0  0  0  0  # atno 17342 bound_to 10162
  139.9612  143.6162  152.3002 LP  0  0  0  0  0  0  0  0  0  0  0  0  # atno 17343 bound_to 10162
  157.5713  130.8312  149.8395 LP  0  0  0  0  0  0  0  0  0  0  0  0  # atno 17370 bound_to 10713
  156.0357  130.3752  150.1567 LP  0  0  0  0  0  0  0  0  0  0  0  0  # atno 17371 bound_to 10713
  140.1230  134.9405  157.2230 LP  0  0  0  0  0  0  0  0  0  0  0  0  # atno 17394 bound_to 11000
  140.3048  134.3090  155.7281 LP  0  0  0  0  0  0  0  0  0  0  0  0  # atno 17395 bound_to 11000

$$$$
