#       Name:                AV-unprocessed.smi:1533
#       Creating user name   scv26
#       Creation time:       Fri Mar 27 06:31:08 2020


#       File generated by GOLD software.
#

@<TRIPOS>MOLECULE
AV-unprocessed.smi:1533
    43    45     1
SMALL
NO_CHARGES


@<TRIPOS>ATOM
      1 ****        -3.2125   1.7781   0.7488 C.3            1 S1                 0.0000
      2 ****        -2.7475   0.5859   1.5124 C.2            1 S1                 0.0000
      3 ****        -2.4581   0.6619   2.8055 N.2            1 S1                 0.0000
      4 ****        -2.0370  -0.6385   3.1195 O.3            1 S1                 0.0000
      5 ****        -2.1387  -1.3473   1.9698 C.2            1 S1                 0.0000
      6 ****        -1.6603  -2.7634   1.9498 C.3            1 S1                 0.0000
      7 ****        -0.1275  -2.9043   1.8598 C.3            1 S1                 0.0000
      8 ****         0.4283  -2.2267   0.6899 N.am           1 S1                 0.0000
      9 ****         0.9302  -0.9813   0.6755 C.2            1 S1                 0.0000
     10 ****         1.0288  -0.2866   1.6874 O.2            1 S1                 0.0000
     11 ****         1.3594  -0.4406  -0.6996 C.3            1 S1                 0.0000
     12 ****         2.7214   0.2990  -0.6872 C.3            1 S1                 0.0000
     13 ****         2.3715   1.6901  -1.2531 C.3            1 S1                 0.0000
     14 ****         2.0340   1.5616  -2.7506 C.3            1 S1                 0.0000
     15 ****         0.6592   0.8659  -2.7295 C.3            1 S1                 0.0000
     16 ****         0.4074   0.6640  -1.2233 C.3            1 S1                 0.0000
     17 ****         0.9988   1.9488  -0.6462 C.3            1 S1                 0.0000
     18 ****        -2.5748  -0.6336   0.9340 N.2            1 S1                 0.0000
     19 ****        -3.5329   2.5725   1.4237 H              1 S1                 0.0000
     20 ****        -4.0526   1.5125   0.1069 H              1 S1                 0.0000
     21 ****        -2.4048   2.1599   0.1240 H              1 S1                 0.0000
     22 ****        -2.0245  -3.2652   2.8467 H              1 S1                 0.0000
     23 ****        -2.1258  -3.2710   1.1042 H              1 S1                 0.0000
     24 ****         0.3348  -2.5291   2.7744 H              1 S1                 0.0000
     25 ****         0.1381  -3.9596   1.7986 H              1 S1                 0.0000
     26 ****         0.3858  -2.7262  -0.1865 H              1 S1                 0.0000
     27 ****         1.3934  -1.2734  -1.4042 H              1 S1                 0.0000
     28 ****         3.1390   0.3926   0.3164 H              1 S1                 0.0000
     29 ****         3.4671  -0.2110  -1.2982 H              1 S1                 0.0000
     30 ****         3.1220   2.4512  -1.0381 H              1 S1                 0.0000
     31 ****         1.9585   2.5440  -3.2185 H              1 S1                 0.0000
     32 ****         2.7836   0.9872  -3.2962 H              1 S1                 0.0000
     33 ****        -0.1035   1.5121  -3.1658 H              1 S1                 0.0000
     34 ****         0.6568  -0.0730  -3.2842 H              1 S1                 0.0000
     35 ****        -0.6432   0.5000  -0.9812 H              1 S1                 0.0000
     36 ****         1.0057   1.9892   0.4433 H              1 S1                 0.0000
     37 ****         0.5209   2.8531  -1.0276 H              1 S1                 0.0000
     38 ****        -2.5244   1.4555   3.4103 LP             1 S1                 0.0000
     39 ****        -2.6247  -1.0338   3.8254 LP             1 S1                 0.0000
     40 ****        -1.0900  -0.6298   3.4406 LP             1 S1                 0.0000
     41 ****         0.7279  -0.6449   2.5712 LP             1 S1                 0.0000
     42 ****         1.4097   0.6360   1.6254 LP             1 S1                 0.0000
     43 ****        -2.7326  -0.9167  -0.0120 LP             1 S1                 0.0000
@<TRIPOS>BOND
    1    1    2 1     
    2    1   19 1     
    3    1   20 1     
    4    1   21 1     
    5    2   18 1     
    6    2    3 2     
    7    3    4 1     
    8    4    5 1     
    9    5    6 1     
   10    5   18 2     
   11    6    7 1     
   12    6   22 1     
   13    6   23 1     
   14    7    8 1     
   15    7   24 1     
   16    7   25 1     
   17    8    9 am    
   18    8   26 1     
   19    9   10 2     
   20    9   11 1     
   21   11   16 1     
   22   11   12 1     
   23   11   27 1     
   24   12   13 1     
   25   12   28 1     
   26   12   29 1     
   27   13   17 1     
   28   13   14 1     
   29   13   30 1     
   30   14   15 1     
   31   14   31 1     
   32   14   32 1     
   33   15   16 1     
   34   15   33 1     
   35   15   34 1     
   36   16   17 1     
   37   16   35 1     
   38   17   36 1     
   39   17   37 1     
   40    3   38 1     
   41    4   39 1     
   42    4   40 1     
   43   10   41 1     
   44   10   42 1     
   45   18   43 1     
@<TRIPOS>SUBSTRUCTURE
      1 S1             1
@<TRIPOS>SET
LONE_PAIRS      STATIC     ATOMS    <user>   **** ""
6 38 39 40 41 42 43
DONOR_HYDROGENS      STATIC     ATOMS    <user>   **** ""
1 26
ATOM$BLUE        STATIC     ATOMS    COLORGROUP SYSTEM
6 38 39 40 41 42 43
ATOM$RED        STATIC     ATOMS    COLORGROUP SYSTEM
1 26
