AV-unprocessed.smi:2710|AV-procd|sdf|10464|dock1
  -GOLD-   2272014503D 1   1.00000     0.00000
 Structure written by MMmdl.
 53 54  0  0  0  0  0  0  0  0  2 V2000
  147.8731  128.0439  152.0390 C   0  0  0  0  0  0  0  0  0  0  0  0
  146.8988  129.0750  152.6320 C   0  0  0  0  0  0  0  0  0  0  0  0
  147.4351  130.4674  152.6402 N   0  3  2  0  0  0  0  0  0  0  0  0
  148.4406  130.6667  153.7241 C   0  0  0  0  0  0  0  0  0  0  0  0
  149.0853  132.0585  153.6693 C   0  0  0  0  0  0  0  0  0  0  0  0
  148.0186  133.1519  153.7604 C   0  0  1  0  0  0  0  0  0  0  0  0
  148.6396  134.4694  153.6566 N   0  0  0  0  0  0  0  0  0  0  0  0
  148.8152  135.3196  154.6784 C   0  0  0  0  0  0  0  0  0  0  0  0
  148.4635  135.0735  155.8318 O   0  0  0  0  0  0  0  0  0  0  0  0
  149.3952  136.4603  154.2690 N   0  0  0  0  0  0  0  0  0  0  0  0
  149.7673  137.5870  155.0499 C   0  0  0  0  0  0  0  0  0  0  0  0
  150.2624  138.7360  154.4017 C   0  0  0  0  0  0  0  0  0  0  0  0
  150.6465  139.8337  155.0861 N   0  0  0  0  0  0  0  0  0  0  0  0
  150.5831  139.7864  156.4234 C   0  0  0  0  0  0  0  0  0  0  0  0
  150.8788  141.0884  157.1885 C   0  0  0  0  0  0  0  0  0  0  0  0
  152.0841  140.9115  158.1416 C   0  0  0  0  0  0  0  0  0  0  0  0
  149.6358  141.5005  157.9983 C   0  0  0  0  0  0  0  0  0  0  0  0
  151.2649  142.2301  156.2183 C   0  0  0  0  0  0  0  0  0  0  0  0
  150.1035  138.7576  157.1346 N   0  0  0  0  0  0  0  0  0  0  0  0
  149.7133  137.6537  156.4626 C   0  0  0  0  0  0  0  0  0  0  0  0
  146.9965  132.9379  152.6350 C   0  0  0  0  0  0  0  0  0  0  0  0
  146.3720  131.5256  152.6742 C   0  0  1  0  0  0  0  0  0  0  0  0
  145.3565  131.4071  151.5184 C   0  0  0  0  0  0  0  0  0  0  0  0
  147.3724  127.0851  151.9016 H   0  0  0  0  0  0  0  0  0  0  0  0
  148.7292  127.8593  152.6870 H   0  0  0  0  0  0  0  0  0  0  0  0
  148.2432  128.3627  151.0642 H   0  0  0  0  0  0  0  0  0  0  0  0
  146.0023  129.0187  152.0189 H   0  0  0  0  0  0  0  0  0  0  0  0
  146.6043  128.7834  153.6412 H   0  0  0  0  0  0  0  0  0  0  0  0
  147.9647  130.5136  154.6941 H   0  0  0  0  0  0  0  0  0  0  0  0
  149.2410  129.9329  153.6476 H   0  0  0  0  0  0  0  0  0  0  0  0
  149.7999  132.1642  154.4867 H   0  0  0  0  0  0  0  0  0  0  0  0
  149.6540  132.1619  152.7437 H   0  0  0  0  0  0  0  0  0  0  0  0
  147.5162  133.0653  154.7261 H   0  0  0  0  0  0  0  0  0  0  0  0
  148.9558  134.7558  152.7415 H   0  0  0  0  0  0  0  0  0  0  0  0
  149.5516  136.5515  153.2757 H   0  0  0  0  0  0  0  0  0  0  0  0
  150.3423  138.7817  153.3253 H   0  0  0  0  0  0  0  0  0  0  0  0
  152.3279  141.8446  158.6508 H   0  0  0  0  0  0  0  0  0  0  0  0
  152.9753  140.5916  157.5998 H   0  0  0  0  0  0  0  0  0  0  0  0
  151.8865  140.1723  158.9186 H   0  0  0  0  0  0  0  0  0  0  0  0
  149.3602  140.7301  158.7192 H   0  0  0  0  0  0  0  0  0  0  0  0
  148.7758  141.6643  157.3479 H   0  0  0  0  0  0  0  0  0  0  0  0
  149.8094  142.4231  158.5530 H   0  0  0  0  0  0  0  0  0  0  0  0
  151.5219  143.1413  156.7595 H   0  0  0  0  0  0  0  0  0  0  0  0
  150.4479  142.4866  155.5429 H   0  0  0  0  0  0  0  0  0  0  0  0
  152.1266  141.9581  155.6072 H   0  0  0  0  0  0  0  0  0  0  0  0
  149.3747  136.8326  157.0746 H   0  0  0  0  0  0  0  0  0  0  0  0
  146.2090  133.6891  152.7126 H   0  0  0  0  0  0  0  0  0  0  0  0
  147.4770  133.0980  151.6682 H   0  0  0  0  0  0  0  0  0  0  0  0
  145.8264  131.4223  153.6139 H   0  0  0  0  0  0  0  0  0  0  0  0
  144.7020  132.2788  151.4846 H   0  0  0  0  0  0  0  0  0  0  0  0
  144.6994  130.5451  151.6276 H   0  0  0  0  0  0  0  0  0  0  0  0
  145.8577  131.3375  150.5525 H   0  0  0  0  0  0  0  0  0  0  0  0
  147.9244  130.5879  151.7648 H   0  0  0  0  0  0  0  0  0  0  0  0
  1  2  1  0  0  0  0
  1 24  1  0  0  0  0
  1 25  1  0  0  0  0
  1 26  1  0  0  0  0
  2  3  1  0  0  0  0
  2 27  1  0  0  0  0
  2 28  1  0  0  0  0
  3 22  1  0  0  0  0
  3  4  1  0  0  0  0
  3 53  1  0  0  0  0
  4  5  1  0  0  0  0
  4 29  1  0  0  0  0
  4 30  1  0  0  0  0
  5  6  1  0  0  0  0
  5 31  1  0  0  0  0
  5 32  1  0  0  0  0
  6  7  1  0  0  0  0
  6 21  1  0  0  0  0
  6 33  1  0  0  0  0
  7  8  1  0  0  0  0
  7 34  1  0  0  0  0
  8  9  2  0  0  0  0
  8 10  1  0  0  0  0
 10 11  1  0  0  0  0
 10 35  1  0  0  0  0
 11 20  1  0  0  0  0
 11 12  2  0  0  0  0
 12 13  1  0  0  0  0
 12 36  1  0  0  0  0
 13 14  2  0  0  0  0
 14 15  1  0  0  0  0
 14 19  1  0  0  0  0
 15 16  1  0  0  0  0
 15 17  1  0  0  0  0
 15 18  1  0  0  0  0
 16 37  1  0  0  0  0
 16 38  1  0  0  0  0
 16 39  1  0  0  0  0
 17 40  1  0  0  0  0
 17 41  1  0  0  0  0
 17 42  1  0  0  0  0
 18 43  1  0  0  0  0
 18 44  1  0  0  0  0
 18 45  1  0  0  0  0
 19 20  2  0  0  0  0
 20 46  1  0  0  0  0
 21 22  1  0  0  0  0
 21 47  1  0  0  0  0
 21 48  1  0  0  0  0
 22 23  1  0  0  0  0
 22 49  1  0  0  0  0
 23 50  1  0  0  0  0
 23 51  1  0  0  0  0
 23 52  1  0  0  0  0
M  CHG  1   3   1
M  END
> <s_m_source_file>
AV-unprocessed.smi

> <i_m_source_file_index>
2710

> <i_lp_mmshare_version>
43012

> <i_f3d_flags>
0

> <s_epik_input>
W0NIM11bQ0gyXU4xW0NIMl1bQ0gyXVtDQEhdKFtDSDJdW0NASF0xW0NIM10pW05IXUMoPU8pW05IXWMyW2NIXW5jKEMoW0NIM10pKFtDSDNdKVtDSDNdKW5bY0hdMg==

> <s_epik_cmdline>
J2VwaWtfcHl0aG9uJywgJy1waCcsICc3LjAnLCAnLXRuJywgJzgnLCAnLW1hJywgJzIwMCcsICctbWV0YWxfYmluZGluZycsICctaW1hZScsICc8aW5maWxlLm1hZT4nLCAnLW9tYWUnLCAnPG91dGZpbGUubWFlPic=

> <r_lp_tautomer_probability>
1

> <r_epik_Ionization_Penalty>
0.00396003

> <r_epik_Ionization_Penalty_Charging>
0.0039379

> <r_epik_Ionization_Penalty_Neutral>
2.21316e-05

> <r_epik_State_Penalty>
0.00281651

> <r_epik_Charging_Adjusted_Penalty>
0.00675441

> <i_epik_Tot_Q>
1

> <i_epik_Tot_abs_Q>
1

> <r_epik_Metal_State_Penalty>
-0

> <b_epik_Metal_Only>
0

> <s_lp_Force_Field>
OPLS_2005

> <r_lp_Energy>
20.3539

> <b_lp_Chiralities_Consistent>
1

> <s_lp_Variant>
AV-unprocessed.smi:2710-1

> <Gold.Version>
5.8.1

> <Gold.Id.Protein>
6NUR|6NUR_protein|mol2

> <Gold.PLP.Fitness>
44.2128

> <Gold.PLP.PLP>
-32.4758

> <Gold.PLP.part.hbond>
-2.7570

> <Gold.PLP.part.metal>
0.0000

> <Gold.PLP.part.buried>
-2.2106

> <Gold.PLP.part.nonpolar>
-26.3162

> <Gold.PLP.part.repulsive>
0.0922

> <Gold.PLP.ligand.clash>
0.0000

> <Gold.PLP.ligand.torsion>
0.4562

> <Gold.PLP.Chemscore.Hbond>
3.1650

> <Gold.PLP.Chemscore.CHOScore>
1.0000

> <Gold.PLP.Chemscore.Metal>
0.0000

> <Gold.Chemscore.Hbonds>
donor molecule, donor type, donor heavy atom, donor atom, acceptor molecule, acceptor atom, score
      L1  H     3    53       P1 10747  1.00
      L1  H     7    34       P1  7948  0.34
      L1  H    10    35       P1  7948  0.91
      P1  H  7989  7998       L1    13  0.69
      L1  C    12    36       P1  7957  0.84

> <Gold.PLP.Chemscore.Internal.Correction>
0.1544

> <Gold.Rescore>
     Score         DG    S(hbond)    S(metal)    S(lipo)     H(rot)  DE(clash)    DE(int)     intcor
     18.80     -20.84       2.65        0.00      84.24       1.31       0.19       1.85       ----

> <Gold.Chemscore.Fitness>
18.8016

> <Gold.Chemscore.DG>
-20.8385

> <Gold.Chemscore.ZeroCoef>
-5.4800

> <Gold.Chemscore.Hbond>
2.6500

> <Gold.Chemscore.Metal>
0.0000

> <Gold.Chemscore.Lipo>
84.2418

> <Gold.Chemscore.Internal_Hbond>
0.0000

> <Gold.Chemscore.DEClash>
0.1910

> <Gold.Chemscore.DEInternal>
1.8459

> <Gold.Chemscore.Rot>
1.3081

> <Gold.Chemscore.Internal.Correction>
   9.000000E+99

> <Gold.Chemscore.Hbonds>
donor molecule, donor type, donor heavy atom, donor atom, acceptor molecule, acceptor atom, score
      L1  H     3    53       P1 10747  1.00
      L1  H     7    34       P1  7948  0.01
      L1  H    10    35       P1  7948  0.46
      P1  H  7989  7998       L1    13  0.16

> <Gold.Chemscore.Hbond.Weighted>
-8.8510

> <Gold.Chemscore.Metal.Weighted>
-0.0000

> <Gold.Chemscore.Lipo.Weighted>
-9.8563

> <Gold.Chemscore.Internal_Hbond.Weighted>
0.0000

> <Gold.Chemscore.DEClash.Weighted>
0.1910

> <Gold.Chemscore.DEInternal.Weighted>
1.8459

> <Gold.Chemscore.Rot.Weighted>
3.3488

> <Gold.Chemscore.Internal.Correction.Weighted>
   9.000000E+99

> <Gold.Protein.RotatedTorsions>
[ 6907 6896 6895 6894 ] final  -27.94 input  -60.11 | X-H torsion
[ 7974 7965 7964 7962 ] final  123.28 input  175.53 | X-H torsion
[ 8008 7997 7996 7995 ] final  158.43 input   59.86 | X-H torsion
[ 10167 10162 10161 10158 ] final  -52.07 input  -65.29 | X-H torsion
[ 10718 10713 10712 10709 ] final  148.11 input   66.30 | X-H torsion
[ 10763 10752 10751 10750 ] final   89.21 input  -60.55 | X-H torsion
[ 11005 11000 10999 10996 ] final   44.73 input  -57.11 | X-H torsion

> <Gold.Protein.ActiveResidues>
 VAL166  LYS551  ARG553  GLY616  TRP617  ASP618  TYR619  PRO620  LYS621  CYS622 
 ASP623  PHE694  ASN695  SER759  ASP760  ASP761  ALA762  ILE779  LEU786  VAL792 
 PHE793  MET794  SER795  GLU796  ALA797  LYS798  CYS799  TRP800  GLU811  SER814 

> <Gold.Protein.RotatedAtoms>
  151.1399  135.0174  159.8620 H   0  0  0  0  0  0  0  0  0  0  0  0  # atno 6907 bound_to 6896
  152.5452  134.1512  159.8529 H   0  0  0  0  0  0  0  0  0  0  0  0  # atno 6908 bound_to 6896
  151.1586  133.4814  159.2627 H   0  0  0  0  0  0  0  0  0  0  0  0  # atno 6909 bound_to 6896
  145.0977  139.3541  143.4828 H   0  0  0  0  0  0  0  0  0  0  0  0  # atno 7974 bound_to 7965
  156.2303  140.1858  156.7260 H   0  0  0  0  0  0  0  0  0  0  0  0  # atno 8008 bound_to 7997
  154.6011  140.0636  156.9397 H   0  0  0  0  0  0  0  0  0  0  0  0  # atno 8009 bound_to 7997
  155.2173  140.3304  155.4323 H   0  0  0  0  0  0  0  0  0  0  0  0  # atno 8010 bound_to 7997
  140.6556  143.2597  151.4595 H   0  0  0  0  0  0  0  0  0  0  0  0  # atno 10167 bound_to 10162
  157.3127  131.0890  151.1303 H   0  0  0  0  0  0  0  0  0  0  0  0  # atno 10718 bound_to 10713
  153.1847  135.4479  155.0073 H   0  0  0  0  0  0  0  0  0  0  0  0  # atno 10763 bound_to 10752
  154.8053  135.3272  154.7450 H   0  0  0  0  0  0  0  0  0  0  0  0  # atno 10764 bound_to 10752
  153.7910  135.6970  153.4926 H   0  0  0  0  0  0  0  0  0  0  0  0  # atno 10765 bound_to 10752
  140.1525  134.4444  155.8372 H   0  0  0  0  0  0  0  0  0  0  0  0  # atno 11005 bound_to 11000
  146.3530  140.0840  142.8616 LP  0  0  0  0  0  0  0  0  0  0  0  0  # atno 17320 bound_to 7965
  145.0991  140.9334  143.4723 LP  0  0  0  0  0  0  0  0  0  0  0  0  # atno 17321 bound_to 7965
  139.5778  144.1779  152.1927 LP  0  0  0  0  0  0  0  0  0  0  0  0  # atno 17342 bound_to 10162
  140.1095  144.5470  150.6935 LP  0  0  0  0  0  0  0  0  0  0  0  0  # atno 17343 bound_to 10162
  157.2619  130.6663  149.5978 LP  0  0  0  0  0  0  0  0  0  0  0  0  # atno 17370 bound_to 10713
  155.9679  130.4506  150.5703 LP  0  0  0  0  0  0  0  0  0  0  0  0  # atno 17371 bound_to 10713
  141.2200  133.6878  156.7447 LP  0  0  0  0  0  0  0  0  0  0  0  0  # atno 17394 bound_to 11000
  140.2588  134.8483  157.3738 LP  0  0  0  0  0  0  0  0  0  0  0  0  # atno 17395 bound_to 11000

$$$$
