AV-unprocessed.smi:912|AV-procd|sdf|4145|dock2
  -GOLD-   22720 2 53D 1   1.00000     0.00000
 Structure written by MMmdl.
 27 27  0  0  0  0  0  0  0  0  2 V2000
  142.6423  133.6442  152.2794 C   0  0  0  0  0  0  0  0  0  0  0  0
  142.8605  133.0767  150.9504 N   0  0  0  0  0  0  0  0  0  0  0  0
  144.1627  133.2859  150.2917 C   0  0  2  0  0  0  0  0  0  0  0  0
  144.5237  134.7755  150.5284 C   0  0  0  0  0  0  0  0  0  0  0  0
  144.0848  132.9604  148.7748 C   0  0  0  0  0  0  0  0  0  0  0  0
  143.0721  133.4913  148.0800 N   0  0  0  0  0  0  0  0  0  0  0  0
  144.9196  132.2369  148.2342 O   0  0  0  0  0  0  0  0  0  0  0  0
  145.2687  132.4033  150.9089 C   0  0  0  0  0  0  0  0  0  0  0  0
  145.2314  130.9849  150.8474 C   0  0  0  0  0  0  0  0  0  0  0  0
  146.2667  130.2295  151.4349 C   0  0  0  0  0  0  0  0  0  0  0  0
  147.2905  130.8538  152.0532 N   0  3  0  0  0  0  0  0  0  0  0  0
  147.3762  132.1973  152.1416 C   0  0  0  0  0  0  0  0  0  0  0  0
  146.3690  133.0030  151.5742 C   0  0  0  0  0  0  0  0  0  0  0  0
  141.7006  133.2660  152.6769 H   0  0  0  0  0  0  0  0  0  0  0  0
  142.5651  134.7311  152.2526 H   0  0  0  0  0  0  0  0  0  0  0  0
  143.4275  133.3675  152.9818 H   0  0  0  0  0  0  0  0  0  0  0  0
  142.1019  133.3106  150.3268 H   0  0  0  0  0  0  0  0  0  0  0  0
  145.4921  135.0363  150.1003 H   0  0  0  0  0  0  0  0  0  0  0  0
  144.5759  135.0019  151.5942 H   0  0  0  0  0  0  0  0  0  0  0  0
  143.7981  135.4589  150.0876 H   0  0  0  0  0  0  0  0  0  0  0  0
  142.9756  133.2947  147.0948 H   0  0  0  0  0  0  0  0  0  0  0  0
  142.3979  134.0782  148.5501 H   0  0  0  0  0  0  0  0  0  0  0  0
  144.4247  130.4562  150.3626 H   0  0  0  0  0  0  0  0  0  0  0  0
  146.3045  129.1500  151.4286 H   0  0  0  0  0  0  0  0  0  0  0  0
  148.2414  132.5851  152.6594 H   0  0  0  0  0  0  0  0  0  0  0  0
  146.4479  134.0779  151.6489 H   0  0  0  0  0  0  0  0  0  0  0  0
  148.0291  130.2874  152.4714 H   0  0  0  0  0  0  0  0  0  0  0  0
  1  2  1  0  0  0  0
  1 14  1  0  0  0  0
  1 15  1  0  0  0  0
  1 16  1  0  0  0  0
  2  3  1  0  0  0  0
  2 17  1  0  0  0  0
  3  4  1  0  0  0  0
  3  5  1  0  0  0  0
  3  8  1  0  0  0  0
  4 18  1  0  0  0  0
  4 19  1  0  0  0  0
  4 20  1  0  0  0  0
  5  6  1  0  0  0  0
  5  7  2  0  0  0  0
  6 21  1  0  0  0  0
  6 22  1  0  0  0  0
  8 13  1  0  0  0  0
  8  9  2  0  0  0  0
  9 10  1  0  0  0  0
  9 23  1  0  0  0  0
 10 11  2  0  0  0  0
 10 24  1  0  0  0  0
 11 12  1  0  0  0  0
 11 27  1  0  0  0  0
 12 13  2  0  0  0  0
 12 25  1  0  0  0  0
 13 26  1  0  0  0  0
M  CHG  1  11   1
M  END
> <s_m_source_file>
AV-unprocessed.smi

> <i_m_source_file_index>
912

> <i_lp_mmshare_version>
43012

> <i_f3d_flags>
0

> <s_epik_input>
W0NIM11bTkhdW0NAQF0oW0NIM10pKEMoPU8pW05IMl0pYzFbY0hdW2NIXW5bY0hdW2NIXTE=

> <s_epik_cmdline>
J2VwaWtfcHl0aG9uJywgJy1waCcsICc3LjAnLCAnLXRuJywgJzgnLCAnLW1hJywgJzIwMCcsICctbWV0YWxfYmluZGluZycsICctaW1hZScsICc8aW5maWxlLm1hZT4nLCAnLW9tYWUnLCAnPG91dGZpbGUubWFlPic=

> <r_epik_Ionization_Penalty>
0.562542

> <r_epik_Ionization_Penalty_Charging>
0.554844

> <r_epik_Ionization_Penalty_Neutral>
0.00769834

> <r_epik_State_Penalty>
1.39075

> <r_epik_Charging_Adjusted_Penalty>
1.94559

> <i_epik_Tot_Q>
1

> <i_epik_Tot_abs_Q>
1

> <r_epik_Metal_State_Penalty>
1.55563

> <b_epik_Metal_Only>
0

> <s_lp_Force_Field>
OPLS_2005

> <r_lp_Energy>
18.1992

> <b_lp_Chiralities_Consistent>
1

> <s_lp_Variant>
AV-unprocessed.smi:912-6

> <Gold.Version>
5.8.1

> <Gold.Id.Protein>
6NUR|6NUR_protein|mol2

> <Gold.PLP.Fitness>
37.4314

> <Gold.PLP.PLP>
-29.7326

> <Gold.PLP.part.hbond>
-5.7785

> <Gold.PLP.part.metal>
0.0000

> <Gold.PLP.part.buried>
-1.2902

> <Gold.PLP.part.nonpolar>
-21.7088

> <Gold.PLP.part.repulsive>
0.9868

> <Gold.PLP.ligand.clash>
0.0000

> <Gold.PLP.ligand.torsion>
0.4600

> <Gold.PLP.Chemscore.Hbond>
2.8640

> <Gold.PLP.Chemscore.CHOScore>
0.0000

> <Gold.PLP.Chemscore.Metal>
0.0000

> <Gold.Chemscore.Hbonds>
donor molecule, donor type, donor heavy atom, donor atom, acceptor molecule, acceptor atom, score
      L1  H     2    17       P1 10186  1.00
      L1  H     6    21       P1 10195  0.94
      L1  H     6    22       P1 10186  1.00

> <Gold.PLP.Chemscore.Internal.Correction>
0.0268

> <Gold.Rescore>
     Score         DG    S(hbond)    S(metal)    S(lipo)     H(rot)  DE(clash)    DE(int)     intcor
     11.24     -14.25       1.89        0.00      60.83       1.82       1.77       1.24       ----

> <Gold.Chemscore.Fitness>
11.2449

> <Gold.Chemscore.DG>
-14.2521

> <Gold.Chemscore.ZeroCoef>
-5.4800

> <Gold.Chemscore.Hbond>
1.8926

> <Gold.Chemscore.Metal>
0.0000

> <Gold.Chemscore.Lipo>
60.8251

> <Gold.Chemscore.Internal_Hbond>
0.0000

> <Gold.Chemscore.DEClash>
1.7665

> <Gold.Chemscore.DEInternal>
1.2406

> <Gold.Chemscore.Rot>
1.8226

> <Gold.Chemscore.Internal.Correction>
   9.000000E+99

> <Gold.Chemscore.Hbonds>
donor molecule, donor type, donor heavy atom, donor atom, acceptor molecule, acceptor atom, score
      L1  H     2    17       P1 10186  0.98
      L1  H     6    21       P1 10195  0.90
      L1  H     6    22       P1 10186  0.99

> <Gold.Chemscore.Hbond.Weighted>
-6.3214

> <Gold.Chemscore.Metal.Weighted>
-0.0000

> <Gold.Chemscore.Lipo.Weighted>
-7.1165

> <Gold.Chemscore.Internal_Hbond.Weighted>
0.0000

> <Gold.Chemscore.DEClash.Weighted>
1.7665

> <Gold.Chemscore.DEInternal.Weighted>
1.2406

> <Gold.Chemscore.Rot.Weighted>
4.6659

> <Gold.Chemscore.Internal.Correction.Weighted>
   9.000000E+99

> <Gold.Protein.RotatedTorsions>
[ 6907 6896 6895 6894 ] final -100.91 input  -60.11 | X-H torsion
[ 7974 7965 7964 7962 ] final  -15.26 input  175.53 | X-H torsion
[ 8008 7997 7996 7995 ] final   49.66 input   59.86 | X-H torsion
[ 10167 10162 10161 10158 ] final   91.93 input  -65.29 | X-H torsion
[ 10718 10713 10712 10709 ] final  -31.67 input   66.30 | X-H torsion
[ 10763 10752 10751 10750 ] final   39.23 input  -60.55 | X-H torsion
[ 11005 11000 10999 10996 ] final -157.87 input  -57.11 | X-H torsion

> <Gold.Protein.ActiveResidues>
 VAL166  LYS551  ARG553  GLY616  TRP617  ASP618  TYR619  PRO620  LYS621  CYS622 
 ASP623  PHE694  ASN695  SER759  ASP760  ASP761  ALA762  ILE779  LEU786  VAL792 
 PHE793  MET794  SER795  GLU796  ALA797  LYS798  CYS799  TRP800  GLU811  SER814 

> <Gold.Protein.RotatedAtoms>
  150.7134  134.0814  159.3899 H   0  0  0  0  0  0  0  0  0  0  0  0  # atno 6907 bound_to 6896
  151.8798  135.0455  160.0497 H   0  0  0  0  0  0  0  0  0  0  0  0  # atno 6908 bound_to 6896
  152.2577  133.5234  159.5399 H   0  0  0  0  0  0  0  0  0  0  0  0  # atno 6909 bound_to 6896
  146.2039  140.3468  142.8413 H   0  0  0  0  0  0  0  0  0  0  0  0  # atno 7974 bound_to 7965
  155.4060  140.3440  155.4260 H   0  0  0  0  0  0  0  0  0  0  0  0  # atno 8008 bound_to 7997
  156.1476  140.1561  156.8853 H   0  0  0  0  0  0  0  0  0  0  0  0  # atno 8009 bound_to 7997
  154.5024  140.0811  156.7807 H   0  0  0  0  0  0  0  0  0  0  0  0  # atno 8010 bound_to 7997
  139.8326  144.6680  150.9381 H   0  0  0  0  0  0  0  0  0  0  0  0  # atno 10167 bound_to 10162
  156.3843  130.4361  149.7444 H   0  0  0  0  0  0  0  0  0  0  0  0  # atno 10718 bound_to 10713
  152.9974  135.6226  154.2431 H   0  0  0  0  0  0  0  0  0  0  0  0  # atno 10763 bound_to 10752
  154.2171  135.2797  155.2939 H   0  0  0  0  0  0  0  0  0  0  0  0  # atno 10764 bound_to 10752
  154.5559  135.5719  153.7022 H   0  0  0  0  0  0  0  0  0  0  0  0  # atno 10765 bound_to 10752
  140.6599  134.4360  157.5234 H   0  0  0  0  0  0  0  0  0  0  0  0  # atno 11005 bound_to 11000
  144.8747  140.7320  143.6024 LP  0  0  0  0  0  0  0  0  0  0  0  0  # atno 17320 bound_to 7965
  145.3387  139.1738  143.4497 LP  0  0  0  0  0  0  0  0  0  0  0  0  # atno 17321 bound_to 7965
  140.7805  143.3987  151.1186 LP  0  0  0  0  0  0  0  0  0  0  0  0  # atno 17342 bound_to 10162
  139.7639  143.8594  152.3106 LP  0  0  0  0  0  0  0  0  0  0  0  0  # atno 17343 bound_to 10162
  156.4522  130.7912  151.2933 LP  0  0  0  0  0  0  0  0  0  0  0  0  # atno 17370 bound_to 10713
  157.7495  131.0092  150.3257 LP  0  0  0  0  0  0  0  0  0  0  0  0  # atno 17371 bound_to 10713
  139.9016  134.8542  156.1871 LP  0  0  0  0  0  0  0  0  0  0  0  0  # atno 17394 bound_to 11000
  141.0473  133.6907  156.1706 LP  0  0  0  0  0  0  0  0  0  0  0  0  # atno 17395 bound_to 11000

$$$$
