AV-unprocessed.smi:2340|AV-procd|sdf|9346|dock2
  -GOLD-   2272012563D 1   1.00000     0.00000
 Structure written by MMmdl.
 40 41  0  0  0  0  0  0  0  0  1 V2000
  152.8315  138.7173  154.8356 C   0  0  0  0  0  0  0  0  0  0  0  0
  151.3462  138.5455  154.8869 C   0  0  0  0  0  0  0  0  0  0  0  0
  150.6477  137.6032  155.5997 C   0  0  0  0  0  0  0  0  0  0  0  0
  148.9278  137.7638  155.3769 S   0  0  0  0  0  0  0  0  0  0  0  0
  149.2246  139.1271  154.3028 C   0  0  0  0  0  0  0  0  0  0  0  0
  148.1250  139.9108  153.6520 C   0  0  2  0  0  0  0  0  0  0  0  0
  148.0132  141.3338  154.2173 C   0  0  0  0  0  0  0  0  0  0  0  0
  146.7732  139.1616  153.6324 C   0  0  0  0  0  0  0  0  0  0  0  0
  146.8946  137.7824  153.1681 N   0  0  0  0  0  0  0  0  0  0  0  0
  145.8897  136.8990  153.1094 C   0  0  0  0  0  0  0  0  0  0  0  0
  144.7448  137.1269  153.5009 O   0  0  0  0  0  0  0  0  0  0  0  0
  146.2758  135.7472  152.5460 N   0  0  0  0  0  0  0  0  0  0  0  0
  145.3974  134.6086  152.2840 C   0  0  1  0  0  0  0  0  0  0  0  0
  144.4983  134.8629  151.0717 C   0  0  0  0  0  0  0  0  0  0  0  0
  144.6977  133.6322  150.1928 C   0  0  0  0  0  0  0  0  0  0  0  0
  146.0188  133.2218  150.4972 O   0  0  0  0  0  0  0  0  0  0  0  0
  146.1722  133.3277  151.9048 C   0  0  1  0  0  0  0  0  0  0  0  0
  147.6605  133.2672  152.2852 C   0  0  0  0  0  0  0  0  0  0  0  0
  150.5235  139.4061  154.1553 N   0  0  0  0  0  0  0  0  0  0  0  0
  153.3423  137.9492  155.4169 H   0  0  0  0  0  0  0  0  0  0  0  0
  153.1289  139.6864  155.2365 H   0  0  0  0  0  0  0  0  0  0  0  0
  153.1999  138.6548  153.8114 H   0  0  0  0  0  0  0  0  0  0  0  0
  151.0389  136.8276  156.2413 H   0  0  0  0  0  0  0  0  0  0  0  0
  148.4248  140.0317  152.6103 H   0  0  0  0  0  0  0  0  0  0  0  0
  148.9581  141.8694  154.1216 H   0  0  0  0  0  0  0  0  0  0  0  0
  147.7430  141.3203  155.2735 H   0  0  0  0  0  0  0  0  0  0  0  0
  147.2528  141.9075  153.6871 H   0  0  0  0  0  0  0  0  0  0  0  0
  146.3652  139.1229  154.6429 H   0  0  0  0  0  0  0  0  0  0  0  0
  146.0430  139.6998  153.0260 H   0  0  0  0  0  0  0  0  0  0  0  0
  147.7986  137.4987  152.8196 H   0  0  0  0  0  0  0  0  0  0  0  0
  147.2377  135.6564  152.2532 H   0  0  0  0  0  0  0  0  0  0  0  0
  144.7976  134.4073  153.1733 H   0  0  0  0  0  0  0  0  0  0  0  0
  143.4533  135.0070  151.3476 H   0  0  0  0  0  0  0  0  0  0  0  0
  144.8195  135.7512  150.5249 H   0  0  0  0  0  0  0  0  0  0  0  0
  143.9978  132.8409  150.4658 H   0  0  0  0  0  0  0  0  0  0  0  0
  144.5763  133.8480  149.1311 H   0  0  0  0  0  0  0  0  0  0  0  0
  145.6637  132.4716  152.3519 H   0  0  0  0  0  0  0  0  0  0  0  0
  147.7961  133.3845  153.3605 H   0  0  0  0  0  0  0  0  0  0  0  0
  148.2370  134.0446  151.7830 H   0  0  0  0  0  0  0  0  0  0  0  0
  148.0914  132.3073  152.0003 H   0  0  0  0  0  0  0  0  0  0  0  0
  1  2  1  0  0  0  0
  1 20  1  0  0  0  0
  1 21  1  0  0  0  0
  1 22  1  0  0  0  0
  2 19  1  0  0  0  0
  2  3  2  0  0  0  0
  3  4  1  0  0  0  0
  3 23  1  0  0  0  0
  4  5  1  0  0  0  0
  5  6  1  0  0  0  0
  5 19  2  0  0  0  0
  6  7  1  0  0  0  0
  6  8  1  0  0  0  0
  6 24  1  0  0  0  0
  7 25  1  0  0  0  0
  7 26  1  0  0  0  0
  7 27  1  0  0  0  0
  8  9  1  0  0  0  0
  8 28  1  0  0  0  0
  8 29  1  0  0  0  0
  9 10  1  0  0  0  0
  9 30  1  0  0  0  0
 10 11  2  0  0  0  0
 10 12  1  0  0  0  0
 12 13  1  0  0  0  0
 12 31  1  0  0  0  0
 13 17  1  0  0  0  0
 13 14  1  0  0  0  0
 13 32  1  0  0  0  0
 14 15  1  0  0  0  0
 14 33  1  0  0  0  0
 14 34  1  0  0  0  0
 15 16  1  0  0  0  0
 15 35  1  0  0  0  0
 15 36  1  0  0  0  0
 16 17  1  0  0  0  0
 17 18  1  0  0  0  0
 17 37  1  0  0  0  0
 18 38  1  0  0  0  0
 18 39  1  0  0  0  0
 18 40  1  0  0  0  0
M  END
> <s_m_source_file>
AV-unprocessed.smi

> <i_m_source_file_index>
2340

> <i_lp_mmshare_version>
43012

> <i_f3d_flags>
0

> <s_epik_input>
W0NIM11jMVtjSF1zYyhuMSlbQ0BIXShbQ0gzXSlbQ0gyXVtOSF1DKD1PKVtOSF1bQ0BASF0yW0NIMl1bQ0gyXU9bQ0BIXTJbQ0gzXQ==

> <s_epik_cmdline>
J2VwaWtfcHl0aG9uJywgJy1waCcsICc3LjAnLCAnLXRuJywgJzgnLCAnLW1hJywgJzIwMCcsICctbWV0YWxfYmluZGluZycsICctaW1hZScsICc8aW5maWxlLm1hZT4nLCAnLW9tYWUnLCAnPG91dGZpbGUubWFlPic=

> <r_epik_Ionization_Penalty>
0.00156622

> <r_epik_Ionization_Penalty_Charging>
0

> <r_epik_Ionization_Penalty_Neutral>
0.00156622

> <r_epik_State_Penalty>
0.00101902

> <r_epik_Charging_Adjusted_Penalty>
0.00101902

> <i_epik_Tot_Q>
0

> <i_epik_Tot_abs_Q>
0

> <r_epik_Metal_State_Penalty>
-0

> <b_epik_Metal_Only>
0

> <s_lp_Force_Field>
OPLS_2005

> <r_lp_Energy>
5.02478

> <b_lp_Chiralities_Consistent>
1

> <s_lp_Variant>
AV-unprocessed.smi:2340-3

> <Gold.Version>
5.8.1

> <Gold.Id.Protein>
6NUR|6NUR_protein|mol2

> <Gold.PLP.Fitness>
38.6496

> <Gold.PLP.PLP>
-30.5487

> <Gold.PLP.part.hbond>
-3.0000

> <Gold.PLP.part.metal>
0.0000

> <Gold.PLP.part.buried>
-1.8061

> <Gold.PLP.part.nonpolar>
-25.7739

> <Gold.PLP.part.repulsive>
0.5874

> <Gold.PLP.ligand.clash>
0.0000

> <Gold.PLP.ligand.torsion>
0.5191

> <Gold.PLP.Chemscore.Hbond>
3.0000

> <Gold.PLP.Chemscore.CHOScore>
0.0000

> <Gold.PLP.Chemscore.Metal>
0.0000

> <Gold.Chemscore.Hbonds>
donor molecule, donor type, donor heavy atom, donor atom, acceptor molecule, acceptor atom, score
      L1  H     9    30       P1  7948  1.00
      L1  H    12    31       P1  7948  1.00
      P1  H  7989  7998       L1    19  1.00

> <Gold.PLP.Chemscore.Internal.Correction>
0.1391

> <Gold.Rescore>
     Score         DG    S(hbond)    S(metal)    S(lipo)     H(rot)  DE(clash)    DE(int)     intcor
     18.13     -19.67       2.78        0.00      75.39       1.53       0.76       0.78       ----

> <Gold.Chemscore.Fitness>
18.1320

> <Gold.Chemscore.DG>
-19.6714

> <Gold.Chemscore.ZeroCoef>
-5.4800

> <Gold.Chemscore.Hbond>
2.7827

> <Gold.Chemscore.Metal>
0.0000

> <Gold.Chemscore.Lipo>
75.3878

> <Gold.Chemscore.Internal_Hbond>
0.0000

> <Gold.Chemscore.DEClash>
0.7582

> <Gold.Chemscore.DEInternal>
0.7812

> <Gold.Chemscore.Rot>
1.5325

> <Gold.Chemscore.Internal.Correction>
   9.000000E+99

> <Gold.Chemscore.Hbonds>
donor molecule, donor type, donor heavy atom, donor atom, acceptor molecule, acceptor atom, score
      L1  H     9    30       P1  7948  0.95
      L1  H    12    31       P1  7948  0.99
      P1  H  7989  7998       L1    19  0.65

> <Gold.Chemscore.Hbond.Weighted>
-9.2944

> <Gold.Chemscore.Metal.Weighted>
-0.0000

> <Gold.Chemscore.Lipo.Weighted>
-8.8204

> <Gold.Chemscore.Internal_Hbond.Weighted>
0.0000

> <Gold.Chemscore.DEClash.Weighted>
0.7582

> <Gold.Chemscore.DEInternal.Weighted>
0.7812

> <Gold.Chemscore.Rot.Weighted>
3.9233

> <Gold.Chemscore.Internal.Correction.Weighted>
   9.000000E+99

> <Gold.Protein.RotatedTorsions>
[ 6907 6896 6895 6894 ] final  133.71 input  -60.11 | X-H torsion
[ 7974 7965 7964 7962 ] final   26.15 input  175.53 | X-H torsion
[ 8008 7997 7996 7995 ] final    5.02 input   59.86 | X-H torsion
[ 10167 10162 10161 10158 ] final  -56.41 input  -65.29 | X-H torsion
[ 10718 10713 10712 10709 ] final   99.02 input   66.30 | X-H torsion
[ 10763 10752 10751 10750 ] final  -86.35 input  -60.55 | X-H torsion
[ 11005 11000 10999 10996 ] final   91.34 input  -57.11 | X-H torsion

> <Gold.Protein.ActiveResidues>
 VAL166  LYS551  ARG553  GLY616  TRP617  ASP618  TYR619  PRO620  LYS621  CYS622 
 ASP623  PHE694  ASN695  SER759  ASP760  ASP761  ALA762  ILE779  LEU786  VAL792 
 PHE793  MET794  SER795  GLU796  ALA797  LYS798  CYS799  TRP800  GLU811  SER814 

> <Gold.Protein.RotatedAtoms>
  152.3191  133.5834  159.5731 H   0  0  0  0  0  0  0  0  0  0  0  0  # atno 6907 bound_to 6896
  150.7362  134.0038  159.3656 H   0  0  0  0  0  0  0  0  0  0  0  0  # atno 6908 bound_to 6896
  151.7924  135.0732  160.0440 H   0  0  0  0  0  0  0  0  0  0  0  0  # atno 6909 bound_to 6896
  146.1852  139.7368  142.8871 H   0  0  0  0  0  0  0  0  0  0  0  0  # atno 7974 bound_to 7965
  154.7232  140.2716  155.6522 H   0  0  0  0  0  0  0  0  0  0  0  0  # atno 8008 bound_to 7997
  156.2829  140.2730  156.1835 H   0  0  0  0  0  0  0  0  0  0  0  0  # atno 8009 bound_to 7997
  155.0479  140.0371  157.2523 H   0  0  0  0  0  0  0  0  0  0  0  0  # atno 8010 bound_to 7997
  140.6319  143.2463  151.5219 H   0  0  0  0  0  0  0  0  0  0  0  0  # atno 10167 bound_to 10162
  157.6884  131.0657  150.4884 H   0  0  0  0  0  0  0  0  0  0  0  0  # atno 10718 bound_to 10713
  154.6215  135.5452  153.7580 H   0  0  0  0  0  0  0  0  0  0  0  0  # atno 10763 bound_to 10752
  153.0240  135.6414  154.1434 H   0  0  0  0  0  0  0  0  0  0  0  0  # atno 10764 bound_to 10752
  154.1368  135.2911  155.3151 H   0  0  0  0  0  0  0  0  0  0  0  0  # atno 10765 bound_to 10752
  139.8840  134.8668  156.3414 H   0  0  0  0  0  0  0  0  0  0  0  0  # atno 11005 bound_to 11000
  145.3959  141.0379  143.3098 LP  0  0  0  0  0  0  0  0  0  0  0  0  # atno 17320 bound_to 7965
  144.8385  139.5511  143.6911 LP  0  0  0  0  0  0  0  0  0  0  0  0  # atno 17321 bound_to 7965
  139.5532  144.2342  152.1567 LP  0  0  0  0  0  0  0  0  0  0  0  0  # atno 17342 bound_to 10162
  140.1588  144.5046  150.6645 LP  0  0  0  0  0  0  0  0  0  0  0  0  # atno 17343 bound_to 10162
  156.5212  130.4162  149.6249 LP  0  0  0  0  0  0  0  0  0  0  0  0  # atno 17370 bound_to 10713
  156.3152  130.7251  151.2152 LP  0  0  0  0  0  0  0  0  0  0  0  0  # atno 17371 bound_to 10713
  140.9656  133.7360  156.0462 LP  0  0  0  0  0  0  0  0  0  0  0  0  # atno 17394 bound_to 11000
  140.7935  134.3590  157.5458 LP  0  0  0  0  0  0  0  0  0  0  0  0  # atno 17395 bound_to 11000

$$$$
