AV-unprocessed.smi:501|AV-procd|sdf|2743|dock6
  -GOLD-   2262023203D 1   1.00000     0.00000
 Structure written by MMmdl.
 46 48  0  0  0  0  0  0  0  0  2 V2000
  154.6741  140.0615  161.8935 C   0  0  0  0  0  0  0  0  0  0  0  0
  153.6801  140.7415  160.9743 C   0  0  0  0  0  0  0  0  0  0  0  0
  153.3316  142.0921  161.1749 C   0  0  0  0  0  0  0  0  0  0  0  0
  152.4061  142.7134  160.3167 C   0  0  0  0  0  0  0  0  0  0  0  0
  151.8291  141.9871  159.2578 C   0  0  0  0  0  0  0  0  0  0  0  0
  152.1671  140.6354  159.0415 C   0  0  0  0  0  0  0  0  0  0  0  0
  151.5555  139.9991  157.9824 O   0  0  0  0  0  0  0  0  0  0  0  0
  151.1546  140.7881  156.8724 C   0  0  0  0  0  0  0  0  0  0  0  0
  151.5979  140.0955  155.5799 C   0  0  0  0  0  0  0  0  0  0  0  0
  150.4580  139.4938  154.8743 N   0  0  0  0  0  0  0  0  0  0  0  0
  150.2635  138.2183  154.4269 C   0  0  0  0  0  0  0  0  0  0  0  0
  151.2033  137.0580  154.5614 C   0  0  0  0  0  0  0  0  0  0  0  0
  150.5617  135.8282  155.2361 C   0  0  0  0  0  0  0  0  0  0  0  0
  149.6828  135.0770  154.3432 N   0  0  0  0  0  0  0  0  0  0  0  0
  149.2598  133.8233  154.5589 C   0  0  0  0  0  0  0  0  0  0  0  0
  149.5844  133.1377  155.5269 O   0  0  0  0  0  0  0  0  0  0  0  0
  149.0289  138.1814  153.8482 N   0  3  0  0  0  0  0  0  0  0  0  0
  148.4443  139.4471  153.8955 C   0  0  0  0  0  0  0  0  0  0  0  0
  147.2158  139.9017  153.4261 C   0  0  0  0  0  0  0  0  0  0  0  0
  146.9249  141.2663  153.6327 C   0  0  0  0  0  0  0  0  0  0  0  0
  147.8387  142.1213  154.2828 C   0  0  0  0  0  0  0  0  0  0  0  0
  149.0806  141.6484  154.7554 C   0  0  0  0  0  0  0  0  0  0  0  0
  149.3590  140.2972  154.5495 C   0  0  0  0  0  0  0  0  0  0  0  0
  153.1010  140.0173  159.9122 C   0  0  0  0  0  0  0  0  0  0  0  0
  155.0270  140.7392  162.6716 H   0  0  0  0  0  0  0  0  0  0  0  0
  155.5383  139.7163  161.3256 H   0  0  0  0  0  0  0  0  0  0  0  0
  154.2135  139.1996  162.3767 H   0  0  0  0  0  0  0  0  0  0  0  0
  153.7705  142.6552  161.9856 H   0  0  0  0  0  0  0  0  0  0  0  0
  152.1377  143.7482  160.4705 H   0  0  0  0  0  0  0  0  0  0  0  0
  151.1186  142.4725  158.6049 H   0  0  0  0  0  0  0  0  0  0  0  0
  150.0710  140.9172  156.8745 H   0  0  0  0  0  0  0  0  0  0  0  0
  151.6156  141.7738  156.9278 H   0  0  0  0  0  0  0  0  0  0  0  0
  152.0716  140.8116  154.9083 H   0  0  0  0  0  0  0  0  0  0  0  0
  152.3449  139.3269  155.7797 H   0  0  0  0  0  0  0  0  0  0  0  0
  151.5761  136.7747  153.5774 H   0  0  0  0  0  0  0  0  0  0  0  0
  152.0725  137.3805  155.1347 H   0  0  0  0  0  0  0  0  0  0  0  0
  151.3374  135.1713  155.6329 H   0  0  0  0  0  0  0  0  0  0  0  0
  149.9677  136.1479  156.0928 H   0  0  0  0  0  0  0  0  0  0  0  0
  149.3516  135.5532  153.5165 H   0  0  0  0  0  0  0  0  0  0  0  0
  148.5874  133.4907  153.7531 H   0  0  0  0  0  0  0  0  0  0  0  0
  146.5155  139.2487  152.9260 H   0  0  0  0  0  0  0  0  0  0  0  0
  145.9834  141.6660  153.2848 H   0  0  0  0  0  0  0  0  0  0  0  0
  147.5823  143.1618  154.4219 H   0  0  0  0  0  0  0  0  0  0  0  0
  149.7736  142.3134  155.2493 H   0  0  0  0  0  0  0  0  0  0  0  0
  153.3895  138.9850  159.7855 H   0  0  0  0  0  0  0  0  0  0  0  0
  148.6209  137.3486  153.4436 H   0  0  0  0  0  0  0  0  0  0  0  0
  1  2  1  0  0  0  0
  1 25  1  0  0  0  0
  1 26  1  0  0  0  0
  1 27  1  0  0  0  0
  2 24  1  0  0  0  0
  2  3  2  0  0  0  0
  3  4  1  0  0  0  0
  3 28  1  0  0  0  0
  4  5  2  0  0  0  0
  4 29  1  0  0  0  0
  5  6  1  0  0  0  0
  5 30  1  0  0  0  0
  6  7  1  0  0  0  0
  6 24  2  0  0  0  0
  7  8  1  0  0  0  0
  8  9  1  0  0  0  0
  8 31  1  0  0  0  0
  8 32  1  0  0  0  0
  9 10  1  0  0  0  0
  9 33  1  0  0  0  0
  9 34  1  0  0  0  0
 10 23  1  0  0  0  0
 10 11  1  0  0  0  0
 11 12  1  0  0  0  0
 11 17  2  0  0  0  0
 12 13  1  0  0  0  0
 12 35  1  0  0  0  0
 12 36  1  0  0  0  0
 13 14  1  0  0  0  0
 13 37  1  0  0  0  0
 13 38  1  0  0  0  0
 14 15  1  0  0  0  0
 14 39  1  0  0  0  0
 15 16  2  0  0  0  0
 15 40  1  0  0  0  0
 17 18  1  0  0  0  0
 17 46  1  0  0  0  0
 18 23  2  0  0  0  0
 18 19  1  0  0  0  0
 19 20  2  0  0  0  0
 19 41  1  0  0  0  0
 20 21  1  0  0  0  0
 20 42  1  0  0  0  0
 21 22  2  0  0  0  0
 21 43  1  0  0  0  0
 22 23  1  0  0  0  0
 22 44  1  0  0  0  0
 24 45  1  0  0  0  0
M  CHG  1  17   1
M  END
> <s_m_source_file>
AV-unprocessed.smi

> <i_m_source_file_index>
501

> <i_lp_mmshare_version>
43012

> <i_f3d_flags>
0

> <s_epik_input>
W0NIM11jMVtjSF1bY0hdW2NIXWMoW2NIXTEpT1tDSDJdW0NIMl1uKGMobjIpW0NIMl1bQ0gyXVtOSF1bQ0hdPU8pYyhjMjMpW2NIXVtjSF1bY0hdW2NIXTM=

> <s_epik_cmdline>
J2VwaWtfcHl0aG9uJywgJy1waCcsICc3LjAnLCAnLXRuJywgJzgnLCAnLW1hJywgJzIwMCcsICctbWV0YWxfYmluZGluZycsICctaW1hZScsICc8aW5maWxlLm1hZT4nLCAnLW9tYWUnLCAnPG91dGZpbGUubWFlPic=

> <r_lp_tautomer_probability>
1

> <r_epik_Ionization_Penalty>
1.14747

> <r_epik_Ionization_Penalty_Charging>
1.14747

> <r_epik_Ionization_Penalty_Neutral>
1.55554e-08

> <r_epik_State_Penalty>
1.20856

> <r_epik_Charging_Adjusted_Penalty>
2.35603

> <i_epik_Tot_Q>
1

> <i_epik_Tot_abs_Q>
1

> <r_epik_Metal_State_Penalty>
1.28951

> <b_epik_Metal_Only>
0

> <s_lp_Force_Field>
OPLS_2005

> <r_lp_Energy>
21.7567

> <b_lp_Chiralities_Consistent>
1

> <s_lp_Variant>
AV-unprocessed.smi:501-2

> <Gold.Version>
5.8.1

> <Gold.Id.Protein>
6NUR|6NUR_protein|mol2

> <Gold.PLP.Fitness>
57.8376

> <Gold.PLP.PLP>
-52.6452

> <Gold.PLP.part.hbond>
-2.4149

> <Gold.PLP.part.metal>
0.0000

> <Gold.PLP.part.buried>
1.5510

> <Gold.PLP.part.nonpolar>
-50.5887

> <Gold.PLP.part.repulsive>
0.0908

> <Gold.PLP.ligand.clash>
0.0000

> <Gold.PLP.ligand.torsion>
1.2777

> <Gold.PLP.Chemscore.Hbond>
2.5040

> <Gold.PLP.Chemscore.CHOScore>
0.0000

> <Gold.PLP.Chemscore.Metal>
0.0000

> <Gold.Chemscore.Hbonds>
donor molecule, donor type, donor heavy atom, donor atom, acceptor molecule, acceptor atom, score
      L1  H    14    39       P1  7948  1.00
      L1  H    17    46       P1  7948  1.41

> <Gold.PLP.Chemscore.Internal.Correction>
0.2357

> <Gold.Rescore>
     Score         DG    S(hbond)    S(metal)    S(lipo)     H(rot)  DE(clash)    DE(int)     intcor
     15.01     -16.46       0.63        0.00     134.61       2.68       0.29       1.17       ----

> <Gold.Chemscore.Fitness>
15.0071

> <Gold.Chemscore.DG>
-16.4643

> <Gold.Chemscore.ZeroCoef>
-5.4800

> <Gold.Chemscore.Hbond>
0.6308

> <Gold.Chemscore.Metal>
0.0000

> <Gold.Chemscore.Lipo>
134.6085

> <Gold.Chemscore.Internal_Hbond>
0.0000

> <Gold.Chemscore.DEClash>
0.2862

> <Gold.Chemscore.DEInternal>
1.1709

> <Gold.Chemscore.Rot>
2.6843

> <Gold.Chemscore.Internal.Correction>
   9.000000E+99

> <Gold.Chemscore.Hbonds>
donor molecule, donor type, donor heavy atom, donor atom, acceptor molecule, acceptor atom, score
      L1  H    14    39       P1  7948  0.30
      L1  H    17    46       P1  7948  0.69

> <Gold.Chemscore.Hbond.Weighted>
-2.1069

> <Gold.Chemscore.Metal.Weighted>
-0.0000

> <Gold.Chemscore.Lipo.Weighted>
-15.7492

> <Gold.Chemscore.Internal_Hbond.Weighted>
0.0000

> <Gold.Chemscore.DEClash.Weighted>
0.2862

> <Gold.Chemscore.DEInternal.Weighted>
1.1709

> <Gold.Chemscore.Rot.Weighted>
6.8718

> <Gold.Chemscore.Internal.Correction.Weighted>
   9.000000E+99

> <Gold.Protein.RotatedTorsions>
[ 6907 6896 6895 6894 ] final   81.70 input  -60.11 | X-H torsion
[ 7974 7965 7964 7962 ] final -106.66 input  175.53 | X-H torsion
[ 8008 7997 7996 7995 ] final   20.11 input   59.86 | X-H torsion
[ 10167 10162 10161 10158 ] final  -24.12 input  -65.29 | X-H torsion
[ 10718 10713 10712 10709 ] final -127.00 input   66.30 | X-H torsion
[ 10763 10752 10751 10750 ] final -172.97 input  -60.55 | X-H torsion
[ 11005 11000 10999 10996 ] final  106.57 input  -57.11 | X-H torsion

> <Gold.Protein.ActiveResidues>
 VAL166  LYS551  ARG553  GLY616  TRP617  ASP618  TYR619  PRO620  LYS621  CYS622 
 ASP623  PHE694  ASN695  SER759  ASP760  ASP761  ALA762  ILE779  LEU786  VAL792 
 PHE793  MET794  SER795  GLU796  ALA797  LYS798  CYS799  TRP800  GLU811  SER814 

> <Gold.Protein.RotatedAtoms>
  152.5276  134.3164  159.9131 H   0  0  0  0  0  0  0  0  0  0  0  0  # atno 6907 bound_to 6896
  151.3113  133.4073  159.2655 H   0  0  0  0  0  0  0  0  0  0  0  0  # atno 6908 bound_to 6896
  151.0036  134.9358  159.8025 H   0  0  0  0  0  0  0  0  0  0  0  0  # atno 6909 bound_to 6896
  145.2151  140.9112  143.3292 H   0  0  0  0  0  0  0  0  0  0  0  0  # atno 7974 bound_to 7965
  154.9307  140.3040  155.5169 H   0  0  0  0  0  0  0  0  0  0  0  0  # atno 8008 bound_to 7997
  156.3003  140.2354  156.4303 H   0  0  0  0  0  0  0  0  0  0  0  0  # atno 8009 bound_to 7997
  154.8240  140.0422  157.1419 H   0  0  0  0  0  0  0  0  0  0  0  0  # atno 8010 bound_to 7997
  140.7288  143.4382  151.0698 H   0  0  0  0  0  0  0  0  0  0  0  0  # atno 10167 bound_to 10162
  156.1817  130.6736  151.0313 H   0  0  0  0  0  0  0  0  0  0  0  0  # atno 10718 bound_to 10713
  154.6132  135.2867  155.0409 H   0  0  0  0  0  0  0  0  0  0  0  0  # atno 10763 bound_to 10752
  154.1631  135.6485  153.4994 H   0  0  0  0  0  0  0  0  0  0  0  0  # atno 10764 bound_to 10752
  153.0204  135.5383  154.6894 H   0  0  0  0  0  0  0  0  0  0  0  0  # atno 10765 bound_to 10752
  139.8816  134.9373  156.5686 H   0  0  0  0  0  0  0  0  0  0  0  0  # atno 11005 bound_to 11000
  144.9818  139.3775  143.6258 LP  0  0  0  0  0  0  0  0  0  0  0  0  # atno 17320 bound_to 7965
  146.3389  139.8963  142.8801 LP  0  0  0  0  0  0  0  0  0  0  0  0  # atno 17321 bound_to 7965
  139.8046  143.8036  152.3166 LP  0  0  0  0  0  0  0  0  0  0  0  0  # atno 17342 bound_to 10162
  139.8064  144.7353  150.9755 LP  0  0  0  0  0  0  0  0  0  0  0  0  # atno 17343 bound_to 10162
  157.6872  131.0821  150.7209 LP  0  0  0  0  0  0  0  0  0  0  0  0  # atno 17370 bound_to 10713
  156.7266  130.4697  149.5510 LP  0  0  0  0  0  0  0  0  0  0  0  0  # atno 17371 bound_to 10713
  140.8115  133.8425  155.8814 LP  0  0  0  0  0  0  0  0  0  0  0  0  # atno 17394 bound_to 11000
  140.9502  134.1789  157.4734 LP  0  0  0  0  0  0  0  0  0  0  0  0  # atno 17395 bound_to 11000

$$$$
