AV-unprocessed.smi:2896|AV-procd|sdf|11138|dock2
  -GOLD-   2272016 13D 1   1.00000     0.00000
 Structure written by MMmdl.
 49 50  0  0  0  0  0  0  0  0  1 V2000
  150.9098  140.9527  155.5883 C   0  0  0  0  0  0  0  0  0  0  0  0
  149.5251  141.4798  156.0053 C   0  0  2  0  0  0  0  0  0  0  0  0
  149.4180  141.6882  157.5332 C   0  0  0  0  0  0  0  0  0  0  0  0
  150.5342  142.4632  158.0673 N   0  0  0  0  0  0  0  0  0  0  0  0
  150.4515  143.4247  159.0033 C   0  0  0  0  0  0  0  0  0  0  0  0
  149.3789  143.7595  159.5088 O   0  0  0  0  0  0  0  0  0  0  0  0
  151.7590  144.1373  159.4354 C   0  0  0  0  0  0  0  0  0  0  0  0
  152.4448  144.6884  158.1599 C   0  0  0  0  0  0  0  0  0  0  0  0
  151.4904  145.3523  160.3602 C   0  0  0  0  0  0  0  0  0  0  0  0
  152.6239  143.1044  160.1834 C   0  0  0  0  0  0  0  0  0  0  0  0
  152.8394  143.2259  161.5779 C   0  0  0  0  0  0  0  0  0  0  0  0
  153.6317  142.2739  162.2461 C   0  0  0  0  0  0  0  0  0  0  0  0
  154.1886  141.2226  161.4952 C   0  0  0  0  0  0  0  0  0  0  0  0
  153.9990  141.0847  160.1673 N   0  0  0  0  0  0  0  0  0  0  0  0
  153.2362  142.0022  159.5349 C   0  0  0  0  0  0  0  0  0  0  0  0
  148.4287  140.5195  155.4928 C   0  0  0  0  0  0  0  0  0  0  0  0
  147.0820  141.0833  155.3798 N   0  0  0  0  0  0  0  0  0  0  0  0
  146.5396  141.5225  156.6642 C   0  0  0  0  0  0  0  0  0  0  0  0
  145.1365  142.1362  156.5147 C   0  0  0  0  0  0  0  0  0  0  0  0
  145.1797  143.2140  155.5856 O   0  0  0  0  0  0  0  0  0  0  0  0
  145.6589  142.8151  154.3059 C   0  0  0  0  0  0  0  0  0  0  0  0
  147.0648  142.2078  154.4500 C   0  0  0  0  0  0  0  0  0  0  0  0
  151.1396  140.0091  156.0845 H   0  0  0  0  0  0  0  0  0  0  0  0
  151.7017  141.6600  155.8345 H   0  0  0  0  0  0  0  0  0  0  0  0
  150.9581  140.7826  154.5124 H   0  0  0  0  0  0  0  0  0  0  0  0
  149.4041  142.4470  155.5180 H   0  0  0  0  0  0  0  0  0  0  0  0
  148.5100  142.2431  157.7695 H   0  0  0  0  0  0  0  0  0  0  0  0
  149.3220  140.7277  158.0421 H   0  0  0  0  0  0  0  0  0  0  0  0
  151.4491  142.2497  157.6970 H   0  0  0  0  0  0  0  0  0  0  0  0
  152.6798  143.9044  157.4388 H   0  0  0  0  0  0  0  0  0  0  0  0
  153.3752  145.2048  158.3991 H   0  0  0  0  0  0  0  0  0  0  0  0
  151.8049  145.4088  157.6482 H   0  0  0  0  0  0  0  0  0  0  0  0
  150.9845  145.0766  161.2859 H   0  0  0  0  0  0  0  0  0  0  0  0
  150.8756  146.1048  159.8642 H   0  0  0  0  0  0  0  0  0  0  0  0
  152.4252  145.8373  160.6436 H   0  0  0  0  0  0  0  0  0  0  0  0
  152.4003  144.0381  162.1381 H   0  0  0  0  0  0  0  0  0  0  0  0
  153.8066  142.3470  163.3093 H   0  0  0  0  0  0  0  0  0  0  0  0
  154.8015  140.4732  161.9735 H   0  0  0  0  0  0  0  0  0  0  0  0
  153.1276  141.8305  158.4755 H   0  0  0  0  0  0  0  0  0  0  0  0
  148.7273  140.1167  154.5237 H   0  0  0  0  0  0  0  0  0  0  0  0
  148.3973  139.6640  156.1691 H   0  0  0  0  0  0  0  0  0  0  0  0
  146.4758  140.6848  157.3573 H   0  0  0  0  0  0  0  0  0  0  0  0
  147.2082  142.2556  157.1177 H   0  0  0  0  0  0  0  0  0  0  0  0
  144.4210  141.3849  156.1767 H   0  0  0  0  0  0  0  0  0  0  0  0
  144.7808  142.5076  157.4757 H   0  0  0  0  0  0  0  0  0  0  0  0
  144.9708  142.0957  153.8593 H   0  0  0  0  0  0  0  0  0  0  0  0
  145.6866  143.6840  153.6486 H   0  0  0  0  0  0  0  0  0  0  0  0
  147.7562  142.9802  154.7908 H   0  0  0  0  0  0  0  0  0  0  0  0
  147.4175  141.8839  153.4702 H   0  0  0  0  0  0  0  0  0  0  0  0
  1  2  1  0  0  0  0
  1 23  1  0  0  0  0
  1 24  1  0  0  0  0
  1 25  1  0  0  0  0
  2  3  1  0  0  0  0
  2 16  1  0  0  0  0
  2 26  1  0  0  0  0
  3  4  1  0  0  0  0
  3 27  1  0  0  0  0
  3 28  1  0  0  0  0
  4  5  1  0  0  0  0
  4 29  1  0  0  0  0
  5  6  2  0  0  0  0
  5  7  1  0  0  0  0
  7  8  1  0  0  0  0
  7  9  1  0  0  0  0
  7 10  1  0  0  0  0
  8 30  1  0  0  0  0
  8 31  1  0  0  0  0
  8 32  1  0  0  0  0
  9 33  1  0  0  0  0
  9 34  1  0  0  0  0
  9 35  1  0  0  0  0
 10 15  1  0  0  0  0
 10 11  2  0  0  0  0
 11 12  1  0  0  0  0
 11 36  1  0  0  0  0
 12 13  2  0  0  0  0
 12 37  1  0  0  0  0
 13 14  1  0  0  0  0
 13 38  1  0  0  0  0
 14 15  2  0  0  0  0
 15 39  1  0  0  0  0
 16 17  1  0  0  0  0
 16 40  1  0  0  0  0
 16 41  1  0  0  0  0
 17 22  1  0  0  0  0
 17 18  1  0  0  0  0
 18 19  1  0  0  0  0
 18 42  1  0  0  0  0
 18 43  1  0  0  0  0
 19 20  1  0  0  0  0
 19 44  1  0  0  0  0
 19 45  1  0  0  0  0
 20 21  1  0  0  0  0
 21 22  1  0  0  0  0
 21 46  1  0  0  0  0
 21 47  1  0  0  0  0
 22 48  1  0  0  0  0
 22 49  1  0  0  0  0
M  END
> <s_m_source_file>
AV-unprocessed.smi

> <i_m_source_file_index>
2896

> <i_lp_mmshare_version>
43012

> <i_f3d_flags>
0

> <s_epik_input>
W0NIMl0xW0NIMl1PW0NIMl1bQ0gyXU4xW0NIMl1bQ0BIXShbQ0gzXSlbQ0gyXVtOSF1DKD1PKUMoW0NIM10pKFtDSDNdKWMyW2NIXVtjSF1bY0hdbltjSF0y

> <s_epik_cmdline>
J2VwaWtfcHl0aG9uJywgJy1waCcsICc3LjAnLCAnLXRuJywgJzgnLCAnLW1hJywgJzIwMCcsICctbWV0YWxfYmluZGluZycsICctaW1hZScsICc8aW5maWxlLm1hZT4nLCAnLW9tYWUnLCAnPG91dGZpbGUubWFlPic=

> <r_epik_Ionization_Penalty>
0.458454

> <r_epik_Ionization_Penalty_Charging>
0

> <r_epik_Ionization_Penalty_Neutral>
0.458454

> <r_epik_State_Penalty>
0.453234

> <r_epik_Charging_Adjusted_Penalty>
0.453234

> <i_epik_Tot_Q>
0

> <i_epik_Tot_abs_Q>
0

> <r_epik_Metal_State_Penalty>
0.448418

> <b_epik_Metal_Only>
0

> <s_lp_Force_Field>
OPLS_2005

> <r_lp_Energy>
34.6302

> <b_lp_Chiralities_Consistent>
1

> <s_lp_Variant>
AV-unprocessed.smi:2896-3

> <Gold.Version>
5.8.1

> <Gold.Id.Protein>
6NUR|6NUR_protein|mol2

> <Gold.PLP.Fitness>
51.8925

> <Gold.PLP.PLP>
-53.2723

> <Gold.PLP.part.hbond>
0.0000

> <Gold.PLP.part.metal>
0.0000

> <Gold.PLP.part.buried>
-8.0061

> <Gold.PLP.part.nonpolar>
-46.6091

> <Gold.PLP.part.repulsive>
1.1835

> <Gold.PLP.ligand.clash>
0.0000

> <Gold.PLP.ligand.torsion>
0.7832

> <Gold.PLP.Chemscore.Hbond>
0.0000

> <Gold.PLP.Chemscore.CHOScore>
0.0000

> <Gold.PLP.Chemscore.Metal>
0.0000

> <Gold.PLP.Chemscore.Internal.Correction>
0.1867

> <Gold.Rescore>
     Score         DG    S(hbond)    S(metal)    S(lipo)     H(rot)  DE(clash)    DE(int)     intcor
     16.38     -17.39       0.31        0.00     129.82       1.68       0.07       0.95       ----

> <Gold.Chemscore.Fitness>
16.3751

> <Gold.Chemscore.DG>
-17.3932

> <Gold.Chemscore.ZeroCoef>
-5.4800

> <Gold.Chemscore.Hbond>
0.3093

> <Gold.Chemscore.Metal>
0.0000

> <Gold.Chemscore.Lipo>
129.8221

> <Gold.Chemscore.Internal_Hbond>
0.0000

> <Gold.Chemscore.DEClash>
0.0710

> <Gold.Chemscore.DEInternal>
0.9472

> <Gold.Chemscore.Rot>
1.6832

> <Gold.Chemscore.Internal.Correction>
   9.000000E+99

> <Gold.Chemscore.Hbond.Weighted>
-1.0330

> <Gold.Chemscore.Metal.Weighted>
-0.0000

> <Gold.Chemscore.Lipo.Weighted>
-15.1892

> <Gold.Chemscore.Internal_Hbond.Weighted>
0.0000

> <Gold.Chemscore.DEClash.Weighted>
0.0710

> <Gold.Chemscore.DEInternal.Weighted>
0.9472

> <Gold.Chemscore.Rot.Weighted>
4.3090

> <Gold.Chemscore.Internal.Correction.Weighted>
   9.000000E+99

> <Gold.Protein.RotatedTorsions>
[ 6907 6896 6895 6894 ] final   48.89 input  -60.11 | X-H torsion
[ 7974 7965 7964 7962 ] final  157.49 input  175.53 | X-H torsion
[ 8008 7997 7996 7995 ] final   61.96 input   59.86 | X-H torsion
[ 10167 10162 10161 10158 ] final -103.77 input  -65.29 | X-H torsion
[ 10718 10713 10712 10709 ] final   24.93 input   66.30 | X-H torsion
[ 10763 10752 10751 10750 ] final -162.64 input  -60.55 | X-H torsion
[ 11005 11000 10999 10996 ] final  109.67 input  -57.11 | X-H torsion

> <Gold.Protein.ActiveResidues>
 VAL166  LYS551  ARG553  GLY616  TRP617  ASP618  TYR619  PRO620  LYS621  CYS622 
 ASP623  PHE694  ASN695  SER759  ASP760  ASP761  ALA762  ILE779  LEU786  VAL792 
 PHE793  MET794  SER795  GLU796  ALA797  LYS798  CYS799  TRP800  GLU811  SER814 

> <Gold.Protein.RotatedAtoms>
  152.2846  134.7791  160.0389 H   0  0  0  0  0  0  0  0  0  0  0  0  # atno 6907 bound_to 6896
  151.8358  133.3410  159.3635 H   0  0  0  0  0  0  0  0  0  0  0  0  # atno 6908 bound_to 6896
  150.7204  134.5368  159.5771 H   0  0  0  0  0  0  0  0  0  0  0  0  # atno 6909 bound_to 6896
  144.7900  139.7348  143.6225 H   0  0  0  0  0  0  0  0  0  0  0  0  # atno 7974 bound_to 7965
  155.6067  140.3494  155.4610 H   0  0  0  0  0  0  0  0  0  0  0  0  # atno 8008 bound_to 7997
  156.0186  140.1249  157.0405 H   0  0  0  0  0  0  0  0  0  0  0  0  # atno 8009 bound_to 7997
  154.4307  140.1067  156.5918 H   0  0  0  0  0  0  0  0  0  0  0  0  # atno 8010 bound_to 7997
  140.2165  143.3708  152.1006 H   0  0  0  0  0  0  0  0  0  0  0  0  # atno 10167 bound_to 10162
  157.1864  130.6826  149.6133 H   0  0  0  0  0  0  0  0  0  0  0  0  # atno 10718 bound_to 10713
  154.7196  135.3023  154.9069 H   0  0  0  0  0  0  0  0  0  0  0  0  # atno 10763 bound_to 10752
  153.9945  135.6714  153.4760 H   0  0  0  0  0  0  0  0  0  0  0  0  # atno 10764 bound_to 10752
  153.0822  135.5003  154.8443 H   0  0  0  0  0  0  0  0  0  0  0  0  # atno 10765 bound_to 10752
  139.8866  134.9464  156.6161 H   0  0  0  0  0  0  0  0  0  0  0  0  # atno 11005 bound_to 11000
  146.2148  139.5530  142.9657 LP  0  0  0  0  0  0  0  0  0  0  0  0  # atno 17320 bound_to 7965
  145.5819  141.0381  143.2117 LP  0  0  0  0  0  0  0  0  0  0  0  0  # atno 17321 bound_to 7965
  139.5160  144.6971  151.5599 LP  0  0  0  0  0  0  0  0  0  0  0  0  # atno 17342 bound_to 10162
  140.6286  143.9120  150.6586 LP  0  0  0  0  0  0  0  0  0  0  0  0  # atno 17343 bound_to 10162
  155.9717  130.4629  150.6163 LP  0  0  0  0  0  0  0  0  0  0  0  0  # atno 17370 bound_to 10713
  157.3903  131.0794  151.1400 LP  0  0  0  0  0  0  0  0  0  0  0  0  # atno 17371 bound_to 10713
  140.7775  133.8687  155.8541 LP  0  0  0  0  0  0  0  0  0  0  0  0  # atno 17394 bound_to 11000
  140.9789  134.1432  157.4512 LP  0  0  0  0  0  0  0  0  0  0  0  0  # atno 17395 bound_to 11000

$$$$
