AV-unprocessed.smi:2850|AV-procd|sdf|10969|dock6
  -GOLD-   2272015423D 1   1.00000     0.00000
 Structure written by MMmdl.
 44 45  0  0  0  0  0  0  0  0  1 V2000
  148.1065  135.8853  162.6180 C   0  0  0  0  0  0  0  0  0  0  0  0
  147.4143  135.7066  160.9501 S   0  0  0  0  0  0  0  0  0  0  0  0
  148.3205  136.7903  159.8881 C   0  0  0  0  0  0  0  0  0  0  0  0
  149.6839  136.5635  159.6277 C   0  0  0  0  0  0  0  0  0  0  0  0
  150.3304  137.4727  158.7726 C   0  0  0  0  0  0  0  0  0  0  0  0
  149.5662  138.5332  158.2448 C   0  0  0  0  0  0  0  0  0  0  0  0
  150.1856  139.4550  157.3908 N   0  0  0  0  0  0  0  0  0  0  0  0
  151.6371  139.5209  157.2962 C   0  0  0  0  0  0  0  0  0  0  0  0
  152.2699  139.9727  158.6190 C   0  0  2  0  0  0  0  0  0  0  0  0
  152.2167  141.5046  158.7816 C   0  0  0  0  0  0  0  0  0  0  0  0
  152.8825  141.9538  159.9998 N   0  0  0  0  0  0  0  0  0  0  0  0
  152.8005  143.4097  160.1324 C   0  0  0  0  0  0  0  0  0  0  0  0
  151.5456  144.0725  159.5241 C   0  0  0  0  0  0  0  0  0  0  0  0
  151.7252  144.3663  158.0255 C   0  0  0  0  0  0  0  0  0  0  0  0
  151.1970  145.3597  160.2853 C   0  0  0  0  0  0  0  0  0  0  0  0
  154.2585  141.4627  159.9944 C   0  0  0  0  0  0  0  0  0  0  0  0
  154.3208  139.9364  159.8174 C   0  0  0  0  0  0  0  0  0  0  0  0
  153.6364  139.5658  158.6259 O   0  0  0  0  0  0  0  0  0  0  0  0
  148.2509  138.6882  158.5432 N   0  0  0  0  0  0  0  0  0  0  0  0
  147.6315  137.8255  159.3567 N   0  0  0  0  0  0  0  0  0  0  0  0
  147.5797  135.2331  163.3144 H   0  0  0  0  0  0  0  0  0  0  0  0
  148.0058  136.9134  162.9659 H   0  0  0  0  0  0  0  0  0  0  0  0
  149.1625  135.6147  162.6244 H   0  0  0  0  0  0  0  0  0  0  0  0
  150.2123  135.7290  160.0646 H   0  0  0  0  0  0  0  0  0  0  0  0
  151.3770  137.3579  158.5313 H   0  0  0  0  0  0  0  0  0  0  0  0
  149.6352  140.1656  156.9309 H   0  0  0  0  0  0  0  0  0  0  0  0
  152.0340  138.5482  157.0027 H   0  0  0  0  0  0  0  0  0  0  0  0
  151.8990  140.2280  156.5080 H   0  0  0  0  0  0  0  0  0  0  0  0
  151.7443  139.5030  159.4527 H   0  0  0  0  0  0  0  0  0  0  0  0
  152.6785  141.9779  157.9134 H   0  0  0  0  0  0  0  0  0  0  0  0
  151.1748  141.8270  158.7930 H   0  0  0  0  0  0  0  0  0  0  0  0
  152.8718  143.6763  161.1882 H   0  0  0  0  0  0  0  0  0  0  0  0
  153.6745  143.8576  159.6571 H   0  0  0  0  0  0  0  0  0  0  0  0
  150.6932  143.4038  159.6382 H   0  0  0  0  0  0  0  0  0  0  0  0
  152.5687  145.0347  157.8508 H   0  0  0  0  0  0  0  0  0  0  0  0
  150.8350  144.8372  157.6077 H   0  0  0  0  0  0  0  0  0  0  0  0
  151.9038  143.4511  157.4605 H   0  0  0  0  0  0  0  0  0  0  0  0
  151.9986  146.0950  160.2089 H   0  0  0  0  0  0  0  0  0  0  0  0
  151.0305  145.1575  161.3436 H   0  0  0  0  0  0  0  0  0  0  0  0
  150.2883  145.8161  159.8917 H   0  0  0  0  0  0  0  0  0  0  0  0
  154.8196  141.9426  159.1910 H   0  0  0  0  0  0  0  0  0  0  0  0
  154.7594  141.7218  160.9261 H   0  0  0  0  0  0  0  0  0  0  0  0
  155.3570  139.6044  159.7514 H   0  0  0  0  0  0  0  0  0  0  0  0
  153.8751  139.4289  160.6743 H   0  0  0  0  0  0  0  0  0  0  0  0
  1  2  1  0  0  0  0
  1 21  1  0  0  0  0
  1 22  1  0  0  0  0
  1 23  1  0  0  0  0
  2  3  1  0  0  0  0
  3 20  1  0  0  0  0
  3  4  2  0  0  0  0
  4  5  1  0  0  0  0
  4 24  1  0  0  0  0
  5  6  2  0  0  0  0
  5 25  1  0  0  0  0
  6  7  1  0  0  0  0
  6 19  1  0  0  0  0
  7  8  1  0  0  0  0
  7 26  1  0  0  0  0
  8  9  1  0  0  0  0
  8 27  1  0  0  0  0
  8 28  1  0  0  0  0
  9 18  1  0  0  0  0
  9 10  1  0  0  0  0
  9 29  1  0  0  0  0
 10 11  1  0  0  0  0
 10 30  1  0  0  0  0
 10 31  1  0  0  0  0
 11 12  1  0  0  0  0
 11 16  1  0  0  0  0
 12 13  1  0  0  0  0
 12 32  1  0  0  0  0
 12 33  1  0  0  0  0
 13 14  1  0  0  0  0
 13 15  1  0  0  0  0
 13 34  1  0  0  0  0
 14 35  1  0  0  0  0
 14 36  1  0  0  0  0
 14 37  1  0  0  0  0
 15 38  1  0  0  0  0
 15 39  1  0  0  0  0
 15 40  1  0  0  0  0
 16 17  1  0  0  0  0
 16 41  1  0  0  0  0
 16 42  1  0  0  0  0
 17 18  1  0  0  0  0
 17 43  1  0  0  0  0
 17 44  1  0  0  0  0
 19 20  2  0  0  0  0
M  END
> <s_m_source_file>
AV-unprocessed.smi

> <i_m_source_file_index>
2850

> <i_lp_mmshare_version>
43012

> <i_f3d_flags>
0

> <s_epik_input>
W0NIM11TYzFbY0hdW2NIXWMobm4xKVtOSF1bQ0gyXVtDQEBIXTJbQ0gyXU4oW0NIMl1bQ0gyXU8yKVtDSDJdW0NIXShbQ0gzXSlbQ0gzXQ==

> <s_epik_cmdline>
J2VwaWtfcHl0aG9uJywgJy1waCcsICc3LjAnLCAnLXRuJywgJzgnLCAnLW1hJywgJzIwMCcsICctbWV0YWxfYmluZGluZycsICctaW1hZScsICc8aW5maWxlLm1hZT4nLCAnLW9tYWUnLCAnPG91dGZpbGUubWFlPic=

> <r_lp_tautomer_probability>
0.999978

> <r_epik_Ionization_Penalty>
1.20939

> <r_epik_Ionization_Penalty_Charging>
0

> <r_epik_Ionization_Penalty_Neutral>
1.20939

> <r_epik_State_Penalty>
1.27042

> <r_epik_Charging_Adjusted_Penalty>
1.27042

> <i_epik_Tot_Q>
0

> <i_epik_Tot_abs_Q>
0

> <r_epik_Metal_State_Penalty>
1.26998

> <b_epik_Metal_Only>
0

> <s_lp_Force_Field>
OPLS_2005

> <r_lp_Energy>
30.5151

> <b_lp_Chiralities_Consistent>
1

> <s_lp_Variant>
AV-unprocessed.smi:2850-5

> <Gold.Version>
5.8.1

> <Gold.Id.Protein>
6NUR|6NUR_protein|mol2

> <Gold.PLP.Fitness>
45.1468

> <Gold.PLP.PLP>
-42.7603

> <Gold.PLP.part.hbond>
-3.0000

> <Gold.PLP.part.metal>
0.0000

> <Gold.PLP.part.buried>
-5.8973

> <Gold.PLP.part.nonpolar>
-35.7135

> <Gold.PLP.part.repulsive>
0.0305

> <Gold.PLP.ligand.clash>
0.0000

> <Gold.PLP.ligand.torsion>
0.9583

> <Gold.PLP.Chemscore.Hbond>
1.4080

> <Gold.PLP.Chemscore.CHOScore>
0.0000

> <Gold.PLP.Chemscore.Metal>
0.0000

> <Gold.Chemscore.Hbonds>
donor molecule, donor type, donor heavy atom, donor atom, acceptor molecule, acceptor atom, score
      P1  H  6934  6947       L1    20  0.54
      P1  H  7997  8010       L1    18  1.00

> <Gold.PLP.Chemscore.Internal.Correction>
0.0791

> <Gold.Rescore>
     Score         DG    S(hbond)    S(metal)    S(lipo)     H(rot)  DE(clash)    DE(int)     intcor
     16.04     -17.97       0.88        0.00     115.60       1.55       0.12       1.81       ----

> <Gold.Chemscore.Fitness>
16.0442

> <Gold.Chemscore.DG>
-17.9708

> <Gold.Chemscore.ZeroCoef>
-5.4800

> <Gold.Chemscore.Hbond>
0.8763

> <Gold.Chemscore.Metal>
0.0000

> <Gold.Chemscore.Lipo>
115.5965

> <Gold.Chemscore.Internal_Hbond>
0.0000

> <Gold.Chemscore.DEClash>
0.1195

> <Gold.Chemscore.DEInternal>
1.8071

> <Gold.Chemscore.Rot>
1.5473

> <Gold.Chemscore.Internal.Correction>
   9.000000E+99

> <Gold.Chemscore.Hbonds>
donor molecule, donor type, donor heavy atom, donor atom, acceptor molecule, acceptor atom, score
      P1  H  6934  6947       L1    20  0.07
      P1  H  7997  8010       L1    18  0.39

> <Gold.Chemscore.Hbond.Weighted>
-2.9270

> <Gold.Chemscore.Metal.Weighted>
-0.0000

> <Gold.Chemscore.Lipo.Weighted>
-13.5248

> <Gold.Chemscore.Internal_Hbond.Weighted>
0.0000

> <Gold.Chemscore.DEClash.Weighted>
0.1195

> <Gold.Chemscore.DEInternal.Weighted>
1.8071

> <Gold.Chemscore.Rot.Weighted>
3.9610

> <Gold.Chemscore.Internal.Correction.Weighted>
   9.000000E+99

> <Gold.Protein.RotatedTorsions>
[ 6907 6896 6895 6894 ] final -144.24 input  -60.11 | X-H torsion
[ 7974 7965 7964 7962 ] final   28.73 input  175.53 | X-H torsion
[ 8008 7997 7996 7995 ] final   12.34 input   59.86 | X-H torsion
[ 10167 10162 10161 10158 ] final    5.80 input  -65.29 | X-H torsion
[ 10718 10713 10712 10709 ] final  -61.09 input   66.30 | X-H torsion
[ 10763 10752 10751 10750 ] final   92.97 input  -60.55 | X-H torsion
[ 11005 11000 10999 10996 ] final  -65.23 input  -57.11 | X-H torsion

> <Gold.Protein.ActiveResidues>
 VAL166  LYS551  ARG553  GLY616  TRP617  ASP618  TYR619  PRO620  LYS621  CYS622 
 ASP623  PHE694  ASN695  SER759  ASP760  ASP761  ALA762  ILE779  LEU786  VAL792 
 PHE793  MET794  SER795  GLU796  ALA797  LYS798  CYS799  TRP800  GLU811  SER814 

> <Gold.Protein.RotatedAtoms>
  151.1113  133.5170  159.2605 H   0  0  0  0  0  0  0  0  0  0  0  0  # atno 6907 bound_to 6896
  151.1963  135.0423  159.8864 H   0  0  0  0  0  0  0  0  0  0  0  0  # atno 6908 bound_to 6896
  152.5450  134.0947  159.8345 H   0  0  0  0  0  0  0  0  0  0  0  0  # atno 6909 bound_to 6896
  146.1712  139.7017  142.8966 H   0  0  0  0  0  0  0  0  0  0  0  0  # atno 7974 bound_to 7965
  154.8192  140.2881  155.5798 H   0  0  0  0  0  0  0  0  0  0  0  0  # atno 8008 bound_to 7997
  156.2996  140.2553  156.3027 H   0  0  0  0  0  0  0  0  0  0  0  0  # atno 8009 bound_to 7997
  154.9358  140.0382  157.2061 H   0  0  0  0  0  0  0  0  0  0  0  0  # atno 8010 bound_to 7997
  140.6462  143.7655  150.7503 H   0  0  0  0  0  0  0  0  0  0  0  0  # atno 10167 bound_to 10162
  156.0946  130.4195  150.0945 H   0  0  0  0  0  0  0  0  0  0  0  0  # atno 10718 bound_to 10713
  153.2250  135.4342  155.0532 H   0  0  0  0  0  0  0  0  0  0  0  0  # atno 10763 bound_to 10752
  154.8269  135.3365  154.6870 H   0  0  0  0  0  0  0  0  0  0  0  0  # atno 10764 bound_to 10752
  153.7300  135.7011  153.5047 H   0  0  0  0  0  0  0  0  0  0  0  0  # atno 10765 bound_to 10752
  141.1448  133.6678  156.5955 H   0  0  0  0  0  0  0  0  0  0  0  0  # atno 11005 bound_to 11000
  145.4334  141.0417  143.2898 LP  0  0  0  0  0  0  0  0  0  0  0  0  # atno 17320 bound_to 7965
  144.8166  139.5865  143.7005 LP  0  0  0  0  0  0  0  0  0  0  0  0  # atno 17321 bound_to 7965
  140.1297  143.4537  152.2262 LP  0  0  0  0  0  0  0  0  0  0  0  0  # atno 17342 bound_to 10162
  139.5673  144.7443  151.3986 LP  0  0  0  0  0  0  0  0  0  0  0  0  # atno 17343 bound_to 10162
  156.8947  130.9600  151.3584 LP  0  0  0  0  0  0  0  0  0  0  0  0  # atno 17370 bound_to 10713
  157.6103  130.8578  149.8941 LP  0  0  0  0  0  0  0  0  0  0  0  0  # atno 17371 bound_to 10713
  140.3730  134.7590  157.4611 LP  0  0  0  0  0  0  0  0  0  0  0  0  # atno 17394 bound_to 11000
  140.0696  134.5881  155.8656 LP  0  0  0  0  0  0  0  0  0  0  0  0  # atno 17395 bound_to 11000

$$$$
