AV-unprocessed.smi:3198|AV-procd|sdf|12227|dock8
  -GOLD-   2272018 63D 1   1.00000     0.00000
 Structure written by MMmdl.
 38 39  0  0  0  0  0  0  0  0  2 V2000
  153.3490  141.3935  160.2185 C   0  0  0  0  0  0  0  0  0  0  0  0
  152.6159  142.5089  159.5039 C   0  0  0  0  0  0  0  0  0  0  0  0
  152.7755  143.8646  159.8578 C   0  0  0  0  0  0  0  0  0  0  0  0
  152.0577  144.8472  159.1467 C   0  0  0  0  0  0  0  0  0  0  0  0
  151.1961  144.4549  158.1013 C   0  0  0  0  0  0  0  0  0  0  0  0
  151.0694  143.0808  157.7851 C   0  0  0  0  0  0  0  0  0  0  0  0
  150.2427  142.5778  156.7726 N   0  0  0  0  0  0  0  0  0  0  0  0
  150.1817  141.1457  156.5248 C   0  0  0  0  0  0  0  0  0  0  0  0
  151.4924  140.6249  155.9266 C   0  0  0  0  0  0  0  0  0  0  0  0
  151.2032  139.9282  154.7262 O   0  0  0  0  0  0  0  0  0  0  0  0
  151.8258  138.6560  154.6648 C   0  0  0  0  0  0  0  0  0  0  0  0
  150.8101  137.5860  155.0844 C   0  0  2  0  0  0  0  0  0  0  0  0
  150.5872  137.5038  156.5938 C   0  0  0  0  0  0  0  0  0  0  0  0
  150.1386  136.0666  156.8132 C   0  0  0  0  0  0  0  0  0  0  0  0
  150.4941  135.3596  155.5022 C   0  0  0  0  0  0  0  0  0  0  0  0
  151.2984  136.2876  154.7882 O   0  0  0  0  0  0  0  0  0  0  0  0
  151.7806  142.1758  158.4944 N   0  3  0  0  0  0  0  0  0  0  0  0
  154.0235  141.7895  160.9783 H   0  0  0  0  0  0  0  0  0  0  0  0
  153.9394  140.8111  159.5107 H   0  0  0  0  0  0  0  0  0  0  0  0
  152.6394  140.7256  160.7074 H   0  0  0  0  0  0  0  0  0  0  0  0
  153.4377  144.1506  160.6622 H   0  0  0  0  0  0  0  0  0  0  0  0
  152.1664  145.8913  159.4005 H   0  0  0  0  0  0  0  0  0  0  0  0
  150.6486  145.2105  157.5577 H   0  0  0  0  0  0  0  0  0  0  0  0
  149.8921  143.2023  156.0605 H   0  0  0  0  0  0  0  0  0  0  0  0
  149.9561  140.6146  157.4503 H   0  0  0  0  0  0  0  0  0  0  0  0
  149.3653  140.9487  155.8293 H   0  0  0  0  0  0  0  0  0  0  0  0
  152.1503  141.4672  155.7076 H   0  0  0  0  0  0  0  0  0  0  0  0
  152.0124  139.9797  156.6368 H   0  0  0  0  0  0  0  0  0  0  0  0
  152.2034  138.4540  153.6610 H   0  0  0  0  0  0  0  0  0  0  0  0
  152.6772  138.6417  155.3471 H   0  0  0  0  0  0  0  0  0  0  0  0
  149.8553  137.7422  154.5784 H   0  0  0  0  0  0  0  0  0  0  0  0
  151.5257  137.6760  157.1230 H   0  0  0  0  0  0  0  0  0  0  0  0
  149.8614  138.2344  156.9518 H   0  0  0  0  0  0  0  0  0  0  0  0
  150.6587  135.6237  157.6634 H   0  0  0  0  0  0  0  0  0  0  0  0
  149.0667  136.0044  157.0055 H   0  0  0  0  0  0  0  0  0  0  0  0
  151.0248  134.4207  155.6625 H   0  0  0  0  0  0  0  0  0  0  0  0
  149.5934  135.1472  154.9242 H   0  0  0  0  0  0  0  0  0  0  0  0
  151.6816  141.1883  158.2583 H   0  0  0  0  0  0  0  0  0  0  0  0
  1  2  1  0  0  0  0
  1 18  1  0  0  0  0
  1 19  1  0  0  0  0
  1 20  1  0  0  0  0
  2 17  1  0  0  0  0
  2  3  2  0  0  0  0
  3  4  1  0  0  0  0
  3 21  1  0  0  0  0
  4  5  2  0  0  0  0
  4 22  1  0  0  0  0
  5  6  1  0  0  0  0
  5 23  1  0  0  0  0
  6  7  1  0  0  0  0
  6 17  2  0  0  0  0
  7  8  1  0  0  0  0
  7 24  1  0  0  0  0
  8  9  1  0  0  0  0
  8 25  1  0  0  0  0
  8 26  1  0  0  0  0
  9 10  1  0  0  0  0
  9 27  1  0  0  0  0
  9 28  1  0  0  0  0
 10 11  1  0  0  0  0
 11 12  1  0  0  0  0
 11 29  1  0  0  0  0
 11 30  1  0  0  0  0
 12 16  1  0  0  0  0
 12 13  1  0  0  0  0
 12 31  1  0  0  0  0
 13 14  1  0  0  0  0
 13 32  1  0  0  0  0
 13 33  1  0  0  0  0
 14 15  1  0  0  0  0
 14 34  1  0  0  0  0
 14 35  1  0  0  0  0
 15 16  1  0  0  0  0
 15 36  1  0  0  0  0
 15 37  1  0  0  0  0
 17 38  1  0  0  0  0
M  CHG  1  17   1
M  END
> <s_m_source_file>
AV-unprocessed.smi

> <i_m_source_file_index>
3198

> <i_lp_mmshare_version>
43012

> <i_f3d_flags>
0

> <s_epik_input>
W0NIM11jMVtjSF1bY0hdW2NIXWMobjEpW05IXVtDSDJdW0NIMl1PW0NIMl1bQ0BASF0yW0NIMl1bQ0gyXVtDSDJdTzI=

> <s_epik_cmdline>
J2VwaWtfcHl0aG9uJywgJy1waCcsICc3LjAnLCAnLXRuJywgJzgnLCAnLW1hJywgJzIwMCcsICctbWV0YWxfYmluZGluZycsICctaW1hZScsICc8aW5maWxlLm1hZT4nLCAnLW9tYWUnLCAnPG91dGZpbGUubWFlPic=

> <r_lp_tautomer_probability>
0.999994

> <r_epik_Ionization_Penalty>
0.0710016

> <r_epik_Ionization_Penalty_Charging>
0.0710012

> <r_epik_Ionization_Penalty_Neutral>
3.47026e-07

> <r_epik_State_Penalty>
0.0622974

> <r_epik_Charging_Adjusted_Penalty>
0.133299

> <i_epik_Tot_Q>
1

> <i_epik_Tot_abs_Q>
1

> <r_epik_Metal_State_Penalty>
2.79497

> <b_epik_Metal_Only>
0

> <s_lp_Force_Field>
OPLS_2005

> <r_lp_Energy>
24.6681

> <b_lp_Chiralities_Consistent>
1

> <s_lp_Variant>
AV-unprocessed.smi:3198-1

> <Gold.Version>
5.8.1

> <Gold.Id.Protein>
6NUR|6NUR_protein|mol2

> <Gold.PLP.Fitness>
48.5017

> <Gold.PLP.PLP>
-39.1941

> <Gold.PLP.part.hbond>
-3.0000

> <Gold.PLP.part.metal>
0.0000

> <Gold.PLP.part.buried>
-6.0070

> <Gold.PLP.part.nonpolar>
-30.9326

> <Gold.PLP.part.repulsive>
0.3478

> <Gold.PLP.ligand.clash>
0.4332

> <Gold.PLP.ligand.torsion>
1.1193

> <Gold.PLP.Chemscore.Hbond>
3.9840

> <Gold.PLP.Chemscore.CHOScore>
0.0000

> <Gold.PLP.Chemscore.Metal>
0.0000

> <Gold.Chemscore.Hbonds>
donor molecule, donor type, donor heavy atom, donor atom, acceptor molecule, acceptor atom, score
      L1  H     7    24       P1  8028  1.89
      P1  H  7989  7998       L1    10  1.00
      P1  H 10752 10764       L1    16  1.00

> <Gold.PLP.Chemscore.Internal.Correction>
0.0274

> <Gold.Rescore>
     Score         DG    S(hbond)    S(metal)    S(lipo)     H(rot)  DE(clash)    DE(int)     intcor
     19.92     -21.10       2.70        0.00      93.86       1.71       0.00       1.18       ----

> <Gold.Chemscore.Fitness>
19.9217

> <Gold.Chemscore.DG>
-21.1016

> <Gold.Chemscore.ZeroCoef>
-5.4800

> <Gold.Chemscore.Hbond>
2.6971

> <Gold.Chemscore.Metal>
0.0000

> <Gold.Chemscore.Lipo>
93.8586

> <Gold.Chemscore.Internal_Hbond>
0.0000

> <Gold.Chemscore.DEClash>
0.0000

> <Gold.Chemscore.DEInternal>
1.1799

> <Gold.Chemscore.Rot>
1.7063

> <Gold.Chemscore.Internal.Correction>
   9.000000E+99

> <Gold.Chemscore.Hbonds>
donor molecule, donor type, donor heavy atom, donor atom, acceptor molecule, acceptor atom, score
      L1  H     7    24       P1  8028  0.91
      P1  H  7989  7998       L1    10  0.53
      P1  H 10752 10764       L1    16  0.82

> <Gold.Chemscore.Hbond.Weighted>
-9.0082

> <Gold.Chemscore.Metal.Weighted>
-0.0000

> <Gold.Chemscore.Lipo.Weighted>
-10.9815

> <Gold.Chemscore.Internal_Hbond.Weighted>
0.0000

> <Gold.Chemscore.DEClash.Weighted>
0.0000

> <Gold.Chemscore.DEInternal.Weighted>
1.1799

> <Gold.Chemscore.Rot.Weighted>
4.3681

> <Gold.Chemscore.Internal.Correction.Weighted>
   9.000000E+99

> <Gold.Protein.RotatedTorsions>
[ 6907 6896 6895 6894 ] final -164.87 input  -60.11 | X-H torsion
[ 7974 7965 7964 7962 ] final -142.39 input  175.53 | X-H torsion
[ 8008 7997 7996 7995 ] final  -40.37 input   59.86 | X-H torsion
[ 10167 10162 10161 10158 ] final  -56.27 input  -65.29 | X-H torsion
[ 10718 10713 10712 10709 ] final -143.10 input   66.30 | X-H torsion
[ 10763 10752 10751 10750 ] final  -72.22 input  -60.55 | X-H torsion
[ 11005 11000 10999 10996 ] final -129.32 input  -57.11 | X-H torsion

> <Gold.Protein.ActiveResidues>
 VAL166  LYS551  ARG553  GLY616  TRP617  ASP618  TYR619  PRO620  LYS621  CYS622 
 ASP623  PHE694  ASN695  SER759  ASP760  ASP761  ALA762  ILE779  LEU786  VAL792 
 PHE793  MET794  SER795  GLU796  ALA797  LYS798  CYS799  TRP800  GLU811  SER814 

> <Gold.Protein.RotatedAtoms>
  151.4187  133.3705  159.2753 H   0  0  0  0  0  0  0  0  0  0  0  0  # atno 6907 bound_to 6896
  150.9309  134.8726  159.7561 H   0  0  0  0  0  0  0  0  0  0  0  0  # atno 6908 bound_to 6896
  152.5028  134.4131  159.9507 H   0  0  0  0  0  0  0  0  0  0  0  0  # atno 6909 bound_to 6896
  144.8447  140.5963  143.5429 H   0  0  0  0  0  0  0  0  0  0  0  0  # atno 7974 bound_to 7965
  154.4013  140.1527  156.3017 H   0  0  0  0  0  0  0  0  0  0  0  0  # atno 8008 bound_to 7997
  155.8695  140.3449  155.5790 H   0  0  0  0  0  0  0  0  0  0  0  0  # atno 8009 bound_to 7997
  155.7790  140.0841  157.2059 H   0  0  0  0  0  0  0  0  0  0  0  0  # atno 8010 bound_to 7997
  140.6327  143.2467  151.5200 H   0  0  0  0  0  0  0  0  0  0  0  0  # atno 10167 bound_to 10162
  156.3539  130.7702  151.1860 H   0  0  0  0  0  0  0  0  0  0  0  0  # atno 10718 bound_to 10713
  154.4427  135.5937  153.6140 H   0  0  0  0  0  0  0  0  0  0  0  0  # atno 10763 bound_to 10752
  152.9807  135.6002  154.3702 H   0  0  0  0  0  0  0  0  0  0  0  0  # atno 10764 bound_to 10752
  154.3554  135.2841  155.2328 H   0  0  0  0  0  0  0  0  0  0  0  0  # atno 10765 bound_to 10752
  140.9441  134.1153  157.4123 H   0  0  0  0  0  0  0  0  0  0  0  0  # atno 11005 bound_to 11000
  145.4622  139.1511  143.3860 LP  0  0  0  0  0  0  0  0  0  0  0  0  # atno 17320 bound_to 7965
  146.2733  140.4752  142.8805 LP  0  0  0  0  0  0  0  0  0  0  0  0  # atno 17321 bound_to 7965
  139.5539  144.2324  152.1579 LP  0  0  0  0  0  0  0  0  0  0  0  0  # atno 17342 bound_to 10162
  140.1572  144.5059  150.6653 LP  0  0  0  0  0  0  0  0  0  0  0  0  # atno 17343 bound_to 10162
  157.7465  131.0419  150.4671 LP  0  0  0  0  0  0  0  0  0  0  0  0  # atno 17370 bound_to 10713
  156.4871  130.4087  149.6428 LP  0  0  0  0  0  0  0  0  0  0  0  0  # atno 17371 bound_to 10713
  139.8828  135.0046  156.6258 LP  0  0  0  0  0  0  0  0  0  0  0  0  # atno 17394 bound_to 11000
  140.7693  133.8751  155.8479 LP  0  0  0  0  0  0  0  0  0  0  0  0  # atno 17395 bound_to 11000

$$$$
