AV-unprocessed.smi:1960|AV-procd|sdf|7916|dock7
  -GOLD-   2272010 83D 1   1.00000     0.00000
 Structure written by MMmdl.
 38 39  0  0  0  0  0  0  0  0  1 V2000
  150.2028  134.3850  155.3196 C   0  0  0  0  0  0  0  0  0  0  0  0
  150.5835  135.9742  156.1643 S   0  0  0  0  0  0  0  0  0  0  0  0
  149.6465  136.1323  157.2871 O   0  0  0  0  0  0  0  0  0  0  0  0
  152.0326  136.0270  156.4108 O   0  0  0  0  0  0  0  0  0  0  0  0
  150.2012  137.1879  154.9767 N   0  0  0  0  0  0  0  0  0  0  0  0
  148.8921  137.8704  155.0146 C   0  0  0  0  0  0  0  0  0  0  0  0
  148.9986  139.2740  155.6361 C   0  0  0  0  0  0  0  0  0  0  0  0
  150.0703  140.1216  154.9297 C   0  0  0  0  0  0  0  0  0  0  0  0
  150.2154  141.4232  155.5760 N   0  0  0  0  0  0  0  0  0  0  0  0
  150.7263  141.6259  156.7992 C   0  0  0  0  0  0  0  0  0  0  0  0
  151.1374  140.7169  157.5201 O   0  0  0  0  0  0  0  0  0  0  0  0
  150.7450  142.9348  157.1073 N   0  0  0  0  0  0  0  0  0  0  0  0
  151.1990  143.5605  158.3002 C   0  0  0  0  0  0  0  0  0  0  0  0
  151.7216  142.7347  159.3168 C   0  0  0  0  0  0  0  0  0  0  0  0
  152.1937  143.3324  160.5026 C   0  0  0  0  0  0  0  0  0  0  0  0
  152.1817  144.6647  160.7172 N   0  0  0  0  0  0  0  0  0  0  0  0
  151.6943  145.4551  159.7376 C   0  0  0  0  0  0  0  0  0  0  0  0
  151.1978  144.9600  158.5149 C   0  0  0  0  0  0  0  0  0  0  0  0
  151.4102  139.3719  154.9609 C   0  0  0  0  0  0  0  0  0  0  0  0
  151.2836  137.9679  154.3433 C   0  0  0  0  0  0  0  0  0  0  0  0
  150.4196  133.5611  155.9988 H   0  0  0  0  0  0  0  0  0  0  0  0
  150.8210  134.2803  154.4297 H   0  0  0  0  0  0  0  0  0  0  0  0
  149.1490  134.3513  155.0489 H   0  0  0  0  0  0  0  0  0  0  0  0
  148.5182  137.9530  153.9935 H   0  0  0  0  0  0  0  0  0  0  0  0
  148.1653  137.2687  155.5595 H   0  0  0  0  0  0  0  0  0  0  0  0
  148.0283  139.7680  155.5739 H   0  0  0  0  0  0  0  0  0  0  0  0
  149.2299  139.1943  156.6979 H   0  0  0  0  0  0  0  0  0  0  0  0
  149.7818  140.2688  153.8870 H   0  0  0  0  0  0  0  0  0  0  0  0
  149.9044  142.2275  155.0514 H   0  0  0  0  0  0  0  0  0  0  0  0
  150.4489  143.5653  156.3767 H   0  0  0  0  0  0  0  0  0  0  0  0
  151.7565  141.6615  159.1977 H   0  0  0  0  0  0  0  0  0  0  0  0
  152.5935  142.7229  161.2995 H   0  0  0  0  0  0  0  0  0  0  0  0
  151.7062  146.5175  159.9309 H   0  0  0  0  0  0  0  0  0  0  0  0
  150.8426  145.6576  157.7724 H   0  0  0  0  0  0  0  0  0  0  0  0
  152.1659  139.9396  154.4169 H   0  0  0  0  0  0  0  0  0  0  0  0
  151.7694  139.2944  155.9866 H   0  0  0  0  0  0  0  0  0  0  0  0
  152.2303  137.4337  154.4174 H   0  0  0  0  0  0  0  0  0  0  0  0
  151.0644  138.0574  153.2786 H   0  0  0  0  0  0  0  0  0  0  0  0
  1  2  1  0  0  0  0
  1 21  1  0  0  0  0
  1 22  1  0  0  0  0
  1 23  1  0  0  0  0
  2  3  2  0  0  0  0
  2  4  2  0  0  0  0
  2  5  1  0  0  0  0
  5 20  1  0  0  0  0
  5  6  1  0  0  0  0
  6  7  1  0  0  0  0
  6 24  1  0  0  0  0
  6 25  1  0  0  0  0
  7  8  1  0  0  0  0
  7 26  1  0  0  0  0
  7 27  1  0  0  0  0
  8  9  1  0  0  0  0
  8 19  1  0  0  0  0
  8 28  1  0  0  0  0
  9 10  1  0  0  0  0
  9 29  1  0  0  0  0
 10 11  2  0  0  0  0
 10 12  1  0  0  0  0
 12 13  1  0  0  0  0
 12 30  1  0  0  0  0
 13 18  1  0  0  0  0
 13 14  2  0  0  0  0
 14 15  1  0  0  0  0
 14 31  1  0  0  0  0
 15 16  2  0  0  0  0
 15 32  1  0  0  0  0
 16 17  1  0  0  0  0
 17 18  2  0  0  0  0
 17 33  1  0  0  0  0
 18 34  1  0  0  0  0
 19 20  1  0  0  0  0
 19 35  1  0  0  0  0
 19 36  1  0  0  0  0
 20 37  1  0  0  0  0
 20 38  1  0  0  0  0
M  END
> <s_m_source_file>
AV-unprocessed.smi

> <i_m_source_file_index>
1960

> <i_lp_mmshare_version>
43012

> <i_f3d_flags>
0

> <s_epik_input>
W0NIM11TKD1PKSg9TylOMVtDSDJdW0NIMl1bQ0hdKFtDSDJdW0NIMl0xKVtOSF1DKD1PKVtOSF1jMltjSF1bY0hdbltjSF1bY0hdMg==

> <s_epik_cmdline>
J2VwaWtfcHl0aG9uJywgJy1waCcsICc3LjAnLCAnLXRuJywgJzgnLCAnLW1hJywgJzIwMCcsICctbWV0YWxfYmluZGluZycsICctaW1hZScsICc8aW5maWxlLm1hZT4nLCAnLW9tYWUnLCAnPG91dGZpbGUubWFlPic=

> <r_epik_Ionization_Penalty>
0.116752

> <r_epik_Ionization_Penalty_Charging>
0

> <r_epik_Ionization_Penalty_Neutral>
0.116752

> <r_epik_State_Penalty>
0.106329

> <r_epik_Charging_Adjusted_Penalty>
0.106329

> <i_epik_Tot_Q>
0

> <i_epik_Tot_abs_Q>
0

> <r_epik_Metal_State_Penalty>
0.0886803

> <b_epik_Metal_Only>
0

> <s_lp_Force_Field>
OPLS_2005

> <r_lp_Energy>
6.48368

> <b_lp_Chiralities_Consistent>
1

> <s_lp_Variant>
AV-unprocessed.smi:1960-1

> <Gold.Version>
5.8.1

> <Gold.Id.Protein>
6NUR|6NUR_protein|mol2

> <Gold.PLP.Fitness>
42.8120

> <Gold.PLP.PLP>
-36.9984

> <Gold.PLP.part.hbond>
-2.0000

> <Gold.PLP.part.metal>
0.0000

> <Gold.PLP.part.buried>
-4.8415

> <Gold.PLP.part.nonpolar>
-30.9323

> <Gold.PLP.part.repulsive>
0.2874

> <Gold.PLP.ligand.clash>
0.0000

> <Gold.PLP.ligand.torsion>
1.0942

> <Gold.PLP.Chemscore.Hbond>
1.9833

> <Gold.PLP.Chemscore.CHOScore>
0.0000

> <Gold.PLP.Chemscore.Metal>
0.0000

> <Gold.Chemscore.Hbonds>
donor molecule, donor type, donor heavy atom, donor atom, acceptor molecule, acceptor atom, score
      L1  H    12    30       P1  8028  0.84
      P1  H 10752 10764       L1     4  1.00

> <Gold.PLP.Chemscore.Internal.Correction>
2.0519

> <Gold.Rescore>
     Score         DG    S(hbond)    S(metal)    S(lipo)     H(rot)  DE(clash)    DE(int)     intcor
     15.78     -19.58       1.98        0.00      85.94       1.00       0.00       3.79       ----

> <Gold.Chemscore.Fitness>
15.7819

> <Gold.Chemscore.DG>
-19.5776

> <Gold.Chemscore.ZeroCoef>
-5.4800

> <Gold.Chemscore.Hbond>
1.9768

> <Gold.Chemscore.Metal>
0.0000

> <Gold.Chemscore.Lipo>
85.9400

> <Gold.Chemscore.Internal_Hbond>
0.0000

> <Gold.Chemscore.DEClash>
0.0038

> <Gold.Chemscore.DEInternal>
3.7919

> <Gold.Chemscore.Rot>
1.0000

> <Gold.Chemscore.Internal.Correction>
   9.000000E+99

> <Gold.Chemscore.Hbonds>
donor molecule, donor type, donor heavy atom, donor atom, acceptor molecule, acceptor atom, score
      L1  H    12    30       P1  8028  0.79
      P1  H 10752 10764       L1     4  0.75

> <Gold.Chemscore.Hbond.Weighted>
-6.6026

> <Gold.Chemscore.Metal.Weighted>
-0.0000

> <Gold.Chemscore.Lipo.Weighted>
-10.0550

> <Gold.Chemscore.Internal_Hbond.Weighted>
0.0000

> <Gold.Chemscore.DEClash.Weighted>
0.0038

> <Gold.Chemscore.DEInternal.Weighted>
3.7919

> <Gold.Chemscore.Rot.Weighted>
2.5600

> <Gold.Chemscore.Internal.Correction.Weighted>
   9.000000E+99

> <Gold.Protein.RotatedTorsions>
[ 6907 6896 6895 6894 ] final   47.37 input  -60.11 | X-H torsion
[ 7974 7965 7964 7962 ] final   72.46 input  175.53 | X-H torsion
[ 8008 7997 7996 7995 ] final   14.85 input   59.86 | X-H torsion
[ 10167 10162 10161 10158 ] final -115.79 input  -65.29 | X-H torsion
[ 10718 10713 10712 10709 ] final  -26.98 input   66.30 | X-H torsion
[ 10763 10752 10751 10750 ] final  -45.25 input  -60.55 | X-H torsion
[ 11005 11000 10999 10996 ] final   91.26 input  -57.11 | X-H torsion

> <Gold.Protein.ActiveResidues>
 VAL166  LYS551  ARG553  GLY616  TRP617  ASP618  TYR619  PRO620  LYS621  CYS622 
 ASP623  PHE694  ASN695  SER759  ASP760  ASP761  ALA762  ILE779  LEU786  VAL792 
 PHE793  MET794  SER795  GLU796  ALA797  LYS798  CYS799  TRP800  GLU811  SER814 

> <Gold.Protein.RotatedAtoms>
  152.2673  134.7971  160.0420 H   0  0  0  0  0  0  0  0  0  0  0  0  # atno 6907 bound_to 6896
  151.8596  133.3449  159.3707 H   0  0  0  0  0  0  0  0  0  0  0  0  # atno 6908 bound_to 6896
  150.7138  134.5147  159.5668 H   0  0  0  0  0  0  0  0  0  0  0  0  # atno 6909 bound_to 6896
  145.7531  139.2768  143.1420 H   0  0  0  0  0  0  0  0  0  0  0  0  # atno 7974 bound_to 7965
  154.8543  140.2934  155.5579 H   0  0  0  0  0  0  0  0  0  0  0  0  # atno 8008 bound_to 7997
  156.3017  140.2490  156.3439 H   0  0  0  0  0  0  0  0  0  0  0  0  # atno 8009 bound_to 7997
  154.8987  140.0392  157.1870 H   0  0  0  0  0  0  0  0  0  0  0  0  # atno 8010 bound_to 7997
  140.0863  143.4741  152.1896 H   0  0  0  0  0  0  0  0  0  0  0  0  # atno 10167 bound_to 10162
  156.4442  130.4470  149.7033 H   0  0  0  0  0  0  0  0  0  0  0  0  # atno 10718 bound_to 10713
  154.0254  135.6663  153.4776 H   0  0  0  0  0  0  0  0  0  0  0  0  # atno 10763 bound_to 10752
  153.0562  135.5054  154.7983 H   0  0  0  0  0  0  0  0  0  0  0  0  # atno 10764 bound_to 10752
  154.6911  135.3061  154.9442 H   0  0  0  0  0  0  0  0  0  0  0  0  # atno 10765 bound_to 10752
  139.8842  134.8663  156.3403 H   0  0  0  0  0  0  0  0  0  0  0  0  # atno 11005 bound_to 11000
  146.0337  140.8233  142.9863 LP  0  0  0  0  0  0  0  0  0  0  0  0  # atno 17320 bound_to 7965
  144.6845  140.2807  143.7292 LP  0  0  0  0  0  0  0  0  0  0  0  0  # atno 17321 bound_to 7965
  139.5750  144.7483  151.3788 LP  0  0  0  0  0  0  0  0  0  0  0  0  # atno 17342 bound_to 10162
  140.7052  143.7532  150.7469 LP  0  0  0  0  0  0  0  0  0  0  0  0  # atno 17343 bound_to 10162
  156.3885  130.7615  151.2614 LP  0  0  0  0  0  0  0  0  0  0  0  0  # atno 17370 bound_to 10713
  157.7505  131.0275  150.4007 LP  0  0  0  0  0  0  0  0  0  0  0  0  # atno 17371 bound_to 10713
  140.9663  133.7356  156.0472 LP  0  0  0  0  0  0  0  0  0  0  0  0  # atno 17394 bound_to 11000
  140.7926  134.3600  157.5460 LP  0  0  0  0  0  0  0  0  0  0  0  0  # atno 17395 bound_to 11000

$$$$
