#       Name:                AV-unprocessed.smi:2340
#       Creating user name   scv26
#       Creation time:       Fri Mar 27 12:57:01 2020


#       File generated by GOLD software.
#

@<TRIPOS>MOLECULE
AV-unprocessed.smi:2340
    45    46     1
SMALL
NO_CHARGES


@<TRIPOS>ATOM
      1 ****        -3.7027  -3.5673  -4.2914 C.3            1 S1                 0.0000
      2 ****        -3.0062  -2.2524  -4.1351 C.2            1 S1                 0.0000
      3 ****        -2.6520  -1.3811  -5.1347 C.2            1 S1                 0.0000
      4 ****        -1.8567   0.0364  -4.5081 S.3            1 S1                 0.0000
      5 ****        -2.0375  -0.6166  -2.8809 C.2            1 S1                 0.0000
      6 ****        -1.5515   0.0805  -1.6480 C.3            1 S1                 0.0000
      7 ****        -2.2829   1.4171  -1.4349 C.3            1 S1                 0.0000
      8 ****        -0.0131   0.2112  -1.6504 C.3            1 S1                 0.0000
      9 ****         0.5065   0.8060  -0.4229 N.am           1 S1                 0.0000
     10 ****         0.6656   0.1555   0.7377 C.2            1 S1                 0.0000
     11 ****         0.3864  -1.0314   0.9071 O.2            1 S1                 0.0000
     12 ****         1.1713   0.9533   1.6886 N.am           1 S1                 0.0000
     13 ****         1.4613   0.5502   3.0651 C.3            1 S1                 0.0000
     14 ****         1.2179   1.7127   4.0269 C.3            1 S1                 0.0000
     15 ****         2.4845   1.7672   4.8746 C.3            1 S1                 0.0000
     16 ****         3.4863   1.2939   3.9924 O.3            1 S1                 0.0000
     17 ****         2.9430   0.1759   3.3059 C.3            1 S1                 0.0000
     18 ****         3.8051  -0.1567   2.0772 C.3            1 S1                 0.0000
     19 ****        -2.6499  -1.8040  -2.8601 N.2            1 S1                 0.0000
     20 ****        -3.8559  -3.8156  -5.3420 H              1 S1                 0.0000
     21 ****        -4.6806  -3.5536  -3.8099 H              1 S1                 0.0000
     22 ****        -3.1237  -4.3754  -3.8437 H              1 S1                 0.0000
     23 ****        -2.8098  -1.4866  -6.1979 H              1 S1                 0.0000
     24 ****        -1.8201  -0.5583  -0.8049 H              1 S1                 0.0000
     25 ****        -3.3630   1.2700  -1.4089 H              1 S1                 0.0000
     26 ****        -2.0628   2.1231  -2.2361 H              1 S1                 0.0000
     27 ****        -1.9974   1.8850  -0.4927 H              1 S1                 0.0000
     28 ****         0.4480  -0.7663  -1.8027 H              1 S1                 0.0000
     29 ****         0.3083   0.8341  -2.4855 H              1 S1                 0.0000
     30 ****         0.7665   1.7806  -0.4629 H              1 S1                 0.0000
     31 ****         1.3740   1.9119   1.4458 H              1 S1                 0.0000
     32 ****         0.8288  -0.2928   3.3493 H              1 S1                 0.0000
     33 ****         1.1087   2.6534   3.4846 H              1 S1                 0.0000
     34 ****         0.3222   1.5766   4.6336 H              1 S1                 0.0000
     35 ****         2.7072   2.7706   5.2381 H              1 S1                 0.0000
     36 ****         2.4082   1.0986   5.7335 H              1 S1                 0.0000
     37 ****         2.9760  -0.6725   3.9921 H              1 S1                 0.0000
     38 ****         3.3993  -1.0083   1.5305 H              1 S1                 0.0000
     39 ****         4.8208  -0.4133   2.3784 H              1 S1                 0.0000
     40 ****         3.8711   0.6877   1.3908 H              1 S1                 0.0000
     41 ****         0.0159  -1.5708   0.1509 LP             1 S1                 0.0000
     42 ****         0.5300  -1.4562   1.8010 LP             1 S1                 0.0000
     43 ****         4.2966   1.0184   4.5096 LP             1 S1                 0.0000
     44 ****         3.7348   2.0097   3.3398 LP             1 S1                 0.0000
     45 ****        -2.8337  -2.3171  -2.0217 LP             1 S1                 0.0000
@<TRIPOS>BOND
    1    1    2 1     
    2    1   20 1     
    3    1   21 1     
    4    1   22 1     
    5    2   19 1     
    6    2    3 2     
    7    3    4 1     
    8    3   23 1     
    9    4    5 1     
   10    5    6 1     
   11    5   19 2     
   12    6    7 1     
   13    6    8 1     
   14    6   24 1     
   15    7   25 1     
   16    7   26 1     
   17    7   27 1     
   18    8    9 1     
   19    8   28 1     
   20    8   29 1     
   21    9   10 am    
   22    9   30 1     
   23   10   11 2     
   24   10   12 am    
   25   12   13 1     
   26   12   31 1     
   27   13   17 1     
   28   13   14 1     
   29   13   32 1     
   30   14   15 1     
   31   14   33 1     
   32   14   34 1     
   33   15   16 1     
   34   15   35 1     
   35   15   36 1     
   36   16   17 1     
   37   17   18 1     
   38   17   37 1     
   39   18   38 1     
   40   18   39 1     
   41   18   40 1     
   42   11   41 1     
   43   11   42 1     
   44   16   43 1     
   45   16   44 1     
   46   19   45 1     
@<TRIPOS>SUBSTRUCTURE
      1 S1             1
@<TRIPOS>SET
LONE_PAIRS      STATIC     ATOMS    <user>   **** ""
5 41 42 43 44 45
DONOR_HYDROGENS      STATIC     ATOMS    <user>   **** ""
2 30 31
ATOM$BLUE        STATIC     ATOMS    COLORGROUP SYSTEM
5 41 42 43 44 45
ATOM$RED        STATIC     ATOMS    COLORGROUP SYSTEM
2 30 31
