AV-unprocessed.smi:2482|AV-procd|sdf|9777|dock5
  -GOLD-   2272013423D 1   1.00000     0.00000
 Structure written by MMmdl.
 35 36  0  0  0  0  0  0  0  0  2 V2000
  151.3367  145.6111  160.2139 C   0  0  0  0  0  0  0  0  0  0  0  0
  151.5754  144.3195  159.4498 C   0  0  0  0  0  0  0  0  0  0  0  0
  151.1517  144.3454  158.1670 N   0  0  0  0  0  0  0  0  0  0  0  0
  151.3265  143.2421  157.4118 C   0  0  0  0  0  0  0  0  0  0  0  0
  151.9207  142.0616  157.8949 C   0  0  0  0  0  0  0  0  0  0  0  0
  152.3526  142.0239  159.2409 C   0  0  0  0  0  0  0  0  0  0  0  0
  152.9879  140.8879  159.8100 N   0  0  0  0  0  0  0  0  0  0  0  0
  153.3116  139.7303  159.2056 C   0  0  0  0  0  0  0  0  0  0  0  0
  153.1090  139.4916  158.0147 O   0  0  0  0  0  0  0  0  0  0  0  0
  153.9590  138.6637  160.1118 C   0  0  2  0  0  0  0  0  0  0  0  0
  154.0472  139.0560  161.6061 C   0  0  0  0  0  0  0  0  0  0  0  0
  155.0517  140.1248  161.8196 N   0  3  1  0  0  0  0  0  0  0  0  0
  155.1161  140.5743  163.2265 C   0  0  0  0  0  0  0  0  0  0  0  0
  156.3715  139.7167  161.2877 C   0  0  0  0  0  0  0  0  0  0  0  0
  156.2546  139.3318  159.8039 C   0  0  0  0  0  0  0  0  0  0  0  0
  155.2663  138.3133  159.6432 O   0  0  0  0  0  0  0  0  0  0  0  0
  152.1905  143.1835  160.0347 C   0  0  0  0  0  0  0  0  0  0  0  0
  152.7250  143.1881  161.6833 Cl  0  0  0  0  0  0  0  0  0  0  0  0
  151.6596  145.5646  161.2522 H   0  0  0  0  0  0  0  0  0  0  0  0
  150.2740  145.8548  160.2104 H   0  0  0  0  0  0  0  0  0  0  0  0
  151.8727  146.4318  159.7365 H   0  0  0  0  0  0  0  0  0  0  0  0
  150.9879  143.3043  156.3882 H   0  0  0  0  0  0  0  0  0  0  0  0
  152.0474  141.2202  157.2305 H   0  0  0  0  0  0  0  0  0  0  0  0
  153.1123  140.9170  160.8120 H   0  0  0  0  0  0  0  0  0  0  0  0
  153.3368  137.7721  160.0287 H   0  0  0  0  0  0  0  0  0  0  0  0
  153.0739  139.3815  161.9765 H   0  0  0  0  0  0  0  0  0  0  0  0
  154.3230  138.1811  162.1969 H   0  0  0  0  0  0  0  0  0  0  0  0
  155.4285  139.7622  163.8843 H   0  0  0  0  0  0  0  0  0  0  0  0
  154.1408  140.9298  163.5604 H   0  0  0  0  0  0  0  0  0  0  0  0
  155.8247  141.3961  163.3358 H   0  0  0  0  0  0  0  0  0  0  0  0
  157.0855  140.5330  161.4023 H   0  0  0  0  0  0  0  0  0  0  0  0
  156.7533  138.8722  161.8635 H   0  0  0  0  0  0  0  0  0  0  0  0
  156.0213  140.2054  159.1939 H   0  0  0  0  0  0  0  0  0  0  0  0
  157.2092  138.9496  159.4419 H   0  0  0  0  0  0  0  0  0  0  0  0
  154.7494  140.9208  161.2755 H   0  0  0  0  0  0  0  0  0  0  0  0
  1  2  1  0  0  0  0
  1 19  1  0  0  0  0
  1 20  1  0  0  0  0
  1 21  1  0  0  0  0
  2 17  1  0  0  0  0
  2  3  2  0  0  0  0
  3  4  1  0  0  0  0
  4  5  2  0  0  0  0
  4 22  1  0  0  0  0
  5  6  1  0  0  0  0
  5 23  1  0  0  0  0
  6  7  1  0  0  0  0
  6 17  2  0  0  0  0
  7  8  1  0  0  0  0
  7 24  1  0  0  0  0
  8  9  2  0  0  0  0
  8 10  1  0  0  0  0
 10 16  1  0  0  0  0
 10 11  1  0  0  0  0
 10 25  1  0  0  0  0
 11 12  1  0  0  0  0
 11 26  1  0  0  0  0
 11 27  1  0  0  0  0
 12 13  1  0  0  0  0
 12 14  1  0  0  0  0
 12 35  1  0  0  0  0
 13 28  1  0  0  0  0
 13 29  1  0  0  0  0
 13 30  1  0  0  0  0
 14 15  1  0  0  0  0
 14 31  1  0  0  0  0
 14 32  1  0  0  0  0
 15 16  1  0  0  0  0
 15 33  1  0  0  0  0
 15 34  1  0  0  0  0
 17 18  1  0  0  0  0
M  CHG  1  12   1
M  END
> <s_m_source_file>
AV-unprocessed.smi

> <i_m_source_file_index>
2482

> <i_lp_mmshare_version>
43012

> <i_f3d_flags>
0

> <s_epik_input>
W0NIM11jMW5bY0hdW2NIXWMoYzFDbClbTkhdQyg9TylbQ0BASF0yW0NIMl1OKFtDSDNdKVtDSDJdW0NIMl1PMg==

> <s_epik_cmdline>
J2VwaWtfcHl0aG9uJywgJy1waCcsICc3LjAnLCAnLXRuJywgJzgnLCAnLW1hJywgJzIwMCcsICctbWV0YWxfYmluZGluZycsICctaW1hZScsICc8aW5maWxlLm1hZT4nLCAnLW9tYWUnLCAnPG91dGZpbGUubWFlPic=

> <r_epik_Ionization_Penalty>
0.314226

> <r_epik_Ionization_Penalty_Charging>
0.314023

> <r_epik_Ionization_Penalty_Neutral>
0.00020299

> <r_epik_State_Penalty>
0.308208

> <r_epik_Charging_Adjusted_Penalty>
0.62223

> <i_epik_Tot_Q>
1

> <i_epik_Tot_abs_Q>
1

> <r_epik_Metal_State_Penalty>
0.314444

> <b_epik_Metal_Only>
0

> <s_lp_Force_Field>
OPLS_2005

> <r_lp_Energy>
21.5381

> <b_lp_Chiralities_Consistent>
1

> <s_lp_Variant>
AV-unprocessed.smi:2482-3

> <Gold.Version>
5.8.1

> <Gold.Id.Protein>
6NUR|6NUR_protein|mol2

> <Gold.PLP.Fitness>
37.4607

> <Gold.PLP.PLP>
-31.8394

> <Gold.PLP.part.hbond>
-1.0000

> <Gold.PLP.part.metal>
0.0000

> <Gold.PLP.part.buried>
-4.4472

> <Gold.PLP.part.nonpolar>
-26.7742

> <Gold.PLP.part.repulsive>
0.2660

> <Gold.PLP.ligand.clash>
0.0000

> <Gold.PLP.ligand.torsion>
0.0227

> <Gold.PLP.Chemscore.Hbond>
1.0000

> <Gold.PLP.Chemscore.CHOScore>
0.8826

> <Gold.PLP.Chemscore.Metal>
0.0000

> <Gold.Chemscore.Hbonds>
donor molecule, donor type, donor heavy atom, donor atom, acceptor molecule, acceptor atom, score
      P1  H  7997  8009       L1     9  1.00
      L1  C     4    22       P1  8028  0.65

> <Gold.PLP.Chemscore.Internal.Correction>
0.0188

> <Gold.Rescore>
     Score         DG    S(hbond)    S(metal)    S(lipo)     H(rot)  DE(clash)    DE(int)     intcor
     16.16     -18.79       0.99        0.00     107.21       1.00       0.27       2.36       ----

> <Gold.Chemscore.Fitness>
16.1593

> <Gold.Chemscore.DG>
-18.7856

> <Gold.Chemscore.ZeroCoef>
-5.4800

> <Gold.Chemscore.Hbond>
0.9946

> <Gold.Chemscore.Metal>
0.0000

> <Gold.Chemscore.Lipo>
107.2109

> <Gold.Chemscore.Internal_Hbond>
0.0000

> <Gold.Chemscore.DEClash>
0.2650

> <Gold.Chemscore.DEInternal>
2.3613

> <Gold.Chemscore.Rot>
1.0000

> <Gold.Chemscore.Internal.Correction>
   9.000000E+99

> <Gold.Chemscore.Hbonds>
donor molecule, donor type, donor heavy atom, donor atom, acceptor molecule, acceptor atom, score
      P1  H  7997  8009       L1     9  0.55

> <Gold.Chemscore.Hbond.Weighted>
-3.3220

> <Gold.Chemscore.Metal.Weighted>
-0.0000

> <Gold.Chemscore.Lipo.Weighted>
-12.5437

> <Gold.Chemscore.Internal_Hbond.Weighted>
0.0000

> <Gold.Chemscore.DEClash.Weighted>
0.2650

> <Gold.Chemscore.DEInternal.Weighted>
2.3613

> <Gold.Chemscore.Rot.Weighted>
2.5600

> <Gold.Chemscore.Internal.Correction.Weighted>
   9.000000E+99

> <Gold.Protein.RotatedTorsions>
[ 6907 6896 6895 6894 ] final   87.67 input  -60.11 | X-H torsion
[ 7974 7965 7964 7962 ] final  147.46 input  175.53 | X-H torsion
[ 8008 7997 7996 7995 ] final  147.02 input   59.86 | X-H torsion
[ 10167 10162 10161 10158 ] final  138.38 input  -65.29 | X-H torsion
[ 10718 10713 10712 10709 ] final  -53.56 input   66.30 | X-H torsion
[ 10763 10752 10751 10750 ] final   11.94 input  -60.55 | X-H torsion
[ 11005 11000 10999 10996 ] final  -10.03 input  -57.11 | X-H torsion

> <Gold.Protein.ActiveResidues>
 VAL166  LYS551  ARG553  GLY616  TRP617  ASP618  TYR619  PRO620  LYS621  CYS622 
 ASP623  PHE694  ASN695  SER759  ASP760  ASP761  ALA762  ILE779  LEU786  VAL792 
 PHE793  MET794  SER795  GLU796  ALA797  LYS798  CYS799  TRP800  GLU811  SER814 

> <Gold.Protein.RotatedAtoms>
  152.5414  134.2240  159.8798 H   0  0  0  0  0  0  0  0  0  0  0  0  # atno 6907 bound_to 6896
  151.2216  133.4492  159.2608 H   0  0  0  0  0  0  0  0  0  0  0  0  # atno 6908 bound_to 6896
  151.0800  134.9865  159.8407 H   0  0  0  0  0  0  0  0  0  0  0  0  # atno 6909 bound_to 6896
  144.8590  139.6031  143.5939 H   0  0  0  0  0  0  0  0  0  0  0  0  # atno 7974 bound_to 7965
  156.2837  140.2166  156.5471 H   0  0  0  0  0  0  0  0  0  0  0  0  # atno 8008 bound_to 7997
  154.7322  140.0494  157.0759 H   0  0  0  0  0  0  0  0  0  0  0  0  # atno 8009 bound_to 7997
  155.0339  140.3138  155.4751 H   0  0  0  0  0  0  0  0  0  0  0  0  # atno 8010 bound_to 7997
  139.5113  144.6357  151.5703 H   0  0  0  0  0  0  0  0  0  0  0  0  # atno 10167 bound_to 10162
  156.1525  130.4151  149.9922 H   0  0  0  0  0  0  0  0  0  0  0  0  # atno 10718 bound_to 10713
  153.1874  135.6837  153.8397 H   0  0  0  0  0  0  0  0  0  0  0  0  # atno 10763 bound_to 10752
  153.7708  135.3196  155.3353 H   0  0  0  0  0  0  0  0  0  0  0  0  # atno 10764 bound_to 10752
  154.8097  135.4725  154.0580 H   0  0  0  0  0  0  0  0  0  0  0  0  # atno 10765 bound_to 10752
  140.7405  133.8674  155.8964 H   0  0  0  0  0  0  0  0  0  0  0  0  # atno 11005 bound_to 11000
  146.2845  139.6967  142.9205 LP  0  0  0  0  0  0  0  0  0  0  0  0  # atno 17320 bound_to 7965
  145.4350  141.0418  143.2889 LP  0  0  0  0  0  0  0  0  0  0  0  0  # atno 17321 bound_to 7965
  140.6105  143.9445  150.6449 LP  0  0  0  0  0  0  0  0  0  0  0  0  # atno 17342 bound_to 10162
  140.2686  143.3472  152.1258 LP  0  0  0  0  0  0  0  0  0  0  0  0  # atno 17343 bound_to 10162
  156.7776  130.9209  151.3645 LP  0  0  0  0  0  0  0  0  0  0  0  0  # atno 17370 bound_to 10713
  157.6668  130.9015  149.9950 LP  0  0  0  0  0  0  0  0  0  0  0  0  # atno 17371 bound_to 10713
  140.9841  134.1366  157.4468 LP  0  0  0  0  0  0  0  0  0  0  0  0  # atno 17394 bound_to 11000
  139.8807  135.0020  156.6100 LP  0  0  0  0  0  0  0  0  0  0  0  0  # atno 17395 bound_to 11000

$$$$
