#       Name:                AV-unprocessed.smi:346
#       Creating user name   scv26
#       Creation time:       Thu Mar 26 22:32:16 2020


#       File generated by GOLD software.
#

@<TRIPOS>MOLECULE
AV-unprocessed.smi:346
    38    39     1
SMALL
NO_CHARGES


@<TRIPOS>ATOM
      1 ****        -4.1489   2.0529   0.6455 C.3            1 S1                 0.0000
      2 ****        -3.5592   0.7662   0.7077 O.3            1 S1                 0.0000
      3 ****        -2.1454   0.8117   0.6214 C.3            1 S1                 0.0000
      4 ****        -1.6010  -0.6198   0.6954 C.3            1 S1                 0.0000
      5 ****        -0.1489  -0.6469   0.6188 N.pl3          1 S1                 0.0000
      6 ****         0.6269  -0.6725  -0.4938 C.2            1 S1                 0.0000
      7 ****        -0.0902  -0.6740  -2.1125 S.3            1 S1                 0.0000
      8 ****         1.4102  -0.5969  -3.1380 C.3            1 S1                 0.0000
      9 ****         1.0970  -0.5528  -4.6318 C.2            1 S1                 0.0000
     10 ****         0.4328   0.5139  -5.0850 N.am           1 S1                 0.0000
     11 ****         1.4577  -1.4652  -5.3718 O.2            1 S1                 0.0000
     12 ****         1.9427  -0.6925  -0.2708 N.2            1 S1                 0.0000
     13 ****         2.0251  -0.6741   1.1071 C.ar           1 S1                 0.0000
     14 ****         3.1517  -0.6807   1.9601 C.ar           1 S1                 0.0000
     15 ****         2.9868  -0.6544   3.3607 C.ar           1 S1                 0.0000
     16 ****         4.3732  -0.6646   4.3873 Cl             1 S1                 0.0000
     17 ****         1.6951  -0.6201   3.9259 C.ar           1 S1                 0.0000
     18 ****         0.5594  -0.6133   3.0932 C.ar           1 S1                 0.0000
     19 ****         0.7308  -0.6421   1.6962 C.ar           1 S1                 0.0000
     20 ****        -5.2330   1.9621   0.7129 H              1 S1                 0.0000
     21 ****        -3.9109   2.5516  -0.2948 H              1 S1                 0.0000
     22 ****        -3.8115   2.6817   1.4704 H              1 S1                 0.0000
     23 ****        -1.8431   1.2833  -0.3149 H              1 S1                 0.0000
     24 ****        -1.7399   1.4103   1.4387 H              1 S1                 0.0000
     25 ****        -1.9099  -1.0887   1.6300 H              1 S1                 0.0000
     26 ****        -2.0171  -1.2324  -0.1048 H              1 S1                 0.0000
     27 ****         1.9876   0.2895  -2.8724 H              1 S1                 0.0000
     28 ****         2.0343  -1.4667  -2.9280 H              1 S1                 0.0000
     29 ****         0.2099   0.5899  -6.0668 H              1 S1                 0.0000
     30 ****         0.1620   1.2449  -4.4433 H              1 S1                 0.0000
     31 ****         4.1443  -0.7061   1.5352 H              1 S1                 0.0000
     32 ****         1.5749  -0.5995   4.9994 H              1 S1                 0.0000
     33 ****        -0.4303  -0.5861   3.5239 H              1 S1                 0.0000
     34 ****        -3.9091   0.2162  -0.0506 LP             1 S1                 0.0000
     35 ****        -3.8139   0.3384   1.5750 LP             1 S1                 0.0000
     36 ****         1.9603  -2.2441  -4.9967 LP             1 S1                 0.0000
     37 ****         1.2486  -1.4287  -6.3490 LP             1 S1                 0.0000
     38 ****         2.6868  -0.7153  -0.9385 LP             1 S1                 0.0000
@<TRIPOS>BOND
    1    1    2 1     
    2    1   20 1     
    3    1   21 1     
    4    1   22 1     
    5    2    3 1     
    6    3    4 1     
    7    3   23 1     
    8    3   24 1     
    9    4    5 1     
   10    4   25 1     
   11    4   26 1     
   12    5   19 1     
   13    5    6 1     
   14    6    7 1     
   15    6   12 2     
   16    7    8 1     
   17    8    9 1     
   18    8   27 1     
   19    8   28 1     
   20    9   10 am    
   21    9   11 2     
   22   10   29 1     
   23   10   30 1     
   24   12   13 1     
   25   13   19 ar    
   26   13   14 ar    
   27   14   15 ar    
   28   14   31 1     
   29   15   16 1     
   30   15   17 ar    
   31   17   18 ar    
   32   17   32 1     
   33   18   19 ar    
   34   18   33 1     
   35    2   34 1     
   36    2   35 1     
   37   11   36 1     
   38   11   37 1     
   39   12   38 1     
@<TRIPOS>SUBSTRUCTURE
      1 S1             1
@<TRIPOS>SET
LONE_PAIRS      STATIC     ATOMS    <user>   **** ""
5 34 35 36 37 38
DONOR_HYDROGENS      STATIC     ATOMS    <user>   **** ""
2 29 30
ATOM$BLUE        STATIC     ATOMS    COLORGROUP SYSTEM
5 34 35 36 37 38
ATOM$RED        STATIC     ATOMS    COLORGROUP SYSTEM
2 29 30
