#       Name:                AV-unprocessed.smi:2894
#       Creating user name   scv26
#       Creation time:       Fri Mar 27 16:00:04 2020


#       File generated by GOLD software.
#

@<TRIPOS>MOLECULE
AV-unprocessed.smi:2894
    40    41     1
SMALL
NO_CHARGES


@<TRIPOS>ATOM
      1 ****        -5.8772  -0.3411  -0.5894 C.3            1 S1                 0.0000
      2 ****        -4.5363   0.3081  -0.4139 C.2            1 S1                 0.0000
      3 ****        -3.2755  -0.3237  -0.2080 C.2            1 S1                 0.0000
      4 ****        -2.4178   0.7383  -0.1176 C.2            1 S1                 0.0000
      5 ****        -1.0731   0.7374   0.0831 N.am           1 S1                 0.0000
      6 ****        -0.2436  -0.3128   0.2125 C.2            1 S1                 0.0000
      7 ****        -0.5773  -1.4971   0.1657 O.2            1 S1                 0.0000
      8 ****         1.0209   0.0916   0.4002 N.am           1 S1                 0.0000
      9 ****         2.1714  -0.7866   0.6041 C.3            1 S1                 0.0000
     10 ****         2.7028  -1.3212  -0.7395 C.3            1 S1                 0.0000
     11 ****         4.0202  -2.0725  -0.5296 C.3            1 S1                 0.0000
     12 ****         5.0632  -1.1561   0.1305 C.3            1 S1                 0.0000
     13 ****         4.5301  -0.3937   1.2604 N.am           1 S1                 0.0000
     14 ****         3.2345  -0.1222   1.4973 C.2            1 S1                 0.0000
     15 ****         2.8937   0.6067   2.4279 O.2            1 S1                 0.0000
     16 ****        -3.1366   1.9043  -0.2608 N.pl3          1 S1                 0.0000
     17 ****        -2.6763   3.2790  -0.2354 C.3            1 S1                 0.0000
     18 ****        -4.4469   1.6332  -0.4442 N.2            1 S1                 0.0000
     19 ****        -5.8060  -1.4247  -0.4935 H              1 S1                 0.0000
     20 ****        -6.2932  -0.1219  -1.5730 H              1 S1                 0.0000
     21 ****        -6.5859   0.0120   0.1600 H              1 S1                 0.0000
     22 ****        -3.0605  -1.3794  -0.1404 H              1 S1                 0.0000
     23 ****        -0.6466   1.6503   0.1393 H              1 S1                 0.0000
     24 ****         1.2032   1.0841   0.4305 H              1 S1                 0.0000
     25 ****         1.8363  -1.6479   1.1853 H              1 S1                 0.0000
     26 ****         1.9688  -1.9821  -1.2019 H              1 S1                 0.0000
     27 ****         2.8615  -0.4958  -1.4353 H              1 S1                 0.0000
     28 ****         3.8435  -2.9431   0.1035 H              1 S1                 0.0000
     29 ****         4.3990  -2.4509  -1.4796 H              1 S1                 0.0000
     30 ****         5.9202  -1.7406   0.4655 H              1 S1                 0.0000
     31 ****         5.4389  -0.4421  -0.6032 H              1 S1                 0.0000
     32 ****         5.2097   0.0187   1.8833 H              1 S1                 0.0000
     33 ****        -1.8643   3.4073  -0.9515 H              1 S1                 0.0000
     34 ****        -2.3138   3.5241   0.7632 H              1 S1                 0.0000
     35 ****        -3.4870   3.9609  -0.4957 H              1 S1                 0.0000
     36 ****        -1.5362  -1.7410   0.0209 LP             1 S1                 0.0000
     37 ****         0.1106  -2.2150   0.2725 LP             1 S1                 0.0000
     38 ****         1.9232   0.7692   2.6062 LP             1 S1                 0.0000
     39 ****         3.5871   1.0366   3.0061 LP             1 S1                 0.0000
     40 ****        -5.1903   2.2892  -0.5748 LP             1 S1                 0.0000
@<TRIPOS>BOND
    1    1    2 1     
    2    1   19 1     
    3    1   20 1     
    4    1   21 1     
    5    2   18 2     
    6    2    3 1     
    7    3    4 2     
    8    3   22 1     
    9    4    5 1     
   10    4   16 1     
   11    5    6 am    
   12    5   23 1     
   13    6    7 2     
   14    6    8 am    
   15    8    9 1     
   16    8   24 1     
   17    9   14 1     
   18    9   10 1     
   19    9   25 1     
   20   10   11 1     
   21   10   26 1     
   22   10   27 1     
   23   11   12 1     
   24   11   28 1     
   25   11   29 1     
   26   12   13 1     
   27   12   30 1     
   28   12   31 1     
   29   13   14 am    
   30   13   32 1     
   31   14   15 2     
   32   16   17 1     
   33   16   18 1     
   34   17   33 1     
   35   17   34 1     
   36   17   35 1     
   37    7   36 1     
   38    7   37 1     
   39   15   38 1     
   40   15   39 1     
   41   18   40 1     
@<TRIPOS>SUBSTRUCTURE
      1 S1             1
@<TRIPOS>SET
LONE_PAIRS      STATIC     ATOMS    <user>   **** ""
5 36 37 38 39 40
DONOR_HYDROGENS      STATIC     ATOMS    <user>   **** ""
3 23 24 32
ATOM$BLUE        STATIC     ATOMS    COLORGROUP SYSTEM
5 36 37 38 39 40
ATOM$RED        STATIC     ATOMS    COLORGROUP SYSTEM
3 23 24 32
