AV-unprocessed.smi:3330|AV-procd|sdf|12812|dock5
  -GOLD-   2272019183D 1   1.00000     0.00000
 Structure written by MMmdl.
 38 39  0  0  0  0  0  0  0  0  3 V2000
  149.7564  143.4645  158.8952 C   0  0  0  0  0  0  0  0  0  0  0  0
  150.9838  142.8077  158.2379 C   0  0  1  0  0  0  0  0  0  0  0  0
  150.8919  142.9388  156.7665 N   0  3  0  0  0  0  0  0  0  0  0  0
  150.6698  141.6813  156.0232 C   0  0  0  0  0  0  0  0  0  0  0  0
  151.9423  140.8138  155.9886 C   0  0  0  0  0  0  0  0  0  0  0  0
  151.7141  139.5040  155.3616 N   0  0  0  0  0  0  0  0  0  0  0  0
  150.8499  139.2784  154.3661 C   0  0  0  0  0  0  0  0  0  0  0  0
  150.1221  140.0933  153.7992 O   0  0  0  0  0  0  0  0  0  0  0  0
  150.9364  137.8137  154.0090 C   0  0  0  0  0  0  0  0  0  0  0  0
  151.9590  137.3379  154.9121 N   0  5  0  0  0  0  0  0  0  0  0  0
  152.3705  138.3724  155.6806 C   0  0  0  0  0  0  0  0  0  0  0  0
  153.2327  138.3411  156.5575 O   0  0  0  0  0  0  0  0  0  0  0  0
  152.3275  143.4120  158.7272 C   0  0  1  0  0  0  0  0  0  0  0  0
  152.3087  144.9495  158.8129 C   0  0  0  0  0  0  0  0  0  0  0  0
  152.7237  142.8541  160.0166 N   0  0  0  0  0  0  0  0  0  0  0  0
  153.2856  141.6212  160.2770 C   0  0  0  0  0  0  0  0  0  0  0  0
  153.4833  141.5389  161.6252 C   0  0  0  0  0  0  0  0  0  0  0  0
  153.0060  142.7859  162.1149 C   0  0  0  0  0  0  0  0  0  0  0  0
  152.5599  143.5734  161.1502 N   0  0  0  0  0  0  0  0  0  0  0  0
  149.7476  143.3122  159.9741 H   0  0  0  0  0  0  0  0  0  0  0  0
  148.8271  143.0423  158.5125 H   0  0  0  0  0  0  0  0  0  0  0  0
  149.7334  144.5385  158.7090 H   0  0  0  0  0  0  0  0  0  0  0  0
  150.9802  141.7461  158.4905 H   0  0  0  0  0  0  0  0  0  0  0  0
  150.1772  143.6109  156.5277 H   0  0  0  0  0  0  0  0  0  0  0  0
  149.8675  141.1211  156.5049 H   0  0  0  0  0  0  0  0  0  0  0  0
  150.3387  141.9014  155.0085 H   0  0  0  0  0  0  0  0  0  0  0  0
  152.7339  141.3408  155.4540 H   0  0  0  0  0  0  0  0  0  0  0  0
  152.3167  140.6819  157.0051 H   0  0  0  0  0  0  0  0  0  0  0  0
  149.9687  137.3361  154.1649 H   0  0  0  0  0  0  0  0  0  0  0  0
  151.2016  137.7019  152.9574 H   0  0  0  0  0  0  0  0  0  0  0  0
  153.1032  143.1325  158.0122 H   0  0  0  0  0  0  0  0  0  0  0  0
  152.1763  145.4074  157.8333 H   0  0  0  0  0  0  0  0  0  0  0  0
  153.2486  145.3279  159.2160 H   0  0  0  0  0  0  0  0  0  0  0  0
  151.5052  145.3039  159.4596 H   0  0  0  0  0  0  0  0  0  0  0  0
  153.4921  140.9096  159.4913 H   0  0  0  0  0  0  0  0  0  0  0  0
  153.8983  140.7106  162.1802 H   0  0  0  0  0  0  0  0  0  0  0  0
  152.9708  143.1395  163.1349 H   0  0  0  0  0  0  0  0  0  0  0  0
  151.7827  143.2966  156.4507 H   0  0  0  0  0  0  0  0  0  0  0  0
  1  2  1  0  0  0  0
  1 20  1  0  0  0  0
  1 21  1  0  0  0  0
  1 22  1  0  0  0  0
  2  3  1  0  0  0  0
  2 13  1  0  0  0  0
  2 23  1  0  0  0  0
  3  4  1  0  0  0  0
  3 24  1  0  0  0  0
  3 38  1  0  0  0  0
  4  5  1  0  0  0  0
  4 25  1  0  0  0  0
  4 26  1  0  0  0  0
  5  6  1  0  0  0  0
  5 27  1  0  0  0  0
  5 28  1  0  0  0  0
  6 11  1  0  0  0  0
  6  7  1  0  0  0  0
  7  8  2  0  0  0  0
  7  9  1  0  0  0  0
  9 10  1  0  0  0  0
  9 29  1  0  0  0  0
  9 30  1  0  0  0  0
 10 11  1  0  0  0  0
 11 12  2  0  0  0  0
 13 14  1  0  0  0  0
 13 15  1  0  0  0  0
 13 31  1  0  0  0  0
 14 32  1  0  0  0  0
 14 33  1  0  0  0  0
 14 34  1  0  0  0  0
 15 19  1  0  0  0  0
 15 16  1  0  0  0  0
 16 17  2  0  0  0  0
 16 35  1  0  0  0  0
 17 18  1  0  0  0  0
 17 36  1  0  0  0  0
 18 19  2  0  0  0  0
 18 37  1  0  0  0  0
M  CHG  1   3   1
M  CHG  1  10  -1
M  END
> <s_m_source_file>
AV-unprocessed.smi

> <i_m_source_file_index>
3330

> <i_lp_mmshare_version>
43012

> <i_f3d_flags>
0

> <s_epik_input>
bjFbY0hdW2NIXVtjSF1uMVtDQEBIXShbQ0gzXSlbQ0BIXShbQ0gzXSlbTkhdW0NIMl1bQ0gyXU4yQyg9TylbQ0gyXVtOSF1DMj1P

> <s_epik_cmdline>
J2VwaWtfcHl0aG9uJywgJy1waCcsICc3LjAnLCAnLXRuJywgJzgnLCAnLW1hJywgJzIwMCcsICctbWV0YWxfYmluZGluZycsICctaW1hZScsICc8aW5maWxlLm1hZT4nLCAnLW9tYWUnLCAnPG91dGZpbGUubWFlPic=

> <r_lp_tautomer_probability>
1

> <r_epik_Ionization_Penalty>
5.18149

> <r_epik_Ionization_Penalty_Charging>
5.18148

> <r_epik_Ionization_Penalty_Neutral>
9.83265e-06

> <r_epik_State_Penalty>
5.18201

> <r_epik_Charging_Adjusted_Penalty>
10.3635

> <i_epik_Tot_Q>
0

> <i_epik_Tot_abs_Q>
2

> <r_epik_Metal_State_Penalty>
1.25422

> <b_epik_Metal_Only>
1

> <s_lp_Force_Field>
OPLS_2005

> <r_lp_Energy>
19.5827

> <b_lp_Chiralities_Consistent>
1

> <s_lp_Variant>
AV-unprocessed.smi:3330-12

> <Gold.Version>
5.8.1

> <Gold.Id.Protein>
6NUR|6NUR_protein|mol2

> <Gold.PLP.Fitness>
60.2883

> <Gold.PLP.PLP>
-47.5737

> <Gold.PLP.part.hbond>
-4.0000

> <Gold.PLP.part.metal>
0.0000

> <Gold.PLP.part.buried>
-6.7305

> <Gold.PLP.part.nonpolar>
-37.6190

> <Gold.PLP.part.repulsive>
0.9625

> <Gold.PLP.ligand.clash>
0.0000

> <Gold.PLP.ligand.torsion>
2.0784

> <Gold.PLP.Chemscore.Hbond>
5.5880

> <Gold.PLP.Chemscore.CHOScore>
0.0000

> <Gold.PLP.Chemscore.Metal>
0.0000

> <Gold.Chemscore.Hbonds>
donor molecule, donor type, donor heavy atom, donor atom, acceptor molecule, acceptor atom, score
      L1  H     3    24       P1  8028  2.00
      P1  H  7989  7998       L1     8  0.12
      P1  H  7997  8008       L1    12  0.79
      P1  H 10752 10764       L1    10  1.65

> <Gold.PLP.Chemscore.Internal.Correction>
0.1073

> <Gold.Rescore>
     Score         DG    S(hbond)    S(metal)    S(lipo)     H(rot)  DE(clash)    DE(int)     intcor
     14.74     -18.68       2.71        0.00      92.18       2.59       0.26       3.68       ----

> <Gold.Chemscore.Fitness>
14.7390

> <Gold.Chemscore.DG>
-18.6826

> <Gold.Chemscore.ZeroCoef>
-5.4800

> <Gold.Chemscore.Hbond>
2.7090

> <Gold.Chemscore.Metal>
0.0000

> <Gold.Chemscore.Lipo>
92.1844

> <Gold.Chemscore.Internal_Hbond>
0.0000

> <Gold.Chemscore.DEClash>
0.2595

> <Gold.Chemscore.DEInternal>
3.6841

> <Gold.Chemscore.Rot>
2.5903

> <Gold.Chemscore.Internal.Correction>
   9.000000E+99

> <Gold.Chemscore.Hbonds>
donor molecule, donor type, donor heavy atom, donor atom, acceptor molecule, acceptor atom, score
      L1  H     3    24       P1  8028  1.00
      P1  H  7997  8008       L1    12  0.70
      P1  H 10752 10764       L1    10  0.75

> <Gold.Chemscore.Hbond.Weighted>
-9.0481

> <Gold.Chemscore.Metal.Weighted>
-0.0000

> <Gold.Chemscore.Lipo.Weighted>
-10.7856

> <Gold.Chemscore.Internal_Hbond.Weighted>
0.0000

> <Gold.Chemscore.DEClash.Weighted>
0.2595

> <Gold.Chemscore.DEInternal.Weighted>
3.6841

> <Gold.Chemscore.Rot.Weighted>
6.6311

> <Gold.Chemscore.Internal.Correction.Weighted>
   9.000000E+99

> <Gold.Protein.RotatedTorsions>
[ 6907 6896 6895 6894 ] final   61.65 input  -60.11 | X-H torsion
[ 7974 7965 7964 7962 ] final   20.78 input  175.53 | X-H torsion
[ 8008 7997 7996 7995 ] final  -66.27 input   59.86 | X-H torsion
[ 10167 10162 10161 10158 ] final   62.80 input  -65.29 | X-H torsion
[ 10718 10713 10712 10709 ] final  131.05 input   66.30 | X-H torsion
[ 10763 10752 10751 10750 ] final  -52.07 input  -60.55 | X-H torsion
[ 11005 11000 10999 10996 ] final -157.73 input  -57.11 | X-H torsion

> <Gold.Protein.ActiveResidues>
 VAL166  LYS551  ARG553  GLY616  TRP617  ASP618  TYR619  PRO620  LYS621  CYS622 
 ASP623  PHE694  ASN695  SER759  ASP760  ASP761  ALA762  ILE779  LEU786  VAL792 
 PHE793  MET794  SER795  GLU796  ALA797  LYS798  CYS799  TRP800  GLU811  SER814 

> <Gold.Protein.RotatedAtoms>
  152.4106  134.6131  160.0030 H   0  0  0  0  0  0  0  0  0  0  0  0  # atno 6907 bound_to 6896
  151.6309  133.3326  159.3116 H   0  0  0  0  0  0  0  0  0  0  0  0  # atno 6908 bound_to 6896
  150.7997  134.7123  159.6655 H   0  0  0  0  0  0  0  0  0  0  0  0  # atno 6909 bound_to 6896
  146.2098  139.8121  142.8698 H   0  0  0  0  0  0  0  0  0  0  0  0  # atno 7974 bound_to 7965
  154.4724  140.0916  156.7177 H   0  0  0  0  0  0  0  0  0  0  0  0  # atno 8008 bound_to 7997
  155.4689  140.3463  155.4304 H   0  0  0  0  0  0  0  0  0  0  0  0  # atno 8009 bound_to 7997
  156.1060  140.1435  156.9391 H   0  0  0  0  0  0  0  0  0  0  0  0  # atno 8010 bound_to 7997
  140.1399  144.4563  150.6817 H   0  0  0  0  0  0  0  0  0  0  0  0  # atno 10167 bound_to 10162
  157.5004  131.1094  150.9434 H   0  0  0  0  0  0  0  0  0  0  0  0  # atno 10718 bound_to 10713
  154.1367  135.6511  153.4933 H   0  0  0  0  0  0  0  0  0  0  0  0  # atno 10763 bound_to 10752
  153.0178  135.5306  154.6946 H   0  0  0  0  0  0  0  0  0  0  0  0  # atno 10764 bound_to 10752
  154.6196  135.2963  155.0312 H   0  0  0  0  0  0  0  0  0  0  0  0  # atno 10765 bound_to 10752
  140.6614  134.4345  157.5234 H   0  0  0  0  0  0  0  0  0  0  0  0  # atno 11005 bound_to 11000
  145.3185  141.0238  143.3514 LP  0  0  0  0  0  0  0  0  0  0  0  0  # atno 17320 bound_to 7965
  144.8884  139.4808  143.6689 LP  0  0  0  0  0  0  0  0  0  0  0  0  # atno 17321 bound_to 7965
  140.6766  143.2308  151.5490 LP  0  0  0  0  0  0  0  0  0  0  0  0  # atno 17342 bound_to 10162
  139.5477  144.2477  152.1473 LP  0  0  0  0  0  0  0  0  0  0  0  0  # atno 17343 bound_to 10162
  157.0107  130.5635  149.5320 LP  0  0  0  0  0  0  0  0  0  0  0  0  # atno 17370 bound_to 10713
  156.0226  130.5320  150.8318 LP  0  0  0  0  0  0  0  0  0  0  0  0  # atno 17371 bound_to 10713
  139.9011  134.8553  156.1890 LP  0  0  0  0  0  0  0  0  0  0  0  0  # atno 17394 bound_to 11000
  141.0462  133.6912  156.1687 LP  0  0  0  0  0  0  0  0  0  0  0  0  # atno 17395 bound_to 11000

$$$$
