AV-unprocessed.smi:281|AV-procd|sdf|2101|dock6
  -GOLD-   2262021393D 1   1.00000     0.00000
 Structure written by MMmdl.
 55 59  0  0  0  0  0  0  0  0  1 V2000
  148.1122  141.9653  153.8927 C   0  0  0  0  0  0  0  0  0  0  0  0
  148.6926  140.5529  154.0161 C   0  0  2  0  0  0  0  0  0  0  0  0
  147.6009  139.5022  154.2735 C   0  0  0  0  0  0  0  0  0  0  0  0
  148.2151  138.2000  154.4818 N   0  0  0  0  0  0  0  0  0  0  0  0
  147.3242  137.1881  154.5378 C   0  0  0  0  0  0  0  0  0  0  0  0
  147.1830  136.4657  155.6803 N   0  0  0  0  0  0  0  0  0  0  0  0
  146.2977  135.4655  155.7298 C   0  0  0  0  0  0  0  0  0  0  0  0
  145.4728  135.0320  154.7734 N   0  0  0  0  0  0  0  0  0  0  0  0
  145.6129  135.7608  153.6285 C   0  0  0  0  0  0  0  0  0  0  0  0
  146.5097  136.8465  153.4277 C   0  0  0  0  0  0  0  0  0  0  0  0
  146.3805  137.3429  152.1373 N   0  0  0  0  0  0  0  0  0  0  0  0
  145.4571  136.5906  151.6027 C   0  0  0  0  0  0  0  0  0  0  0  0
  144.9353  135.6206  152.4300 N   0  0  0  0  0  0  0  0  0  0  0  0
  143.8993  134.6550  152.0982 C   0  0  0  0  0  0  0  0  0  0  0  0
  144.2774  133.7284  150.9191 C   0  0  1  0  0  0  0  0  0  0  0  0
  144.0187  134.4012  149.6991 O   0  0  0  0  0  0  0  0  0  0  0  0
  145.7361  133.2778  150.9219 C   0  0  0  0  0  0  0  0  0  0  0  0
  145.6633  131.8821  150.3191 C   0  0  0  0  0  0  0  0  0  0  0  0
  144.4774  131.3624  150.8944 O   0  0  0  0  0  0  0  0  0  0  0  0
  143.4996  132.3969  150.9178 C   0  0  0  0  0  0  0  0  0  0  0  0
  149.1786  138.2063  155.5745 C   0  0  0  0  0  0  0  0  0  0  0  0
  150.2602  139.2889  155.3537 C   0  0  2  0  0  0  0  0  0  0  0  0
  151.2523  138.9487  154.2317 C   0  0  0  0  0  0  0  0  0  0  0  0
  152.5535  138.6303  154.9565 C   0  0  0  0  0  0  0  0  0  0  0  0
  152.4983  139.4877  156.0809 O   0  0  0  0  0  0  0  0  0  0  0  0
  151.1779  139.4022  156.5949 C   0  0  1  0  0  0  0  0  0  0  0  0
  150.8899  140.5763  157.5412 C   0  0  0  0  0  0  0  0  0  0  0  0
  149.6220  140.5482  155.1012 O   0  0  0  0  0  0  0  0  0  0  0  0
  147.4006  142.0262  153.0688 H   0  0  0  0  0  0  0  0  0  0  0  0
  148.9002  142.6952  153.7059 H   0  0  0  0  0  0  0  0  0  0  0  0
  147.5943  142.2607  154.8058 H   0  0  0  0  0  0  0  0  0  0  0  0
  149.2102  140.3139  153.0865 H   0  0  0  0  0  0  0  0  0  0  0  0
  147.0141  139.7762  155.1518 H   0  0  0  0  0  0  0  0  0  0  0  0
  146.9151  139.4583  153.4259 H   0  0  0  0  0  0  0  0  0  0  0  0
  146.2415  134.9372  156.6701 H   0  0  0  0  0  0  0  0  0  0  0  0
  145.1266  136.7268  150.5834 H   0  0  0  0  0  0  0  0  0  0  0  0
  143.6930  134.0617  152.9901 H   0  0  0  0  0  0  0  0  0  0  0  0
  142.9796  135.1969  151.8734 H   0  0  0  0  0  0  0  0  0  0  0  0
  143.0849  134.4114  149.5540 H   0  0  0  0  0  0  0  0  0  0  0  0
  146.4068  133.9472  150.3808 H   0  0  0  0  0  0  0  0  0  0  0  0
  146.1035  133.1953  151.9454 H   0  0  0  0  0  0  0  0  0  0  0  0
  145.5604  131.9252  149.2336 H   0  0  0  0  0  0  0  0  0  0  0  0
  146.5321  131.2699  150.5624 H   0  0  0  0  0  0  0  0  0  0  0  0
  142.8740  132.2787  151.8032 H   0  0  0  0  0  0  0  0  0  0  0  0
  142.8502  132.3017  150.0459 H   0  0  0  0  0  0  0  0  0  0  0  0
  148.6551  138.4025  156.5117 H   0  0  0  0  0  0  0  0  0  0  0  0
  149.6402  137.2220  155.6667 H   0  0  0  0  0  0  0  0  0  0  0  0
  150.9239  138.1308  153.5894 H   0  0  0  0  0  0  0  0  0  0  0  0
  151.4189  139.8191  153.5961 H   0  0  0  0  0  0  0  0  0  0  0  0
  152.5770  137.5895  155.2838 H   0  0  0  0  0  0  0  0  0  0  0  0
  153.4355  138.8219  154.3452 H   0  0  0  0  0  0  0  0  0  0  0  0
  151.1283  138.4746  157.1687 H   0  0  0  0  0  0  0  0  0  0  0  0
  149.8697  140.5296  157.9226 H   0  0  0  0  0  0  0  0  0  0  0  0
  151.0197  141.5357  157.0398 H   0  0  0  0  0  0  0  0  0  0  0  0
  151.5659  140.5582  158.3962 H   0  0  0  0  0  0  0  0  0  0  0  0
  1  2  1  0  0  0  0
  1 29  1  0  0  0  0
  1 30  1  0  0  0  0
  1 31  1  0  0  0  0
  2 28  1  0  0  0  0
  2  3  1  0  0  0  0
  2 32  1  0  0  0  0
  3  4  1  0  0  0  0
  3 33  1  0  0  0  0
  3 34  1  0  0  0  0
  4  5  1  0  0  0  0
  4 21  1  0  0  0  0
  5 10  1  0  0  0  0
  5  6  2  0  0  0  0
  6  7  1  0  0  0  0
  7  8  2  0  0  0  0
  7 35  1  0  0  0  0
  8  9  1  0  0  0  0
  9 13  1  0  0  0  0
  9 10  2  0  0  0  0
 10 11  1  0  0  0  0
 11 12  2  0  0  0  0
 12 13  1  0  0  0  0
 12 36  1  0  0  0  0
 13 14  1  0  0  0  0
 14 15  1  0  0  0  0
 14 37  1  0  0  0  0
 14 38  1  0  0  0  0
 15 20  1  0  0  0  0
 15 16  1  0  0  0  0
 15 17  1  0  0  0  0
 16 39  1  0  0  0  0
 17 18  1  0  0  0  0
 17 40  1  0  0  0  0
 17 41  1  0  0  0  0
 18 19  1  0  0  0  0
 18 42  1  0  0  0  0
 18 43  1  0  0  0  0
 19 20  1  0  0  0  0
 20 44  1  0  0  0  0
 20 45  1  0  0  0  0
 21 22  1  0  0  0  0
 21 46  1  0  0  0  0
 21 47  1  0  0  0  0
 22 26  1  0  0  0  0
 22 23  1  0  0  0  0
 22 28  1  0  0  0  0
 23 24  1  0  0  0  0
 23 48  1  0  0  0  0
 23 49  1  0  0  0  0
 24 25  1  0  0  0  0
 24 50  1  0  0  0  0
 24 51  1  0  0  0  0
 25 26  1  0  0  0  0
 26 27  1  0  0  0  0
 26 52  1  0  0  0  0
 27 53  1  0  0  0  0
 27 54  1  0  0  0  0
 27 55  1  0  0  0  0
M  END
> <s_m_source_file>
AV-unprocessed.smi

> <i_m_source_file_index>
281

> <i_lp_mmshare_version>
43012

> <i_f3d_flags>
0

> <s_epik_input>
W0NIM11bQ0BASF0xT1tDSDJdW0NIMl1bQ0BAXTEyW0NIMl1OKFtDSDJdW0NASF0oTzIpW0NIM10pYyhuW2NIXW4zKWMoYzM0KW5bY0hdbjRbQ0gyXVtDQEBdNShbT0hdKVtDSDJdW0NIMl1PW0NIMl01

> <s_epik_cmdline>
J2VwaWtfcHl0aG9uJywgJy1waCcsICc3LjAnLCAnLXRuJywgJzgnLCAnLW1hJywgJzIwMCcsICctbWV0YWxfYmluZGluZycsICctaW1hZScsICc8aW5maWxlLm1hZT4nLCAnLW9tYWUnLCAnPG91dGZpbGUubWFlPic=

> <r_lp_tautomer_probability>
1

> <r_epik_Ionization_Penalty>
0.00571331

> <r_epik_Ionization_Penalty_Charging>
0

> <r_epik_Ionization_Penalty_Neutral>
0.00571331

> <r_epik_State_Penalty>
0.00399586

> <r_epik_Charging_Adjusted_Penalty>
0.00399586

> <i_epik_Tot_Q>
0

> <i_epik_Tot_abs_Q>
0

> <r_epik_Metal_State_Penalty>
-0

> <b_epik_Metal_Only>
0

> <s_lp_Force_Field>
OPLS_2005

> <r_lp_Energy>
53.2983

> <b_lp_Chiralities_Consistent>
1

> <s_lp_Variant>
AV-unprocessed.smi:281-1

> <Gold.Version>
5.8.1

> <Gold.Id.Protein>
6NUR|6NUR_protein|mol2

> <Gold.PLP.Fitness>
43.9411

> <Gold.PLP.PLP>
-35.9398

> <Gold.PLP.part.hbond>
-2.9907

> <Gold.PLP.part.metal>
0.0000

> <Gold.PLP.part.buried>
-2.6825

> <Gold.PLP.part.nonpolar>
-31.0998

> <Gold.PLP.part.repulsive>
2.0515

> <Gold.PLP.ligand.clash>
0.0000

> <Gold.PLP.ligand.torsion>
0.5204

> <Gold.PLP.Chemscore.Hbond>
1.9913

> <Gold.PLP.Chemscore.CHOScore>
0.9832

> <Gold.PLP.Chemscore.Metal>
0.0000

> <Gold.Chemscore.Hbonds>
donor molecule, donor type, donor heavy atom, donor atom, acceptor molecule, acceptor atom, score
      L1  H    16    39       P1 10186  0.89
      P1  H  7997  8010       L1    25  1.00
      L1  C    12    36       P1 10171  0.91

> <Gold.PLP.Chemscore.Internal.Correction>
0.1187

> <Gold.Rescore>
     Score         DG    S(hbond)    S(metal)    S(lipo)     H(rot)  DE(clash)    DE(int)     intcor
     14.08     -17.20       1.82        0.00      94.09       2.09       2.53       0.59       ----

> <Gold.Chemscore.Fitness>
14.0802

> <Gold.Chemscore.DG>
-17.1996

> <Gold.Chemscore.ZeroCoef>
-5.4800

> <Gold.Chemscore.Hbond>
1.8170

> <Gold.Chemscore.Metal>
0.0000

> <Gold.Chemscore.Lipo>
94.0859

> <Gold.Chemscore.Internal_Hbond>
0.0000

> <Gold.Chemscore.DEClash>
2.5329

> <Gold.Chemscore.DEInternal>
0.5865

> <Gold.Chemscore.Rot>
2.0927

> <Gold.Chemscore.Internal.Correction>
   9.000000E+99

> <Gold.Chemscore.Hbonds>
donor molecule, donor type, donor heavy atom, donor atom, acceptor molecule, acceptor atom, score
      L1  H    16    39       P1 10186  0.86
      P1  H  7997  8010       L1    25  0.44

> <Gold.Chemscore.Hbond.Weighted>
-6.0689

> <Gold.Chemscore.Metal.Weighted>
-0.0000

> <Gold.Chemscore.Lipo.Weighted>
-11.0080

> <Gold.Chemscore.Internal_Hbond.Weighted>
0.0000

> <Gold.Chemscore.DEClash.Weighted>
2.5329

> <Gold.Chemscore.DEInternal.Weighted>
0.5865

> <Gold.Chemscore.Rot.Weighted>
5.3573

> <Gold.Chemscore.Internal.Correction.Weighted>
   9.000000E+99

> <Gold.Protein.RotatedTorsions>
[ 6907 6896 6895 6894 ] final   39.40 input  -60.11 | X-H torsion
[ 7974 7965 7964 7962 ] final -116.99 input  175.53 | X-H torsion
[ 8008 7997 7996 7995 ] final   80.67 input   59.86 | X-H torsion
[ 10167 10162 10161 10158 ] final  -82.36 input  -65.29 | X-H torsion
[ 10718 10713 10712 10709 ] final  -31.17 input   66.30 | X-H torsion
[ 10763 10752 10751 10750 ] final  -35.22 input  -60.55 | X-H torsion
[ 11005 11000 10999 10996 ] final  115.37 input  -57.11 | X-H torsion

> <Gold.Protein.ActiveResidues>
 VAL166  LYS551  ARG553  GLY616  TRP617  ASP618  TYR619  PRO620  LYS621  CYS622 
 ASP623  PHE694  ASN695  SER759  ASP760  ASP761  ALA762  ILE779  LEU786  VAL792 
 PHE793  MET794  SER795  GLU796  ALA797  LYS798  CYS799  TRP800  GLU811  SER814 

> <Gold.Protein.RotatedAtoms>
  152.1691  134.8849  160.0535 H   0  0  0  0  0  0  0  0  0  0  0  0  # atno 6907 bound_to 6896
  151.9815  133.3754  159.4117 H   0  0  0  0  0  0  0  0  0  0  0  0  # atno 6908 bound_to 6896
  150.6899  134.3956  159.5140 H   0  0  0  0  0  0  0  0  0  0  0  0  # atno 6909 bound_to 6896
  145.0903  140.8485  143.3986 H   0  0  0  0  0  0  0  0  0  0  0  0  # atno 7974 bound_to 7965
  155.8867  140.3441  155.5927 H   0  0  0  0  0  0  0  0  0  0  0  0  # atno 8008 bound_to 7997
  155.7658  140.0838  157.2152 H   0  0  0  0  0  0  0  0  0  0  0  0  # atno 8009 bound_to 7997
  154.4029  140.1527  156.2872 H   0  0  0  0  0  0  0  0  0  0  0  0  # atno 8010 bound_to 7997
  140.4327  143.2543  151.8737 H   0  0  0  0  0  0  0  0  0  0  0  0  # atno 10167 bound_to 10162
  156.3906  130.4372  149.7397 H   0  0  0  0  0  0  0  0  0  0  0  0  # atno 10718 bound_to 10713
  153.8597  135.6841  153.4784 H   0  0  0  0  0  0  0  0  0  0  0  0  # atno 10763 bound_to 10752
  153.1349  135.4682  154.9404 H   0  0  0  0  0  0  0  0  0  0  0  0  # atno 10764 bound_to 10752
  154.7764  135.3255  154.8031 H   0  0  0  0  0  0  0  0  0  0  0  0  # atno 10765 bound_to 10752
  139.9008  134.9583  156.7034 H   0  0  0  0  0  0  0  0  0  0  0  0  # atno 11005 bound_to 11000
  145.1073  139.2781  143.5655 LP  0  0  0  0  0  0  0  0  0  0  0  0  # atno 17320 bound_to 7965
  146.3531  140.0659  142.8626 LP  0  0  0  0  0  0  0  0  0  0  0  0  # atno 17321 bound_to 7965
  139.4785  144.5317  151.8657 LP  0  0  0  0  0  0  0  0  0  0  0  0  # atno 17342 bound_to 10162
  140.4409  144.1988  150.5891 LP  0  0  0  0  0  0  0  0  0  0  0  0  # atno 17343 bound_to 10162
  156.4452  130.7880  151.2902 LP  0  0  0  0  0  0  0  0  0  0  0  0  # atno 17370 bound_to 10713
  157.7499  131.0112  150.3337 LP  0  0  0  0  0  0  0  0  0  0  0  0  # atno 17371 bound_to 10713
  140.7132  133.9205  155.8098 LP  0  0  0  0  0  0  0  0  0  0  0  0  # atno 17394 bound_to 11000
  141.0284  134.0790  157.4042 LP  0  0  0  0  0  0  0  0  0  0  0  0  # atno 17395 bound_to 11000

$$$$
