AV-unprocessed.smi:74|AV-procd|sdf|764|dock4
  -GOLD-   2262017103D 1   1.00000     0.00000
 Structure written by MMmdl.
 58 62  0  0  0  0  0  0  0  0  1 V2000
  147.1060  132.6116  149.8150 O   0  0  0  0  0  0  0  0  0  0  0  0
  145.7720  132.1453  149.8032 C   0  0  0  0  0  0  0  0  0  0  0  0
  144.8600  133.0459  150.6524 C   0  0  0  0  0  0  0  0  0  0  0  0
  143.4707  132.3873  150.7755 C   0  0  0  0  0  0  0  0  0  0  0  0
  142.9137  132.1155  149.5054 O   0  0  0  0  0  0  0  0  0  0  0  0
  145.4705  133.5487  151.9804 C   0  0  0  0  0  0  0  0  0  0  0  0
  144.8573  134.9281  151.7300 C   0  0  0  0  0  0  0  0  0  0  0  0
  145.5109  136.1200  152.1840 N   0  0  0  0  0  0  0  0  0  0  0  0
  145.8642  137.2103  151.4217 C   0  0  0  0  0  0  0  0  0  0  0  0
  146.4052  138.1982  152.0810 N   0  0  0  0  0  0  0  0  0  0  0  0
  146.3981  137.7700  153.4035 C   0  0  0  0  0  0  0  0  0  0  0  0
  146.8127  138.3493  154.6365 C   0  0  0  0  0  0  0  0  0  0  0  0
  147.3839  139.5786  154.7164 N   0  0  0  0  0  0  0  0  0  0  0  0
  147.2300  140.4113  153.5276 C   0  0  0  0  0  0  0  0  0  0  0  0
  147.6217  141.8641  153.8449 C   0  0  0  0  0  0  0  0  0  0  0  0
  148.9445  141.9039  154.3706 O   0  0  0  0  0  0  0  0  0  0  0  0
  149.0698  141.1554  155.5771 C   0  0  2  0  0  0  0  0  0  0  0  0
  150.4898  141.3400  156.1298 C   0  0  0  0  0  0  0  0  0  0  0  0
  150.5425  142.5048  156.9377 O   0  0  0  0  0  0  0  0  0  0  0  0
  151.2579  142.3062  158.1436 C   0  0  0  0  0  0  0  0  0  0  0  0
  151.2647  143.6020  158.9260 C   0  0  0  0  0  0  0  0  0  0  0  0
  152.2387  144.7062  158.5814 C   0  0  0  0  0  0  0  0  0  0  0  0
  152.4096  143.9248  159.8591 C   0  0  0  0  0  0  0  0  0  0  0  0
  148.7118  139.6788  155.3175 C   0  0  0  0  0  0  0  0  0  0  0  0
  146.6066  137.6215  155.7672 N   0  0  0  0  0  0  0  0  0  0  0  0
  146.0449  136.4112  155.7007 C   0  0  0  0  0  0  0  0  0  0  0  0
  145.6195  135.7476  154.6246 N   0  0  0  0  0  0  0  0  0  0  0  0
  145.8187  136.4719  153.4865 C   0  0  0  0  0  0  0  0  0  0  0  0
  144.8482  134.5376  150.2499 C   0  0  0  0  0  0  0  0  0  0  0  0
  147.6838  131.8661  149.8717 H   0  0  0  0  0  0  0  0  0  0  0  0
  145.4272  132.0820  148.7710 H   0  0  0  0  0  0  0  0  0  0  0  0
  145.7739  131.1243  150.1863 H   0  0  0  0  0  0  0  0  0  0  0  0
  143.5277  131.4450  151.3208 H   0  0  0  0  0  0  0  0  0  0  0  0
  142.7780  133.0166  151.3347 H   0  0  0  0  0  0  0  0  0  0  0  0
  142.0819  131.6841  149.6281 H   0  0  0  0  0  0  0  0  0  0  0  0
  145.1037  133.0509  152.8786 H   0  0  0  0  0  0  0  0  0  0  0  0
  146.5620  133.5718  151.9685 H   0  0  0  0  0  0  0  0  0  0  0  0
  143.8407  134.9750  152.1242 H   0  0  0  0  0  0  0  0  0  0  0  0
  145.7118  137.2508  150.3530 H   0  0  0  0  0  0  0  0  0  0  0  0
  147.8695  140.0185  152.7361 H   0  0  0  0  0  0  0  0  0  0  0  0
  146.2091  140.3877  153.1493 H   0  0  0  0  0  0  0  0  0  0  0  0
  147.5823  142.4698  152.9396 H   0  0  0  0  0  0  0  0  0  0  0  0
  146.9223  142.3074  154.5555 H   0  0  0  0  0  0  0  0  0  0  0  0
  148.3716  141.5686  156.3076 H   0  0  0  0  0  0  0  0  0  0  0  0
  150.7848  140.4624  156.7070 H   0  0  0  0  0  0  0  0  0  0  0  0
  151.1944  141.4379  155.3025 H   0  0  0  0  0  0  0  0  0  0  0  0
  150.7803  141.5309  158.7441 H   0  0  0  0  0  0  0  0  0  0  0  0
  152.2825  141.9914  157.9382 H   0  0  0  0  0  0  0  0  0  0  0  0
  150.2792  143.9160  159.2650 H   0  0  0  0  0  0  0  0  0  0  0  0
  152.9518  144.5217  157.7802 H   0  0  0  0  0  0  0  0  0  0  0  0
  151.8831  145.7315  158.6616 H   0  0  0  0  0  0  0  0  0  0  0  0
  152.1690  144.4294  160.7927 H   0  0  0  0  0  0  0  0  0  0  0  0
  153.2377  143.2206  159.9097 H   0  0  0  0  0  0  0  0  0  0  0  0
  148.7411  139.1241  156.2564 H   0  0  0  0  0  0  0  0  0  0  0  0
  149.4422  139.2241  154.6466 H   0  0  0  0  0  0  0  0  0  0  0  0
  145.9190  135.9021  156.6448 H   0  0  0  0  0  0  0  0  0  0  0  0
  145.7589  134.8434  149.7308 H   0  0  0  0  0  0  0  0  0  0  0  0
  143.9606  134.8584  149.7036 H   0  0  0  0  0  0  0  0  0  0  0  0
  1  2  1  0  0  0  0
  1 30  1  0  0  0  0
  2  3  1  0  0  0  0
  2 31  1  0  0  0  0
  2 32  1  0  0  0  0
  3 29  1  0  0  0  0
  3  4  1  0  0  0  0
  3  6  1  0  0  0  0
  4  5  1  0  0  0  0
  4 33  1  0  0  0  0
  4 34  1  0  0  0  0
  5 35  1  0  0  0  0
  6  7  1  0  0  0  0
  6 36  1  0  0  0  0
  6 37  1  0  0  0  0
  7  8  1  0  0  0  0
  7 29  1  0  0  0  0
  7 38  1  0  0  0  0
  8 28  1  0  0  0  0
  8  9  1  0  0  0  0
  9 10  2  0  0  0  0
  9 39  1  0  0  0  0
 10 11  1  0  0  0  0
 11 28  2  0  0  0  0
 11 12  1  0  0  0  0
 12 13  1  0  0  0  0
 12 25  2  0  0  0  0
 13 24  1  0  0  0  0
 13 14  1  0  0  0  0
 14 15  1  0  0  0  0
 14 40  1  0  0  0  0
 14 41  1  0  0  0  0
 15 16  1  0  0  0  0
 15 42  1  0  0  0  0
 15 43  1  0  0  0  0
 16 17  1  0  0  0  0
 17 18  1  0  0  0  0
 17 24  1  0  0  0  0
 17 44  1  0  0  0  0
 18 19  1  0  0  0  0
 18 45  1  0  0  0  0
 18 46  1  0  0  0  0
 19 20  1  0  0  0  0
 20 21  1  0  0  0  0
 20 47  1  0  0  0  0
 20 48  1  0  0  0  0
 21 23  1  0  0  0  0
 21 22  1  0  0  0  0
 21 49  1  0  0  0  0
 22 23  1  0  0  0  0
 22 50  1  0  0  0  0
 22 51  1  0  0  0  0
 23 52  1  0  0  0  0
 23 53  1  0  0  0  0
 24 54  1  0  0  0  0
 24 55  1  0  0  0  0
 25 26  1  0  0  0  0
 26 27  2  0  0  0  0
 26 56  1  0  0  0  0
 27 28  1  0  0  0  0
 29 57  1  0  0  0  0
 29 58  1  0  0  0  0
M  END
> <s_m_source_file>
AV-unprocessed.smi

> <i_m_source_file_index>
74

> <i_lp_mmshare_version>
43012

> <i_f3d_flags>
0

> <s_epik_input>
W09IXVtDSDJdQzEoW0NIMl1bT0hdKVtDSDJdW0NIXShbQ0gyXTEpbihbY0hdbjIpYyhjMjMpbltjSF1uYzNONFtDSDJdW0NIMl1PW0NASF0oW0NIMl00KVtDSDJdT1tDSDJdW0NIXTVbQ0gyXVtDSDJdNQ==

> <s_epik_cmdline>
J2VwaWtfcHl0aG9uJywgJy1waCcsICc3LjAnLCAnLXRuJywgJzgnLCAnLW1hJywgJzIwMCcsICctbWV0YWxfYmluZGluZycsICctaW1hZScsICc8aW5maWxlLm1hZT4nLCAnLW9tYWUnLCAnPG91dGZpbGUubWFlPic=

> <r_lp_tautomer_probability>
1

> <r_epik_Ionization_Penalty>
5.89322e-05

> <r_epik_Ionization_Penalty_Charging>
0

> <r_epik_Ionization_Penalty_Neutral>
5.89322e-05

> <r_epik_State_Penalty>
-0

> <r_epik_Charging_Adjusted_Penalty>
0

> <i_epik_Tot_Q>
0

> <i_epik_Tot_abs_Q>
0

> <r_epik_Metal_State_Penalty>
-0

> <b_epik_Metal_Only>
0

> <s_lp_Force_Field>
OPLS_2005

> <r_lp_Energy>
49.4071

> <b_lp_Chiralities_Consistent>
1

> <s_lp_Variant>
AV-unprocessed.smi:74-2

> <Gold.Version>
5.8.1

> <Gold.Id.Protein>
6NUR|6NUR_protein|mol2

> <Gold.PLP.Fitness>
58.5025

> <Gold.PLP.PLP>
-51.2505

> <Gold.PLP.part.hbond>
-6.6859

> <Gold.PLP.part.metal>
0.0000

> <Gold.PLP.part.buried>
-2.0291

> <Gold.PLP.part.nonpolar>
-42.4242

> <Gold.PLP.part.repulsive>
0.9807

> <Gold.PLP.ligand.clash>
0.0000

> <Gold.PLP.ligand.torsion>
1.5329

> <Gold.PLP.Chemscore.Hbond>
2.2506

> <Gold.PLP.Chemscore.CHOScore>
0.7071

> <Gold.PLP.Chemscore.Metal>
0.0000

> <Gold.Chemscore.Hbonds>
donor molecule, donor type, donor heavy atom, donor atom, acceptor molecule, acceptor atom, score
      L1  H     1    30       P1 10747  1.00
      L1  H     5    35       P1 10952  1.00
      P1  H  8011  8017       L1    16  0.10
      L1  C     9    39       P1 10171  0.64

> <Gold.PLP.Chemscore.Internal.Correction>
1.4446

> <Gold.Rescore>
     Score         DG    S(hbond)    S(metal)    S(lipo)     H(rot)  DE(clash)    DE(int)     intcor
     13.11     -16.84       1.96        0.00     127.80       3.97       0.74       2.99       ----

> <Gold.Chemscore.Fitness>
13.1111

> <Gold.Chemscore.DG>
-16.8426

> <Gold.Chemscore.ZeroCoef>
-5.4800

> <Gold.Chemscore.Hbond>
1.9650

> <Gold.Chemscore.Metal>
0.0000

> <Gold.Chemscore.Lipo>
127.7981

> <Gold.Chemscore.Internal_Hbond>
0.0000

> <Gold.Chemscore.DEClash>
0.7424

> <Gold.Chemscore.DEInternal>
2.9890

> <Gold.Chemscore.Rot>
3.9660

> <Gold.Chemscore.Internal.Correction>
   9.000000E+99

> <Gold.Chemscore.Hbonds>
donor molecule, donor type, donor heavy atom, donor atom, acceptor molecule, acceptor atom, score
      L1  H     1    30       P1 10747  1.00
      L1  H     5    35       P1 10952  0.99
      P1  H  8011  8017       L1    16  0.01

> <Gold.Chemscore.Hbond.Weighted>
-6.5631

> <Gold.Chemscore.Metal.Weighted>
-0.0000

> <Gold.Chemscore.Lipo.Weighted>
-14.9524

> <Gold.Chemscore.Internal_Hbond.Weighted>
0.0000

> <Gold.Chemscore.DEClash.Weighted>
0.7424

> <Gold.Chemscore.DEInternal.Weighted>
2.9890

> <Gold.Chemscore.Rot.Weighted>
10.1529

> <Gold.Chemscore.Internal.Correction.Weighted>
   9.000000E+99

> <Gold.Protein.RotatedTorsions>
[ 6907 6896 6895 6894 ] final   29.47 input  -60.11 | X-H torsion
[ 7974 7965 7964 7962 ] final   98.58 input  175.53 | X-H torsion
[ 8008 7997 7996 7995 ] final -161.00 input   59.86 | X-H torsion
[ 10167 10162 10161 10158 ] final  -50.09 input  -65.29 | X-H torsion
[ 10718 10713 10712 10709 ] final  -19.25 input   66.30 | X-H torsion
[ 10763 10752 10751 10750 ] final  -50.05 input  -60.55 | X-H torsion
[ 11005 11000 10999 10996 ] final  -73.56 input  -57.11 | X-H torsion

> <Gold.Protein.ActiveResidues>
 VAL166  LYS551  ARG553  GLY616  TRP617  ASP618  TYR619  PRO620  LYS621  CYS622 
 ASP623  PHE694  ASN695  SER759  ASP760  ASP761  ALA762  ILE779  LEU786  VAL792 
 PHE793  MET794  SER795  GLU796  ALA797  LYS798  CYS799  TRP800  GLU811  SER814 

> <Gold.Protein.RotatedAtoms>
  152.0320  134.9762  160.0572 H   0  0  0  0  0  0  0  0  0  0  0  0  # atno 6907 bound_to 6896
  152.1235  133.4362  159.4695 H   0  0  0  0  0  0  0  0  0  0  0  0  # atno 6908 bound_to 6896
  150.6851  134.2425  159.4521 H   0  0  0  0  0  0  0  0  0  0  0  0  # atno 6909 bound_to 6896
  145.4102  139.2335  143.3252 H   0  0  0  0  0  0  0  0  0  0  0  0  # atno 7974 bound_to 7965
  155.7857  140.0871  157.2035 H   0  0  0  0  0  0  0  0  0  0  0  0  # atno 8008 bound_to 7997
  154.3988  140.1499  156.3162 H   0  0  0  0  0  0  0  0  0  0  0  0  # atno 8009 bound_to 7997
  155.8609  140.3430  155.5758 H   0  0  0  0  0  0  0  0  0  0  0  0  # atno 8010 bound_to 7997
  140.6654  143.2671  151.4309 H   0  0  0  0  0  0  0  0  0  0  0  0  # atno 10167 bound_to 10162
  156.5483  130.4695  149.6464 H   0  0  0  0  0  0  0  0  0  0  0  0  # atno 10718 bound_to 10713
  154.1040  135.6559  153.4873 H   0  0  0  0  0  0  0  0  0  0  0  0  # atno 10763 bound_to 10752
  153.0279  135.5232  154.7258 H   0  0  0  0  0  0  0  0  0  0  0  0  # atno 10764 bound_to 10752
  154.6419  135.2989  155.0063 H   0  0  0  0  0  0  0  0  0  0  0  0  # atno 10765 bound_to 10752
  141.1624  133.6882  156.7230 H   0  0  0  0  0  0  0  0  0  0  0  0  # atno 11005 bound_to 11000
  146.2708  140.4813  142.8815 LP  0  0  0  0  0  0  0  0  0  0  0  0  # atno 17320 bound_to 7965
  144.8314  140.6712  143.6288 LP  0  0  0  0  0  0  0  0  0  0  0  0  # atno 17321 bound_to 7965
  139.5901  144.1517  152.2078 LP  0  0  0  0  0  0  0  0  0  0  0  0  # atno 17342 bound_to 10162
  140.0869  144.5653  150.7082 LP  0  0  0  0  0  0  0  0  0  0  0  0  # atno 17343 bound_to 10162
  156.2908  130.7123  151.1971 LP  0  0  0  0  0  0  0  0  0  0  0  0  # atno 17370 bound_to 10713
  157.7392  131.0531  150.5244 LP  0  0  0  0  0  0  0  0  0  0  0  0  # atno 17371 bound_to 10713
  140.2802  134.8323  157.3926 LP  0  0  0  0  0  0  0  0  0  0  0  0  # atno 17394 bound_to 11000
  140.1440  134.4935  155.8010 LP  0  0  0  0  0  0  0  0  0  0  0  0  # atno 17395 bound_to 11000

$$$$
