AV-unprocessed.smi:445|AV-procd|sdf|2592|dock3
  -GOLD-   2262022583D 1   1.00000     0.00000
 Structure written by MMmdl.
 44 45  0  0  0  0  0  0  0  0  3 V2000
  152.2756  139.6255  159.0606 C   0  0  0  0  0  0  0  0  0  0  0  0
  151.8240  141.0968  159.0125 C   0  0  1  0  0  0  0  0  0  0  0  0
  152.8239  141.9984  159.7641 C   0  0  0  0  0  0  0  0  0  0  0  0
  152.3857  143.4709  159.7523 C   0  0  0  0  0  0  0  0  0  0  0  0
  152.1842  143.9744  158.3166 C   0  0  0  0  0  0  0  0  0  0  0  0
  151.1826  143.0915  157.5580 C   0  0  0  0  0  0  0  0  0  0  0  0
  151.6110  141.6086  157.5659 C   0  0  2  0  0  0  0  0  0  0  0  0
  150.6058  140.7939  156.8904 N   0  0  0  0  0  0  0  0  0  0  0  0
  150.7915  140.0811  155.7666 C   0  0  0  0  0  0  0  0  0  0  0  0
  151.8623  140.0584  155.1614 O   0  0  0  0  0  0  0  0  0  0  0  0
  149.6117  139.2526  155.2284 C   0  0  0  0  0  0  0  0  0  0  0  0
  148.5896  138.9005  156.2342 N   0  0  0  0  0  0  0  0  0  0  0  0
  149.0323  138.1345  157.3271 C   0  0  0  0  0  0  0  0  0  0  0  0
  148.2065  137.7508  158.3162 C   0  0  0  0  0  0  0  0  0  0  0  0
  148.6896  136.9697  159.4347 N   0  3  0  0  0  0  0  0  0  0  0  0
  148.1055  137.0560  160.5102 O   0  0  0  0  0  0  0  0  0  0  0  0
  149.6677  136.2452  159.2770 O   0  5  0  0  0  0  0  0  0  0  0  0
  146.8173  138.1509  158.2310 C   0  0  0  0  0  0  0  0  0  0  0  0
  146.3682  138.8964  157.1889 C   0  0  0  0  0  0  0  0  0  0  0  0
  144.9598  139.3348  157.0661 C   0  0  0  0  0  0  0  0  0  0  0  0
  144.1874  139.0100  158.1106 N   0  0  0  0  0  0  0  0  0  0  0  0
  144.4554  139.9463  156.1246 O   0  0  0  0  0  0  0  0  0  0  0  0
  147.2930  139.3234  156.1035 C   0  0  0  0  0  0  0  0  0  0  0  0
  146.9700  140.0149  155.1343 O   0  0  0  0  0  0  0  0  0  0  0  0
  153.2159  139.4831  158.5270 H   0  0  0  0  0  0  0  0  0  0  0  0
  151.5357  138.9598  158.6152 H   0  0  0  0  0  0  0  0  0  0  0  0
  152.4249  139.2964  160.0892 H   0  0  0  0  0  0  0  0  0  0  0  0
  150.8684  141.1598  159.5360 H   0  0  0  0  0  0  0  0  0  0  0  0
  152.9284  141.6606  160.7957 H   0  0  0  0  0  0  0  0  0  0  0  0
  153.8121  141.9107  159.3103 H   0  0  0  0  0  0  0  0  0  0  0  0
  151.4573  143.5820  160.3139 H   0  0  0  0  0  0  0  0  0  0  0  0
  153.1299  144.0847  160.2604 H   0  0  0  0  0  0  0  0  0  0  0  0
  151.8341  145.0069  158.3303 H   0  0  0  0  0  0  0  0  0  0  0  0
  153.1403  143.9782  157.7917 H   0  0  0  0  0  0  0  0  0  0  0  0
  150.1954  143.1926  158.0118 H   0  0  0  0  0  0  0  0  0  0  0  0
  151.0879  143.4525  156.5332 H   0  0  0  0  0  0  0  0  0  0  0  0
  152.5571  141.5149  157.0288 H   0  0  0  0  0  0  0  0  0  0  0  0
  149.6935  140.7600  157.3214 H   0  0  0  0  0  0  0  0  0  0  0  0
  149.1624  139.7952  154.3950 H   0  0  0  0  0  0  0  0  0  0  0  0
  150.0169  138.3460  154.7764 H   0  0  0  0  0  0  0  0  0  0  0  0
  150.0853  137.8920  157.3059 H   0  0  0  0  0  0  0  0  0  0  0  0
  146.1527  137.8422  159.0240 H   0  0  0  0  0  0  0  0  0  0  0  0
  143.2116  139.2682  158.1207 H   0  0  0  0  0  0  0  0  0  0  0  0
  144.5879  138.5071  158.8895 H   0  0  0  0  0  0  0  0  0  0  0  0
  1  2  1  0  0  0  0
  1 25  1  0  0  0  0
  1 26  1  0  0  0  0
  1 27  1  0  0  0  0
  2  7  1  0  0  0  0
  2  3  1  0  0  0  0
  2 28  1  0  0  0  0
  3  4  1  0  0  0  0
  3 29  1  0  0  0  0
  3 30  1  0  0  0  0
  4  5  1  0  0  0  0
  4 31  1  0  0  0  0
  4 32  1  0  0  0  0
  5  6  1  0  0  0  0
  5 33  1  0  0  0  0
  5 34  1  0  0  0  0
  6  7  1  0  0  0  0
  6 35  1  0  0  0  0
  6 36  1  0  0  0  0
  7  8  1  0  0  0  0
  7 37  1  0  0  0  0
  8  9  1  0  0  0  0
  8 38  1  0  0  0  0
  9 10  2  0  0  0  0
  9 11  1  0  0  0  0
 11 12  1  0  0  0  0
 11 39  1  0  0  0  0
 11 40  1  0  0  0  0
 12 23  1  0  0  0  0
 12 13  1  0  0  0  0
 13 14  2  0  0  0  0
 13 41  1  0  0  0  0
 14 15  1  0  0  0  0
 14 18  1  0  0  0  0
 15 16  2  0  0  0  0
 15 17  1  0  0  0  0
 18 19  2  0  0  0  0
 18 42  1  0  0  0  0
 19 20  1  0  0  0  0
 19 23  1  0  0  0  0
 20 21  1  0  0  0  0
 20 22  2  0  0  0  0
 21 43  1  0  0  0  0
 21 44  1  0  0  0  0
 23 24  2  0  0  0  0
M  CHG  1  15   1
M  CHG  1  17  -1
M  END
> <s_m_source_file>
AV-unprocessed.smi

> <i_m_source_file_index>
445

> <i_lp_mmshare_version>
43012

> <i_f3d_flags>
0

> <s_epik_input>
W0NIM11bQ0BASF0xW0NIMl1bQ0gyXVtDSDJdW0NIMl1bQ0BIXTFbTkhdQyg9TylbQ0gyXW4yW2NIXWMoW04rXSg9TylbTy1dKVtjSF1jKGMyPU8pQyg9TylbTkgyXQ==

> <s_epik_cmdline>
J2VwaWtfcHl0aG9uJywgJy1waCcsICc3LjAnLCAnLXRuJywgJzgnLCAnLW1hJywgJzIwMCcsICctbWV0YWxfYmluZGluZycsICctaW1hZScsICc8aW5maWxlLm1hZT4nLCAnLW9tYWUnLCAnPG91dGZpbGUubWFlPic=

> <r_lp_tautomer_probability>
1

> <r_epik_Ionization_Penalty>
2.81321e-06

> <r_epik_Ionization_Penalty_Charging>
2.43777e-12

> <r_epik_Ionization_Penalty_Neutral>
2.81321e-06

> <r_epik_State_Penalty>
-0

> <r_epik_Charging_Adjusted_Penalty>
2.43777e-12

> <i_epik_Tot_Q>
0

> <i_epik_Tot_abs_Q>
2

> <r_epik_Metal_State_Penalty>
-0

> <b_epik_Metal_Only>
0

> <s_lp_Force_Field>
OPLS_2005

> <r_lp_Energy>
28.9067

> <b_lp_Chiralities_Consistent>
1

> <s_lp_Variant>
AV-unprocessed.smi:445-4

> <Gold.Version>
5.8.1

> <Gold.Id.Protein>
6NUR|6NUR_protein|mol2

> <Gold.PLP.Fitness>
42.0587

> <Gold.PLP.PLP>
-32.9021

> <Gold.PLP.part.hbond>
-4.0000

> <Gold.PLP.part.metal>
0.0000

> <Gold.PLP.part.buried>
-5.8086

> <Gold.PLP.part.nonpolar>
-24.5660

> <Gold.PLP.part.repulsive>
0.2114

> <Gold.PLP.ligand.clash>
0.0000

> <Gold.PLP.ligand.torsion>
0.6479

> <Gold.PLP.Chemscore.Hbond>
3.4640

> <Gold.PLP.Chemscore.CHOScore>
0.0000

> <Gold.PLP.Chemscore.Metal>
0.0000

> <Gold.Chemscore.Hbonds>
donor molecule, donor type, donor heavy atom, donor atom, acceptor molecule, acceptor atom, score
      P1  H  6896  6908       L1    17  1.00
      P1  H  6931  6943       L1    16  0.77
      P1  H  6934  6947       L1    16  0.42
      P1  H  7989  7998       L1    10  0.88

> <Gold.PLP.Chemscore.Internal.Correction>
0.0603

> <Gold.Rescore>
     Score         DG    S(hbond)    S(metal)    S(lipo)     H(rot)  DE(clash)    DE(int)     intcor
     18.37     -20.62       3.24        0.00      74.26       1.71       0.06       2.19       ----

> <Gold.Chemscore.Fitness>
18.3737

> <Gold.Chemscore.DG>
-20.6229

> <Gold.Chemscore.ZeroCoef>
-5.4800

> <Gold.Chemscore.Hbond>
3.2448

> <Gold.Chemscore.Metal>
0.0000

> <Gold.Chemscore.Lipo>
74.2633

> <Gold.Chemscore.Internal_Hbond>
0.0000

> <Gold.Chemscore.DEClash>
0.0576

> <Gold.Chemscore.DEInternal>
2.1915

> <Gold.Chemscore.Rot>
1.7123

> <Gold.Chemscore.Internal.Correction>
   9.000000E+99

> <Gold.Chemscore.Hbonds>
donor molecule, donor type, donor heavy atom, donor atom, acceptor molecule, acceptor atom, score
      P1  H  6896  6908       L1    17  1.00
      P1  H  6931  6943       L1    16  0.65
      P1  H  6934  6947       L1    16  0.38
      P1  H  7989  7998       L1    10  0.64

> <Gold.Chemscore.Hbond.Weighted>
-10.8375

> <Gold.Chemscore.Metal.Weighted>
-0.0000

> <Gold.Chemscore.Lipo.Weighted>
-8.6888

> <Gold.Chemscore.Internal_Hbond.Weighted>
0.0000

> <Gold.Chemscore.DEClash.Weighted>
0.0576

> <Gold.Chemscore.DEInternal.Weighted>
2.1915

> <Gold.Chemscore.Rot.Weighted>
4.3835

> <Gold.Chemscore.Internal.Correction.Weighted>
   9.000000E+99

> <Gold.Protein.RotatedTorsions>
[ 6907 6896 6895 6894 ] final  178.17 input  -60.11 | X-H torsion
[ 7974 7965 7964 7962 ] final  -53.76 input  175.53 | X-H torsion
[ 8008 7997 7996 7995 ] final -139.30 input   59.86 | X-H torsion
[ 10167 10162 10161 10158 ] final   47.19 input  -65.29 | X-H torsion
[ 10718 10713 10712 10709 ] final -151.69 input   66.30 | X-H torsion
[ 10763 10752 10751 10750 ] final -175.76 input  -60.55 | X-H torsion
[ 11005 11000 10999 10996 ] final  121.50 input  -57.11 | X-H torsion

> <Gold.Protein.ActiveResidues>
 VAL166  LYS551  ARG553  GLY616  TRP617  ASP618  TYR619  PRO620  LYS621  CYS622 
 ASP623  PHE694  ASN695  SER759  ASP760  ASP761  ALA762  ILE779  LEU786  VAL792 
 PHE793  MET794  SER795  GLU796  ALA797  LYS798  CYS799  TRP800  GLU811  SER814 

> <Gold.Protein.RotatedAtoms>
  151.6922  133.3311  159.3245 H   0  0  0  0  0  0  0  0  0  0  0  0  # atno 6907 bound_to 6896
  150.7774  134.6688  159.6390 H   0  0  0  0  0  0  0  0  0  0  0  0  # atno 6908 bound_to 6896
  152.3820  134.6579  160.0191 H   0  0  0  0  0  0  0  0  0  0  0  0  # atno 6909 bound_to 6896
  145.8932  140.8054  142.9781 H   0  0  0  0  0  0  0  0  0  0  0  0  # atno 7974 bound_to 7965
  155.4425  140.0533  157.3009 H   0  0  0  0  0  0  0  0  0  0  0  0  # atno 8008 bound_to 7997
  154.4812  140.2082  155.9717 H   0  0  0  0  0  0  0  0  0  0  0  0  # atno 8009 bound_to 7997
  156.1208  140.3188  155.8210 H   0  0  0  0  0  0  0  0  0  0  0  0  # atno 8010 bound_to 7997
  140.3062  144.2875  150.6209 H   0  0  0  0  0  0  0  0  0  0  0  0  # atno 10167 bound_to 10162
  156.4625  130.8220  151.2451 H   0  0  0  0  0  0  0  0  0  0  0  0  # atno 10718 bound_to 10713
  154.5805  135.2836  155.0737 H   0  0  0  0  0  0  0  0  0  0  0  0  # atno 10763 bound_to 10752
  154.2075  135.6414  153.5109 H   0  0  0  0  0  0  0  0  0  0  0  0  # atno 10764 bound_to 10752
  153.0087  135.5483  154.6458 H   0  0  0  0  0  0  0  0  0  0  0  0  # atno 10765 bound_to 10752
  139.9229  134.9639  156.7968 H   0  0  0  0  0  0  0  0  0  0  0  0  # atno 11005 bound_to 11000
  144.6731  140.1561  143.7426 LP  0  0  0  0  0  0  0  0  0  0  0  0  # atno 17320 bound_to 7965
  145.8883  139.2361  143.1565 LP  0  0  0  0  0  0  0  0  0  0  0  0  # atno 17321 bound_to 7965
  140.5608  143.2192  151.7768 LP  0  0  0  0  0  0  0  0  0  0  0  0  # atno 17342 bound_to 10162
  139.4904  144.4351  151.9828 LP  0  0  0  0  0  0  0  0  0  0  0  0  # atno 17343 bound_to 10162
  157.7497  131.0102  150.3298 LP  0  0  0  0  0  0  0  0  0  0  0  0  # atno 17370 bound_to 10713
  156.3701  130.3862  149.7182 LP  0  0  0  0  0  0  0  0  0  0  0  0  # atno 17371 bound_to 10713
  140.6422  133.9808  155.7713 LP  0  0  0  0  0  0  0  0  0  0  0  0  # atno 17394 bound_to 11000
  141.0764  134.0129  157.3452 LP  0  0  0  0  0  0  0  0  0  0  0  0  # atno 17395 bound_to 11000

$$$$
