AV-unprocessed.smi:1824|AV-procd|sdf|7405|dock2
  -GOLD-   22720 9 83D 1   1.00000     0.00000
 Structure written by MMmdl.
 45 47  0  0  0  0  0  0  0  0  2 V2000
  151.7873  134.1082  155.0717 C   0  0  0  0  0  0  0  0  0  0  0  0
  150.7570  135.1693  154.6703 C   0  0  2  0  0  0  0  0  0  0  0  0
  151.4111  136.5321  154.3735 C   0  0  0  0  0  0  0  0  0  0  0  0
  150.3741  137.5469  154.0642 N   0  3  2  0  0  0  0  0  0  0  0  0
  150.9286  138.8776  153.7059 C   0  0  0  0  0  0  0  0  0  0  0  0
  151.8427  139.4500  154.8069 C   0  0  1  0  0  0  0  0  0  0  0  0
  152.7117  140.4034  154.2247 O   0  0  0  0  0  0  0  0  0  0  0  0
  151.0338  140.1149  155.9375 C   0  0  0  0  0  0  0  0  0  0  0  0
  151.8479  140.4088  157.1039 N   0  0  0  0  0  0  0  0  0  0  0  0
  152.8744  139.6778  157.5797 C   0  0  0  0  0  0  0  0  0  0  0  0
  153.4950  140.1319  158.6645 N   0  0  0  0  0  0  0  0  0  0  0  0
  152.7890  141.2937  158.9255 C   0  0  0  0  0  0  0  0  0  0  0  0
  152.9488  142.2537  159.9501 C   0  0  0  0  0  0  0  0  0  0  0  0
  152.0990  143.3773  160.0160 C   0  0  0  0  0  0  0  0  0  0  0  0
  152.2670  144.2886  161.0036 F   0  0  0  0  0  0  0  0  0  0  0  0
  151.0772  143.5571  159.0601 C   0  0  0  0  0  0  0  0  0  0  0  0
  150.2656  144.6387  159.1304 F   0  0  0  0  0  0  0  0  0  0  0  0
  150.8984  142.6134  158.0303 C   0  0  0  0  0  0  0  0  0  0  0  0
  151.7494  141.4947  157.9679 C   0  0  0  0  0  0  0  0  0  0  0  0
  149.3814  137.6191  155.1617 C   0  0  0  0  0  0  0  0  0  0  0  0
  148.7809  136.2277  155.4377 C   0  0  2  0  0  0  0  0  0  0  0  0
  147.8030  136.2427  156.6177 C   0  0  0  0  0  0  0  0  0  0  0  0
  149.8344  135.3208  155.7440 O   0  0  0  0  0  0  0  0  0  0  0  0
  152.5160  133.9477  154.2768 H   0  0  0  0  0  0  0  0  0  0  0  0
  151.3034  133.1527  155.2759 H   0  0  0  0  0  0  0  0  0  0  0  0
  152.3303  134.4041  155.9697 H   0  0  0  0  0  0  0  0  0  0  0  0
  150.2242  134.8167  153.7853 H   0  0  0  0  0  0  0  0  0  0  0  0
  151.9989  136.8618  155.2318 H   0  0  0  0  0  0  0  0  0  0  0  0
  152.1012  136.4266  153.5369 H   0  0  0  0  0  0  0  0  0  0  0  0
  151.5050  138.8009  152.7823 H   0  0  0  0  0  0  0  0  0  0  0  0
  150.1069  139.5634  153.4930 H   0  0  0  0  0  0  0  0  0  0  0  0
  152.4526  138.6582  155.2409 H   0  0  0  0  0  0  0  0  0  0  0  0
  152.2344  140.8889  153.5689 H   0  0  0  0  0  0  0  0  0  0  0  0
  150.5733  141.0406  155.5897 H   0  0  0  0  0  0  0  0  0  0  0  0
  150.2179  139.4613  156.2491 H   0  0  0  0  0  0  0  0  0  0  0  0
  153.1858  138.7609  157.1006 H   0  0  0  0  0  0  0  0  0  0  0  0
  153.7276  142.1270  160.6872 H   0  0  0  0  0  0  0  0  0  0  0  0
  150.1177  142.7507  157.2975 H   0  0  0  0  0  0  0  0  0  0  0  0
  149.8604  138.0114  156.0606 H   0  0  0  0  0  0  0  0  0  0  0  0
  148.5852  138.3143  154.8920 H   0  0  0  0  0  0  0  0  0  0  0  0
  148.2491  135.8744  154.5523 H   0  0  0  0  0  0  0  0  0  0  0  0
  146.9674  136.9164  156.4266 H   0  0  0  0  0  0  0  0  0  0  0  0
  148.2940  136.5700  157.5349 H   0  0  0  0  0  0  0  0  0  0  0  0
  147.3930  135.2484  156.7968 H   0  0  0  0  0  0  0  0  0  0  0  0
  149.8719  137.2205  153.2503 H   0  0  0  0  0  0  0  0  0  0  0  0
  1  2  1  0  0  0  0
  1 24  1  0  0  0  0
  1 25  1  0  0  0  0
  1 26  1  0  0  0  0
  2 23  1  0  0  0  0
  2  3  1  0  0  0  0
  2 27  1  0  0  0  0
  3  4  1  0  0  0  0
  3 28  1  0  0  0  0
  3 29  1  0  0  0  0
  4  5  1  0  0  0  0
  4 20  1  0  0  0  0
  4 45  1  0  0  0  0
  5  6  1  0  0  0  0
  5 30  1  0  0  0  0
  5 31  1  0  0  0  0
  6  7  1  0  0  0  0
  6  8  1  0  0  0  0
  6 32  1  0  0  0  0
  7 33  1  0  0  0  0
  8  9  1  0  0  0  0
  8 34  1  0  0  0  0
  8 35  1  0  0  0  0
  9 19  1  0  0  0  0
  9 10  1  0  0  0  0
 10 11  2  0  0  0  0
 10 36  1  0  0  0  0
 11 12  1  0  0  0  0
 12 19  2  0  0  0  0
 12 13  1  0  0  0  0
 13 14  2  0  0  0  0
 13 37  1  0  0  0  0
 14 15  1  0  0  0  0
 14 16  1  0  0  0  0
 16 17  1  0  0  0  0
 16 18  2  0  0  0  0
 18 19  1  0  0  0  0
 18 38  1  0  0  0  0
 20 21  1  0  0  0  0
 20 39  1  0  0  0  0
 20 40  1  0  0  0  0
 21 22  1  0  0  0  0
 21 23  1  0  0  0  0
 21 41  1  0  0  0  0
 22 42  1  0  0  0  0
 22 43  1  0  0  0  0
 22 44  1  0  0  0  0
M  CHG  1   4   1
M  END
> <s_m_source_file>
AV-unprocessed.smi

> <i_m_source_file_index>
1824

> <i_lp_mmshare_version>
43012

> <i_f3d_flags>
0

> <s_epik_input>
W0NIM11bQ0BASF0xW0NIMl1OKFtDSDJdW0NASF0oTzEpW0NIM10pW0NIMl1bQ0BIXShbT0hdKVtDSDJdbihbY0hdbjIpYyhjMjMpW2NIXWMoRiljKEYpW2NIXTM=

> <s_epik_cmdline>
J2VwaWtfcHl0aG9uJywgJy1waCcsICc3LjAnLCAnLXRuJywgJzgnLCAnLW1hJywgJzIwMCcsICctbWV0YWxfYmluZGluZycsICctaW1hZScsICc8aW5maWxlLm1hZT4nLCAnLW9tYWUnLCAnPG91dGZpbGUubWFlPic=

> <r_epik_Ionization_Penalty>
0.61967

> <r_epik_Ionization_Penalty_Charging>
0.608065

> <r_epik_Ionization_Penalty_Neutral>
0.0116057

> <r_epik_State_Penalty>
0.664205

> <r_epik_Charging_Adjusted_Penalty>
1.27227

> <i_epik_Tot_Q>
1

> <i_epik_Tot_abs_Q>
1

> <r_epik_Metal_State_Penalty>
0.654947

> <b_epik_Metal_Only>
0

> <s_lp_Force_Field>
OPLS_2005

> <r_lp_Energy>
20.1531

> <b_lp_Chiralities_Consistent>
1

> <s_lp_Variant>
AV-unprocessed.smi:1824-13

> <Gold.Version>
5.8.1

> <Gold.Id.Protein>
6NUR|6NUR_protein|mol2

> <Gold.PLP.Fitness>
51.1714

> <Gold.PLP.PLP>
-43.3723

> <Gold.PLP.part.hbond>
-3.0000

> <Gold.PLP.part.metal>
0.0000

> <Gold.PLP.part.buried>
-7.0487

> <Gold.PLP.part.nonpolar>
-33.6251

> <Gold.PLP.part.repulsive>
0.0859

> <Gold.PLP.ligand.clash>
0.0000

> <Gold.PLP.ligand.torsion>
0.6638

> <Gold.PLP.Chemscore.Hbond>
3.0000

> <Gold.PLP.Chemscore.CHOScore>
0.0000

> <Gold.PLP.Chemscore.Metal>
0.0000

> <Gold.Chemscore.Hbonds>
donor molecule, donor type, donor heavy atom, donor atom, acceptor molecule, acceptor atom, score
      L1  H     4    45       P1  7948  2.00
      P1  H  7997  8008       L1     7  0.11
      P1  H  7997  8010       L1    11  0.03

> <Gold.PLP.Chemscore.Internal.Correction>
0.1268

> <Gold.Rescore>
     Score         DG    S(hbond)    S(metal)    S(lipo)     H(rot)  DE(clash)    DE(int)     intcor
     14.79     -16.60       1.84        0.00      93.50       2.33       0.21       1.60       ----

> <Gold.Chemscore.Fitness>
14.7936

> <Gold.Chemscore.DG>
-16.6017

> <Gold.Chemscore.ZeroCoef>
-5.4800

> <Gold.Chemscore.Hbond>
1.8365

> <Gold.Chemscore.Metal>
0.0000

> <Gold.Chemscore.Lipo>
93.5041

> <Gold.Chemscore.Internal_Hbond>
0.0000

> <Gold.Chemscore.DEClash>
0.2123

> <Gold.Chemscore.DEInternal>
1.5958

> <Gold.Chemscore.Rot>
2.3251

> <Gold.Chemscore.Internal.Correction>
   9.000000E+99

> <Gold.Chemscore.Hbonds>
donor molecule, donor type, donor heavy atom, donor atom, acceptor molecule, acceptor atom, score
      L1  H     4    45       P1  7948  0.40
      P1  H  7997  8008       L1     7  0.03

> <Gold.Chemscore.Hbond.Weighted>
-6.1341

> <Gold.Chemscore.Metal.Weighted>
-0.0000

> <Gold.Chemscore.Lipo.Weighted>
-10.9400

> <Gold.Chemscore.Internal_Hbond.Weighted>
0.0000

> <Gold.Chemscore.DEClash.Weighted>
0.2123

> <Gold.Chemscore.DEInternal.Weighted>
1.5958

> <Gold.Chemscore.Rot.Weighted>
5.9523

> <Gold.Chemscore.Internal.Correction.Weighted>
   9.000000E+99

> <Gold.Protein.RotatedTorsions>
[ 6907 6896 6895 6894 ] final    6.39 input  -60.11 | X-H torsion
[ 7974 7965 7964 7962 ] final  108.77 input  175.53 | X-H torsion
[ 8008 7997 7996 7995 ] final   -7.96 input   59.86 | X-H torsion
[ 10167 10162 10161 10158 ] final  -32.57 input  -65.29 | X-H torsion
[ 10718 10713 10712 10709 ] final  155.09 input   66.30 | X-H torsion
[ 10763 10752 10751 10750 ] final  -42.60 input  -60.55 | X-H torsion
[ 11005 11000 10999 10996 ] final  -46.35 input  -57.11 | X-H torsion

> <Gold.Protein.ActiveResidues>
 VAL166  LYS551  ARG553  GLY616  TRP617  ASP618  TYR619  PRO620  LYS621  CYS622 
 ASP623  PHE694  ASN695  SER759  ASP760  ASP761  ALA762  ILE779  LEU786  VAL792 
 PHE793  MET794  SER795  GLU796  ALA797  LYS798  CYS799  TRP800  GLU811  SER814 

> <Gold.Protein.RotatedAtoms>
  151.6729  135.0973  160.0201 H   0  0  0  0  0  0  0  0  0  0  0  0  # atno 6907 bound_to 6896
  152.3881  133.6635  159.6223 H   0  0  0  0  0  0  0  0  0  0  0  0  # atno 6908 bound_to 6896
  150.7802  133.8918  159.3357 H   0  0  0  0  0  0  0  0  0  0  0  0  # atno 6909 bound_to 6896
  145.2764  139.2648  143.3939 H   0  0  0  0  0  0  0  0  0  0  0  0  # atno 7974 bound_to 7965
  154.5787  140.2393  155.8085 H   0  0  0  0  0  0  0  0  0  0  0  0  # atno 8008 bound_to 7997
  156.2163  140.3011  155.9803 H   0  0  0  0  0  0  0  0  0  0  0  0  # atno 8009 bound_to 7997
  155.2580  140.0413  157.2984 H   0  0  0  0  0  0  0  0  0  0  0  0  # atno 8010 bound_to 7997
  140.7219  143.3685  151.1824 H   0  0  0  0  0  0  0  0  0  0  0  0  # atno 10167 bound_to 10162
  157.2230  131.0722  151.1900 H   0  0  0  0  0  0  0  0  0  0  0  0  # atno 10718 bound_to 10713
  153.9817  135.6716  153.4750 H   0  0  0  0  0  0  0  0  0  0  0  0  # atno 10763 bound_to 10752
  153.0745  135.4956  154.8372 H   0  0  0  0  0  0  0  0  0  0  0  0  # atno 10764 bound_to 10752
  154.7160  135.3107  154.9084 H   0  0  0  0  0  0  0  0  0  0  0  0  # atno 10765 bound_to 10752
  141.0573  133.6721  156.3143 H   0  0  0  0  0  0  0  0  0  0  0  0  # atno 11005 bound_to 11000
  146.3230  140.3220  142.8634 LP  0  0  0  0  0  0  0  0  0  0  0  0  # atno 17320 bound_to 7965
  144.9291  140.7954  143.5701 LP  0  0  0  0  0  0  0  0  0  0  0  0  # atno 17321 bound_to 7965
  139.7251  143.9161  152.3000 LP  0  0  0  0  0  0  0  0  0  0  0  0  # atno 17342 bound_to 10162
  139.8931  144.6954  150.8748 LP  0  0  0  0  0  0  0  0  0  0  0  0  # atno 17343 bound_to 10162
  157.3556  130.7105  149.6469 LP  0  0  0  0  0  0  0  0  0  0  0  0  # atno 17370 bound_to 10713
  155.9681  130.4240  150.4588 LP  0  0  0  0  0  0  0  0  0  0  0  0  # atno 17371 bound_to 10713
  140.5938  134.5624  157.5504 LP  0  0  0  0  0  0  0  0  0  0  0  0  # atno 17394 bound_to 11000
  139.9402  134.7802  156.0699 LP  0  0  0  0  0  0  0  0  0  0  0  0  # atno 17395 bound_to 11000

$$$$
