AV-unprocessed.smi:1543|AV-procd|sdf|6210|dock4
  -GOLD-   22720 6383D 1   1.00000     0.00000
 Structure written by MMmdl.
 49 50  0  0  0  0  0  0  0  0  2 V2000
  152.8850  138.4797  154.8486 C   0  0  0  0  0  0  0  0  0  0  0  0
  151.5235  137.8498  154.5340 C   0  0  2  0  0  0  0  0  0  0  0  0
  150.3946  138.8967  154.4886 C   0  0  0  0  0  0  0  0  0  0  0  0
  149.0794  138.2401  154.2444 N   0  3  2  0  0  0  0  0  0  0  0  0
  147.9180  139.1673  153.9893 C   0  0  0  0  0  0  0  0  0  0  0  0
  148.3272  140.2528  152.9620 C   0  0  0  0  0  0  0  0  0  0  0  0
  146.7607  138.3719  153.3338 C   0  0  0  0  0  0  0  0  0  0  0  0
  147.4366  139.8475  155.3066 C   0  0  0  0  0  0  0  0  0  0  0  0
  148.2235  141.0231  155.6775 N   0  0  0  0  0  0  0  0  0  0  0  0
  149.2031  141.0491  156.5926 C   0  0  0  0  0  0  0  0  0  0  0  0
  149.5512  140.0631  157.2417 O   0  0  0  0  0  0  0  0  0  0  0  0
  149.7459  142.2747  156.6880 N   0  0  0  0  0  0  0  0  0  0  0  0
  150.7857  142.7171  157.5498 C   0  0  0  0  0  0  0  0  0  0  0  0
  151.3682  141.9254  158.5693 C   0  0  0  0  0  0  0  0  0  0  0  0
  152.3812  142.4866  159.3702 C   0  0  0  0  0  0  0  0  0  0  0  0
  152.7699  143.8184  159.1285 C   0  0  0  0  0  0  0  0  0  0  0  0
  152.2142  144.5889  158.1699 N   0  0  0  0  0  0  0  0  0  0  0  0
  151.2426  144.0445  157.4067 C   0  0  0  0  0  0  0  0  0  0  0  0
  148.8542  137.1849  155.2730 C   0  0  0  0  0  0  0  0  0  0  0  0
  150.0274  136.1872  155.2934 C   0  0  2  0  0  0  0  0  0  0  0  0
  149.8627  135.1215  156.3828 C   0  0  0  0  0  0  0  0  0  0  0  0
  151.2338  136.8952  155.5470 O   0  0  0  0  0  0  0  0  0  0  0  0
  153.1636  139.2126  154.0909 H   0  0  0  0  0  0  0  0  0  0  0  0
  153.6672  137.7208  154.8786 H   0  0  0  0  0  0  0  0  0  0  0  0
  152.8736  138.9842  155.8150 H   0  0  0  0  0  0  0  0  0  0  0  0
  151.5928  137.3424  153.5702 H   0  0  0  0  0  0  0  0  0  0  0  0
  150.3699  139.4483  155.4287 H   0  0  0  0  0  0  0  0  0  0  0  0
  150.6350  139.6105  153.7030 H   0  0  0  0  0  0  0  0  0  0  0  0
  147.4631  140.8077  152.5952 H   0  0  0  0  0  0  0  0  0  0  0  0
  148.8163  139.8136  152.0918 H   0  0  0  0  0  0  0  0  0  0  0  0
  149.0015  140.9947  153.3891 H   0  0  0  0  0  0  0  0  0  0  0  0
  145.9886  139.0319  152.9372 H   0  0  0  0  0  0  0  0  0  0  0  0
  146.2587  137.7115  154.0405 H   0  0  0  0  0  0  0  0  0  0  0  0
  147.1165  137.7650  152.5004 H   0  0  0  0  0  0  0  0  0  0  0  0
  146.3823  140.1187  155.2458 H   0  0  0  0  0  0  0  0  0  0  0  0
  147.5153  139.1540  156.1431 H   0  0  0  0  0  0  0  0  0  0  0  0
  148.0099  141.8817  155.1913 H   0  0  0  0  0  0  0  0  0  0  0  0
  149.4118  142.9621  156.0283 H   0  0  0  0  0  0  0  0  0  0  0  0
  151.0522  140.9123  158.7626 H   0  0  0  0  0  0  0  0  0  0  0  0
  152.8468  141.9096  160.1554 H   0  0  0  0  0  0  0  0  0  0  0  0
  153.5433  144.2788  159.7252 H   0  0  0  0  0  0  0  0  0  0  0  0
  150.8184  144.6917  156.6529 H   0  0  0  0  0  0  0  0  0  0  0  0
  148.7466  137.6375  156.2591 H   0  0  0  0  0  0  0  0  0  0  0  0
  147.9430  136.6237  155.0758 H   0  0  0  0  0  0  0  0  0  0  0  0
  150.1001  135.6847  154.3270 H   0  0  0  0  0  0  0  0  0  0  0  0
  148.9539  134.5391  156.2290 H   0  0  0  0  0  0  0  0  0  0  0  0
  149.8068  135.5729  157.3739 H   0  0  0  0  0  0  0  0  0  0  0  0
  150.7044  134.4286  156.3801 H   0  0  0  0  0  0  0  0  0  0  0  0
  149.1956  137.7379  153.3758 H   0  0  0  0  0  0  0  0  0  0  0  0
  1  2  1  0  0  0  0
  1 23  1  0  0  0  0
  1 24  1  0  0  0  0
  1 25  1  0  0  0  0
  2 22  1  0  0  0  0
  2  3  1  0  0  0  0
  2 26  1  0  0  0  0
  3  4  1  0  0  0  0
  3 27  1  0  0  0  0
  3 28  1  0  0  0  0
  4  5  1  0  0  0  0
  4 19  1  0  0  0  0
  4 49  1  0  0  0  0
  5  6  1  0  0  0  0
  5  7  1  0  0  0  0
  5  8  1  0  0  0  0
  6 29  1  0  0  0  0
  6 30  1  0  0  0  0
  6 31  1  0  0  0  0
  7 32  1  0  0  0  0
  7 33  1  0  0  0  0
  7 34  1  0  0  0  0
  8  9  1  0  0  0  0
  8 35  1  0  0  0  0
  8 36  1  0  0  0  0
  9 10  1  0  0  0  0
  9 37  1  0  0  0  0
 10 11  2  0  0  0  0
 10 12  1  0  0  0  0
 12 13  1  0  0  0  0
 12 38  1  0  0  0  0
 13 18  1  0  0  0  0
 13 14  2  0  0  0  0
 14 15  1  0  0  0  0
 14 39  1  0  0  0  0
 15 16  2  0  0  0  0
 15 40  1  0  0  0  0
 16 17  1  0  0  0  0
 16 41  1  0  0  0  0
 17 18  2  0  0  0  0
 18 42  1  0  0  0  0
 19 20  1  0  0  0  0
 19 43  1  0  0  0  0
 19 44  1  0  0  0  0
 20 21  1  0  0  0  0
 20 22  1  0  0  0  0
 20 45  1  0  0  0  0
 21 46  1  0  0  0  0
 21 47  1  0  0  0  0
 21 48  1  0  0  0  0
M  CHG  1   4   1
M  END
> <s_m_source_file>
AV-unprocessed.smi

> <i_m_source_file_index>
1543

> <i_lp_mmshare_version>
43012

> <i_f3d_flags>
0

> <s_epik_input>
W0NIM11bQ0BASF0xW0NIMl1OKFtDSDJdW0NASF0oTzEpW0NIM10pQyhbQ0gzXSkoW0NIM10pW0NIMl1bTkhdQyg9TylbTkhdYzJbY0hdW2NIXVtjSF1uW2NIXTI=

> <s_epik_cmdline>
J2VwaWtfcHl0aG9uJywgJy1waCcsICc3LjAnLCAnLXRuJywgJzgnLCAnLW1hJywgJzIwMCcsICctbWV0YWxfYmluZGluZycsICctaW1hZScsICc8aW5maWxlLm1hZT4nLCAnLW9tYWUnLCAnPG91dGZpbGUubWFlPic=

> <r_epik_Ionization_Penalty>
0.60676

> <r_epik_Ionization_Penalty_Charging>
0.602531

> <r_epik_Ionization_Penalty_Neutral>
0.00422967

> <r_epik_State_Penalty>
0.607492

> <r_epik_Charging_Adjusted_Penalty>
1.21002

> <i_epik_Tot_Q>
1

> <i_epik_Tot_abs_Q>
1

> <r_epik_Metal_State_Penalty>
0.604589

> <b_epik_Metal_Only>
0

> <s_lp_Force_Field>
OPLS_2005

> <r_lp_Energy>
27.1707

> <b_lp_Chiralities_Consistent>
1

> <s_lp_Variant>
AV-unprocessed.smi:1543-6

> <Gold.Version>
5.8.1

> <Gold.Id.Protein>
6NUR|6NUR_protein|mol2

> <Gold.PLP.Fitness>
48.2328

> <Gold.PLP.PLP>
-34.5625

> <Gold.PLP.part.hbond>
-3.0000

> <Gold.PLP.part.metal>
0.0000

> <Gold.PLP.part.buried>
-0.6433

> <Gold.PLP.part.nonpolar>
-32.4968

> <Gold.PLP.part.repulsive>
0.2338

> <Gold.PLP.ligand.clash>
0.0000

> <Gold.PLP.ligand.torsion>
0.6922

> <Gold.PLP.Chemscore.Hbond>
3.9825

> <Gold.PLP.Chemscore.CHOScore>
1.0000

> <Gold.PLP.Chemscore.Metal>
0.0000

> <Gold.Chemscore.Hbonds>
donor molecule, donor type, donor heavy atom, donor atom, acceptor molecule, acceptor atom, score
      L1  H     4    49       P1  7948  1.53
      L1  H    12    38       P1  8028  0.99
      P1  H 10752 10763       L1    22  0.11
      L1  C    18    42       P1  8028  1.00

> <Gold.PLP.Chemscore.Internal.Correction>
0.1073

> <Gold.Rescore>
     Score         DG    S(hbond)    S(metal)    S(lipo)     H(rot)  DE(clash)    DE(int)     intcor
     17.84     -21.99       2.05        0.00     114.61       1.46       2.09       2.07       ----

> <Gold.Chemscore.Fitness>
17.8372

> <Gold.Chemscore.DG>
-21.9947

> <Gold.Chemscore.ZeroCoef>
-5.4800

> <Gold.Chemscore.Hbond>
2.0511

> <Gold.Chemscore.Metal>
0.0000

> <Gold.Chemscore.Lipo>
114.6147

> <Gold.Chemscore.Internal_Hbond>
0.0000

> <Gold.Chemscore.DEClash>
2.0854

> <Gold.Chemscore.DEInternal>
2.0721

> <Gold.Chemscore.Rot>
1.4632

> <Gold.Chemscore.Internal.Correction>
   9.000000E+99

> <Gold.Chemscore.Hbonds>
donor molecule, donor type, donor heavy atom, donor atom, acceptor molecule, acceptor atom, score
      L1  H     4    49       P1  7948  0.76
      L1  H    12    38       P1  8028  0.94

> <Gold.Chemscore.Hbond.Weighted>
-6.8506

> <Gold.Chemscore.Metal.Weighted>
-0.0000

> <Gold.Chemscore.Lipo.Weighted>
-13.4099

> <Gold.Chemscore.Internal_Hbond.Weighted>
0.0000

> <Gold.Chemscore.DEClash.Weighted>
2.0854

> <Gold.Chemscore.DEInternal.Weighted>
2.0721

> <Gold.Chemscore.Rot.Weighted>
3.7459

> <Gold.Chemscore.Internal.Correction.Weighted>
   9.000000E+99

> <Gold.Protein.RotatedTorsions>
[ 6907 6896 6895 6894 ] final   63.46 input  -60.11 | X-H torsion
[ 7974 7965 7964 7962 ] final -112.97 input  175.53 | X-H torsion
[ 8008 7997 7996 7995 ] final   65.45 input   59.86 | X-H torsion
[ 10167 10162 10161 10158 ] final -129.39 input  -65.29 | X-H torsion
[ 10718 10713 10712 10709 ] final  -44.53 input   66.30 | X-H torsion
[ 10763 10752 10751 10750 ] final   66.73 input  -60.55 | X-H torsion
[ 11005 11000 10999 10996 ] final -174.40 input  -57.11 | X-H torsion

> <Gold.Protein.ActiveResidues>
 VAL166  LYS551  ARG553  GLY616  TRP617  ASP618  TYR619  PRO620  LYS621  CYS622 
 ASP623  PHE694  ASN695  SER759  ASP760  ASP761  ALA762  ILE779  LEU786  VAL792 
 PHE793  MET794  SER795  GLU796  ALA797  LYS798  CYS799  TRP800  GLU811  SER814 

> <Gold.Protein.RotatedAtoms>
  152.4254  134.5877  159.9965 H   0  0  0  0  0  0  0  0  0  0  0  0  # atno 6907 bound_to 6896
  151.6015  133.3350  159.3056 H   0  0  0  0  0  0  0  0  0  0  0  0  # atno 6908 bound_to 6896
  150.8144  134.7354  159.6782 H   0  0  0  0  0  0  0  0  0  0  0  0  # atno 6909 bound_to 6896
  145.1376  140.8759  143.3721 H   0  0  0  0  0  0  0  0  0  0  0  0  # atno 7974 bound_to 7965
  155.6619  140.3497  155.4786 H   0  0  0  0  0  0  0  0  0  0  0  0  # atno 8008 bound_to 7997
  155.9762  140.1165  157.0791 H   0  0  0  0  0  0  0  0  0  0  0  0  # atno 8009 bound_to 7997
  154.4179  140.1147  156.5359 H   0  0  0  0  0  0  0  0  0  0  0  0  # atno 8010 bound_to 7997
  139.9403  143.6171  152.2505 H   0  0  0  0  0  0  0  0  0  0  0  0  # atno 10167 bound_to 10162
  156.2376  130.4177  149.8799 H   0  0  0  0  0  0  0  0  0  0  0  0  # atno 10718 bound_to 10713
  153.0153  135.5309  154.6870 H   0  0  0  0  0  0  0  0  0  0  0  0  # atno 10763 bound_to 10752
  154.6015  135.2868  155.0533 H   0  0  0  0  0  0  0  0  0  0  0  0  # atno 10764 bound_to 10752
  154.1588  135.6551  153.5033 H   0  0  0  0  0  0  0  0  0  0  0  0  # atno 10765 bound_to 10752
  140.4750  134.6130  157.4897 H   0  0  0  0  0  0  0  0  0  0  0  0  # atno 11005 bound_to 11000
  145.0568  139.3137  143.5901 LP  0  0  0  0  0  0  0  0  0  0  0  0  # atno 17320 bound_to 7965
  146.3508  139.9995  142.8677 LP  0  0  0  0  0  0  0  0  0  0  0  0  # atno 17321 bound_to 7965
  139.6710  144.7661  151.1783 LP  0  0  0  0  0  0  0  0  0  0  0  0  # atno 17342 bound_to 10162
  140.7613  143.5865  150.8840 LP  0  0  0  0  0  0  0  0  0  0  0  0  # atno 17343 bound_to 10162
  156.6392  130.8698  151.3510 LP  0  0  0  0  0  0  0  0  0  0  0  0  # atno 17370 bound_to 10713
  157.7161  130.9499  150.1261 LP  0  0  0  0  0  0  0  0  0  0  0  0  # atno 17371 bound_to 10713
  139.9862  134.7058  155.9770 LP  0  0  0  0  0  0  0  0  0  0  0  0  # atno 17394 bound_to 11000
  141.1559  133.6543  156.4160 LP  0  0  0  0  0  0  0  0  0  0  0  0  # atno 17395 bound_to 11000

$$$$
