AV-unprocessed.smi:1762|AV-procd|sdf|7115|dock4
  -GOLD-   22720 8343D 1   1.00000     0.00000
 Structure written by MMmdl.
 53 54  0  0  0  0  0  0  0  0  2 V2000
  148.8036  140.7884  154.3652 C   0  0  0  0  0  0  0  0  0  0  0  0
  149.4648  139.4341  154.0857 C   0  0  2  0  0  0  0  0  0  0  0  0
  148.6999  138.2685  154.7422 C   0  0  0  0  0  0  0  0  0  0  0  0
  149.4006  136.9722  154.5226 N   0  3  2  0  0  0  0  0  0  0  0  0
  148.7040  135.7656  155.0885 C   0  0  2  0  0  0  0  0  0  0  0  0
  148.0068  136.1031  156.4241 C   0  0  0  0  0  0  0  0  0  0  0  0
  146.8257  135.8013  156.6002 O   0  0  0  0  0  0  0  0  0  0  0  0
  148.7488  136.7251  157.3523 N   0  0  0  0  0  0  0  0  0  0  0  0
  148.2612  137.1171  158.6672 C   0  0  0  0  0  0  0  0  0  0  0  0
  148.9720  136.3179  159.7681 C   0  0  0  0  0  0  0  0  0  0  0  0
  148.1037  136.1397  160.9992 C   0  0  0  0  0  0  0  0  0  0  0  0
  147.8018  134.8507  161.4883 C   0  0  0  0  0  0  0  0  0  0  0  0
  146.9968  134.7417  162.6389 C   0  0  0  0  0  0  0  0  0  0  0  0
  146.5284  135.9191  163.2530 C   0  0  0  0  0  0  0  0  0  0  0  0
  146.8870  137.1589  162.6869 C   0  0  0  0  0  0  0  0  0  0  0  0
  147.6579  137.2746  161.5840 N   0  0  0  0  0  0  0  0  0  0  0  0
  149.6223  134.5063  155.2482 C   0  0  0  0  0  0  0  0  0  0  0  0
  149.5042  133.5158  154.0728 C   0  0  0  0  0  0  0  0  0  0  0  0
  149.4421  133.7615  156.5877 C   0  0  0  0  0  0  0  0  0  0  0  0
  150.8115  137.1018  154.9890 C   0  0  0  0  0  0  0  0  0  0  0  0
  151.5151  138.2911  154.3111 C   0  0  2  0  0  0  0  0  0  0  0  0
  152.9500  138.4793  154.8160 C   0  0  0  0  0  0  0  0  0  0  0  0
  150.7889  139.4776  154.5986 O   0  0  0  0  0  0  0  0  0  0  0  0
  147.7833  140.8147  153.9819 H   0  0  0  0  0  0  0  0  0  0  0  0
  149.3576  141.5982  153.8896 H   0  0  0  0  0  0  0  0  0  0  0  0
  148.7649  140.9955  155.4351 H   0  0  0  0  0  0  0  0  0  0  0  0
  149.5024  139.2853  153.0048 H   0  0  0  0  0  0  0  0  0  0  0  0
  148.5860  138.4430  155.8134 H   0  0  0  0  0  0  0  0  0  0  0  0
  147.7024  138.2576  154.3079 H   0  0  0  0  0  0  0  0  0  0  0  0
  147.9267  135.5002  154.3689 H   0  0  0  0  0  0  0  0  0  0  0  0
  149.7106  136.9426  157.1344 H   0  0  0  0  0  0  0  0  0  0  0  0
  148.4312  138.1857  158.8081 H   0  0  0  0  0  0  0  0  0  0  0  0
  147.1839  136.9510  158.7232 H   0  0  0  0  0  0  0  0  0  0  0  0
  149.2558  135.3337  159.3920 H   0  0  0  0  0  0  0  0  0  0  0  0
  149.8993  136.8171  160.0524 H   0  0  0  0  0  0  0  0  0  0  0  0
  148.1773  133.9653  160.9963 H   0  0  0  0  0  0  0  0  0  0  0  0
  146.7442  133.7726  163.0433 H   0  0  0  0  0  0  0  0  0  0  0  0
  145.9095  135.8736  164.1369 H   0  0  0  0  0  0  0  0  0  0  0  0
  146.5464  138.0819  163.1325 H   0  0  0  0  0  0  0  0  0  0  0  0
  150.6574  134.8413  155.1988 H   0  0  0  0  0  0  0  0  0  0  0  0
  148.5371  133.0127  154.0541 H   0  0  0  0  0  0  0  0  0  0  0  0
  150.2679  132.7406  154.1408 H   0  0  0  0  0  0  0  0  0  0  0  0
  149.6384  134.0212  153.1161 H   0  0  0  0  0  0  0  0  0  0  0  0
  148.4637  133.2864  156.6573 H   0  0  0  0  0  0  0  0  0  0  0  0
  149.5467  134.4267  157.4443 H   0  0  0  0  0  0  0  0  0  0  0  0
  150.1899  132.9753  156.6967 H   0  0  0  0  0  0  0  0  0  0  0  0
  150.8231  137.2290  156.0729 H   0  0  0  0  0  0  0  0  0  0  0  0
  151.3856  136.2009  154.7737 H   0  0  0  0  0  0  0  0  0  0  0  0
  151.5457  138.1352  153.2311 H   0  0  0  0  0  0  0  0  0  0  0  0
  153.5580  137.5974  154.6122 H   0  0  0  0  0  0  0  0  0  0  0  0
  152.9705  138.6593  155.8913 H   0  0  0  0  0  0  0  0  0  0  0  0
  153.4259  139.3299  154.3273 H   0  0  0  0  0  0  0  0  0  0  0  0
  149.4356  136.8312  153.5226 H   0  0  0  0  0  0  0  0  0  0  0  0
  1  2  1  0  0  0  0
  1 24  1  0  0  0  0
  1 25  1  0  0  0  0
  1 26  1  0  0  0  0
  2 23  1  0  0  0  0
  2  3  1  0  0  0  0
  2 27  1  0  0  0  0
  3  4  1  0  0  0  0
  3 28  1  0  0  0  0
  3 29  1  0  0  0  0
  4  5  1  0  0  0  0
  4 20  1  0  0  0  0
  4 53  1  0  0  0  0
  5  6  1  0  0  0  0
  5 17  1  0  0  0  0
  5 30  1  0  0  0  0
  6  7  2  0  0  0  0
  6  8  1  0  0  0  0
  8  9  1  0  0  0  0
  8 31  1  0  0  0  0
  9 10  1  0  0  0  0
  9 32  1  0  0  0  0
  9 33  1  0  0  0  0
 10 11  1  0  0  0  0
 10 34  1  0  0  0  0
 10 35  1  0  0  0  0
 11 16  1  0  0  0  0
 11 12  2  0  0  0  0
 12 13  1  0  0  0  0
 12 36  1  0  0  0  0
 13 14  2  0  0  0  0
 13 37  1  0  0  0  0
 14 15  1  0  0  0  0
 14 38  1  0  0  0  0
 15 16  2  0  0  0  0
 15 39  1  0  0  0  0
 17 18  1  0  0  0  0
 17 19  1  0  0  0  0
 17 40  1  0  0  0  0
 18 41  1  0  0  0  0
 18 42  1  0  0  0  0
 18 43  1  0  0  0  0
 19 44  1  0  0  0  0
 19 45  1  0  0  0  0
 19 46  1  0  0  0  0
 20 21  1  0  0  0  0
 20 47  1  0  0  0  0
 20 48  1  0  0  0  0
 21 22  1  0  0  0  0
 21 23  1  0  0  0  0
 21 49  1  0  0  0  0
 22 50  1  0  0  0  0
 22 51  1  0  0  0  0
 22 52  1  0  0  0  0
M  CHG  1   4   1
M  END
> <s_m_source_file>
AV-unprocessed.smi

> <i_m_source_file_index>
1762

> <i_lp_mmshare_version>
43012

> <i_f3d_flags>
0

> <s_epik_input>
W0NIM11bQ0BASF0xW0NIMl1OKFtDSDJdW0NASF0oTzEpW0NIM10pW0NAQEhdKFtDSF0oW0NIM10pW0NIM10pQyg9TylbTkhdW0NIMl1bQ0gyXWMyW2NIXVtjSF1bY0hdW2NIXW4y

> <s_epik_cmdline>
J2VwaWtfcHl0aG9uJywgJy1waCcsICc3LjAnLCAnLXRuJywgJzgnLCAnLW1hJywgJzIwMCcsICctbWV0YWxfYmluZGluZycsICctaW1hZScsICc8aW5maWxlLm1hZT4nLCAnLW9tYWUnLCAnPG91dGZpbGUubWFlPic=

> <r_epik_Ionization_Penalty>
2.27005

> <r_epik_Ionization_Penalty_Charging>
2.24983

> <r_epik_Ionization_Penalty_Neutral>
0.0202209

> <r_epik_State_Penalty>
2.40228

> <r_epik_Charging_Adjusted_Penalty>
4.65211

> <i_epik_Tot_Q>
1

> <i_epik_Tot_abs_Q>
1

> <r_epik_Metal_State_Penalty>
2.40762

> <b_epik_Metal_Only>
0

> <s_lp_Force_Field>
OPLS_2005

> <r_lp_Energy>
21.2519

> <b_lp_Chiralities_Consistent>
1

> <s_lp_Variant>
AV-unprocessed.smi:1762-17

> <Gold.Version>
5.8.1

> <Gold.Id.Protein>
6NUR|6NUR_protein|mol2

> <Gold.PLP.Fitness>
51.1325

> <Gold.PLP.PLP>
-40.8532

> <Gold.PLP.part.hbond>
-4.0000

> <Gold.PLP.part.metal>
0.0000

> <Gold.PLP.part.buried>
-3.8293

> <Gold.PLP.part.nonpolar>
-34.3058

> <Gold.PLP.part.repulsive>
0.1256

> <Gold.PLP.ligand.clash>
0.0000

> <Gold.PLP.ligand.torsion>
2.2669

> <Gold.PLP.Chemscore.Hbond>
4.8400

> <Gold.PLP.Chemscore.CHOScore>
0.0000

> <Gold.PLP.Chemscore.Metal>
0.0000

> <Gold.Chemscore.Hbonds>
donor molecule, donor type, donor heavy atom, donor atom, acceptor molecule, acceptor atom, score
      L1  H     4    53       P1  7948  2.00
      P1  H  6931  6943       L1    16  0.96
      P1  H  6934  6947       L1    16  0.75
      P1  H  7989  7998       L1    23  1.00

> <Gold.PLP.Chemscore.Internal.Correction>
0.2932

> <Gold.Rescore>
     Score         DG    S(hbond)    S(metal)    S(lipo)     H(rot)  DE(clash)    DE(int)     intcor
     17.46     -19.96       1.67        0.00     112.32       1.66       0.67       1.83       ----

> <Gold.Chemscore.Fitness>
17.4568

> <Gold.Chemscore.DG>
-19.9562

> <Gold.Chemscore.ZeroCoef>
-5.4800

> <Gold.Chemscore.Hbond>
1.6745

> <Gold.Chemscore.Metal>
0.0000

> <Gold.Chemscore.Lipo>
112.3242

> <Gold.Chemscore.Internal_Hbond>
0.0000

> <Gold.Chemscore.DEClash>
0.6712

> <Gold.Chemscore.DEInternal>
1.8282

> <Gold.Chemscore.Rot>
1.6635

> <Gold.Chemscore.Internal.Correction>
   9.000000E+99

> <Gold.Chemscore.Hbonds>
donor molecule, donor type, donor heavy atom, donor atom, acceptor molecule, acceptor atom, score
      L1  H     4    53       P1  7948  0.88
      P1  H  6931  6943       L1    16  0.45
      P1  H  6934  6947       L1    16  0.26
      P1  H  7989  7998       L1    23  0.20

> <Gold.Chemscore.Hbond.Weighted>
-5.5929

> <Gold.Chemscore.Metal.Weighted>
-0.0000

> <Gold.Chemscore.Lipo.Weighted>
-13.1419

> <Gold.Chemscore.Internal_Hbond.Weighted>
0.0000

> <Gold.Chemscore.DEClash.Weighted>
0.6712

> <Gold.Chemscore.DEInternal.Weighted>
1.8282

> <Gold.Chemscore.Rot.Weighted>
4.2586

> <Gold.Chemscore.Internal.Correction.Weighted>
   9.000000E+99

> <Gold.Protein.RotatedTorsions>
[ 6907 6896 6895 6894 ] final -141.70 input  -60.11 | X-H torsion
[ 7974 7965 7964 7962 ] final  -30.84 input  175.53 | X-H torsion
[ 8008 7997 7996 7995 ] final   35.84 input   59.86 | X-H torsion
[ 10167 10162 10161 10158 ] final  142.81 input  -65.29 | X-H torsion
[ 10718 10713 10712 10709 ] final   98.73 input   66.30 | X-H torsion
[ 10763 10752 10751 10750 ] final  -74.39 input  -60.55 | X-H torsion
[ 11005 11000 10999 10996 ] final -118.59 input  -57.11 | X-H torsion

> <Gold.Protein.ActiveResidues>
 VAL166  LYS551  ARG553  GLY616  TRP617  ASP618  TYR619  PRO620  LYS621  CYS622 
 ASP623  PHE694  ASN695  SER759  ASP760  ASP761  ALA762  ILE779  LEU786  VAL792 
 PHE793  MET794  SER795  GLU796  ALA797  LYS798  CYS799  TRP800  GLU811  SER814 

> <Gold.Protein.RotatedAtoms>
  151.0773  133.5418  159.2622 H   0  0  0  0  0  0  0  0  0  0  0  0  # atno 6907 bound_to 6896
  151.2335  135.0562  159.9007 H   0  0  0  0  0  0  0  0  0  0  0  0  # atno 6908 bound_to 6896
  152.5419  134.0558  159.8184 H   0  0  0  0  0  0  0  0  0  0  0  0  # atno 6909 bound_to 6896
  146.1112  140.5592  142.8777 H   0  0  0  0  0  0  0  0  0  0  0  0  # atno 7974 bound_to 7965
  155.1777  140.3297  155.4381 H   0  0  0  0  0  0  0  0  0  0  0  0  # atno 8008 bound_to 7997
  156.2488  140.1932  156.6827 H   0  0  0  0  0  0  0  0  0  0  0  0  # atno 8009 bound_to 7997
  154.6293  140.0584  156.9699 H   0  0  0  0  0  0  0  0  0  0  0  0  # atno 8010 bound_to 7997
  139.4985  144.6082  151.6331 H   0  0  0  0  0  0  0  0  0  0  0  0  # atno 10167 bound_to 10162
  157.6890  131.0648  150.4840 H   0  0  0  0  0  0  0  0  0  0  0  0  # atno 10718 bound_to 10713
  154.4724  135.5866  153.6331 H   0  0  0  0  0  0  0  0  0  0  0  0  # atno 10763 bound_to 10752
  152.9836  135.6070  154.3350 H   0  0  0  0  0  0  0  0  0  0  0  0  # atno 10764 bound_to 10752
  154.3233  135.2843  155.2488 H   0  0  0  0  0  0  0  0  0  0  0  0  # atno 10765 bound_to 10752
  141.0275  134.0032  157.3193 H   0  0  0  0  0  0  0  0  0  0  0  0  # atno 11005 bound_to 11000
  144.7513  140.5199  143.6799 LP  0  0  0  0  0  0  0  0  0  0  0  0  # atno 17320 bound_to 7965
  145.5659  139.1481  143.3315 LP  0  0  0  0  0  0  0  0  0  0  0  0  # atno 17321 bound_to 7965
  140.5750  144.0044  150.6236 LP  0  0  0  0  0  0  0  0  0  0  0  0  # atno 17342 bound_to 10162
  140.3175  143.3158  152.0818 LP  0  0  0  0  0  0  0  0  0  0  0  0  # atno 17343 bound_to 10162
  156.5170  130.4153  149.6270 LP  0  0  0  0  0  0  0  0  0  0  0  0  # atno 17370 bound_to 10713
  156.3188  130.7269  151.2177 LP  0  0  0  0  0  0  0  0  0  0  0  0  # atno 17371 bound_to 10713
  139.9185  135.0199  156.7976 LP  0  0  0  0  0  0  0  0  0  0  0  0  # atno 17394 bound_to 11000
  140.6466  133.9770  155.7734 LP  0  0  0  0  0  0  0  0  0  0  0  0  # atno 17395 bound_to 11000

$$$$
