#       Name:                AV-unprocessed.smi:1827
#       Creating user name   scv26
#       Creation time:       Fri Mar 27 09:10:28 2020


#       File generated by GOLD software.
#

@<TRIPOS>MOLECULE
AV-unprocessed.smi:1827
    49    50     1
SMALL
NO_CHARGES


@<TRIPOS>ATOM
      1 ****        -3.6907  -2.4130   0.1561 C.3            1 S1                 0.0000
      2 ****        -4.2372  -1.0259  -0.0395 C.2            1 S1                 0.0000
      3 ****        -5.5378  -0.8783  -0.2555 N.2            1 S1                 0.0000
      4 ****        -5.7044   0.4466  -0.4553 N.pl3          1 S1                 0.0000
      5 ****        -4.5336   1.1663  -0.3740 C.2            1 S1                 0.0000
      6 ****        -4.4854   2.6436  -0.5795 C.3            1 S1                 0.0000
      7 ****        -3.5752   0.2413  -0.0755 C.2            1 S1                 0.0000
      8 ****        -2.1972   0.5361   0.0781 N.am           1 S1                 0.0000
      9 ****        -1.3480  -0.0277   0.9505 C.2            1 S1                 0.0000
     10 ****        -1.6543  -0.8856   1.7777 O.2            1 S1                 0.0000
     11 ****        -0.1116   0.4764   0.8275 N.am           1 S1                 0.0000
     12 ****         1.0431   0.0819   1.6341 C.3            1 S1                 0.0000
     13 ****         2.1177   1.1826   1.6153 C.3            1 S1                 0.0000
     14 ****         2.8258   1.2788   0.2512 C.3            1 S1                 0.0000
     15 ****         3.4023  -0.0292  -0.1513 N.4            1 S1                 1.0000
     16 ****         4.2062   0.0689  -1.3952 C.3            1 S1                 0.0000
     17 ****         5.2512  -1.0515  -1.4422 C.2            1 S1                 0.0000
     18 ****         5.1513  -1.8026  -2.5555 N.pl3          1 S1                -1.0000
     19 ****         6.0452  -1.1810  -0.5123 O.2            1 S1                 0.0000
     20 ****         2.3636  -1.0929  -0.2085 C.3            1 S1                 0.0000
     21 ****         1.6527  -1.2474   1.1472 C.3            1 S1                 0.0000
     22 ****        -6.6140   0.8397  -0.6516 H              1 S1                 0.0000
     23 ****        -2.6830  -2.5016  -0.2499 H              1 S1                 0.0000
     24 ****        -4.3082  -3.1594  -0.3448 H              1 S1                 0.0000
     25 ****        -3.6526  -2.6733   1.2140 H              1 S1                 0.0000
     26 ****        -3.4575   3.0053  -0.6049 H              1 S1                 0.0000
     27 ****        -5.0043   3.1622   0.2268 H              1 S1                 0.0000
     28 ****        -4.9612   2.9199  -1.5207 H              1 S1                 0.0000
     29 ****        -1.8489   1.3158  -0.4600 H              1 S1                 0.0000
     30 ****         0.0420   1.1860   0.1261 H              1 S1                 0.0000
     31 ****         0.7070  -0.0424   2.6653 H              1 S1                 0.0000
     32 ****         1.6787   2.1456   1.8791 H              1 S1                 0.0000
     33 ****         2.8606   0.9684   2.3849 H              1 S1                 0.0000
     34 ****         2.1308   1.6225  -0.5163 H              1 S1                 0.0000
     35 ****         3.6188   2.0248   0.3154 H              1 S1                 0.0000
     36 ****         3.5516   0.0758  -2.2698 H              1 S1                 0.0000
     37 ****         4.7558   1.0110  -1.4111 H              1 S1                 0.0000
     38 ****         4.4315  -1.5697  -3.2500 H              1 S1                 0.0000
     39 ****         1.6403  -0.8573  -0.9906 H              1 S1                 0.0000
     40 ****         2.8165  -2.0469  -0.4801 H              1 S1                 0.0000
     41 ****         2.3736  -1.6003   1.8860 H              1 S1                 0.0000
     42 ****         0.8877  -2.0220   1.0823 H              1 S1                 0.0000
     43 ****         4.0532  -0.2920   0.5752 H              1 S1                 0.0000
     44 ****        -6.2395  -1.5907  -0.2676 LP             1 S1                 0.0000
     45 ****        -2.5979  -1.2120   1.8336 LP             1 S1                 0.0000
     46 ****        -0.9597  -1.2564   2.3941 LP             1 S1                 0.0000
     47 ****         5.7685  -2.5753  -2.7036 LP             1 S1                 0.0000
     48 ****         6.0067  -0.5574   0.2685 LP             1 S1                 0.0000
     49 ****         6.7293  -1.9099  -0.5368 LP             1 S1                 0.0000
@<TRIPOS>BOND
    1    1    2 1     
    2    1   23 1     
    3    1   24 1     
    4    1   25 1     
    5    2    7 1     
    6    2    3 2     
    7    3    4 1     
    8    4   22 1     
    9    4    5 1     
   10    5    6 1     
   11    5    7 2     
   12    6   26 1     
   13    6   27 1     
   14    6   28 1     
   15    7    8 1     
   16    8    9 am    
   17    8   29 1     
   18    9   10 2     
   19    9   11 am    
   20   11   12 1     
   21   11   30 1     
   22   12   21 1     
   23   12   13 1     
   24   12   31 1     
   25   13   14 1     
   26   13   32 1     
   27   13   33 1     
   28   14   15 1     
   29   14   34 1     
   30   14   35 1     
   31   15   16 1     
   32   15   20 1     
   33   15   43 1     
   34   16   17 1     
   35   16   36 1     
   36   16   37 1     
   37   17   18 1     
   38   17   19 2     
   39   18   38 1     
   40   20   21 1     
   41   20   39 1     
   42   20   40 1     
   43   21   41 1     
   44   21   42 1     
   45    3   44 1     
   46   10   45 1     
   47   10   46 1     
   48   18   47 1     
   49   19   48 1     
   50   19   49 1     
@<TRIPOS>SUBSTRUCTURE
      1 S1             1
@<TRIPOS>SET
LONE_PAIRS      STATIC     ATOMS    <user>   **** ""
6 44 45 46 47 48 49
DONOR_HYDROGENS      STATIC     ATOMS    <user>   **** ""
5 22 29 30 43 38
ATOM$BLUE        STATIC     ATOMS    COLORGROUP SYSTEM
6 44 45 46 47 48 49
ATOM$RED        STATIC     ATOMS    COLORGROUP SYSTEM
5 22 29 30 43 38
