AV-unprocessed.smi:2007|AV-procd|sdf|8135|dock4
  -GOLD-   2272010373D 1   1.00000     0.00000
 Structure written by MMmdl.
 37 38  0  0  0  0  0  0  0  0  2 V2000
  145.6839  143.8989  161.1068 C   0  0  0  0  0  0  0  0  0  0  0  0
  146.1025  145.2202  160.4480 C   0  0  2  0  0  0  0  0  0  0  0  0
  144.9691  145.7830  159.5584 C   0  0  0  0  0  0  0  0  0  0  0  0
  145.3623  147.0037  158.8094 N   0  3  0  0  0  0  0  0  0  0  0  0
  144.5371  147.2338  157.6005 C   0  0  0  0  0  0  0  0  0  0  0  0
  145.0426  148.4694  156.8359 C   0  0  0  0  0  0  0  0  0  0  0  0
  145.0361  149.6021  157.6962 O   0  0  0  0  0  0  0  0  0  0  0  0
  145.8916  149.4232  158.8184 C   0  0  0  0  0  0  0  0  0  0  0  0
  145.4029  148.2255  159.6492 C   0  0  0  0  0  0  0  0  0  0  0  0
  147.3301  144.9998  159.6815 N   0  0  0  0  0  0  0  0  0  0  0  0
  148.4689  144.4691  160.1521 C   0  0  0  0  0  0  0  0  0  0  0  0
  148.6240  144.1297  161.3255 O   0  0  0  0  0  0  0  0  0  0  0  0
  149.3989  144.3726  159.1864 N   0  0  0  0  0  0  0  0  0  0  0  0
  150.7347  143.9054  159.3008 C   0  0  0  0  0  0  0  0  0  0  0  0
  151.2153  143.2491  160.3635 N   0  0  0  0  0  0  0  0  0  0  0  0
  152.5624  142.9131  160.2069 C   0  0  0  0  0  0  0  0  0  0  0  0
  153.0966  143.3290  159.0127 C   0  0  0  0  0  0  0  0  0  0  0  0
  151.9211  144.1604  158.0294 S   0  0  0  0  0  0  0  0  0  0  0  0
  144.7938  144.0331  161.7220 H   0  0  0  0  0  0  0  0  0  0  0  0
  146.4734  143.5136  161.7532 H   0  0  0  0  0  0  0  0  0  0  0  0
  145.4603  143.1345  160.3616 H   0  0  0  0  0  0  0  0  0  0  0  0
  146.3097  145.9217  161.2571 H   0  0  0  0  0  0  0  0  0  0  0  0
  144.6795  145.0065  158.8484 H   0  0  0  0  0  0  0  0  0  0  0  0
  144.0795  145.9936  160.1543 H   0  0  0  0  0  0  0  0  0  0  0  0
  144.5803  146.3597  156.9495 H   0  0  0  0  0  0  0  0  0  0  0  0
  143.4938  147.3706  157.8893 H   0  0  0  0  0  0  0  0  0  0  0  0
  146.0473  148.3012  156.4446 H   0  0  0  0  0  0  0  0  0  0  0  0
  144.3975  148.6719  155.9807 H   0  0  0  0  0  0  0  0  0  0  0  0
  146.9213  149.2750  158.4884 H   0  0  0  0  0  0  0  0  0  0  0  0
  145.8779  150.3303  159.4225 H   0  0  0  0  0  0  0  0  0  0  0  0
  144.4093  148.4301  160.0510 H   0  0  0  0  0  0  0  0  0  0  0  0
  146.0675  148.0810  160.5006 H   0  0  0  0  0  0  0  0  0  0  0  0
  147.2978  145.2479  158.7032 H   0  0  0  0  0  0  0  0  0  0  0  0
  149.1242  144.6748  158.2631 H   0  0  0  0  0  0  0  0  0  0  0  0
  153.0651  142.3770  160.9983 H   0  0  0  0  0  0  0  0  0  0  0  0
  154.1062  143.1964  158.6528 H   0  0  0  0  0  0  0  0  0  0  0  0
  146.3047  146.8446  158.4817 H   0  0  0  0  0  0  0  0  0  0  0  0
  1  2  1  0  0  0  0
  1 19  1  0  0  0  0
  1 20  1  0  0  0  0
  1 21  1  0  0  0  0
  2  3  1  0  0  0  0
  2 10  1  0  0  0  0
  2 22  1  0  0  0  0
  3  4  1  0  0  0  0
  3 23  1  0  0  0  0
  3 24  1  0  0  0  0
  4  9  1  0  0  0  0
  4  5  1  0  0  0  0
  4 37  1  0  0  0  0
  5  6  1  0  0  0  0
  5 25  1  0  0  0  0
  5 26  1  0  0  0  0
  6  7  1  0  0  0  0
  6 27  1  0  0  0  0
  6 28  1  0  0  0  0
  7  8  1  0  0  0  0
  8  9  1  0  0  0  0
  8 29  1  0  0  0  0
  8 30  1  0  0  0  0
  9 31  1  0  0  0  0
  9 32  1  0  0  0  0
 10 11  1  0  0  0  0
 10 33  1  0  0  0  0
 11 12  2  0  0  0  0
 11 13  1  0  0  0  0
 13 14  1  0  0  0  0
 13 34  1  0  0  0  0
 14 18  1  0  0  0  0
 14 15  2  0  0  0  0
 15 16  1  0  0  0  0
 16 17  2  0  0  0  0
 16 35  1  0  0  0  0
 17 18  1  0  0  0  0
 17 36  1  0  0  0  0
M  CHG  1   4   1
M  END
> <s_m_source_file>
AV-unprocessed.smi

> <i_m_source_file_index>
2007

> <i_lp_mmshare_version>
43012

> <i_f3d_flags>
0

> <s_epik_input>
W0NIMl0xW0NIMl1PW0NIMl1bQ0gyXU4xW0NIMl1bQ0BASF0oW0NIM10pW05IXUMoPU8pW05IXWMybltjSF1bY0hdczI=

> <s_epik_cmdline>
J2VwaWtfcHl0aG9uJywgJy1waCcsICc3LjAnLCAnLXRuJywgJzgnLCAnLW1hJywgJzIwMCcsICctbWV0YWxfYmluZGluZycsICctaW1hZScsICc8aW5maWxlLm1hZT4nLCAnLW9tYWUnLCAnPG91dGZpbGUubWFlPic=

> <r_lp_tautomer_probability>
0.999

> <r_epik_Ionization_Penalty>
0.695848

> <r_epik_Ionization_Penalty_Charging>
0.695697

> <r_epik_Ionization_Penalty_Neutral>
0.000150585

> <r_epik_State_Penalty>
0.717972

> <r_epik_Charging_Adjusted_Penalty>
1.41367

> <i_epik_Tot_Q>
1

> <i_epik_Tot_abs_Q>
1

> <r_epik_Metal_State_Penalty>
0.763271

> <b_epik_Metal_Only>
0

> <s_lp_Force_Field>
OPLS_2005

> <r_lp_Energy>
20.6348

> <b_lp_Chiralities_Consistent>
1

> <s_lp_Variant>
AV-unprocessed.smi:2007-3

> <Gold.Version>
5.8.1

> <Gold.Id.Protein>
6NUR|6NUR_protein|mol2

> <Gold.PLP.Fitness>
54.9523

> <Gold.PLP.PLP>
-41.9524

> <Gold.PLP.part.hbond>
-4.8407

> <Gold.PLP.part.metal>
0.0000

> <Gold.PLP.part.buried>
-6.9467

> <Gold.PLP.part.nonpolar>
-30.5215

> <Gold.PLP.part.repulsive>
0.7688

> <Gold.PLP.ligand.clash>
0.0000

> <Gold.PLP.ligand.torsion>
0.2590

> <Gold.PLP.Chemscore.Hbond>
4.4923

> <Gold.PLP.Chemscore.CHOScore>
0.0000

> <Gold.PLP.Chemscore.Metal>
0.0000

> <Gold.Chemscore.Hbonds>
donor molecule, donor type, donor heavy atom, donor atom, acceptor molecule, acceptor atom, score
      L1  H     4    37       P1  8029  1.56
      L1  H    10    33       P1  8029  1.00
      L1  H    13    34       P1  8029  0.88
      P1  H  6933  6944       L1    12  0.78

> <Gold.PLP.Chemscore.Internal.Correction>
0.0411

> <Gold.Rescore>
     Score         DG    S(hbond)    S(metal)    S(lipo)     H(rot)  DE(clash)    DE(int)     intcor
     19.01     -20.42       2.90        0.00      80.47       1.63       0.02       1.39       ----

> <Gold.Chemscore.Fitness>
19.0086

> <Gold.Chemscore.DG>
-20.4174

> <Gold.Chemscore.ZeroCoef>
-5.4800

> <Gold.Chemscore.Hbond>
2.9031

> <Gold.Chemscore.Metal>
0.0000

> <Gold.Chemscore.Lipo>
80.4734

> <Gold.Chemscore.Internal_Hbond>
0.0000

> <Gold.Chemscore.DEClash>
0.0234

> <Gold.Chemscore.DEInternal>
1.3854

> <Gold.Chemscore.Rot>
1.6306

> <Gold.Chemscore.Internal.Correction>
   9.000000E+99

> <Gold.Chemscore.Hbonds>
donor molecule, donor type, donor heavy atom, donor atom, acceptor molecule, acceptor atom, score
      L1  H     4    37       P1  8029  0.76
      L1  H    10    33       P1  8029  0.98
      L1  H    13    34       P1  8029  0.32
      P1  H  6933  6944       L1    12  0.59

> <Gold.Chemscore.Hbond.Weighted>
-9.6963

> <Gold.Chemscore.Metal.Weighted>
-0.0000

> <Gold.Chemscore.Lipo.Weighted>
-9.4154

> <Gold.Chemscore.Internal_Hbond.Weighted>
0.0000

> <Gold.Chemscore.DEClash.Weighted>
0.0234

> <Gold.Chemscore.DEInternal.Weighted>
1.3854

> <Gold.Chemscore.Rot.Weighted>
4.1743

> <Gold.Chemscore.Internal.Correction.Weighted>
   9.000000E+99

> <Gold.Protein.RotatedTorsions>
[ 6907 6896 6895 6894 ] final  -88.77 input  -60.11 | X-H torsion
[ 7974 7965 7964 7962 ] final  112.76 input  175.53 | X-H torsion
[ 8008 7997 7996 7995 ] final  -21.46 input   59.86 | X-H torsion
[ 10167 10162 10161 10158 ] final   75.90 input  -65.29 | X-H torsion
[ 10718 10713 10712 10709 ] final   71.26 input   66.30 | X-H torsion
[ 10763 10752 10751 10750 ] final -158.87 input  -60.55 | X-H torsion
[ 11005 11000 10999 10996 ] final  -21.75 input  -57.11 | X-H torsion

> <Gold.Protein.ActiveResidues>
 VAL166  LYS551  ARG553  GLY616  TRP617  ASP618  TYR619  PRO620  LYS621  CYS622 
 ASP623  PHE694  ASN695  SER759  ASP760  ASP761  ALA762  ILE779  LEU786  VAL792 
 PHE793  MET794  SER795  GLU796  ALA797  LYS798  CYS799  TRP800  GLU811  SER814 

> <Gold.Protein.RotatedAtoms>
  150.6870  134.2690  159.4579 H   0  0  0  0  0  0  0  0  0  0  0  0  # atno 6907 bound_to 6896
  152.0613  134.9590  160.0584 H   0  0  0  0  0  0  0  0  0  0  0  0  # atno 6908 bound_to 6896
  152.1015  133.4218  159.4626 H   0  0  0  0  0  0  0  0  0  0  0  0  # atno 6909 bound_to 6896
  145.2255  139.2843  143.4196 H   0  0  0  0  0  0  0  0  0  0  0  0  # atno 7974 bound_to 7965
  154.4704  140.2034  156.0010 H   0  0  0  0  0  0  0  0  0  0  0  0  # atno 8008 bound_to 7997
  156.1001  140.3245  155.7900 H   0  0  0  0  0  0  0  0  0  0  0  0  # atno 8009 bound_to 7997
  155.4812  140.0539  157.2957 H   0  0  0  0  0  0  0  0  0  0  0  0  # atno 8010 bound_to 7997
  139.9980  144.5707  150.7761 H   0  0  0  0  0  0  0  0  0  0  0  0  # atno 10167 bound_to 10162
  157.6443  130.9519  150.0765 H   0  0  0  0  0  0  0  0  0  0  0  0  # atno 10718 bound_to 10713
  154.7521  135.3095  154.8538 H   0  0  0  0  0  0  0  0  0  0  0  0  # atno 10763 bound_to 10752
  153.9322  135.6784  153.4749 H   0  0  0  0  0  0  0  0  0  0  0  0  # atno 10764 bound_to 10752
  153.1117  135.4863  154.8975 H   0  0  0  0  0  0  0  0  0  0  0  0  # atno 10765 bound_to 10752
  140.8591  133.7801  156.0053 H   0  0  0  0  0  0  0  0  0  0  0  0  # atno 11005 bound_to 11000
  146.3366  140.2574  142.8600 LP  0  0  0  0  0  0  0  0  0  0  0  0  # atno 17320 bound_to 7965
  144.9725  140.8382  143.5446 LP  0  0  0  0  0  0  0  0  0  0  0  0  # atno 17321 bound_to 7965
  140.7430  143.2839  151.3518 LP  0  0  0  0  0  0  0  0  0  0  0  0  # atno 17342 bound_to 10162
  139.6292  144.0754  152.2461 LP  0  0  0  0  0  0  0  0  0  0  0  0  # atno 17343 bound_to 10162
  156.1754  130.3648  149.9108 LP  0  0  0  0  0  0  0  0  0  0  0  0  # atno 17370 bound_to 10713
  156.7073  130.8956  151.3606 LP  0  0  0  0  0  0  0  0  0  0  0  0  # atno 17371 bound_to 10713
  140.8703  134.2734  157.5193 LP  0  0  0  0  0  0  0  0  0  0  0  0  # atno 17394 bound_to 11000
  139.8706  134.9564  156.4236 LP  0  0  0  0  0  0  0  0  0  0  0  0  # atno 17395 bound_to 11000

$$$$
