AV-unprocessed.smi:2410|AV-procd|sdf|9526|dock1
  -GOLD-   2272013153D 1   1.00000     0.00000
 Structure written by MMmdl.
 46 48  0  0  0  0  0  0  0  0  1 V2000
  152.2253  143.1270  161.6174 C   0  0  0  0  0  0  0  0  0  0  0  0
  151.7195  142.7261  160.2430 C   0  0  0  0  0  0  0  0  0  0  0  0
  152.4640  141.7977  159.4804 C   0  0  0  0  0  0  0  0  0  0  0  0
  152.0253  141.3949  158.2000 C   0  0  0  0  0  0  0  0  0  0  0  0
  152.5857  140.5112  157.2930 N   0  0  0  0  0  0  0  0  0  0  0  0
  151.7074  140.5583  156.2951 C   0  0  0  0  0  0  0  0  0  0  0  0
  150.6426  141.3686  156.4496 N   0  0  0  0  0  0  0  0  0  0  0  0
  149.5554  141.5860  155.5131 C   0  0  0  0  0  0  0  0  0  0  0  0
  149.1752  140.3002  154.7541 C   0  0  2  0  0  0  0  0  0  0  0  0
  150.1627  140.0544  153.7710 O   0  0  0  0  0  0  0  0  0  0  0  0
  147.8021  140.4252  154.0594 C   0  0  0  0  0  0  0  0  0  0  0  0
  147.4831  139.2353  153.2532 N   0  0  0  0  0  0  0  0  0  0  0  0
  147.3577  139.4362  151.8692 C   0  0  0  0  0  0  0  0  0  0  0  0
  147.0735  138.4644  151.0651 N   0  0  0  0  0  0  0  0  0  0  0  0
  146.8902  137.1734  151.5691 C   0  0  0  0  0  0  0  0  0  0  0  0
  146.5529  136.1091  150.5399 C   0  0  0  0  0  0  0  0  0  0  0  0
  147.0133  136.9092  152.8987 C   0  0  0  0  0  0  0  0  0  0  0  0
  146.8293  135.5232  153.5043 C   0  0  0  0  0  0  0  0  0  0  0  0
  147.3415  138.0044  153.8254 C   0  0  0  0  0  0  0  0  0  0  0  0
  147.4832  137.8350  155.0383 O   0  0  0  0  0  0  0  0  0  0  0  0
  150.8118  141.9509  157.7003 C   0  0  0  0  0  0  0  0  0  0  0  0
  150.0642  142.8781  158.4473 C   0  0  0  0  0  0  0  0  0  0  0  0
  150.5167  143.2697  159.7244 C   0  0  0  0  0  0  0  0  0  0  0  0
  149.6996  144.2686  160.5246 C   0  0  0  0  0  0  0  0  0  0  0  0
  153.1438  142.5985  161.8734 H   0  0  0  0  0  0  0  0  0  0  0  0
  151.4821  142.8945  162.3805 H   0  0  0  0  0  0  0  0  0  0  0  0
  152.4342  144.1964  161.6504 H   0  0  0  0  0  0  0  0  0  0  0  0
  153.3804  141.3841  159.8750 H   0  0  0  0  0  0  0  0  0  0  0  0
  151.8428  139.9663  155.4018 H   0  0  0  0  0  0  0  0  0  0  0  0
  148.6992  141.9558  156.0786 H   0  0  0  0  0  0  0  0  0  0  0  0
  149.8371  142.3783  154.8177 H   0  0  0  0  0  0  0  0  0  0  0  0
  149.1706  139.4657  155.4566 H   0  0  0  0  0  0  0  0  0  0  0  0
  149.7541  140.0841  152.9194 H   0  0  0  0  0  0  0  0  0  0  0  0
  147.0214  140.5405  154.8137 H   0  0  0  0  0  0  0  0  0  0  0  0
  147.7449  141.3483  153.4784 H   0  0  0  0  0  0  0  0  0  0  0  0
  147.5189  140.4596  151.5263 H   0  0  0  0  0  0  0  0  0  0  0  0
  145.5864  135.6561  150.7618 H   0  0  0  0  0  0  0  0  0  0  0  0
  147.3129  135.3271  150.5356 H   0  0  0  0  0  0  0  0  0  0  0  0
  146.5007  136.5302  149.5350 H   0  0  0  0  0  0  0  0  0  0  0  0
  147.7466  135.2064  154.0022 H   0  0  0  0  0  0  0  0  0  0  0  0
  146.5773  134.7623  152.7674 H   0  0  0  0  0  0  0  0  0  0  0  0
  146.0292  135.5392  154.2452 H   0  0  0  0  0  0  0  0  0  0  0  0
  149.1481  143.2811  158.0408 H   0  0  0  0  0  0  0  0  0  0  0  0
  148.8420  144.6278  159.9548 H   0  0  0  0  0  0  0  0  0  0  0  0
  150.3060  145.1336  160.7940 H   0  0  0  0  0  0  0  0  0  0  0  0
  149.3259  143.8083  161.4395 H   0  0  0  0  0  0  0  0  0  0  0  0
  1  2  1  0  0  0  0
  1 25  1  0  0  0  0
  1 26  1  0  0  0  0
  1 27  1  0  0  0  0
  2 23  1  0  0  0  0
  2  3  2  0  0  0  0
  3  4  1  0  0  0  0
  3 28  1  0  0  0  0
  4 21  2  0  0  0  0
  4  5  1  0  0  0  0
  5  6  2  0  0  0  0
  6  7  1  0  0  0  0
  6 29  1  0  0  0  0
  7  8  1  0  0  0  0
  7 21  1  0  0  0  0
  8  9  1  0  0  0  0
  8 30  1  0  0  0  0
  8 31  1  0  0  0  0
  9 10  1  0  0  0  0
  9 11  1  0  0  0  0
  9 32  1  0  0  0  0
 10 33  1  0  0  0  0
 11 12  1  0  0  0  0
 11 34  1  0  0  0  0
 11 35  1  0  0  0  0
 12 19  1  0  0  0  0
 12 13  1  0  0  0  0
 13 14  2  0  0  0  0
 13 36  1  0  0  0  0
 14 15  1  0  0  0  0
 15 16  1  0  0  0  0
 15 17  2  0  0  0  0
 16 37  1  0  0  0  0
 16 38  1  0  0  0  0
 16 39  1  0  0  0  0
 17 18  1  0  0  0  0
 17 19  1  0  0  0  0
 18 40  1  0  0  0  0
 18 41  1  0  0  0  0
 18 42  1  0  0  0  0
 19 20  2  0  0  0  0
 21 22  1  0  0  0  0
 22 23  2  0  0  0  0
 22 43  1  0  0  0  0
 23 24  1  0  0  0  0
 24 44  1  0  0  0  0
 24 45  1  0  0  0  0
 24 46  1  0  0  0  0
M  END
> <s_m_source_file>
AV-unprocessed.smi

> <i_m_source_file_index>
2410

> <i_lp_mmshare_version>
43012

> <i_f3d_flags>
0

> <s_epik_input>
W0NIM11jKFtjSF0xKWMoW0NIM10pW2NIXWMoYzEyKW4oW2NIXW4yKVtDSDJdW0NASF0oW09IXSlbQ0gyXW4zW2NIXW5jKFtDSDNdKWMoW0NIM10pYzM9Tw==

> <s_epik_cmdline>
J2VwaWtfcHl0aG9uJywgJy1waCcsICc3LjAnLCAnLXRuJywgJzgnLCAnLW1hJywgJzIwMCcsICctbWV0YWxfYmluZGluZycsICctaW1hZScsICc8aW5maWxlLm1hZT4nLCAnLW9tYWUnLCAnPG91dGZpbGUubWFlPic=

> <r_lp_tautomer_probability>
1

> <r_epik_Ionization_Penalty>
0.113377

> <r_epik_Ionization_Penalty_Charging>
7.56033e-08

> <r_epik_Ionization_Penalty_Neutral>
0.113377

> <r_epik_State_Penalty>
0.103025

> <r_epik_Charging_Adjusted_Penalty>
0.103025

> <i_epik_Tot_Q>
0

> <i_epik_Tot_abs_Q>
0

> <r_epik_Metal_State_Penalty>
0.0863476

> <b_epik_Metal_Only>
0

> <s_lp_Force_Field>
OPLS_2005

> <r_lp_Energy>
18.2684

> <b_lp_Chiralities_Consistent>
1

> <s_lp_Variant>
AV-unprocessed.smi:2410-1

> <Gold.Version>
5.8.1

> <Gold.Id.Protein>
6NUR|6NUR_protein|mol2

> <Gold.PLP.Fitness>
58.0661

> <Gold.PLP.PLP>
-45.7903

> <Gold.PLP.part.hbond>
-4.0000

> <Gold.PLP.part.metal>
0.0000

> <Gold.PLP.part.buried>
1.9151

> <Gold.PLP.part.nonpolar>
-44.2038

> <Gold.PLP.part.repulsive>
0.5823

> <Gold.PLP.ligand.clash>
0.0000

> <Gold.PLP.ligand.torsion>
0.4714

> <Gold.PLP.Chemscore.Hbond>
3.8713

> <Gold.PLP.Chemscore.CHOScore>
0.5031

> <Gold.PLP.Chemscore.Metal>
0.0000

> <Gold.Chemscore.Hbonds>
donor molecule, donor type, donor heavy atom, donor atom, acceptor molecule, acceptor atom, score
      L1  H    10    33       P1  7957  1.00
      P1  H  7954  7966       L1    14  0.55
      P1  H  7989  7998       L1    10  0.83
      P1  H  7997  8008       L1     5  0.85
      L1  C    13    36       P1  7957  0.23

> <Gold.PLP.Chemscore.Internal.Correction>
0.0956

> <Gold.Rescore>
     Score         DG    S(hbond)    S(metal)    S(lipo)     H(rot)  DE(clash)    DE(int)     intcor
     16.11     -20.04       2.02        0.00     118.20       2.35       2.28       1.64       ----

> <Gold.Chemscore.Fitness>
16.1130

> <Gold.Chemscore.DG>
-20.0387

> <Gold.Chemscore.ZeroCoef>
-5.4800

> <Gold.Chemscore.Hbond>
2.0179

> <Gold.Chemscore.Metal>
0.0000

> <Gold.Chemscore.Lipo>
118.2013

> <Gold.Chemscore.Internal_Hbond>
0.0000

> <Gold.Chemscore.DEClash>
2.2847

> <Gold.Chemscore.DEInternal>
1.6410

> <Gold.Chemscore.Rot>
2.3479

> <Gold.Chemscore.Internal.Correction>
   9.000000E+99

> <Gold.Chemscore.Hbonds>
donor molecule, donor type, donor heavy atom, donor atom, acceptor molecule, acceptor atom, score
      L1  H    10    33       P1  7957  0.99
      P1  H  7954  7966       L1    14  0.03
      P1  H  7989  7998       L1    10  0.25
      P1  H  7997  8008       L1     5  0.58

> <Gold.Chemscore.Hbond.Weighted>
-6.7398

> <Gold.Chemscore.Metal.Weighted>
-0.0000

> <Gold.Chemscore.Lipo.Weighted>
-13.8296

> <Gold.Chemscore.Internal_Hbond.Weighted>
0.0000

> <Gold.Chemscore.DEClash.Weighted>
2.2847

> <Gold.Chemscore.DEInternal.Weighted>
1.6410

> <Gold.Chemscore.Rot.Weighted>
6.0106

> <Gold.Chemscore.Internal.Correction.Weighted>
   9.000000E+99

> <Gold.Protein.RotatedTorsions>
[ 6907 6896 6895 6894 ] final  156.21 input  -60.11 | X-H torsion
[ 7974 7965 7964 7962 ] final   18.61 input  175.53 | X-H torsion
[ 8008 7997 7996 7995 ] final  -55.69 input   59.86 | X-H torsion
[ 10167 10162 10161 10158 ] final  -80.26 input  -65.29 | X-H torsion
[ 10718 10713 10712 10709 ] final  122.08 input   66.30 | X-H torsion
[ 10763 10752 10751 10750 ] final  123.87 input  -60.55 | X-H torsion
[ 11005 11000 10999 10996 ] final  -79.89 input  -57.11 | X-H torsion

> <Gold.Protein.ActiveResidues>
 VAL166  LYS551  ARG553  GLY616  TRP617  ASP618  TYR619  PRO620  LYS621  CYS622 
 ASP623  PHE694  ASN695  SER759  ASP760  ASP761  ALA762  ILE779  LEU786  VAL792 
 PHE793  MET794  SER795  GLU796  ALA797  LYS798  CYS799  TRP800  GLU811  SER814 

> <Gold.Protein.RotatedAtoms>
  152.0330  133.3945  159.4304 H   0  0  0  0  0  0  0  0  0  0  0  0  # atno 6907 bound_to 6896
  150.6881  134.3499  159.4914 H   0  0  0  0  0  0  0  0  0  0  0  0  # atno 6908 bound_to 6896
  152.1288  134.9150  160.0610 H   0  0  0  0  0  0  0  0  0  0  0  0  # atno 6909 bound_to 6896
  146.2179  139.8433  142.8637 H   0  0  0  0  0  0  0  0  0  0  0  0  # atno 7974 bound_to 7965
  154.4204  140.1147  156.5518 H   0  0  0  0  0  0  0  0  0  0  0  0  # atno 8008 bound_to 7997
  155.6402  140.3496  155.4693 H   0  0  0  0  0  0  0  0  0  0  0  0  # atno 8009 bound_to 7997
  155.9877  140.1173  157.0658 H   0  0  0  0  0  0  0  0  0  0  0  0  # atno 8010 bound_to 7997
  140.4519  143.2480  151.8476 H   0  0  0  0  0  0  0  0  0  0  0  0  # atno 10167 bound_to 10162
  157.5769  131.1078  150.8262 H   0  0  0  0  0  0  0  0  0  0  0  0  # atno 10718 bound_to 10713
  153.6524  135.3360  155.3104 H   0  0  0  0  0  0  0  0  0  0  0  0  # atno 10763 bound_to 10752
  154.8534  135.4344  154.1890 H   0  0  0  0  0  0  0  0  0  0  0  0  # atno 10764 bound_to 10752
  153.2836  135.7011  153.7436 H   0  0  0  0  0  0  0  0  0  0  0  0  # atno 10765 bound_to 10752
  141.1668  133.7125  156.8190 H   0  0  0  0  0  0  0  0  0  0  0  0  # atno 11005 bound_to 11000
  145.2877  141.0158  143.3681 LP  0  0  0  0  0  0  0  0  0  0  0  0  # atno 17320 bound_to 7965
  144.9101  139.4539  143.6591 LP  0  0  0  0  0  0  0  0  0  0  0  0  # atno 17321 bound_to 7965
  139.4797  144.5110  151.8932 LP  0  0  0  0  0  0  0  0  0  0  0  0  # atno 17342 bound_to 10162
  140.4197  144.2260  150.5887 LP  0  0  0  0  0  0  0  0  0  0  0  0  # atno 17343 bound_to 10162
  156.8718  130.5149  149.5296 LP  0  0  0  0  0  0  0  0  0  0  0  0  # atno 17370 bound_to 10713
  156.0814  130.5823  150.9569 LP  0  0  0  0  0  0  0  0  0  0  0  0  # atno 17371 bound_to 10713
  140.2133  134.8811  157.3298 LP  0  0  0  0  0  0  0  0  0  0  0  0  # atno 17394 bound_to 11000
  140.2064  134.4192  155.7635 LP  0  0  0  0  0  0  0  0  0  0  0  0  # atno 17395 bound_to 11000

$$$$
