#       Name:                AV-unprocessed.smi:1123
#       Creating user name   scv26
#       Creation time:       Fri Mar 27 03:39:11 2020


#       File generated by GOLD software.
#

@<TRIPOS>MOLECULE
AV-unprocessed.smi:1123
    44    45     1
SMALL
NO_CHARGES


@<TRIPOS>ATOM
      1 ****        -2.9027  -2.6073   2.7450 C.3            1 S1                 0.0000
      2 ****        -2.7242  -1.3971   1.8057 C.3            1 S1                 0.0000
      3 ****        -1.2592  -0.9469   1.6816 C.2            1 S1                 0.0000
      4 ****        -0.3384  -1.7091   1.9783 O.2            1 S1                 0.0000
      5 ****        -1.0581   0.3048   1.2391 N.am           1 S1                 0.0000
      6 ****         0.2462   0.9234   1.0381 C.3            1 S1                 0.0000
      7 ****         0.8826   0.4724  -0.2902 C.3            1 S1                 0.0000
      8 ****         2.2292   0.9861  -0.5338 N.3            1 S1                 0.0000
      9 ****         2.2517   2.4318  -0.7465 C.3            1 S1                 0.0000
     10 ****         3.6733   2.9486  -1.0306 C.3            1 S1                 0.0000
     11 ****         4.2200   2.2606  -2.1508 O.3            1 S1                 0.0000
     12 ****         4.2590   0.8500  -1.9618 C.3            1 S1                 0.0000
     13 ****         2.8380   0.3291  -1.6858 C.3            1 S1                 0.0000
     14 ****        -3.2944  -1.6401   0.4861 N.pl3          1 S1                 0.0000
     15 ****        -4.0739  -0.8621  -0.2680 C.2            1 S1                 0.0000
     16 ****        -4.3784  -1.3853  -1.4472 N.2            1 S1                 0.0000
     17 ****        -3.6992  -2.5668  -1.3543 C.2            1 S1                 0.0000
     18 ****        -3.0253  -2.7656  -0.2218 N.2            1 S1                 0.0000
     19 ****        -2.5233  -2.3887   3.7437 H              1 S1                 0.0000
     20 ****        -2.3790  -3.4915   2.3791 H              1 S1                 0.0000
     21 ****        -3.9567  -2.8672   2.8464 H              1 S1                 0.0000
     22 ****        -3.2782  -0.5660   2.2452 H              1 S1                 0.0000
     23 ****        -1.8675   0.8667   1.0191 H              1 S1                 0.0000
     24 ****         0.0960   2.0024   1.0482 H              1 S1                 0.0000
     25 ****         0.9047   0.6911   1.8767 H              1 S1                 0.0000
     26 ****         0.9238  -0.6176  -0.2876 H              1 S1                 0.0000
     27 ****         0.2285   0.7438  -1.1202 H              1 S1                 0.0000
     28 ****         1.5995   2.6936  -1.5810 H              1 S1                 0.0000
     29 ****         1.8641   2.9504   0.1293 H              1 S1                 0.0000
     30 ****         3.6532   4.0174  -1.2432 H              1 S1                 0.0000
     31 ****         4.3157   2.8073  -0.1601 H              1 S1                 0.0000
     32 ****         4.6682   0.3812  -2.8566 H              1 S1                 0.0000
     33 ****         4.9283   0.6045  -1.1358 H              1 S1                 0.0000
     34 ****         2.8769  -0.7480  -1.5199 H              1 S1                 0.0000
     35 ****         2.2194   0.4856  -2.5708 H              1 S1                 0.0000
     36 ****        -4.4232   0.1089   0.0507 H              1 S1                 0.0000
     37 ****        -3.6965  -3.2998  -2.1475 H              1 S1                 0.0000
     38 ****        -0.5393  -2.6329   2.3044 LP             1 S1                 0.0000
     39 ****         0.6102  -1.4042   1.8932 LP             1 S1                 0.0000
     40 ****         2.7548   0.7843   0.2927 LP             1 S1                 0.0000
     41 ****         5.1519   2.5889  -2.3046 LP             1 S1                 0.0000
     42 ****         3.6593   2.4606  -2.9542 LP             1 S1                 0.0000
     43 ****        -4.9415  -1.0211  -2.1890 LP             1 S1                 0.0000
     44 ****        -2.4619  -3.5490   0.0407 LP             1 S1                 0.0000
@<TRIPOS>BOND
    1    1    2 1     
    2    1   19 1     
    3    1   20 1     
    4    1   21 1     
    5    2    3 1     
    6    2   14 1     
    7    2   22 1     
    8    3    4 2     
    9    3    5 am    
   10    5    6 1     
   11    5   23 1     
   12    6    7 1     
   13    6   24 1     
   14    6   25 1     
   15    7    8 1     
   16    7   26 1     
   17    7   27 1     
   18    8   13 1     
   19    8    9 1     
   20    9   10 1     
   21    9   28 1     
   22    9   29 1     
   23   10   11 1     
   24   10   30 1     
   25   10   31 1     
   26   11   12 1     
   27   12   13 1     
   28   12   32 1     
   29   12   33 1     
   30   13   34 1     
   31   13   35 1     
   32   14   18 1     
   33   14   15 1     
   34   15   16 2     
   35   15   36 1     
   36   16   17 1     
   37   17   18 2     
   38   17   37 1     
   39    4   38 1     
   40    4   39 1     
   41    8   40 1     
   42   11   41 1     
   43   11   42 1     
   44   16   43 1     
   45   18   44 1     
@<TRIPOS>SUBSTRUCTURE
      1 S1             1
@<TRIPOS>SET
LONE_PAIRS      STATIC     ATOMS    <user>   **** ""
7 38 39 40 41 42 43 44
DONOR_HYDROGENS      STATIC     ATOMS    <user>   **** ""
1 23
ATOM$BLUE        STATIC     ATOMS    COLORGROUP SYSTEM
7 38 39 40 41 42 43 44
ATOM$RED        STATIC     ATOMS    COLORGROUP SYSTEM
1 23
