AV-unprocessed.smi:1137|AV-procd|sdf|4864|dock6
  -GOLD-   22720 3433D 1   1.00000     0.00000
 Structure written by MMmdl.
 17 17  0  0  0  0  0  0  0  0  2 V2000
  152.5947  136.6409  156.5125 O   0  0  0  0  0  0  0  0  0  0  0  0
  152.6892  137.8105  156.0791 C   0  0  0  0  0  0  0  0  0  0  0  0
  153.2084  138.7681  156.6964 O   0  5  0  0  0  0  0  0  0  0  0  0
  152.1388  138.0693  154.6684 C   0  0  1  0  0  0  0  0  0  0  0  0
  151.7796  136.8544  154.0344 O   0  0  0  0  0  0  0  0  0  0  0  0
  150.9725  139.0387  154.8073 C   0  0  0  0  0  0  0  0  0  0  0  0
  151.1286  140.3018  155.4202 C   0  0  0  0  0  0  0  0  0  0  0  0
  150.0130  141.1561  155.5137 C   0  0  0  0  0  0  0  0  0  0  0  0
  148.7842  140.7133  154.9866 C   0  0  0  0  0  0  0  0  0  0  0  0
  148.6207  139.5106  154.3952 N   0  0  0  0  0  0  0  0  0  0  0  0
  149.6963  138.6982  154.3081 C   0  0  0  0  0  0  0  0  0  0  0  0
  152.9212  138.5318  154.0651 H   0  0  0  0  0  0  0  0  0  0  0  0
  151.4512  137.0544  153.1720 H   0  0  0  0  0  0  0  0  0  0  0  0
  152.0866  140.6144  155.8093 H   0  0  0  0  0  0  0  0  0  0  0  0
  150.0987  142.1282  155.9759 H   0  0  0  0  0  0  0  0  0  0  0  0
  147.9084  141.3428  155.0409 H   0  0  0  0  0  0  0  0  0  0  0  0
  149.5317  137.7460  153.8256 H   0  0  0  0  0  0  0  0  0  0  0  0
  1  2  2  0  0  0  0
  2  3  1  0  0  0  0
  2  4  1  0  0  0  0
  4  5  1  0  0  0  0
  4  6  1  0  0  0  0
  4 12  1  0  0  0  0
  5 13  1  0  0  0  0
  6 11  1  0  0  0  0
  6  7  2  0  0  0  0
  7  8  1  0  0  0  0
  7 14  1  0  0  0  0
  8  9  2  0  0  0  0
  8 15  1  0  0  0  0
  9 10  1  0  0  0  0
  9 16  1  0  0  0  0
 10 11  2  0  0  0  0
 11 17  1  0  0  0  0
M  CHG  1   3  -1
M  END
> <s_m_source_file>
AV-unprocessed.smi

> <i_m_source_file_index>
1137

> <i_lp_mmshare_version>
43012

> <i_f3d_flags>
0

> <s_epik_input>
Tz1DKFtPSF0pW0NASF0oW09IXSljMVtjSF1bY0hdW2NIXW5bY0hdMQ==

> <s_epik_cmdline>
J2VwaWtfcHl0aG9uJywgJy1waCcsICc3LjAnLCAnLXRuJywgJzgnLCAnLW1hJywgJzIwMCcsICctbWV0YWxfYmluZGluZycsICctaW1hZScsICc8aW5maWxlLm1hZT4nLCAnLW9tYWUnLCAnPG91dGZpbGUubWFlPic=

> <r_epik_Ionization_Penalty>
0.0193563

> <r_epik_Ionization_Penalty_Charging>
9.29916e-05

> <r_epik_Ionization_Penalty_Neutral>
0.0192633

> <r_epik_State_Penalty>
0.0153745

> <r_epik_Charging_Adjusted_Penalty>
0.0154675

> <i_epik_Tot_Q>
-1

> <i_epik_Tot_abs_Q>
1

> <r_epik_Metal_State_Penalty>
1.55756e-05

> <b_epik_Metal_Only>
0

> <s_lp_Force_Field>
OPLS_2005

> <r_lp_Energy>
6.08913

> <b_lp_Chiralities_Consistent>
1

> <s_lp_Variant>
AV-unprocessed.smi:1137-2

> <Gold.Version>
5.8.1

> <Gold.Id.Protein>
6NUR|6NUR_protein|mol2

> <Gold.PLP.Fitness>
39.8753

> <Gold.PLP.PLP>
-21.6982

> <Gold.PLP.part.hbond>
-4.0000

> <Gold.PLP.part.metal>
0.0000

> <Gold.PLP.part.buried>
-2.3630

> <Gold.PLP.part.nonpolar>
-17.1318

> <Gold.PLP.part.repulsive>
0.1333

> <Gold.PLP.ligand.clash>
0.0000

> <Gold.PLP.ligand.torsion>
0.1042

> <Gold.PLP.Chemscore.Hbond>
5.1200

> <Gold.PLP.Chemscore.CHOScore>
1.0000

> <Gold.PLP.Chemscore.Metal>
0.0000

> <Gold.Chemscore.Hbonds>
donor molecule, donor type, donor heavy atom, donor atom, acceptor molecule, acceptor atom, score
      L1  H     5    13       P1  7949  0.69
      P1  H  7997  8010       L1     3  2.00
      P1  H 10752 10763       L1     5  0.53
      P1  H 10752 10764       L1     1  1.92
      L1  C    11    17       P1  7948  1.00

> <Gold.PLP.Chemscore.Internal.Correction>
0.0256

> <Gold.Rescore>
     Score         DG    S(hbond)    S(metal)    S(lipo)     H(rot)  DE(clash)    DE(int)     intcor
     13.47     -14.74       2.99        0.00      39.77       2.10       0.08       1.18       ----

> <Gold.Chemscore.Fitness>
13.4717

> <Gold.Chemscore.DG>
-14.7352

> <Gold.Chemscore.ZeroCoef>
-5.4800

> <Gold.Chemscore.Hbond>
2.9862

> <Gold.Chemscore.Metal>
0.0000

> <Gold.Chemscore.Lipo>
39.7712

> <Gold.Chemscore.Internal_Hbond>
0.0000

> <Gold.Chemscore.DEClash>
0.0811

> <Gold.Chemscore.DEInternal>
1.1824

> <Gold.Chemscore.Rot>
2.0984

> <Gold.Chemscore.Internal.Correction>
   9.000000E+99

> <Gold.Chemscore.Hbonds>
donor molecule, donor type, donor heavy atom, donor atom, acceptor molecule, acceptor atom, score
      L1  H     5    13       P1  7949  0.55
      P1  H  7997  8010       L1     3  0.96
      P1  H 10752 10763       L1     5  0.18
      P1  H 10752 10764       L1     1  0.68

> <Gold.Chemscore.Hbond.Weighted>
-9.9739

> <Gold.Chemscore.Metal.Weighted>
-0.0000

> <Gold.Chemscore.Lipo.Weighted>
-4.6532

> <Gold.Chemscore.Internal_Hbond.Weighted>
0.0000

> <Gold.Chemscore.DEClash.Weighted>
0.0811

> <Gold.Chemscore.DEInternal.Weighted>
1.1824

> <Gold.Chemscore.Rot.Weighted>
5.3719

> <Gold.Chemscore.Internal.Correction.Weighted>
   9.000000E+99

> <Gold.Protein.RotatedTorsions>
[ 6907 6896 6895 6894 ] final   98.20 input  -60.11 | X-H torsion
[ 7974 7965 7964 7962 ] final  102.30 input  175.53 | X-H torsion
[ 8008 7997 7996 7995 ] final   73.80 input   59.86 | X-H torsion
[ 10167 10162 10161 10158 ] final  -84.62 input  -65.29 | X-H torsion
[ 10718 10713 10712 10709 ] final -110.08 input   66.30 | X-H torsion
[ 10763 10752 10751 10750 ] final   -2.99 input  -60.55 | X-H torsion
[ 11005 11000 10999 10996 ] final    6.55 input  -57.11 | X-H torsion

> <Gold.Protein.ActiveResidues>
 VAL166  LYS551  ARG553  GLY616  TRP617  ASP618  TYR619  PRO620  LYS621  CYS622 
 ASP623  PHE694  ASN695  SER759  ASP760  ASP761  ALA762  ILE779  LEU786  VAL792 
 PHE793  MET794  SER795  GLU796  ALA797  LYS798  CYS799  TRP800  GLU811  SER814 

> <Gold.Protein.RotatedAtoms>
  152.5412  134.0616  159.8154 H   0  0  0  0  0  0  0  0  0  0  0  0  # atno 6907 bound_to 6896
  151.0743  133.5433  159.2632 H   0  0  0  0  0  0  0  0  0  0  0  0  # atno 6908 bound_to 6896
  151.2284  135.0553  159.9032 H   0  0  0  0  0  0  0  0  0  0  0  0  # atno 6909 bound_to 6896
  145.3609  139.2418  143.3507 H   0  0  0  0  0  0  0  0  0  0  0  0  # atno 7974 bound_to 7965
  155.7889  140.3480  155.5338 H   0  0  0  0  0  0  0  0  0  0  0  0  # atno 8008 bound_to 7997
  155.8653  140.0978  157.1606 H   0  0  0  0  0  0  0  0  0  0  0  0  # atno 8009 bound_to 7997
  154.4014  140.1350  156.3999 H   0  0  0  0  0  0  0  0  0  0  0  0  # atno 8010 bound_to 7997
  140.4115  143.2621  151.9011 H   0  0  0  0  0  0  0  0  0  0  0  0  # atno 10167 bound_to 10162
  156.0571  130.5797  150.8188 H   0  0  0  0  0  0  0  0  0  0  0  0  # atno 10718 bound_to 10713
  153.3654  135.6992  153.6679 H   0  0  0  0  0  0  0  0  0  0  0  0  # atno 10763 bound_to 10752
  153.5351  135.3584  155.2694 H   0  0  0  0  0  0  0  0  0  0  0  0  # atno 10764 bound_to 10752
  154.8674  135.4190  154.2920 H   0  0  0  0  0  0  0  0  0  0  0  0  # atno 10765 bound_to 10752
  140.5582  134.0218  155.7962 H   0  0  0  0  0  0  0  0  0  0  0  0  # atno 11005 bound_to 11000
  146.2927  140.4243  142.8733 LP  0  0  0  0  0  0  0  0  0  0  0  0  # atno 17320 bound_to 7965
  144.8647  140.7189  143.6085 LP  0  0  0  0  0  0  0  0  0  0  0  0  # atno 17321 bound_to 7965
  139.4782  144.5532  151.8354 LP  0  0  0  0  0  0  0  0  0  0  0  0  # atno 17342 bound_to 10162
  140.4632  144.1692  150.5909 LP  0  0  0  0  0  0  0  0  0  0  0  0  # atno 17343 bound_to 10162
  157.5550  131.0945  150.9641 LP  0  0  0  0  0  0  0  0  0  0  0  0  # atno 17370 bound_to 10713
  156.9892  130.5557  149.5302 LP  0  0  0  0  0  0  0  0  0  0  0  0  # atno 17371 bound_to 10713
  141.1130  133.9585  157.2874 LP  0  0  0  0  0  0  0  0  0  0  0  0  # atno 17394 bound_to 11000
  139.9421  135.0189  156.8740 LP  0  0  0  0  0  0  0  0  0  0  0  0  # atno 17395 bound_to 11000

$$$$
