#       Name:                AV-unprocessed.smi:1465
#       Creating user name   scv26
#       Creation time:       Fri Mar 27 06:03:31 2020


#       File generated by GOLD software.
#

@<TRIPOS>MOLECULE
AV-unprocessed.smi:1465
    60    61     1
SMALL
NO_CHARGES


@<TRIPOS>ATOM
      1 ****        -4.7027  -4.8970   2.1999 C.3            1 S1                 0.0000
      2 ****        -4.4014  -4.4601   0.8867 O.3            1 S1                 0.0000
      3 ****        -5.5646  -4.2136   0.1135 C.3            1 S1                 0.0000
      4 ****        -5.1546  -3.7577  -1.2962 C.3            1 S1                 0.0000
      5 ****        -4.5323  -2.4260  -1.2809 N.am           1 S1                 0.0000
      6 ****        -3.1267  -2.3794  -1.2065 C.2            1 S1                 0.0000
      7 ****        -2.4428  -1.2184  -1.1823 C.2            1 S1                 0.0000
      8 ****        -0.9812  -1.2408  -1.0895 C.2            1 S1                 0.0000
      9 ****        -0.3016  -2.2656  -1.0123 O.2            1 S1                 0.0000
     10 ****        -0.4202  -0.0189  -1.0908 N.am           1 S1                 0.0000
     11 ****         1.0102   0.2570  -0.9972 C.3            1 S1                 0.0000
     12 ****         1.4753   0.2364   0.4699 C.3            1 S1                 0.0000
     13 ****         2.9570   0.6295   0.5905 C.3            1 S1                 0.0000
     14 ****         3.2115   1.9612  -0.0205 N.4            1 S1                 1.0000
     15 ****         4.6022   2.4440   0.1816 C.3            1 S1                 0.0000
     16 ****         4.8406   3.0214   1.5937 C.3            1 S1                 0.0000
     17 ****         3.9741   4.2643   1.8578 C.3            1 S1                 0.0000
     18 ****         6.3264   3.3525   1.7980 C.3            1 S1                 0.0000
     19 ****         2.8052   1.9907  -1.4493 C.3            1 S1                 0.0000
     20 ****         1.3189   1.6309  -1.6125 C.3            1 S1                 0.0000
     21 ****        -3.2177   0.0125  -1.2394 C.2            1 S1                 0.0000
     22 ****        -4.5633  -0.0270  -1.3016 C.2            1 S1                 0.0000
     23 ****        -5.2988  -1.2949  -1.3169 C.2            1 S1                 0.0000
     24 ****        -6.5287  -1.3353  -1.3586 O.2            1 S1                 0.0000
     25 ****        -3.7771  -5.0721   2.7483 H              1 S1                 0.0000
     26 ****        -5.2675  -5.8301   2.1862 H              1 S1                 0.0000
     27 ****        -5.2788  -4.1465   2.7426 H              1 S1                 0.0000
     28 ****        -6.1526  -5.1298   0.0418 H              1 S1                 0.0000
     29 ****        -6.1931  -3.4626   0.5949 H              1 S1                 0.0000
     30 ****        -4.4805  -4.4925  -1.7387 H              1 S1                 0.0000
     31 ****        -6.0308  -3.7553  -1.9467 H              1 S1                 0.0000
     32 ****        -2.6530  -3.3504  -1.1608 H              1 S1                 0.0000
     33 ****        -1.0357   0.7786  -1.1585 H              1 S1                 0.0000
     34 ****         1.5610  -0.5005  -1.5587 H              1 S1                 0.0000
     35 ****         0.8695   0.9248   1.0612 H              1 S1                 0.0000
     36 ****         1.3244  -0.7547   0.8995 H              1 S1                 0.0000
     37 ****         3.2343   0.6350   1.6439 H              1 S1                 0.0000
     38 ****         3.5826  -0.1211   0.1048 H              1 S1                 0.0000
     39 ****         5.2979   1.6292  -0.0254 H              1 S1                 0.0000
     40 ****         4.8293   3.2253  -0.5455 H              1 S1                 0.0000
     41 ****         4.5820   2.2688   2.3380 H              1 S1                 0.0000
     42 ****         4.1910   5.0585   1.1424 H              1 S1                 0.0000
     43 ****         4.1537   4.6615   2.8573 H              1 S1                 0.0000
     44 ****         2.9108   4.0337   1.7880 H              1 S1                 0.0000
     45 ****         6.6658   4.1107   1.0915 H              1 S1                 0.0000
     46 ****         6.9497   2.4683   1.6620 H              1 S1                 0.0000
     47 ****         6.5108   3.7309   2.8039 H              1 S1                 0.0000
     48 ****         2.9765   2.9863  -1.8610 H              1 S1                 0.0000
     49 ****         3.4265   1.2991  -2.0209 H              1 S1                 0.0000
     50 ****         1.0528   1.6355  -2.6703 H              1 S1                 0.0000
     51 ****         0.7069   2.3986  -1.1360 H              1 S1                 0.0000
     52 ****        -2.7384   0.9804  -1.2319 H              1 S1                 0.0000
     53 ****        -5.1172   0.8997  -1.3422 H              1 S1                 0.0000
     54 ****         2.6127   2.6227   0.4527 H              1 S1                 0.0000
     55 ****        -3.8577  -5.1651   0.4315 LP             1 S1                 0.0000
     56 ****        -3.8701  -3.6148   0.9444 LP             1 S1                 0.0000
     57 ****        -0.7461  -3.1613  -1.0102 LP             1 S1                 0.0000
     58 ****         0.6945  -2.2016  -0.9517 LP             1 S1                 0.0000
     59 ****        -7.0000  -2.2172  -1.3671 LP             1 S1                 0.0000
     60 ****        -7.0563  -0.4861  -1.3840 LP             1 S1                 0.0000
@<TRIPOS>BOND
    1    1    2 1     
    2    1   25 1     
    3    1   26 1     
    4    1   27 1     
    5    2    3 1     
    6    3    4 1     
    7    3   28 1     
    8    3   29 1     
    9    4    5 1     
   10    4   30 1     
   11    4   31 1     
   12    5   23 am    
   13    5    6 1     
   14    6    7 2     
   15    6   32 1     
   16    7    8 1     
   17    7   21 1     
   18    8    9 2     
   19    8   10 am    
   20   10   11 1     
   21   10   33 1     
   22   11   20 1     
   23   11   12 1     
   24   11   34 1     
   25   12   13 1     
   26   12   35 1     
   27   12   36 1     
   28   13   14 1     
   29   13   37 1     
   30   13   38 1     
   31   14   15 1     
   32   14   19 1     
   33   14   54 1     
   34   15   16 1     
   35   15   39 1     
   36   15   40 1     
   37   16   17 1     
   38   16   18 1     
   39   16   41 1     
   40   17   42 1     
   41   17   43 1     
   42   17   44 1     
   43   18   45 1     
   44   18   46 1     
   45   18   47 1     
   46   19   20 1     
   47   19   48 1     
   48   19   49 1     
   49   20   50 1     
   50   20   51 1     
   51   21   22 2     
   52   21   52 1     
   53   22   23 1     
   54   22   53 1     
   55   23   24 2     
   56    2   55 1     
   57    2   56 1     
   58    9   57 1     
   59    9   58 1     
   60   24   59 1     
   61   24   60 1     
@<TRIPOS>SUBSTRUCTURE
      1 S1             1
@<TRIPOS>SET
LONE_PAIRS      STATIC     ATOMS    <user>   **** ""
6 55 56 57 58 59 60
DONOR_HYDROGENS      STATIC     ATOMS    <user>   **** ""
2 33 54
ATOM$BLUE        STATIC     ATOMS    COLORGROUP SYSTEM
6 55 56 57 58 59 60
ATOM$RED        STATIC     ATOMS    COLORGROUP SYSTEM
2 33 54
