AV-unprocessed.smi:657|AV-procd|sdf|3224|dock8
  -GOLD-   22720 0163D 1   1.00000     0.00000
 Structure written by MMmdl.
 46 47  0  0  0  0  0  0  0  0  1 V2000
  147.1549  134.9430  154.8261 C   0  0  0  0  0  0  0  0  0  0  0  0
  145.6258  134.8664  154.6379 C   0  0  0  0  0  0  0  0  0  0  0  0
  144.9612  134.0110  155.7329 C   0  0  0  0  0  0  0  0  0  0  0  0
  145.2187  134.4266  153.2839 N   0  0  0  0  0  0  0  0  0  0  0  0
  145.4762  132.9980  153.0297 C   0  0  0  0  0  0  0  0  0  0  0  0
  144.7769  132.5301  151.7423 C   0  0  0  0  0  0  0  0  0  0  0  0
  145.2559  133.3382  150.5350 C   0  0  0  0  0  0  0  0  0  0  0  0
  145.0513  134.8282  150.8163 C   0  0  0  0  0  0  0  0  0  0  0  0
  145.7348  135.2477  152.1390 C   0  0  1  0  0  0  0  0  0  0  0  0
  145.5964  136.7722  152.3198 C   0  0  0  0  0  0  0  0  0  0  0  0
  144.5029  137.2710  152.5880 O   0  0  0  0  0  0  0  0  0  0  0  0
  146.7210  137.4930  152.1958 N   0  0  0  0  0  0  0  0  0  0  0  0
  146.8099  138.9375  152.3600 C   0  0  0  0  0  0  0  0  0  0  0  0
  147.0831  139.2956  153.8269 C   0  0  0  0  0  0  0  0  0  0  0  0
  148.5562  139.4245  154.0966 C   0  0  0  0  0  0  0  0  0  0  0  0
  149.2892  140.6069  154.4013 C   0  0  0  0  0  0  0  0  0  0  0  0
  150.5806  140.3803  154.5803 N   0  0  0  0  0  0  0  0  0  0  0  0
  150.7167  139.0511  154.3961 N   0  0  0  0  0  0  0  0  0  0  0  0
  152.0255  138.4451  154.5147 C   0  0  0  0  0  0  0  0  0  0  0  0
  149.5121  138.4481  154.1047 C   0  0  0  0  0  0  0  0  0  0  0  0
  147.3982  135.3600  155.8035 H   0  0  0  0  0  0  0  0  0  0  0  0
  147.6270  135.5823  154.0810 H   0  0  0  0  0  0  0  0  0  0  0  0
  147.6234  133.9604  154.7725 H   0  0  0  0  0  0  0  0  0  0  0  0
  145.2274  135.8638  154.8156 H   0  0  0  0  0  0  0  0  0  0  0  0
  145.0861  134.4789  156.7097 H   0  0  0  0  0  0  0  0  0  0  0  0
  145.3923  133.0131  155.8069 H   0  0  0  0  0  0  0  0  0  0  0  0
  143.8899  133.9067  155.5588 H   0  0  0  0  0  0  0  0  0  0  0  0
  146.5480  132.8117  152.9503 H   0  0  0  0  0  0  0  0  0  0  0  0
  145.1104  132.3774  153.8453 H   0  0  0  0  0  0  0  0  0  0  0  0
  144.9739  131.4704  151.5770 H   0  0  0  0  0  0  0  0  0  0  0  0
  143.6962  132.6310  151.8519 H   0  0  0  0  0  0  0  0  0  0  0  0
  146.3112  133.1365  150.3474 H   0  0  0  0  0  0  0  0  0  0  0  0
  144.7116  133.0421  149.6376 H   0  0  0  0  0  0  0  0  0  0  0  0
  145.4449  135.4104  149.9816 H   0  0  0  0  0  0  0  0  0  0  0  0
  143.9814  135.0388  150.8622 H   0  0  0  0  0  0  0  0  0  0  0  0
  146.8008  135.0387  152.0298 H   0  0  0  0  0  0  0  0  0  0  0  0
  147.5769  137.0029  151.9797 H   0  0  0  0  0  0  0  0  0  0  0  0
  147.6102  139.3145  151.7217 H   0  0  0  0  0  0  0  0  0  0  0  0
  145.8849  139.4156  152.0328 H   0  0  0  0  0  0  0  0  0  0  0  0
  146.5692  140.2265  154.0706 H   0  0  0  0  0  0  0  0  0  0  0  0
  146.6426  138.5358  154.4738 H   0  0  0  0  0  0  0  0  0  0  0  0
  148.9226  141.6186  154.4946 H   0  0  0  0  0  0  0  0  0  0  0  0
  151.9581  137.3718  154.3343 H   0  0  0  0  0  0  0  0  0  0  0  0
  152.4207  138.6122  155.5171 H   0  0  0  0  0  0  0  0  0  0  0  0
  152.7034  138.8854  153.7829 H   0  0  0  0  0  0  0  0  0  0  0  0
  149.4347  137.3856  153.9260 H   0  0  0  0  0  0  0  0  0  0  0  0
  1  2  1  0  0  0  0
  1 21  1  0  0  0  0
  1 22  1  0  0  0  0
  1 23  1  0  0  0  0
  2  3  1  0  0  0  0
  2  4  1  0  0  0  0
  2 24  1  0  0  0  0
  3 25  1  0  0  0  0
  3 26  1  0  0  0  0
  3 27  1  0  0  0  0
  4  9  1  0  0  0  0
  4  5  1  0  0  0  0
  5  6  1  0  0  0  0
  5 28  1  0  0  0  0
  5 29  1  0  0  0  0
  6  7  1  0  0  0  0
  6 30  1  0  0  0  0
  6 31  1  0  0  0  0
  7  8  1  0  0  0  0
  7 32  1  0  0  0  0
  7 33  1  0  0  0  0
  8  9  1  0  0  0  0
  8 34  1  0  0  0  0
  8 35  1  0  0  0  0
  9 10  1  0  0  0  0
  9 36  1  0  0  0  0
 10 11  2  0  0  0  0
 10 12  1  0  0  0  0
 12 13  1  0  0  0  0
 12 37  1  0  0  0  0
 13 14  1  0  0  0  0
 13 38  1  0  0  0  0
 13 39  1  0  0  0  0
 14 15  1  0  0  0  0
 14 40  1  0  0  0  0
 14 41  1  0  0  0  0
 15 20  2  0  0  0  0
 15 16  1  0  0  0  0
 16 17  2  0  0  0  0
 16 42  1  0  0  0  0
 17 18  1  0  0  0  0
 18 19  1  0  0  0  0
 18 20  1  0  0  0  0
 19 43  1  0  0  0  0
 19 44  1  0  0  0  0
 19 45  1  0  0  0  0
 20 46  1  0  0  0  0
M  END
> <s_m_source_file>
AV-unprocessed.smi

> <i_m_source_file_index>
657

> <i_lp_mmshare_version>
43012

> <i_f3d_flags>
0

> <s_epik_input>
W0NIM11bQ0hdKFtDSDNdKU4xW0NIMl1bQ0gyXVtDSDJdW0NIMl1bQ0BIXTFDKD1PKVtOSF1bQ0gyXVtDSDJdYzJbY0hdbm4oW0NIM10pW2NIXTI=

> <s_epik_cmdline>
J2VwaWtfcHl0aG9uJywgJy1waCcsICc3LjAnLCAnLXRuJywgJzgnLCAnLW1hJywgJzIwMCcsICctbWV0YWxfYmluZGluZycsICctaW1hZScsICc8aW5maWxlLm1hZT4nLCAnLW9tYWUnLCAnPG91dGZpbGUubWFlPic=

> <r_lp_tautomer_probability>
1

> <r_epik_Ionization_Penalty>
1.91154

> <r_epik_Ionization_Penalty_Charging>
0

> <r_epik_Ionization_Penalty_Neutral>
1.91154

> <r_epik_State_Penalty>
2.0331

> <r_epik_Charging_Adjusted_Penalty>
2.0331

> <i_epik_Tot_Q>
0

> <i_epik_Tot_abs_Q>
0

> <r_epik_Metal_State_Penalty>
2.04973

> <b_epik_Metal_Only>
0

> <s_lp_Force_Field>
OPLS_2005

> <r_lp_Energy>
17.3109

> <b_lp_Chiralities_Consistent>
1

> <s_lp_Variant>
AV-unprocessed.smi:657-5

> <Gold.Version>
5.8.1

> <Gold.Id.Protein>
6NUR|6NUR_protein|mol2

> <Gold.PLP.Fitness>
39.6384

> <Gold.PLP.PLP>
-31.9315

> <Gold.PLP.part.hbond>
-2.0000

> <Gold.PLP.part.metal>
0.0000

> <Gold.PLP.part.buried>
-3.4209

> <Gold.PLP.part.nonpolar>
-27.1214

> <Gold.PLP.part.repulsive>
0.4554

> <Gold.PLP.ligand.clash>
0.0000

> <Gold.PLP.ligand.torsion>
0.6515

> <Gold.PLP.Chemscore.Hbond>
2.0000

> <Gold.PLP.Chemscore.CHOScore>
0.9662

> <Gold.PLP.Chemscore.Metal>
0.0000

> <Gold.Chemscore.Hbonds>
donor molecule, donor type, donor heavy atom, donor atom, acceptor molecule, acceptor atom, score
      L1  H    12    37       P1  7948  1.00
      P1  H  7989  7998       L1    17  0.95
      L1  C    20    46       P1  7948  0.97

> <Gold.PLP.Chemscore.Internal.Correction>
0.1113

> <Gold.Rescore>
     Score         DG    S(hbond)    S(metal)    S(lipo)     H(rot)  DE(clash)    DE(int)     intcor
     14.89     -15.67       1.80        0.00      70.16       1.57       0.00       0.78       ----

> <Gold.Chemscore.Fitness>
14.8867

> <Gold.Chemscore.DG>
-15.6671

> <Gold.Chemscore.ZeroCoef>
-5.4800

> <Gold.Chemscore.Hbond>
1.7983

> <Gold.Chemscore.Metal>
0.0000

> <Gold.Chemscore.Lipo>
70.1631

> <Gold.Chemscore.Internal_Hbond>
0.0000

> <Gold.Chemscore.DEClash>
0.0015

> <Gold.Chemscore.DEInternal>
0.7789

> <Gold.Chemscore.Rot>
1.5736

> <Gold.Chemscore.Internal.Correction>
   9.000000E+99

> <Gold.Chemscore.Hbonds>
donor molecule, donor type, donor heavy atom, donor atom, acceptor molecule, acceptor atom, score
      L1  H    12    37       P1  7948  0.96
      P1  H  7989  7998       L1    17  0.20

> <Gold.Chemscore.Hbond.Weighted>
-6.0064

> <Gold.Chemscore.Metal.Weighted>
-0.0000

> <Gold.Chemscore.Lipo.Weighted>
-8.2091

> <Gold.Chemscore.Internal_Hbond.Weighted>
0.0000

> <Gold.Chemscore.DEClash.Weighted>
0.0015

> <Gold.Chemscore.DEInternal.Weighted>
0.7789

> <Gold.Chemscore.Rot.Weighted>
4.0284

> <Gold.Chemscore.Internal.Correction.Weighted>
   9.000000E+99

> <Gold.Protein.RotatedTorsions>
[ 6907 6896 6895 6894 ] final   91.31 input  -60.11 | X-H torsion
[ 7974 7965 7964 7962 ] final -115.36 input  175.53 | X-H torsion
[ 8008 7997 7996 7995 ] final -104.87 input   59.86 | X-H torsion
[ 10167 10162 10161 10158 ] final  176.21 input  -65.29 | X-H torsion
[ 10718 10713 10712 10709 ] final   63.32 input   66.30 | X-H torsion
[ 10763 10752 10751 10750 ] final -139.66 input  -60.55 | X-H torsion
[ 11005 11000 10999 10996 ] final   75.21 input  -57.11 | X-H torsion

> <Gold.Protein.ActiveResidues>
 VAL166  LYS551  ARG553  GLY616  TRP617  ASP618  TYR619  PRO620  LYS621  CYS622 
 ASP623  PHE694  ASN695  SER759  ASP760  ASP761  ALA762  ILE779  LEU786  VAL792 
 PHE793  MET794  SER795  GLU796  ALA797  LYS798  CYS799  TRP800  GLU811  SER814 

> <Gold.Protein.RotatedAtoms>
  152.5449  134.1676  159.8583 H   0  0  0  0  0  0  0  0  0  0  0  0  # atno 6907 bound_to 6896
  151.1689  133.4790  159.2601 H   0  0  0  0  0  0  0  0  0  0  0  0  # atno 6908 bound_to 6896
  151.1296  135.0134  159.8631 H   0  0  0  0  0  0  0  0  0  0  0  0  # atno 6909 bound_to 6896
  145.1093  140.8601  143.3879 H   0  0  0  0  0  0  0  0  0  0  0  0  # atno 7974 bound_to 7965
  154.8916  140.0416  157.1841 H   0  0  0  0  0  0  0  0  0  0  0  0  # atno 8008 bound_to 7997
  154.8535  140.2933  155.5562 H   0  0  0  0  0  0  0  0  0  0  0  0  # atno 8009 bound_to 7997
  156.2996  140.2460  156.3498 H   0  0  0  0  0  0  0  0  0  0  0  0  # atno 8010 bound_to 7997
  139.5205  144.2942  152.0436 H   0  0  0  0  0  0  0  0  0  0  0  0  # atno 10167 bound_to 10162
  157.5963  130.9099  149.9701 H   0  0  0  0  0  0  0  0  0  0  0  0  # atno 10718 bound_to 10713
  154.8602  135.3576  154.5581 H   0  0  0  0  0  0  0  0  0  0  0  0  # atno 10763 bound_to 10752
  153.6197  135.7006  153.5320 H   0  0  0  0  0  0  0  0  0  0  0  0  # atno 10764 bound_to 10752
  153.3139  135.4170  155.1319 H   0  0  0  0  0  0  0  0  0  0  0  0  # atno 10765 bound_to 10752
  139.9354  134.7498  156.1242 H   0  0  0  0  0  0  0  0  0  0  0  0  # atno 11005 bound_to 11000
  145.0865  139.2921  143.5756 LP  0  0  0  0  0  0  0  0  0  0  0  0  # atno 17320 bound_to 7965
  146.3527  140.0389  142.8644 LP  0  0  0  0  0  0  0  0  0  0  0  0  # atno 17321 bound_to 7965
  140.2392  144.4287  150.6267 LP  0  0  0  0  0  0  0  0  0  0  0  0  # atno 17342 bound_to 10162
  140.6302  143.2186  151.6511 LP  0  0  0  0  0  0  0  0  0  0  0  0  # atno 17343 bound_to 10162
  156.1026  130.3655  150.0190 LP  0  0  0  0  0  0  0  0  0  0  0  0  # atno 17370 bound_to 10713
  156.8303  130.9390  151.3637 LP  0  0  0  0  0  0  0  0  0  0  0  0  # atno 17371 bound_to 10713
  141.0966  133.6693  156.2658 LP  0  0  0  0  0  0  0  0  0  0  0  0  # atno 17394 bound_to 11000
  140.6089  134.5479  157.5530 LP  0  0  0  0  0  0  0  0  0  0  0  0  # atno 17395 bound_to 11000

$$$$
