#       Name:                AV-unprocessed.smi:218
#       Creating user name   scv26
#       Creation time:       Thu Mar 26 20:09:58 2020


#       File generated by GOLD software.
#

@<TRIPOS>MOLECULE
AV-unprocessed.smi:218
    68    71     1
SMALL
NO_CHARGES


@<TRIPOS>ATOM
      1 ****        -3.3367   5.8866  -3.9181 C.3            1 S1                 0.0000
      2 ****        -3.8531   5.5037  -2.5259 C.3            1 S1                 0.0000
      3 ****        -3.5129   6.5884  -1.4892 C.3            1 S1                 0.0000
      4 ****        -3.2272   4.2673  -2.1766 O.3            1 S1                 0.0000
      5 ****        -3.7789   3.4617  -1.1990 C.ar           1 S1                 0.0000
      6 ****        -3.0997   2.2771  -0.8483 C.ar           1 S1                 0.0000
      7 ****        -3.6491   1.4436   0.1494 C.ar           1 S1                 0.0000
      8 ****        -2.9649   0.1547   0.5637 C.3            1 S1                 0.0000
      9 ****        -1.5143   0.2612   0.6540 N.pl3          1 S1                 0.0000
     10 ****        -0.7775  -0.8128   1.0090 C.ar           1 S1                 0.0000
     11 ****        -1.3703  -1.9917   1.3302 N.ar           1 S1                 0.0000
     12 ****        -0.6208  -3.0377   1.6881 C.ar           1 S1                 0.0000
     13 ****         0.7078  -3.1170   1.7831 N.ar           1 S1                 0.0000
     14 ****         1.3138  -1.9384   1.4527 C.ar           1 S1                 0.0000
     15 ****         0.6389  -0.7464   1.0640 C.ar           1 S1                 0.0000
     16 ****         1.5613   0.2610   0.8214 N.2            1 S1                 0.0000
     17 ****         2.7131  -0.3042   1.0599 C.2            1 S1                 0.0000
     18 ****         2.6648  -1.6357   1.4177 N.pl3          1 S1                 0.0000
     19 ****         3.8280  -2.5205   1.7810 C.3            1 S1                 0.0000
     20 ****         3.4041  -3.8494   1.8099 O.3            1 S1                 0.0000
     21 ****         3.6505  -4.4481   0.5453 C.3            1 S1                 0.0000
     22 ****         3.5147  -5.9793   0.6193 C.3            1 S1                 0.0000
     23 ****         3.7191  -6.5536  -0.6543 O.3            1 S1                 0.0000
     24 ****         5.0299  -3.8796   0.1912 C.3            1 S1                 0.0000
     25 ****         6.0582  -4.6124   0.8374 O.3            1 S1                 0.0000
     26 ****         4.9240  -2.4381   0.6945 C.3            1 S1                 0.0000
     27 ****         6.1545  -1.9300   1.1765 O.3            1 S1                 0.0000
     28 ****        -4.8663   1.8254   0.7481 C.ar           1 S1                 0.0000
     29 ****        -5.4733   3.0250   0.3295 C.ar           1 S1                 0.0000
     30 ****        -4.9487   3.8289  -0.6191 N.ar           1 S1                 0.0000
     31 ****         4.1336  -2.1773   2.7701 H              1 S1                 0.0000
     32 ****         2.9115  -4.0589  -0.1584 H              1 S1                 0.0000
     33 ****         5.2154  -3.9142  -0.8829 H              1 S1                 0.0000
     34 ****         4.5849  -1.8072  -0.1278 H              1 S1                 0.0000
     35 ****        -3.7809   6.8224  -4.2586 H              1 S1                 0.0000
     36 ****        -3.5836   5.1174  -4.6503 H              1 S1                 0.0000
     37 ****        -2.2534   6.0104  -3.9181 H              1 S1                 0.0000
     38 ****        -4.9352   5.3886  -2.6043 H              1 S1                 0.0000
     39 ****        -3.9548   7.5453  -1.7678 H              1 S1                 0.0000
     40 ****        -2.4350   6.7308  -1.4088 H              1 S1                 0.0000
     41 ****        -3.8871   6.3339  -0.4981 H              1 S1                 0.0000
     42 ****        -2.1747   2.0178  -1.3421 H              1 S1                 0.0000
     43 ****        -3.3604  -0.1627   1.5297 H              1 S1                 0.0000
     44 ****        -3.2258  -0.6177  -0.1610 H              1 S1                 0.0000
     45 ****        -1.1173   1.1598   0.4196 H              1 S1                 0.0000
     46 ****        -1.1615  -3.9400   1.9330 H              1 S1                 0.0000
     47 ****         3.6414   0.2423   0.9770 H              1 S1                 0.0000
     48 ****         4.2146  -6.4130   1.3339 H              1 S1                 0.0000
     49 ****         2.5130  -6.2443   0.9582 H              1 S1                 0.0000
     50 ****         4.6099  -6.3819  -0.9193 H              1 S1                 0.0000
     51 ****         6.8748  -4.1538   0.7093 H              1 S1                 0.0000
     52 ****         6.0137  -1.0508   1.4934 H              1 S1                 0.0000
     53 ****        -5.3271   1.2158   1.5114 H              1 S1                 0.0000
     54 ****        -6.4061   3.3472   0.7679 H              1 S1                 0.0000
     55 ****        -2.2991   4.4888  -1.8773 LP             1 S1                 0.0000
     56 ****        -3.1861   3.7192  -3.0121 LP             1 S1                 0.0000
     57 ****        -2.3662  -2.0765   1.2988 LP             1 S1                 0.0000
     58 ****         1.2009  -3.9408   2.0627 LP             1 S1                 0.0000
     59 ****         1.3847   1.2015   0.5312 LP             1 S1                 0.0000
     60 ****         2.4251  -3.8835   2.0106 LP             1 S1                 0.0000
     61 ****         3.9070  -4.3452   2.5179 LP             1 S1                 0.0000
     62 ****         3.0863  -6.1474  -1.3135 LP             1 S1                 0.0000
     63 ****         3.5646  -7.5405  -0.6086 LP             1 S1                 0.0000
     64 ****         6.1196  -5.5291   0.4425 LP             1 S1                 0.0000
     65 ****         5.8599  -4.6832   1.8149 LP             1 S1                 0.0000
     66 ****         6.8271  -1.9179   0.4366 LP             1 S1                 0.0000
     67 ****         6.4889  -2.5073   1.9214 LP             1 S1                 0.0000
     68 ****        -5.4108   4.6741  -0.8877 LP             1 S1                 0.0000
@<TRIPOS>BOND
    1    1    2 1     
    2    1   35 1     
    3    1   36 1     
    4    1   37 1     
    5    2    3 1     
    6    2    4 1     
    7    2   38 1     
    8    3   39 1     
    9    3   40 1     
   10    3   41 1     
   11    4    5 1     
   12    5   30 ar    
   13    5    6 ar    
   14    6    7 ar    
   15    6   42 1     
   16    7    8 1     
   17    7   28 ar    
   18    8    9 1     
   19    8   43 1     
   20    8   44 1     
   21    9   10 1     
   22    9   45 1     
   23   10   15 ar    
   24   10   11 ar    
   25   11   12 ar    
   26   12   13 ar    
   27   12   46 1     
   28   13   14 ar    
   29   14   18 1     
   30   14   15 ar    
   31   15   16 1     
   32   16   17 2     
   33   17   18 1     
   34   17   47 1     
   35   18   19 1     
   36   19   31 1     
   37   19   26 1     
   38   19   20 1     
   39   20   21 1     
   40   21   32 1     
   41   21   22 1     
   42   21   24 1     
   43   22   23 1     
   44   22   48 1     
   45   22   49 1     
   46   23   50 1     
   47   24   33 1     
   48   24   25 1     
   49   24   26 1     
   50   25   51 1     
   51   26   34 1     
   52   26   27 1     
   53   27   52 1     
   54   28   29 ar    
   55   28   53 1     
   56   29   30 ar    
   57   29   54 1     
   58    4   55 1     
   59    4   56 1     
   60   11   57 1     
   61   13   58 1     
   62   16   59 1     
   63   20   60 1     
   64   20   61 1     
   65   23   62 1     
   66   23   63 1     
   67   25   64 1     
   68   25   65 1     
   69   27   66 1     
   70   27   67 1     
   71   30   68 1     
@<TRIPOS>SUBSTRUCTURE
      1 S1             1
@<TRIPOS>SET
LONE_PAIRS      STATIC     ATOMS    <user>   **** ""
14 55 56 57 58 59 60 61 62 63 64 65 66 67 68
DONOR_HYDROGENS      STATIC     ATOMS    <user>   **** ""
4 45 50 51 52
ATOM$BLUE        STATIC     ATOMS    COLORGROUP SYSTEM
14 55 56 57 58 59 60 61 62 63 64 65 66 67 68
ATOM$RED        STATIC     ATOMS    COLORGROUP SYSTEM
4 45 50 51 52
