AV-unprocessed.smi:1464|AV-procd|sdf|5950|dock9
  -GOLD-   22720 6 33D 1   1.00000     0.00000
 Structure written by MMmdl.
 41 42  0  0  0  0  0  0  0  0  1 V2000
  151.4962  141.0891  158.9353 C   0  0  0  0  0  0  0  0  0  0  0  0
  151.3155  140.1262  157.7482 C   0  0  1  0  0  0  0  0  0  0  0  0
  151.0938  140.9333  156.4521 C   0  0  0  0  0  0  0  0  0  0  0  0
  150.8940  140.0255  155.2313 C   0  0  0  0  0  0  0  0  0  0  0  0
  152.0790  139.0644  155.0633 C   0  0  0  0  0  0  0  0  0  0  0  0
  152.3258  138.2319  156.3371 C   0  0  2  0  0  0  0  0  0  0  0  0
  151.2516  137.2588  156.5401 N   0  0  0  0  0  0  0  0  0  0  0  0
  151.4103  135.9329  156.6667 C   0  0  0  0  0  0  0  0  0  0  0  0
  152.5051  135.3728  156.5964 O   0  0  0  0  0  0  0  0  0  0  0  0
  150.1259  135.1200  156.8830 C   0  0  0  0  0  0  0  0  0  0  0  0
  149.7968  134.2474  155.7469 N   0  0  0  0  0  0  0  0  0  0  0  0
  148.7604  134.7150  154.9529 N   0  0  0  0  0  0  0  0  0  0  0  0
  148.3885  134.0420  153.9166 C   0  0  0  0  0  0  0  0  0  0  0  0
  147.3610  134.5434  153.1559 O   0  0  0  0  0  0  0  0  0  0  0  0
  149.0314  132.7955  153.5628 C   0  0  0  0  0  0  0  0  0  0  0  0
  150.0365  132.3458  154.3455 C   0  0  0  0  0  0  0  0  0  0  0  0
  150.4840  133.0842  155.5279 C   0  0  0  0  0  0  0  0  0  0  0  0
  151.3950  132.6972  156.2598 O   0  0  0  0  0  0  0  0  0  0  0  0
  152.5038  139.1371  157.5838 C   0  0  2  0  0  0  0  0  0  0  0  0
  152.7715  138.2968  158.8492 C   0  0  0  0  0  0  0  0  0  0  0  0
  147.7666  135.1497  152.5551 H   0  0  0  0  0  0  0  0  0  0  0  0
  152.4249  141.6541  158.8502 H   0  0  0  0  0  0  0  0  0  0  0  0
  151.5098  140.5599  159.8877 H   0  0  0  0  0  0  0  0  0  0  0  0
  150.6762  141.8062  158.9847 H   0  0  0  0  0  0  0  0  0  0  0  0
  150.4105  139.5467  157.9362 H   0  0  0  0  0  0  0  0  0  0  0  0
  150.2257  141.5840  156.5624 H   0  0  0  0  0  0  0  0  0  0  0  0
  151.9478  141.5893  156.2773 H   0  0  0  0  0  0  0  0  0  0  0  0
  149.9679  139.4597  155.3396 H   0  0  0  0  0  0  0  0  0  0  0  0
  150.7799  140.6326  154.3329 H   0  0  0  0  0  0  0  0  0  0  0  0
  151.9129  138.4118  154.2053 H   0  0  0  0  0  0  0  0  0  0  0  0
  152.9760  139.6410  154.8338 H   0  0  0  0  0  0  0  0  0  0  0  0
  153.2581  137.6810  156.1988 H   0  0  0  0  0  0  0  0  0  0  0  0
  150.3143  137.6292  156.6032 H   0  0  0  0  0  0  0  0  0  0  0  0
  150.2147  134.5243  157.7939 H   0  0  0  0  0  0  0  0  0  0  0  0
  149.3112  135.8215  157.0710 H   0  0  0  0  0  0  0  0  0  0  0  0
  148.7086  132.2448  152.6917 H   0  0  0  0  0  0  0  0  0  0  0  0
  150.5255  131.4164  154.0926 H   0  0  0  0  0  0  0  0  0  0  0  0
  153.4004  139.7346  157.4111 H   0  0  0  0  0  0  0  0  0  0  0  0
  151.8792  137.7614  159.1749 H   0  0  0  0  0  0  0  0  0  0  0  0
  153.1086  138.9167  159.6795 H   0  0  0  0  0  0  0  0  0  0  0  0
  153.5535  137.5586  158.6691 H   0  0  0  0  0  0  0  0  0  0  0  0
  1  2  1  0  0  0  0
  1 22  1  0  0  0  0
  1 23  1  0  0  0  0
  1 24  1  0  0  0  0
  2 19  1  0  0  0  0
  2  3  1  0  0  0  0
  2 25  1  0  0  0  0
  3  4  1  0  0  0  0
  3 26  1  0  0  0  0
  3 27  1  0  0  0  0
  4  5  1  0  0  0  0
  4 28  1  0  0  0  0
  4 29  1  0  0  0  0
  5  6  1  0  0  0  0
  5 30  1  0  0  0  0
  5 31  1  0  0  0  0
  6  7  1  0  0  0  0
  6 19  1  0  0  0  0
  6 32  1  0  0  0  0
  7  8  1  0  0  0  0
  7 33  1  0  0  0  0
  8  9  2  0  0  0  0
  8 10  1  0  0  0  0
 10 34  1  0  0  0  0
 10 35  1  0  0  0  0
 10 11  1  0  0  0  0
 11 12  1  0  0  0  0
 11 17  1  0  0  0  0
 12 13  2  0  0  0  0
 13 14  1  0  0  0  0
 13 15  1  0  0  0  0
 14 21  1  0  0  0  0
 15 36  1  0  0  0  0
 15 16  2  0  0  0  0
 16 37  1  0  0  0  0
 16 17  1  0  0  0  0
 17 18  2  0  0  0  0
 19 20  1  0  0  0  0
 19 38  1  0  0  0  0
 20 39  1  0  0  0  0
 20 40  1  0  0  0  0
 20 41  1  0  0  0  0
M  END
> <s_m_source_file>
AV-unprocessed.smi

> <i_m_source_file_index>
1464

> <i_lp_mmshare_version>
43012

> <i_f3d_flags>
0

> <s_epik_input>
W0NIM11bQ0BASF0xW0NIMl1bQ0gyXVtDSDJdW0NASF0oW0NASF0xW0NIM10pW05IXUMoPU8pW0NIMl1uMltuSF1jKD1PKVtjSF1bY0hdYzI9Tw==

> <s_epik_cmdline>
J2VwaWtfcHl0aG9uJywgJy1waCcsICc3LjAnLCAnLXRuJywgJzgnLCAnLW1hJywgJzIwMCcsICctbWV0YWxfYmluZGluZycsICctaW1hZScsICc8aW5maWxlLm1hZT4nLCAnLW9tYWUnLCAnPG91dGZpbGUubWFlPic=

> <r_lp_tautomer_probability>
0.9996

> <r_epik_Ionization_Penalty>
2.10335

> <r_epik_Ionization_Penalty_Charging>
3.98079e-08

> <r_epik_Ionization_Penalty_Neutral>
2.10335

> <r_epik_State_Penalty>
1.67957

> <r_epik_Charging_Adjusted_Penalty>
1.67957

> <i_epik_Tot_Q>
0

> <i_epik_Tot_abs_Q>
0

> <r_epik_Metal_State_Penalty>
1.67957

> <b_epik_Metal_Only>
0

> <s_lp_Force_Field>
OPLS_2005

> <r_lp_Energy>
23.2489

> <b_lp_Chiralities_Consistent>
1

> <s_lp_Variant>
AV-unprocessed.smi:1464-16

> <Gold.Version>
5.8.1

> <Gold.Id.Protein>
6NUR|6NUR_protein|mol2

> <Gold.PLP.Fitness>
36.3679

> <Gold.PLP.PLP>
-30.9444

> <Gold.PLP.part.hbond>
-2.0285

> <Gold.PLP.part.metal>
0.0000

> <Gold.PLP.part.buried>
-2.7325

> <Gold.PLP.part.nonpolar>
-26.4652

> <Gold.PLP.part.repulsive>
0.1889

> <Gold.PLP.ligand.clash>
0.0000

> <Gold.PLP.ligand.torsion>
0.2944

> <Gold.PLP.Chemscore.Hbond>
2.0000

> <Gold.PLP.Chemscore.CHOScore>
0.0000

> <Gold.PLP.Chemscore.Metal>
0.0000

> <Gold.Chemscore.Hbonds>
donor molecule, donor type, donor heavy atom, donor atom, acceptor molecule, acceptor atom, score
      L1  H    14    21       P1  7948  1.00
      P1  H 10752 10765       L1     9  1.00

> <Gold.PLP.Chemscore.Internal.Correction>
0.0122

> <Gold.Rescore>
     Score         DG    S(hbond)    S(metal)    S(lipo)     H(rot)  DE(clash)    DE(int)     intcor
     13.06     -13.67       1.97        0.00      62.27       2.22       0.01       0.60       ----

> <Gold.Chemscore.Fitness>
13.0583

> <Gold.Chemscore.DG>
-13.6711

> <Gold.Chemscore.ZeroCoef>
-5.4800

> <Gold.Chemscore.Hbond>
1.9745

> <Gold.Chemscore.Metal>
0.0000

> <Gold.Chemscore.Lipo>
62.2696

> <Gold.Chemscore.Internal_Hbond>
0.0000

> <Gold.Chemscore.DEClash>
0.0121

> <Gold.Chemscore.DEInternal>
0.6007

> <Gold.Chemscore.Rot>
2.2224

> <Gold.Chemscore.Internal.Correction>
   9.000000E+99

> <Gold.Chemscore.Hbonds>
donor molecule, donor type, donor heavy atom, donor atom, acceptor molecule, acceptor atom, score
      L1  H    14    21       P1  7948  0.98
      P1  H 10752 10765       L1     9  0.97

> <Gold.Chemscore.Hbond.Weighted>
-6.5949

> <Gold.Chemscore.Metal.Weighted>
-0.0000

> <Gold.Chemscore.Lipo.Weighted>
-7.2855

> <Gold.Chemscore.Internal_Hbond.Weighted>
0.0000

> <Gold.Chemscore.DEClash.Weighted>
0.0121

> <Gold.Chemscore.DEInternal.Weighted>
0.6007

> <Gold.Chemscore.Rot.Weighted>
5.6893

> <Gold.Chemscore.Internal.Correction.Weighted>
   9.000000E+99

> <Gold.Protein.RotatedTorsions>
[ 6907 6896 6895 6894 ] final  134.53 input  -60.11 | X-H torsion
[ 7974 7965 7964 7962 ] final    4.15 input  175.53 | X-H torsion
[ 8008 7997 7996 7995 ] final -165.90 input   59.86 | X-H torsion
[ 10167 10162 10161 10158 ] final   46.95 input  -65.29 | X-H torsion
[ 10718 10713 10712 10709 ] final  -44.04 input   66.30 | X-H torsion
[ 10763 10752 10751 10750 ] final -133.20 input  -60.55 | X-H torsion
[ 11005 11000 10999 10996 ] final  -22.20 input  -57.11 | X-H torsion

> <Gold.Protein.ActiveResidues>
 VAL166  LYS551  ARG553  GLY616  TRP617  ASP618  TYR619  PRO620  LYS621  CYS622 
 ASP623  PHE694  ASN695  SER759  ASP760  ASP761  ALA762  ILE779  LEU786  VAL792 
 PHE793  MET794  SER795  GLU796  ALA797  LYS798  CYS799  TRP800  GLU811  SER814 

> <Gold.Protein.RotatedAtoms>
  152.3103  133.5745  159.5675 H   0  0  0  0  0  0  0  0  0  0  0  0  # atno 6907 bound_to 6896
  150.7319  134.0162  159.3695 H   0  0  0  0  0  0  0  0  0  0  0  0  # atno 6908 bound_to 6896
  151.8055  135.0696  160.0457 H   0  0  0  0  0  0  0  0  0  0  0  0  # atno 6909 bound_to 6896
  146.2444  140.0579  142.8370 H   0  0  0  0  0  0  0  0  0  0  0  0  # atno 7974 bound_to 7965
  155.8564  140.0971  157.1642 H   0  0  0  0  0  0  0  0  0  0  0  0  # atno 8008 bound_to 7997
  154.3988  140.1373  156.3969 H   0  0  0  0  0  0  0  0  0  0  0  0  # atno 8009 bound_to 7997
  155.7905  140.3456  155.5349 H   0  0  0  0  0  0  0  0  0  0  0  0  # atno 8010 bound_to 7997
  140.3087  144.2847  150.6204 H   0  0  0  0  0  0  0  0  0  0  0  0  # atno 10167 bound_to 10162
  156.2427  130.4181  149.8741 H   0  0  0  0  0  0  0  0  0  0  0  0  # atno 10718 bound_to 10713
  154.8735  135.3774  154.4533 H   0  0  0  0  0  0  0  0  0  0  0  0  # atno 10763 bound_to 10752
  153.5207  135.7029  153.5738 H   0  0  0  0  0  0  0  0  0  0  0  0  # atno 10764 bound_to 10752
  153.3986  135.3954  155.1938 H   0  0  0  0  0  0  0  0  0  0  0  0  # atno 10765 bound_to 10752
  140.8634  133.7771  156.0102 H   0  0  0  0  0  0  0  0  0  0  0  0  # atno 11005 bound_to 11000
  145.0926  140.9294  143.4760 LP  0  0  0  0  0  0  0  0  0  0  0  0  # atno 17320 bound_to 7965
  145.0754  139.2999  143.5810 LP  0  0  0  0  0  0  0  0  0  0  0  0  # atno 17321 bound_to 7965
  140.5588  143.2195  151.7802 LP  0  0  0  0  0  0  0  0  0  0  0  0  # atno 17342 bound_to 10162
  139.4898  144.4377  151.9800 LP  0  0  0  0  0  0  0  0  0  0  0  0  # atno 17343 bound_to 10162
  156.6317  130.8668  151.3496 LP  0  0  0  0  0  0  0  0  0  0  0  0  # atno 17370 bound_to 10713
  157.7182  130.9524  150.1336 LP  0  0  0  0  0  0  0  0  0  0  0  0  # atno 17371 bound_to 10713
  140.8656  134.2788  157.5214 LP  0  0  0  0  0  0  0  0  0  0  0  0  # atno 17394 bound_to 11000
  139.8708  134.9541  156.4165 LP  0  0  0  0  0  0  0  0  0  0  0  0  # atno 17395 bound_to 11000

$$$$
