AV-unprocessed.smi:2617|AV-procd|sdf|10217|dock3
  -GOLD-   2272014223D 1   1.00000     0.00000
 Structure written by MMmdl.
 35 35  0  0  0  0  0  0  0  0  1 V2000
  151.9969  144.9507  159.6608 C   0  0  0  0  0  0  0  0  0  0  0  0
  152.8817  143.8203  159.1266 C   0  0  0  0  0  0  0  0  0  0  0  0
  152.2712  142.4313  159.3777 C   0  0  0  0  0  0  0  0  0  0  0  0
  151.8282  141.7871  158.1573 N   0  0  0  0  0  0  0  0  0  0  0  0
  150.8078  142.2868  157.3433 C   0  0  0  0  0  0  0  0  0  0  0  0
  150.1673  143.4526  157.7359 N   0  0  0  0  0  0  0  0  0  0  0  0
  150.4109  141.6492  156.2046 C   0  0  0  0  0  0  0  0  0  0  0  0
  149.3988  142.1594  155.3976 N   0  0  0  0  0  0  0  0  0  0  0  0
  148.8953  141.5679  154.1663 C   0  0  0  0  0  0  0  0  0  0  0  0
  147.3721  141.4086  154.2129 C   0  0  0  0  0  0  0  0  0  0  0  0
  146.9386  140.7559  153.0306 O   0  0  0  0  0  0  0  0  0  0  0  0
  147.0647  139.3472  153.1101 C   0  0  0  0  0  0  0  0  0  0  0  0
  151.0731  140.4057  155.7839 C   0  0  0  0  0  0  0  0  0  0  0  0
  150.8389  139.7713  154.7558 O   0  0  0  0  0  0  0  0  0  0  0  0
  152.0588  139.9426  156.6525 N   0  0  0  0  0  0  0  0  0  0  0  0
  152.4596  140.5643  157.8294 C   0  0  0  0  0  0  0  0  0  0  0  0
  153.3309  140.0398  158.5240 O   0  0  0  0  0  0  0  0  0  0  0  0
  152.5224  139.0806  156.4052 H   0  0  0  0  0  0  0  0  0  0  0  0
  152.4523  145.9230  159.4718 H   0  0  0  0  0  0  0  0  0  0  0  0
  151.8459  144.8570  160.7365 H   0  0  0  0  0  0  0  0  0  0  0  0
  151.0175  144.9426  159.1816 H   0  0  0  0  0  0  0  0  0  0  0  0
  153.0427  143.9675  158.0581 H   0  0  0  0  0  0  0  0  0  0  0  0
  153.8638  143.8802  159.5970 H   0  0  0  0  0  0  0  0  0  0  0  0
  152.9868  141.7591  159.8504 H   0  0  0  0  0  0  0  0  0  0  0  0
  151.4255  142.4722  160.0666 H   0  0  0  0  0  0  0  0  0  0  0  0
  150.4260  143.9327  158.5856 H   0  0  0  0  0  0  0  0  0  0  0  0
  149.5803  143.9687  157.0968 H   0  0  0  0  0  0  0  0  0  0  0  0
  148.6795  142.6538  155.9047 H   0  0  0  0  0  0  0  0  0  0  0  0
  149.1758  142.2203  153.3392 H   0  0  0  0  0  0  0  0  0  0  0  0
  149.3543  140.5972  153.9764 H   0  0  0  0  0  0  0  0  0  0  0  0
  147.0724  140.8466  155.0991 H   0  0  0  0  0  0  0  0  0  0  0  0
  146.9042  142.3922  154.2758 H   0  0  0  0  0  0  0  0  0  0  0  0
  146.7178  138.8954  152.1810 H   0  0  0  0  0  0  0  0  0  0  0  0
  146.4647  138.9430  153.9264 H   0  0  0  0  0  0  0  0  0  0  0  0
  148.1042  139.0526  153.2598 H   0  0  0  0  0  0  0  0  0  0  0  0
  1  2  1  0  0  0  0
  1 19  1  0  0  0  0
  1 20  1  0  0  0  0
  1 21  1  0  0  0  0
  2  3  1  0  0  0  0
  2 22  1  0  0  0  0
  2 23  1  0  0  0  0
  3  4  1  0  0  0  0
  3 24  1  0  0  0  0
  3 25  1  0  0  0  0
  4 16  1  0  0  0  0
  4  5  1  0  0  0  0
  5  6  1  0  0  0  0
  5  7  2  0  0  0  0
  6 26  1  0  0  0  0
  6 27  1  0  0  0  0
  7  8  1  0  0  0  0
  7 13  1  0  0  0  0
  8  9  1  0  0  0  0
  8 28  1  0  0  0  0
  9 10  1  0  0  0  0
  9 29  1  0  0  0  0
  9 30  1  0  0  0  0
 10 11  1  0  0  0  0
 10 31  1  0  0  0  0
 10 32  1  0  0  0  0
 11 12  1  0  0  0  0
 12 33  1  0  0  0  0
 12 34  1  0  0  0  0
 12 35  1  0  0  0  0
 13 14  2  0  0  0  0
 13 15  1  0  0  0  0
 15 18  1  0  0  0  0
 15 16  1  0  0  0  0
 16 17  2  0  0  0  0
M  END
> <s_m_source_file>
AV-unprocessed.smi

> <i_m_source_file_index>
2617

> <i_lp_mmshare_version>
43012

> <i_f3d_flags>
0

> <s_epik_input>
W0NIM11bQ0gyXVtDSDJdbjFjKFtOSDJdKWMoYyg9TylbbkhdYzE9TylbTkhdW0NIMl1bQ0gyXU9bQ0gzXQ==

> <s_epik_cmdline>
J2VwaWtfcHl0aG9uJywgJy1waCcsICc3LjAnLCAnLXRuJywgJzgnLCAnLW1hJywgJzIwMCcsICctbWV0YWxfYmluZGluZycsICctaW1hZScsICc8aW5maWxlLm1hZT4nLCAnLW9tYWUnLCAnPG91dGZpbGUubWFlPic=

> <r_lp_tautomer_probability>
1

> <r_epik_Ionization_Penalty>
1.06398e-05

> <r_epik_Ionization_Penalty_Charging>
2.62604e-06

> <r_epik_Ionization_Penalty_Neutral>
8.01376e-06

> <r_epik_State_Penalty>
-0

> <r_epik_Charging_Adjusted_Penalty>
2.62604e-06

> <i_epik_Tot_Q>
0

> <i_epik_Tot_abs_Q>
0

> <r_epik_Metal_State_Penalty>
-0

> <b_epik_Metal_Only>
0

> <s_epik_Chemistry_Notes>
This compound has an imine and may undergo hydrolysis.

> <s_lp_Force_Field>
OPLS_2005

> <r_lp_Energy>
15.6594

> <b_lp_Chiralities_Consistent>
1

> <s_lp_Variant>
AV-unprocessed.smi:2617-1

> <Gold.Version>
5.8.1

> <Gold.Id.Protein>
6NUR|6NUR_protein|mol2

> <Gold.PLP.Fitness>
44.2568

> <Gold.PLP.PLP>
-35.8493

> <Gold.PLP.part.hbond>
-4.0000

> <Gold.PLP.part.metal>
0.0000

> <Gold.PLP.part.buried>
-1.4571

> <Gold.PLP.part.nonpolar>
-29.7251

> <Gold.PLP.part.repulsive>
0.6185

> <Gold.PLP.ligand.clash>
1.3886

> <Gold.PLP.ligand.torsion>
0.5062

> <Gold.PLP.Chemscore.Hbond>
3.1246

> <Gold.PLP.Chemscore.CHOScore>
0.0000

> <Gold.PLP.Chemscore.Metal>
0.0000

> <Gold.Chemscore.Hbonds>
donor molecule, donor type, donor heavy atom, donor atom, acceptor molecule, acceptor atom, score
      L1  H     6    27       P1  8028  1.00
      L1  H     8    28       P1  8028  0.19
      P1  H  7989  7998       L1    14  1.00
      P1  H  7997  8008       L1    17  0.90

> <Gold.PLP.Chemscore.Internal.Correction>
1.4347

> <Gold.Rescore>
     Score         DG    S(hbond)    S(metal)    S(lipo)     H(rot)  DE(clash)    DE(int)     intcor
     10.15     -12.41       1.42        0.00      66.16       2.17       0.13       2.13       ----

> <Gold.Chemscore.Fitness>
10.1508

> <Gold.Chemscore.DG>
-12.4142

> <Gold.Chemscore.ZeroCoef>
-5.4800

> <Gold.Chemscore.Hbond>
1.4239

> <Gold.Chemscore.Metal>
0.0000

> <Gold.Chemscore.Lipo>
66.1631

> <Gold.Chemscore.Internal_Hbond>
0.0000

> <Gold.Chemscore.DEClash>
0.1303

> <Gold.Chemscore.DEInternal>
2.1330

> <Gold.Chemscore.Rot>
2.1730

> <Gold.Chemscore.Internal.Correction>
   9.000000E+99

> <Gold.Chemscore.Hbonds>
donor molecule, donor type, donor heavy atom, donor atom, acceptor molecule, acceptor atom, score
      L1  H     6    27       P1  8028  0.70
      L1  H     8    28       P1  8028  0.19
      P1  H  7989  7998       L1    14  0.30
      P1  H  7997  8008       L1    17  0.19

> <Gold.Chemscore.Hbond.Weighted>
-4.7559

> <Gold.Chemscore.Metal.Weighted>
-0.0000

> <Gold.Chemscore.Lipo.Weighted>
-7.7411

> <Gold.Chemscore.Internal_Hbond.Weighted>
0.0000

> <Gold.Chemscore.DEClash.Weighted>
0.1303

> <Gold.Chemscore.DEInternal.Weighted>
2.1330

> <Gold.Chemscore.Rot.Weighted>
5.5628

> <Gold.Chemscore.Internal.Correction.Weighted>
   9.000000E+99

> <Gold.Protein.RotatedTorsions>
[ 6907 6896 6895 6894 ] final  105.06 input  -60.11 | X-H torsion
[ 7974 7965 7964 7962 ] final  -77.83 input  175.53 | X-H torsion
[ 8008 7997 7996 7995 ] final -102.77 input   59.86 | X-H torsion
[ 10167 10162 10161 10158 ] final  138.11 input  -65.29 | X-H torsion
[ 10718 10713 10712 10709 ] final  142.34 input   66.30 | X-H torsion
[ 10763 10752 10751 10750 ] final   53.87 input  -60.55 | X-H torsion
[ 11005 11000 10999 10996 ] final -118.57 input  -57.11 | X-H torsion

> <Gold.Protein.ActiveResidues>
 VAL166  LYS551  ARG553  GLY616  TRP617  ASP618  TYR619  PRO620  LYS621  CYS622 
 ASP623  PHE694  ASN695  SER759  ASP760  ASP761  ALA762  ILE779  LEU786  VAL792 
 PHE793  MET794  SER795  GLU796  ALA797  LYS798  CYS799  TRP800  GLU811  SER814 

> <Gold.Protein.RotatedAtoms>
  152.5243  133.9585  159.7705 H   0  0  0  0  0  0  0  0  0  0  0  0  # atno 6907 bound_to 6896
  150.9880  133.6170  159.2719 H   0  0  0  0  0  0  0  0  0  0  0  0  # atno 6908 bound_to 6896
  151.3323  135.0850  159.9396 H   0  0  0  0  0  0  0  0  0  0  0  0  # atno 6909 bound_to 6896
  145.5945  140.9422  143.1274 H   0  0  0  0  0  0  0  0  0  0  0  0  # atno 7974 bound_to 7965
  154.8614  140.0426  157.1667 H   0  0  0  0  0  0  0  0  0  0  0  0  # atno 8008 bound_to 7997
  154.8836  140.2976  155.5390 H   0  0  0  0  0  0  0  0  0  0  0  0  # atno 8009 bound_to 7997
  156.2998  140.2406  156.3843 H   0  0  0  0  0  0  0  0  0  0  0  0  # atno 8010 bound_to 7997
  139.5121  144.6372  151.5666 H   0  0  0  0  0  0  0  0  0  0  0  0  # atno 10167 bound_to 10162
  157.3816  131.0993  151.0733 H   0  0  0  0  0  0  0  0  0  0  0  0  # atno 10718 bound_to 10713
  152.9799  135.5764  154.4811 H   0  0  0  0  0  0  0  0  0  0  0  0  # atno 10763 bound_to 10752
  154.4360  135.2774  155.1882 H   0  0  0  0  0  0  0  0  0  0  0  0  # atno 10764 bound_to 10752
  154.3570  135.6197  153.5725 H   0  0  0  0  0  0  0  0  0  0  0  0  # atno 10765 bound_to 10752
  141.0276  134.0029  157.3191 H   0  0  0  0  0  0  0  0  0  0  0  0  # atno 11005 bound_to 11000
  144.7336  139.7650  143.7337 LP  0  0  0  0  0  0  0  0  0  0  0  0  # atno 17320 bound_to 7965
  146.1622  139.4740  142.9981 LP  0  0  0  0  0  0  0  0  0  0  0  0  # atno 17321 bound_to 7965
  140.6125  143.9410  150.6464 LP  0  0  0  0  0  0  0  0  0  0  0  0  # atno 17342 bound_to 10162
  140.2657  143.3492  152.1283 LP  0  0  0  0  0  0  0  0  0  0  0  0  # atno 17343 bound_to 10162
  157.1799  130.6305  149.5668 LP  0  0  0  0  0  0  0  0  0  0  0  0  # atno 17370 bound_to 10713
  155.9777  130.4757  150.6610 LP  0  0  0  0  0  0  0  0  0  0  0  0  # atno 17371 bound_to 10713
  139.9186  135.0199  156.7979 LP  0  0  0  0  0  0  0  0  0  0  0  0  # atno 17394 bound_to 11000
  140.6463  133.9772  155.7732 LP  0  0  0  0  0  0  0  0  0  0  0  0  # atno 17395 bound_to 11000

$$$$
