#       Name:                AV-unprocessed.smi:1570
#       Creating user name   scv26
#       Creation time:       Fri Mar 27 06:52:38 2020


#       File generated by GOLD software.
#

@<TRIPOS>MOLECULE
AV-unprocessed.smi:1570
    58    60     1
SMALL
NO_CHARGES


@<TRIPOS>ATOM
      1 ****        -1.6475   4.9729  -1.1571 C.3            1 S1                 0.0000
      2 ****        -2.8552   4.0728  -1.4476 C.3            1 S1                 0.0000
      3 ****        -2.8194   2.8626  -0.6305 N.am           1 S1                 0.0000
      4 ****        -2.2608   1.6771  -0.9687 C.2            1 S1                 0.0000
      5 ****        -1.7005   1.4169  -2.0337 O.2            1 S1                 0.0000
      6 ****        -2.4067   0.8287   0.0768 N.am           1 S1                 0.0000
      7 ****        -1.9432  -0.5570   0.1396 C.3            1 S1                 0.0000
      8 ****        -0.4176  -0.6426   0.3512 C.3            1 S1                 0.0000
      9 ****        -0.1537  -0.4863   1.7319 O.3            1 S1                 0.0000
     10 ****         0.1440  -2.0128  -0.0798 C.3            1 S1                 0.0000
     11 ****         1.6289  -2.0469  -0.0605 N.4            1 S1                 1.0000
     12 ****         2.1655  -3.4170   0.1146 C.3            1 S1                 0.0000
     13 ****         3.7037  -3.3885   0.1952 C.3            1 S1                 0.0000
     14 ****         4.3034  -4.7952   0.2964 C.3            1 S1                 0.0000
     15 ****         4.2192  -2.7703  -0.9789 O.3            1 S1                 0.0000
     16 ****         3.7866  -1.4220  -1.1237 C.3            1 S1                 0.0000
     17 ****         4.4700  -0.8309  -2.3619 C.3            1 S1                 0.0000
     18 ****         2.2513  -1.3975  -1.2408 C.3            1 S1                 0.0000
     19 ****        -3.0645   1.4962   1.1206 C.ar           1 S1                 0.0000
     20 ****        -3.4328   1.0689   2.4086 C.ar           1 S1                 0.0000
     21 ****        -4.0887   2.0080   3.2388 C.ar           1 S1                 0.0000
     22 ****        -4.3562   3.3235   2.7790 C.ar           1 S1                 0.0000
     23 ****        -3.9725   3.7288   1.4793 C.ar           1 S1                 0.0000
     24 ****        -3.3237   2.7759   0.6747 C.ar           1 S1                 0.0000
     25 ****        -1.6797   5.8746  -1.7688 H              1 S1                 0.0000
     26 ****        -0.7106   4.4586  -1.3727 H              1 S1                 0.0000
     27 ****        -1.6275   5.2821  -0.1115 H              1 S1                 0.0000
     28 ****        -3.7813   4.6155  -1.2570 H              1 S1                 0.0000
     29 ****        -2.8733   3.8071  -2.5057 H              1 S1                 0.0000
     30 ****        -2.4813  -1.1221   0.9012 H              1 S1                 0.0000
     31 ****        -2.2077  -1.0258  -0.8097 H              1 S1                 0.0000
     32 ****         0.0790   0.1559  -0.1985 H              1 S1                 0.0000
     33 ****        -0.6485  -1.1341   2.2104 H              1 S1                 0.0000
     34 ****        -0.2572  -2.7809   0.5835 H              1 S1                 0.0000
     35 ****        -0.2005  -2.2717  -1.0822 H              1 S1                 0.0000
     36 ****         1.7592  -3.8573   1.0261 H              1 S1                 0.0000
     37 ****         1.8408  -4.0438  -0.7179 H              1 S1                 0.0000
     38 ****         4.0159  -2.8143   1.0695 H              1 S1                 0.0000
     39 ****         3.9516  -5.3089   1.1914 H              1 S1                 0.0000
     40 ****         5.3919  -4.7523   0.3446 H              1 S1                 0.0000
     41 ****         4.0327  -5.4031  -0.5674 H              1 S1                 0.0000
     42 ****         4.0982  -0.8484  -0.2489 H              1 S1                 0.0000
     43 ****         4.1781   0.2086  -2.5137 H              1 S1                 0.0000
     44 ****         4.2074  -1.3875  -3.2621 H              1 S1                 0.0000
     45 ****         5.5551  -0.8584  -2.2588 H              1 S1                 0.0000
     46 ****         1.9370  -1.9155  -2.1486 H              1 S1                 0.0000
     47 ****         1.9129  -0.3659  -1.3315 H              1 S1                 0.0000
     48 ****        -3.2240   0.0689   2.7578 H              1 S1                 0.0000
     49 ****        -4.3879   1.7205   4.2360 H              1 S1                 0.0000
     50 ****        -4.8570   4.0248   3.4300 H              1 S1                 0.0000
     51 ****        -4.1698   4.7299   1.1256 H              1 S1                 0.0000
     52 ****         1.9155  -1.5237   0.7552 H              1 S1                 0.0000
     53 ****        -1.6279   2.1166  -2.7445 LP             1 S1                 0.0000
     54 ****        -1.3179   0.5060  -2.1879 LP             1 S1                 0.0000
     55 ****        -0.4269   0.4299   2.0251 LP             1 S1                 0.0000
     56 ****         0.8230  -0.6140   1.9043 LP             1 S1                 0.0000
     57 ****         3.9139  -3.2917  -1.7757 LP             1 S1                 0.0000
     58 ****         5.2182  -2.7830  -0.9351 LP             1 S1                 0.0000
@<TRIPOS>BOND
    1    1    2 1     
    2    1   25 1     
    3    1   26 1     
    4    1   27 1     
    5    2    3 1     
    6    2   28 1     
    7    2   29 1     
    8    3   24 1     
    9    3    4 am    
   10    4    5 2     
   11    4    6 am    
   12    6    7 1     
   13    6   19 1     
   14    7    8 1     
   15    7   30 1     
   16    7   31 1     
   17    8    9 1     
   18    8   10 1     
   19    8   32 1     
   20    9   33 1     
   21   10   11 1     
   22   10   34 1     
   23   10   35 1     
   24   11   18 1     
   25   11   12 1     
   26   11   52 1     
   27   12   13 1     
   28   12   36 1     
   29   12   37 1     
   30   13   14 1     
   31   13   15 1     
   32   13   38 1     
   33   14   39 1     
   34   14   40 1     
   35   14   41 1     
   36   15   16 1     
   37   16   17 1     
   38   16   18 1     
   39   16   42 1     
   40   17   43 1     
   41   17   44 1     
   42   17   45 1     
   43   18   46 1     
   44   18   47 1     
   45   19   24 ar    
   46   19   20 ar    
   47   20   21 ar    
   48   20   48 1     
   49   21   22 ar    
   50   21   49 1     
   51   22   23 ar    
   52   22   50 1     
   53   23   24 ar    
   54   23   51 1     
   55    5   53 1     
   56    5   54 1     
   57    9   55 1     
   58    9   56 1     
   59   15   57 1     
   60   15   58 1     
@<TRIPOS>SUBSTRUCTURE
      1 S1             1
@<TRIPOS>SET
LONE_PAIRS      STATIC     ATOMS    <user>   **** ""
6 53 54 55 56 57 58
DONOR_HYDROGENS      STATIC     ATOMS    <user>   **** ""
2 33 52
ATOM$BLUE        STATIC     ATOMS    COLORGROUP SYSTEM
6 53 54 55 56 57 58
ATOM$RED        STATIC     ATOMS    COLORGROUP SYSTEM
2 33 52
