AV-unprocessed.smi:174|AV-procd|sdf|1428|dock1
  -GOLD-   2262019203D 1   1.00000     0.00000
 Structure written by MMmdl.
 51 54  0  0  0  0  0  0  0  0  1 V2000
  150.9528  128.7219  153.8666 N   0  0  0  0  0  0  0  0  0  0  0  0
  151.8288  129.2901  154.6981 C   0  0  0  0  0  0  0  0  0  0  0  0
  153.0125  129.4380  154.3974 O   0  0  0  0  0  0  0  0  0  0  0  0
  151.2790  129.7696  156.0493 C   0  0  0  0  0  0  0  0  0  0  0  0
  151.1737  131.2331  156.1488 N   0  0  0  0  0  0  0  0  0  0  0  0
  149.9801  131.8403  155.5534 C   0  0  0  0  0  0  0  0  0  0  0  0
  150.2662  133.2333  154.9841 C   0  0  0  0  0  0  0  0  0  0  0  0
  150.8907  134.0736  155.9982 N   0  0  0  0  0  0  0  0  0  0  0  0
  150.8494  135.4304  155.8787 C   0  0  0  0  0  0  0  0  0  0  0  0
  151.0018  135.9574  154.6342 N   0  0  0  0  0  0  0  0  0  0  0  0
  150.9789  137.2786  154.4421 C   0  0  0  0  0  0  0  0  0  0  0  0
  150.8148  138.2482  155.3415 N   0  0  0  0  0  0  0  0  0  0  0  0
  150.6509  137.7352  156.5935 C   0  0  0  0  0  0  0  0  0  0  0  0
  150.6553  136.3548  156.9521 C   0  0  0  0  0  0  0  0  0  0  0  0
  150.4459  136.2373  158.3235 N   0  0  0  0  0  0  0  0  0  0  0  0
  150.3365  137.4660  158.7472 C   0  0  0  0  0  0  0  0  0  0  0  0
  150.4479  138.4292  157.7731 N   0  0  0  0  0  0  0  0  0  0  0  0
  150.3633  139.8664  157.9640 C   0  0  0  0  0  0  0  0  0  0  0  0
  151.4690  140.6211  157.1963 C   0  0  1  0  0  0  0  0  0  0  0  0
  151.0611  140.8669  155.8651 O   0  0  0  0  0  0  0  0  0  0  0  0
  151.9053  141.9516  157.8440 C   0  0  1  0  0  0  0  0  0  0  0  0
  150.7989  142.8161  158.4563 C   0  0  0  0  0  0  0  0  0  0  0  0
  151.5841  143.6438  159.4479 C   0  0  0  0  0  0  0  0  0  0  0  0
  152.5877  142.6228  159.9763 C   0  0  0  0  0  0  0  0  0  0  0  0
  152.8370  141.7232  158.8989 O   0  0  0  0  0  0  0  0  0  0  0  0
  151.9640  133.5076  156.8320 C   0  0  0  0  0  0  0  0  0  0  0  0
  152.1101  131.9744  156.7895 C   0  0  0  0  0  0  0  0  0  0  0  0
  153.0938  131.4724  157.3341 O   0  0  0  0  0  0  0  0  0  0  0  0
  151.2627  128.3869  152.9659 H   0  0  0  0  0  0  0  0  0  0  0  0
  149.9858  128.6265  154.1400 H   0  0  0  0  0  0  0  0  0  0  0  0
  150.2979  129.3173  156.2006 H   0  0  0  0  0  0  0  0  0  0  0  0
  151.9054  129.3787  156.8532 H   0  0  0  0  0  0  0  0  0  0  0  0
  149.5834  131.2057  154.7598 H   0  0  0  0  0  0  0  0  0  0  0  0
  149.2077  131.9024  156.3213 H   0  0  0  0  0  0  0  0  0  0  0  0
  150.9255  133.1582  154.1180 H   0  0  0  0  0  0  0  0  0  0  0  0
  149.3235  133.6674  154.6498 H   0  0  0  0  0  0  0  0  0  0  0  0
  151.1113  137.6049  153.4209 H   0  0  0  0  0  0  0  0  0  0  0  0
  150.1694  137.7050  159.7875 H   0  0  0  0  0  0  0  0  0  0  0  0
  149.3711  140.1954  157.6558 H   0  0  0  0  0  0  0  0  0  0  0  0
  150.4406  140.0692  159.0327 H   0  0  0  0  0  0  0  0  0  0  0  0
  152.3484  139.9780  157.1423 H   0  0  0  0  0  0  0  0  0  0  0  0
  151.2266  140.0901  155.3529 H   0  0  0  0  0  0  0  0  0  0  0  0
  152.4310  142.5512  157.0986 H   0  0  0  0  0  0  0  0  0  0  0  0
  150.2737  143.4199  157.7159 H   0  0  0  0  0  0  0  0  0  0  0  0
  150.0630  142.2161  158.9900 H   0  0  0  0  0  0  0  0  0  0  0  0
  152.1045  144.4524  158.9330 H   0  0  0  0  0  0  0  0  0  0  0  0
  150.9641  144.0792  160.2320 H   0  0  0  0  0  0  0  0  0  0  0  0
  153.5082  143.0881  160.3295 H   0  0  0  0  0  0  0  0  0  0  0  0
  152.1550  142.0582  160.8029 H   0  0  0  0  0  0  0  0  0  0  0  0
  152.9170  133.9492  156.5358 H   0  0  0  0  0  0  0  0  0  0  0  0
  151.7945  133.7821  157.8741 H   0  0  0  0  0  0  0  0  0  0  0  0
  1  2  1  0  0  0  0
  1 29  1  0  0  0  0
  1 30  1  0  0  0  0
  2  3  2  0  0  0  0
  2  4  1  0  0  0  0
  4  5  1  0  0  0  0
  4 31  1  0  0  0  0
  4 32  1  0  0  0  0
  5 27  1  0  0  0  0
  5  6  1  0  0  0  0
  6  7  1  0  0  0  0
  6 33  1  0  0  0  0
  6 34  1  0  0  0  0
  7  8  1  0  0  0  0
  7 35  1  0  0  0  0
  7 36  1  0  0  0  0
  8  9  1  0  0  0  0
  8 26  1  0  0  0  0
  9 14  1  0  0  0  0
  9 10  2  0  0  0  0
 10 11  1  0  0  0  0
 11 12  2  0  0  0  0
 11 37  1  0  0  0  0
 12 13  1  0  0  0  0
 13 17  1  0  0  0  0
 13 14  2  0  0  0  0
 14 15  1  0  0  0  0
 15 16  2  0  0  0  0
 16 17  1  0  0  0  0
 16 38  1  0  0  0  0
 17 18  1  0  0  0  0
 18 19  1  0  0  0  0
 18 39  1  0  0  0  0
 18 40  1  0  0  0  0
 19 20  1  0  0  0  0
 19 21  1  0  0  0  0
 19 41  1  0  0  0  0
 20 42  1  0  0  0  0
 21 25  1  0  0  0  0
 21 22  1  0  0  0  0
 21 43  1  0  0  0  0
 22 23  1  0  0  0  0
 22 44  1  0  0  0  0
 22 45  1  0  0  0  0
 23 24  1  0  0  0  0
 23 46  1  0  0  0  0
 23 47  1  0  0  0  0
 24 25  1  0  0  0  0
 24 48  1  0  0  0  0
 24 49  1  0  0  0  0
 26 27  1  0  0  0  0
 26 50  1  0  0  0  0
 26 51  1  0  0  0  0
 27 28  2  0  0  0  0
M  END
> <s_m_source_file>
AV-unprocessed.smi

> <i_m_source_file_index>
174

> <i_lp_mmshare_version>
43012

> <i_f3d_flags>
0

> <s_epik_input>
W05IMl1DKD1PKVtDSDJdTjFbQ0gyXVtDSDJdTihbQ0gyXUMxPU8pYyhuW2NIXW4yKWMoYzIzKW5bY0hdbjNbQ0gyXVtDQEhdKFtPSF0pW0NAQEhdNFtDSDJdW0NIMl1bQ0gyXU80

> <s_epik_cmdline>
J2VwaWtfcHl0aG9uJywgJy1waCcsICc3LjAnLCAnLXRuJywgJzgnLCAnLW1hJywgJzIwMCcsICctbWV0YWxfYmluZGluZycsICctaW1hZScsICc8aW5maWxlLm1hZT4nLCAnLW9tYWUnLCAnPG91dGZpbGUubWFlPic=

> <r_lp_tautomer_probability>
1

> <r_epik_Ionization_Penalty>
0.000250477

> <r_epik_Ionization_Penalty_Charging>
0

> <r_epik_Ionization_Penalty_Neutral>
0.000250477

> <r_epik_State_Penalty>
-0

> <r_epik_Charging_Adjusted_Penalty>
0

> <i_epik_Tot_Q>
0

> <i_epik_Tot_abs_Q>
0

> <r_epik_Metal_State_Penalty>
-0

> <b_epik_Metal_Only>
0

> <s_lp_Force_Field>
OPLS_2005

> <r_lp_Energy>
38.9575

> <b_lp_Chiralities_Consistent>
1

> <s_lp_Variant>
AV-unprocessed.smi:174-4

> <Gold.Version>
5.8.1

> <Gold.Id.Protein>
6NUR|6NUR_protein|mol2

> <Gold.PLP.Fitness>
44.5118

> <Gold.PLP.PLP>
-37.5414

> <Gold.PLP.part.hbond>
-3.3724

> <Gold.PLP.part.metal>
0.0000

> <Gold.PLP.part.buried>
-4.5662

> <Gold.PLP.part.nonpolar>
-29.2382

> <Gold.PLP.part.repulsive>
0.4182

> <Gold.PLP.ligand.clash>
0.0000

> <Gold.PLP.ligand.torsion>
2.3188

> <Gold.PLP.Chemscore.Hbond>
2.8960

> <Gold.PLP.Chemscore.CHOScore>
0.8441

> <Gold.PLP.Chemscore.Metal>
0.0000

> <Gold.Chemscore.Hbonds>
donor molecule, donor type, donor heavy atom, donor atom, acceptor molecule, acceptor atom, score
      L1  H     1    29       P1 10737  1.00
      P1  H  6896  6907       L1    15  0.88
      P1  H 10752 10763       L1    10  1.00
      L1  C    11    37       P1  7949  0.85

> <Gold.PLP.Chemscore.Internal.Correction>
0.3877

> <Gold.Rescore>
     Score         DG    S(hbond)    S(metal)    S(lipo)     H(rot)  DE(clash)    DE(int)     intcor
      8.50     -11.97       2.15        0.00      69.90       3.46       0.64       2.83       ----

> <Gold.Chemscore.Fitness>
8.5044

> <Gold.Chemscore.DG>
-11.9724

> <Gold.Chemscore.ZeroCoef>
-5.4800

> <Gold.Chemscore.Hbond>
2.1466

> <Gold.Chemscore.Metal>
0.0000

> <Gold.Chemscore.Lipo>
69.8982

> <Gold.Chemscore.Internal_Hbond>
0.0000

> <Gold.Chemscore.DEClash>
0.6378

> <Gold.Chemscore.DEInternal>
2.8302

> <Gold.Chemscore.Rot>
3.4591

> <Gold.Chemscore.Internal.Correction>
   9.000000E+99

> <Gold.Chemscore.Hbonds>
donor molecule, donor type, donor heavy atom, donor atom, acceptor molecule, acceptor atom, score
      L1  H     1    29       P1 10737  0.97
      P1  H  6896  6907       L1    15  0.79
      P1  H 10752 10763       L1    10  0.06

> <Gold.Chemscore.Hbond.Weighted>
-7.1696

> <Gold.Chemscore.Metal.Weighted>
-0.0000

> <Gold.Chemscore.Lipo.Weighted>
-8.1781

> <Gold.Chemscore.Internal_Hbond.Weighted>
0.0000

> <Gold.Chemscore.DEClash.Weighted>
0.6378

> <Gold.Chemscore.DEInternal.Weighted>
2.8302

> <Gold.Chemscore.Rot.Weighted>
8.8553

> <Gold.Chemscore.Internal.Correction.Weighted>
   9.000000E+99

> <Gold.Protein.RotatedTorsions>
[ 6907 6896 6895 6894 ] final  -47.52 input  -60.11 | X-H torsion
[ 7974 7965 7964 7962 ] final  -96.40 input  175.53 | X-H torsion
[ 8008 7997 7996 7995 ] final -126.46 input   59.86 | X-H torsion
[ 10167 10162 10161 10158 ] final  -36.49 input  -65.29 | X-H torsion
[ 10718 10713 10712 10709 ] final   88.45 input   66.30 | X-H torsion
[ 10763 10752 10751 10750 ] final   46.37 input  -60.55 | X-H torsion
[ 11005 11000 10999 10996 ] final  148.83 input  -57.11 | X-H torsion

> <Gold.Protein.ActiveResidues>
 VAL166  LYS551  ARG553  GLY616  TRP617  ASP618  TYR619  PRO620  LYS621  CYS622 
 ASP623  PHE694  ASN695  SER759  ASP760  ASP761  ALA762  ILE779  LEU786  VAL792 
 PHE793  MET794  SER795  GLU796  ALA797  LYS798  CYS799  TRP800  GLU811  SER814 

> <Gold.Protein.RotatedAtoms>
  150.9000  134.8411  159.7352 H   0  0  0  0  0  0  0  0  0  0  0  0  # atno 6907 bound_to 6896
  152.4887  134.4517  159.9586 H   0  0  0  0  0  0  0  0  0  0  0  0  # atno 6908 bound_to 6896
  151.4570  133.3563  159.2839 H   0  0  0  0  0  0  0  0  0  0  0  0  # atno 6909 bound_to 6896
  145.3473  140.9470  143.2574 H   0  0  0  0  0  0  0  0  0  0  0  0  # atno 7974 bound_to 7965
  155.2301  140.0425  157.2961 H   0  0  0  0  0  0  0  0  0  0  0  0  # atno 8008 bound_to 7997
  154.5894  140.2422  155.7912 H   0  0  0  0  0  0  0  0  0  0  0  0  # atno 8009 bound_to 7997
  156.2248  140.2958  156.0050 H   0  0  0  0  0  0  0  0  0  0  0  0  # atno 8010 bound_to 7997
  140.7141  143.3405  151.2367 H   0  0  0  0  0  0  0  0  0  0  0  0  # atno 10167 bound_to 10162
  157.6949  131.0295  150.3277 H   0  0  0  0  0  0  0  0  0  0  0  0  # atno 10718 bound_to 10713
  152.9811  135.6010  154.3589 H   0  0  0  0  0  0  0  0  0  0  0  0  # atno 10763 bound_to 10752
  154.3272  135.2769  155.2492 H   0  0  0  0  0  0  0  0  0  0  0  0  # atno 10764 bound_to 10752
  154.4632  135.5961  153.6325 H   0  0  0  0  0  0  0  0  0  0  0  0  # atno 10765 bound_to 10752
  140.0993  134.8993  157.1771 H   0  0  0  0  0  0  0  0  0  0  0  0  # atno 11005 bound_to 11000
  144.8744  139.4992  143.6752 LP  0  0  0  0  0  0  0  0  0  0  0  0  # atno 17320 bound_to 7965
  146.2982  139.7345  142.9110 LP  0  0  0  0  0  0  0  0  0  0  0  0  # atno 17321 bound_to 7965
  139.6912  143.9689  152.2860 LP  0  0  0  0  0  0  0  0  0  0  0  0  # atno 17342 bound_to 10162
  139.9351  144.6717  150.8323 LP  0  0  0  0  0  0  0  0  0  0  0  0  # atno 17343 bound_to 10162
  156.3755  130.3871  149.7142 LP  0  0  0  0  0  0  0  0  0  0  0  0  # atno 17370 bound_to 10713
  156.4542  130.7921  151.2942 LP  0  0  0  0  0  0  0  0  0  0  0  0  # atno 17371 bound_to 10713
  140.3242  134.2882  155.7240 LP  0  0  0  0  0  0  0  0  0  0  0  0  # atno 17394 bound_to 11000
  141.2101  133.7729  156.9954 LP  0  0  0  0  0  0  0  0  0  0  0  0  # atno 17395 bound_to 11000

$$$$
