AV-unprocessed.smi:189|AV-procd|sdf|1486|dock2
  -GOLD-   2262019303D 1   1.00000     0.00000
 Structure written by MMmdl.
 53 57  0  0  0  0  0  0  0  0  1 V2000
  153.8004  139.4981  159.5749 C   0  0  0  0  0  0  0  0  0  0  0  0
  152.6130  140.4716  159.5659 C   0  0  1  0  0  0  0  0  0  0  0  0
  152.5781  141.4245  160.7857 C   0  0  0  0  0  0  0  0  0  0  0  0
  152.5838  142.8170  160.1554 C   0  0  2  0  0  0  0  0  0  0  0  0
  151.8496  143.9591  160.8680 C   0  0  0  0  0  0  0  0  0  0  0  0
  151.9233  145.2283  159.9916 C   0  0  0  0  0  0  0  0  0  0  0  0
  151.4250  144.9823  158.5482 C   0  0  0  0  0  0  0  0  0  0  0  0
  152.1128  143.7712  157.8829 C   0  0  0  0  0  0  0  0  0  0  0  0
  151.9581  142.5470  158.7982 C   0  0  1  0  0  0  0  0  0  0  0  0
  152.6186  141.3260  158.3740 N   0  0  0  0  0  0  0  0  0  0  0  0
  152.1351  140.7744  157.2379 C   0  0  0  0  0  0  0  0  0  0  0  0
  152.8852  139.8936  156.5240 N   0  0  0  0  0  0  0  0  0  0  0  0
  152.3874  139.3419  155.4133 C   0  0  0  0  0  0  0  0  0  0  0  0
  151.1894  139.5261  154.8537 N   0  0  0  0  0  0  0  0  0  0  0  0
  150.4370  140.4099  155.5707 C   0  0  0  0  0  0  0  0  0  0  0  0
  150.8309  141.0722  156.7663 C   0  0  0  0  0  0  0  0  0  0  0  0
  149.8049  141.8894  157.2216 N   0  0  0  0  0  0  0  0  0  0  0  0
  148.8548  141.7200  156.3425 C   0  0  0  0  0  0  0  0  0  0  0  0
  149.1521  140.8552  155.3123 N   0  0  0  0  0  0  0  0  0  0  0  0
  148.2809  140.4836  154.2071 C   0  0  0  0  0  0  0  0  0  0  0  0
  148.0293  138.9605  154.0963 C   0  0  2  0  0  0  0  0  0  0  0  0
  149.2124  138.3342  153.6337 O   0  0  0  0  0  0  0  0  0  0  0  0
  146.8824  138.6281  153.1392 C   0  0  0  0  0  0  0  0  0  0  0  0
  145.7664  138.1614  154.0658 C   0  0  0  0  0  0  0  0  0  0  0  0
  146.4766  137.4922  155.0921 O   0  0  0  0  0  0  0  0  0  0  0  0
  147.5939  138.3045  155.4225 C   0  0  0  0  0  0  0  0  0  0  0  0
  153.7900  138.8788  160.4720 H   0  0  0  0  0  0  0  0  0  0  0  0
  154.7500  140.0335  159.5489 H   0  0  0  0  0  0  0  0  0  0  0  0
  153.7701  138.8308  158.7130 H   0  0  0  0  0  0  0  0  0  0  0  0
  151.6966  139.8799  159.5844 H   0  0  0  0  0  0  0  0  0  0  0  0
  151.6638  141.2615  161.3579 H   0  0  0  0  0  0  0  0  0  0  0  0
  153.4229  141.2873  161.4616 H   0  0  0  0  0  0  0  0  0  0  0  0
  153.6261  143.1098  160.0110 H   0  0  0  0  0  0  0  0  0  0  0  0
  150.8082  143.6865  161.0437 H   0  0  0  0  0  0  0  0  0  0  0  0
  152.2970  144.1475  161.8442 H   0  0  0  0  0  0  0  0  0  0  0  0
  151.3460  146.0309  160.4517 H   0  0  0  0  0  0  0  0  0  0  0  0
  152.9560  145.5776  159.9554 H   0  0  0  0  0  0  0  0  0  0  0  0
  150.3477  144.8136  158.5679 H   0  0  0  0  0  0  0  0  0  0  0  0
  151.5825  145.8761  157.9437 H   0  0  0  0  0  0  0  0  0  0  0  0
  151.6674  143.5800  156.9061 H   0  0  0  0  0  0  0  0  0  0  0  0
  153.1688  143.9852  157.7122 H   0  0  0  0  0  0  0  0  0  0  0  0
  150.8935  142.3397  158.9284 H   0  0  0  0  0  0  0  0  0  0  0  0
  153.0423  138.6530  154.9003 H   0  0  0  0  0  0  0  0  0  0  0  0
  147.9042  142.2278  156.4199 H   0  0  0  0  0  0  0  0  0  0  0  0
  147.3326  141.0094  154.3272 H   0  0  0  0  0  0  0  0  0  0  0  0
  148.7225  140.8624  153.2844 H   0  0  0  0  0  0  0  0  0  0  0  0
  148.9837  137.7521  152.9248 H   0  0  0  0  0  0  0  0  0  0  0  0
  146.5774  139.4690  152.5154 H   0  0  0  0  0  0  0  0  0  0  0  0
  147.1535  137.8086  152.4711 H   0  0  0  0  0  0  0  0  0  0  0  0
  145.2226  139.0098  154.4847 H   0  0  0  0  0  0  0  0  0  0  0  0
  145.0532  137.5026  153.5699 H   0  0  0  0  0  0  0  0  0  0  0  0
  148.3816  137.7228  155.9033 H   0  0  0  0  0  0  0  0  0  0  0  0
  147.2532  139.0517  156.1394 H   0  0  0  0  0  0  0  0  0  0  0  0
  1  2  1  0  0  0  0
  1 27  1  0  0  0  0
  1 28  1  0  0  0  0
  1 29  1  0  0  0  0
  2 10  1  0  0  0  0
  2  3  1  0  0  0  0
  2 30  1  0  0  0  0
  3  4  1  0  0  0  0
  3 31  1  0  0  0  0
  3 32  1  0  0  0  0
  4  9  1  0  0  0  0
  4  5  1  0  0  0  0
  4 33  1  0  0  0  0
  5  6  1  0  0  0  0
  5 34  1  0  0  0  0
  5 35  1  0  0  0  0
  6  7  1  0  0  0  0
  6 36  1  0  0  0  0
  6 37  1  0  0  0  0
  7  8  1  0  0  0  0
  7 38  1  0  0  0  0
  7 39  1  0  0  0  0
  8  9  1  0  0  0  0
  8 40  1  0  0  0  0
  8 41  1  0  0  0  0
  9 10  1  0  0  0  0
  9 42  1  0  0  0  0
 10 11  1  0  0  0  0
 11 16  1  0  0  0  0
 11 12  2  0  0  0  0
 12 13  1  0  0  0  0
 13 14  2  0  0  0  0
 13 43  1  0  0  0  0
 14 15  1  0  0  0  0
 15 19  1  0  0  0  0
 15 16  2  0  0  0  0
 16 17  1  0  0  0  0
 17 18  2  0  0  0  0
 18 19  1  0  0  0  0
 18 44  1  0  0  0  0
 19 20  1  0  0  0  0
 20 21  1  0  0  0  0
 20 45  1  0  0  0  0
 20 46  1  0  0  0  0
 21 26  1  0  0  0  0
 21 22  1  0  0  0  0
 21 23  1  0  0  0  0
 22 47  1  0  0  0  0
 23 24  1  0  0  0  0
 23 48  1  0  0  0  0
 23 49  1  0  0  0  0
 24 25  1  0  0  0  0
 24 50  1  0  0  0  0
 24 51  1  0  0  0  0
 25 26  1  0  0  0  0
 26 52  1  0  0  0  0
 26 53  1  0  0  0  0
M  END
> <s_m_source_file>
AV-unprocessed.smi

> <i_m_source_file_index>
189

> <i_lp_mmshare_version>
43012

> <i_f3d_flags>
0

> <s_epik_input>
W0NIMl0xW0NIMl1bQ0gyXVtDSDJdW0NASF0oW0NASF0xMilOKFtDQEhdKFtDSDNdKVtDSDJdMiljKG5bY0hdbjMpYyhjMzQpbltjSF1uNFtDSDJdW0NAQF01KFtPSF0pW0NIMl1bQ0gyXU9bQ0gyXTU=

> <s_epik_cmdline>
J2VwaWtfcHl0aG9uJywgJy1waCcsICc3LjAnLCAnLXRuJywgJzgnLCAnLW1hJywgJzIwMCcsICctbWV0YWxfYmluZGluZycsICctaW1hZScsICc8aW5maWxlLm1hZT4nLCAnLW9tYWUnLCAnPG91dGZpbGUubWFlPic=

> <r_lp_tautomer_probability>
1

> <r_epik_Ionization_Penalty>
0.00594261

> <r_epik_Ionization_Penalty_Charging>
0

> <r_epik_Ionization_Penalty_Neutral>
0.00594261

> <r_epik_State_Penalty>
0.00429776

> <r_epik_Charging_Adjusted_Penalty>
0.00429776

> <i_epik_Tot_Q>
0

> <i_epik_Tot_abs_Q>
0

> <r_epik_Metal_State_Penalty>
-0

> <b_epik_Metal_Only>
0

> <s_lp_Force_Field>
OPLS_2005

> <r_lp_Energy>
58.4258

> <b_lp_Chiralities_Consistent>
1

> <s_lp_Variant>
AV-unprocessed.smi:189-12

> <Gold.Version>
5.8.1

> <Gold.Id.Protein>
6NUR|6NUR_protein|mol2

> <Gold.PLP.Fitness>
53.9471

> <Gold.PLP.PLP>
-46.3501

> <Gold.PLP.part.hbond>
-3.9704

> <Gold.PLP.part.metal>
0.0000

> <Gold.PLP.part.buried>
-1.2178

> <Gold.PLP.part.nonpolar>
-39.9168

> <Gold.PLP.part.repulsive>
0.2442

> <Gold.PLP.ligand.clash>
0.0548

> <Gold.PLP.ligand.torsion>
0.6326

> <Gold.PLP.Chemscore.Hbond>
2.7000

> <Gold.PLP.Chemscore.CHOScore>
0.2639

> <Gold.PLP.Chemscore.Metal>
0.0000

> <Gold.Chemscore.Hbonds>
donor molecule, donor type, donor heavy atom, donor atom, acceptor molecule, acceptor atom, score
      L1  H    22    47       P1  7948  1.00
      P1  H  7989  7998       L1    14  0.65
      P1  H  7997  8010       L1    12  0.98
      L1  C    18    44       P1  8028  0.13

> <Gold.PLP.Chemscore.Internal.Correction>
0.0254

> <Gold.Rescore>
     Score         DG    S(hbond)    S(metal)    S(lipo)     H(rot)  DE(clash)    DE(int)     intcor
     16.88     -19.28       1.59        0.00     116.86       2.03       0.28       2.12       ----

> <Gold.Chemscore.Fitness>
16.8825

> <Gold.Chemscore.DG>
-19.2776

> <Gold.Chemscore.ZeroCoef>
-5.4800

> <Gold.Chemscore.Hbond>
1.5933

> <Gold.Chemscore.Metal>
0.0000

> <Gold.Chemscore.Lipo>
116.8552

> <Gold.Chemscore.Internal_Hbond>
0.0000

> <Gold.Chemscore.DEClash>
0.2775

> <Gold.Chemscore.DEInternal>
2.1176

> <Gold.Chemscore.Rot>
2.0297

> <Gold.Chemscore.Internal.Correction>
   9.000000E+99

> <Gold.Chemscore.Hbonds>
donor molecule, donor type, donor heavy atom, donor atom, acceptor molecule, acceptor atom, score
      L1  H    22    47       P1  7948  0.99
      P1  H  7989  7998       L1    14  0.01
      P1  H  7997  8010       L1    12  0.76

> <Gold.Chemscore.Hbond.Weighted>
-5.3215

> <Gold.Chemscore.Metal.Weighted>
-0.0000

> <Gold.Chemscore.Lipo.Weighted>
-13.6721

> <Gold.Chemscore.Internal_Hbond.Weighted>
0.0000

> <Gold.Chemscore.DEClash.Weighted>
0.2775

> <Gold.Chemscore.DEInternal.Weighted>
2.1176

> <Gold.Chemscore.Rot.Weighted>
5.1960

> <Gold.Chemscore.Internal.Correction.Weighted>
   9.000000E+99

> <Gold.Protein.RotatedTorsions>
[ 6907 6896 6895 6894 ] final  151.83 input  -60.11 | X-H torsion
[ 7974 7965 7964 7962 ] final   21.78 input  175.53 | X-H torsion
[ 8008 7997 7996 7995 ] final   56.98 input   59.86 | X-H torsion
[ 10167 10162 10161 10158 ] final   44.33 input  -65.29 | X-H torsion
[ 10718 10713 10712 10709 ] final  -20.85 input   66.30 | X-H torsion
[ 10763 10752 10751 10750 ] final  163.18 input  -60.55 | X-H torsion
[ 11005 11000 10999 10996 ] final   41.48 input  -57.11 | X-H torsion

> <Gold.Protein.ActiveResidues>
 VAL166  LYS551  ARG553  GLY616  TRP617  ASP618  TYR619  PRO620  LYS621  CYS622 
 ASP623  PHE694  ASN695  SER759  ASP760  ASP761  ALA762  ILE779  LEU786  VAL792 
 PHE793  MET794  SER795  GLU796  ALA797  LYS798  CYS799  TRP800  GLU811  SER814 

> <Gold.Protein.RotatedAtoms>
  152.0952  133.4221  159.4561 H   0  0  0  0  0  0  0  0  0  0  0  0  # atno 6907 bound_to 6896
  150.6863  134.2825  159.4642 H   0  0  0  0  0  0  0  0  0  0  0  0  # atno 6908 bound_to 6896
  152.0680  134.9551  160.0625 H   0  0  0  0  0  0  0  0  0  0  0  0  # atno 6909 bound_to 6896
  146.2057  139.7978  142.8728 H   0  0  0  0  0  0  0  0  0  0  0  0  # atno 7974 bound_to 7965
  155.5262  140.3481  155.4417 H   0  0  0  0  0  0  0  0  0  0  0  0  # atno 8008 bound_to 7997
  156.0750  140.1372  156.9809 H   0  0  0  0  0  0  0  0  0  0  0  0  # atno 8009 bound_to 7997
  154.4548  140.0958  156.6701 H   0  0  0  0  0  0  0  0  0  0  0  0  # atno 8010 bound_to 7997
  140.3354  144.2537  150.6162 H   0  0  0  0  0  0  0  0  0  0  0  0  # atno 10167 bound_to 10162
  156.5262  130.4644  149.6571 H   0  0  0  0  0  0  0  0  0  0  0  0  # atno 10718 bound_to 10713
  154.2898  135.2761  155.2660 H   0  0  0  0  0  0  0  0  0  0  0  0  # atno 10763 bound_to 10752
  154.5144  135.5773  153.6634 H   0  0  0  0  0  0  0  0  0  0  0  0  # atno 10764 bound_to 10752
  152.9916  135.6189  154.3062 H   0  0  0  0  0  0  0  0  0  0  0  0  # atno 10765 bound_to 10752
  140.1830  134.4080  155.8189 H   0  0  0  0  0  0  0  0  0  0  0  0  # atno 11005 bound_to 11000
  145.3328  141.0270  143.3436 LP  0  0  0  0  0  0  0  0  0  0  0  0  # atno 17320 bound_to 7965
  144.8786  139.4935  143.6733 LP  0  0  0  0  0  0  0  0  0  0  0  0  # atno 17321 bound_to 7965
  140.5359  143.2233  151.8164 LP  0  0  0  0  0  0  0  0  0  0  0  0  # atno 17342 bound_to 10162
  139.4849  144.4662  151.9481 LP  0  0  0  0  0  0  0  0  0  0  0  0  # atno 17343 bound_to 10162
  156.3102  130.7225  151.2116 LP  0  0  0  0  0  0  0  0  0  0  0  0  # atno 17370 bound_to 10713
  157.7429  131.0483  150.4988 LP  0  0  0  0  0  0  0  0  0  0  0  0  # atno 17371 bound_to 10713
  141.2224  133.7009  156.7964 LP  0  0  0  0  0  0  0  0  0  0  0  0  # atno 17394 bound_to 11000
  140.2245  134.8732  157.3412 LP  0  0  0  0  0  0  0  0  0  0  0  0  # atno 17395 bound_to 11000

$$$$
