AV-unprocessed.smi:393|AV-procd|sdf|2484|dock3
  -GOLD-   2262022423D 1   1.00000     0.00000
 Structure written by MMmdl.
 43 44  0  0  0  0  0  0  0  0  1 V2000
  152.5055  144.5241  159.4666 C   0  0  0  0  0  0  0  0  0  0  0  0
  151.8780  143.1369  159.2922 C   0  0  0  0  0  0  0  0  0  0  0  0
  152.9156  142.0077  159.3666 C   0  0  0  0  0  0  0  0  0  0  0  0
  153.1249  141.4949  160.8020 C   0  0  0  0  0  0  0  0  0  0  0  0
  154.1635  140.3731  160.8669 C   0  0  0  0  0  0  0  0  0  0  0  0
  155.2160  140.5381  161.4839 O   0  0  0  0  0  0  0  0  0  0  0  0
  153.8528  139.2321  160.2329 N   0  0  0  0  0  0  0  0  0  0  0  0
  154.6800  138.0294  160.2246 C   0  0  0  0  0  0  0  0  0  0  0  0
  154.3901  137.0480  161.3540 C   0  0  0  0  0  0  0  0  0  0  0  0
  154.2780  137.5223  162.6753 C   0  0  0  0  0  0  0  0  0  0  0  0
  154.0024  136.5984  163.6997 C   0  0  0  0  0  0  0  0  0  0  0  0
  153.8463  135.2763  163.4816 N   0  0  0  0  0  0  0  0  0  0  0  0
  153.9661  134.8019  162.2170 C   0  0  0  0  0  0  0  0  0  0  0  0
  153.8017  133.4158  162.0037 N   0  0  0  0  0  0  0  0  0  0  0  0
  154.8297  132.7688  161.1921 C   0  0  0  0  0  0  0  0  0  0  0  0
  154.3719  131.3619  160.7708 C   0  0  0  0  0  0  0  0  0  0  0  0
  154.0202  130.6037  161.9233 O   0  0  0  0  0  0  0  0  0  0  0  0
  152.9401  131.1967  162.6366 C   0  0  0  0  0  0  0  0  0  0  0  0
  153.3483  132.5964  163.1262 C   0  0  0  0  0  0  0  0  0  0  0  0
  154.2393  135.6612  161.1260 C   0  0  0  0  0  0  0  0  0  0  0  0
  151.7452  145.3040  159.4203 H   0  0  0  0  0  0  0  0  0  0  0  0
  153.2370  144.7258  158.6839 H   0  0  0  0  0  0  0  0  0  0  0  0
  153.0112  144.6094  160.4288 H   0  0  0  0  0  0  0  0  0  0  0  0
  151.1189  142.9876  160.0608 H   0  0  0  0  0  0  0  0  0  0  0  0
  151.3598  143.0941  158.3337 H   0  0  0  0  0  0  0  0  0  0  0  0
  152.5985  141.1860  158.7226 H   0  0  0  0  0  0  0  0  0  0  0  0
  153.8655  142.3649  158.9649 H   0  0  0  0  0  0  0  0  0  0  0  0
  153.4321  142.3196  161.4471 H   0  0  0  0  0  0  0  0  0  0  0  0
  152.1847  141.1174  161.2051 H   0  0  0  0  0  0  0  0  0  0  0  0
  152.9688  139.1820  159.7479 H   0  0  0  0  0  0  0  0  0  0  0  0
  154.5194  137.5151  159.2770 H   0  0  0  0  0  0  0  0  0  0  0  0
  155.7340  138.3116  160.2479 H   0  0  0  0  0  0  0  0  0  0  0  0
  154.3925  138.5725  162.9010 H   0  0  0  0  0  0  0  0  0  0  0  0
  153.9035  136.9299  164.7227 H   0  0  0  0  0  0  0  0  0  0  0  0
  155.0651  133.3456  160.2989 H   0  0  0  0  0  0  0  0  0  0  0  0
  155.7478  132.7017  161.7770 H   0  0  0  0  0  0  0  0  0  0  0  0
  153.5242  131.4180  160.0863 H   0  0  0  0  0  0  0  0  0  0  0  0
  155.1748  130.8497  160.2407 H   0  0  0  0  0  0  0  0  0  0  0  0
  152.0555  131.2503  161.9997 H   0  0  0  0  0  0  0  0  0  0  0  0
  152.6835  130.5625  163.4850 H   0  0  0  0  0  0  0  0  0  0  0  0
  154.1501  132.5161  163.8617 H   0  0  0  0  0  0  0  0  0  0  0  0
  152.4975  133.0680  163.6193 H   0  0  0  0  0  0  0  0  0  0  0  0
  154.3120  135.2660  160.1241 H   0  0  0  0  0  0  0  0  0  0  0  0
  1  2  1  0  0  0  0
  1 21  1  0  0  0  0
  1 22  1  0  0  0  0
  1 23  1  0  0  0  0
  2  3  1  0  0  0  0
  2 24  1  0  0  0  0
  2 25  1  0  0  0  0
  3  4  1  0  0  0  0
  3 26  1  0  0  0  0
  3 27  1  0  0  0  0
  4  5  1  0  0  0  0
  4 28  1  0  0  0  0
  4 29  1  0  0  0  0
  5  6  2  0  0  0  0
  5  7  1  0  0  0  0
  7  8  1  0  0  0  0
  7 30  1  0  0  0  0
  8  9  1  0  0  0  0
  8 31  1  0  0  0  0
  8 32  1  0  0  0  0
  9 20  1  0  0  0  0
  9 10  2  0  0  0  0
 10 11  1  0  0  0  0
 10 33  1  0  0  0  0
 11 12  2  0  0  0  0
 11 34  1  0  0  0  0
 12 13  1  0  0  0  0
 13 14  1  0  0  0  0
 13 20  2  0  0  0  0
 14 19  1  0  0  0  0
 14 15  1  0  0  0  0
 15 16  1  0  0  0  0
 15 35  1  0  0  0  0
 15 36  1  0  0  0  0
 16 17  1  0  0  0  0
 16 37  1  0  0  0  0
 16 38  1  0  0  0  0
 17 18  1  0  0  0  0
 18 19  1  0  0  0  0
 18 39  1  0  0  0  0
 18 40  1  0  0  0  0
 19 41  1  0  0  0  0
 19 42  1  0  0  0  0
 20 43  1  0  0  0  0
M  END
> <s_m_source_file>
AV-unprocessed.smi

> <i_m_source_file_index>
393

> <i_lp_mmshare_version>
43012

> <i_f3d_flags>
0

> <s_epik_input>
W0NIM11bQ0gyXVtDSDJdW0NIMl1DKD1PKVtOSF1bQ0gyXWMxW2NIXVtjSF1uYyhbY0hdMSlOMltDSDJdW0NIMl1PW0NIMl1bQ0gyXTI=

> <s_epik_cmdline>
J2VwaWtfcHl0aG9uJywgJy1waCcsICc3LjAnLCAnLXRuJywgJzgnLCAnLW1hJywgJzIwMCcsICctbWV0YWxfYmluZGluZycsICctaW1hZScsICc8aW5maWxlLm1hZT4nLCAnLW9tYWUnLCAnPG91dGZpbGUubWFlPic=

> <r_lp_tautomer_probability>
1

> <r_epik_Ionization_Penalty>
0.00585334

> <r_epik_Ionization_Penalty_Charging>
0

> <r_epik_Ionization_Penalty_Neutral>
0.00585334

> <r_epik_State_Penalty>
0.00430121

> <r_epik_Charging_Adjusted_Penalty>
0.00430121

> <i_epik_Tot_Q>
0

> <i_epik_Tot_abs_Q>
0

> <r_epik_Metal_State_Penalty>
-0

> <b_epik_Metal_Only>
0

> <s_lp_Force_Field>
OPLS_2005

> <r_lp_Energy>
14.3492

> <b_lp_Chiralities_Consistent>
1

> <s_lp_Variant>
AV-unprocessed.smi:393-1

> <Gold.Version>
5.8.1

> <Gold.Id.Protein>
6NUR|6NUR_protein|mol2

> <Gold.PLP.Fitness>
39.0856

> <Gold.PLP.PLP>
-40.1431

> <Gold.PLP.part.hbond>
-1.0000

> <Gold.PLP.part.metal>
0.0000

> <Gold.PLP.part.buried>
-5.0476

> <Gold.PLP.part.nonpolar>
-34.8538

> <Gold.PLP.part.repulsive>
0.1660

> <Gold.PLP.ligand.clash>
0.0000

> <Gold.PLP.ligand.torsion>
0.7177

> <Gold.PLP.Chemscore.Hbond>
0.0000

> <Gold.PLP.Chemscore.CHOScore>
0.0000

> <Gold.PLP.Chemscore.Metal>
0.0000

> <Gold.PLP.Chemscore.Internal.Correction>
0.3780

> <Gold.Rescore>
     Score         DG    S(hbond)    S(metal)    S(lipo)     H(rot)  DE(clash)    DE(int)     intcor
     11.06     -13.14       0.00        0.00     104.13       1.77       1.47       0.61       ----

> <Gold.Chemscore.Fitness>
11.0593

> <Gold.Chemscore.DG>
-13.1363

> <Gold.Chemscore.ZeroCoef>
-5.4800

> <Gold.Chemscore.Hbond>
0.0000

> <Gold.Chemscore.Metal>
0.0000

> <Gold.Chemscore.Lipo>
104.1311

> <Gold.Chemscore.Internal_Hbond>
0.0000

> <Gold.Chemscore.DEClash>
1.4653

> <Gold.Chemscore.DEInternal>
0.6117

> <Gold.Chemscore.Rot>
1.7684

> <Gold.Chemscore.Internal.Correction>
   9.000000E+99

> <Gold.Chemscore.Hbond.Weighted>
-0.0000

> <Gold.Chemscore.Metal.Weighted>
-0.0000

> <Gold.Chemscore.Lipo.Weighted>
-12.1833

> <Gold.Chemscore.Internal_Hbond.Weighted>
0.0000

> <Gold.Chemscore.DEClash.Weighted>
1.4653

> <Gold.Chemscore.DEInternal.Weighted>
0.6117

> <Gold.Chemscore.Rot.Weighted>
4.5271

> <Gold.Chemscore.Internal.Correction.Weighted>
   9.000000E+99

> <Gold.Protein.RotatedTorsions>
[ 6907 6896 6895 6894 ] final  120.15 input  -60.11 | X-H torsion
[ 7974 7965 7964 7962 ] final  -28.15 input  175.53 | X-H torsion
[ 8008 7997 7996 7995 ] final  -57.23 input   59.86 | X-H torsion
[ 10167 10162 10161 10158 ] final  -33.79 input  -65.29 | X-H torsion
[ 10718 10713 10712 10709 ] final -145.55 input   66.30 | X-H torsion
[ 10763 10752 10751 10750 ] final   94.60 input  -60.55 | X-H torsion
[ 11005 11000 10999 10996 ] final  124.26 input  -57.11 | X-H torsion

> <Gold.Protein.ActiveResidues>
 VAL166  LYS551  ARG553  GLY616  TRP617  ASP618  TYR619  PRO620  LYS621  CYS622 
 ASP623  PHE694  ASN695  SER759  ASP760  ASP761  ALA762  ILE779  LEU786  VAL792 
 PHE793  MET794  SER795  GLU796  ALA797  LYS798  CYS799  TRP800  GLU811  SER814 

> <Gold.Protein.RotatedAtoms>
  152.4419  133.7464  159.6669 H   0  0  0  0  0  0  0  0  0  0  0  0  # atno 6907 bound_to 6896
  150.8311  133.8078  159.3104 H   0  0  0  0  0  0  0  0  0  0  0  0  # atno 6908 bound_to 6896
  151.5732  135.1064  160.0051 H   0  0  0  0  0  0  0  0  0  0  0  0  # atno 6909 bound_to 6896
  146.1308  140.5245  142.8694 H   0  0  0  0  0  0  0  0  0  0  0  0  # atno 7974 bound_to 7965
  154.4260  140.1111  156.5764 H   0  0  0  0  0  0  0  0  0  0  0  0  # atno 8008 bound_to 7997
  155.6158  140.3494  155.4617 H   0  0  0  0  0  0  0  0  0  0  0  0  # atno 8009 bound_to 7997
  156.0063  140.1209  157.0487 H   0  0  0  0  0  0  0  0  0  0  0  0  # atno 8010 bound_to 7997
  140.7198  143.3595  151.1992 H   0  0  0  0  0  0  0  0  0  0  0  0  # atno 10167 bound_to 10162
  156.3839  130.7851  151.2046 H   0  0  0  0  0  0  0  0  0  0  0  0  # atno 10718 bound_to 10713
  153.2435  135.4284  155.0722 H   0  0  0  0  0  0  0  0  0  0  0  0  # atno 10763 bound_to 10752
  154.8351  135.3408  154.6615 H   0  0  0  0  0  0  0  0  0  0  0  0  # atno 10764 bound_to 10752
  153.7039  135.7027  153.5112 H   0  0  0  0  0  0  0  0  0  0  0  0  # atno 10765 bound_to 10752
  139.9350  134.9640  156.8382 H   0  0  0  0  0  0  0  0  0  0  0  0  # atno 11005 bound_to 11000
  144.7689  140.5592  143.6684 LP  0  0  0  0  0  0  0  0  0  0  0  0  # atno 17320 bound_to 7965
  145.5264  139.1476  143.3523 LP  0  0  0  0  0  0  0  0  0  0  0  0  # atno 17321 bound_to 7965
  139.7143  143.9325  152.2960 LP  0  0  0  0  0  0  0  0  0  0  0  0  # atno 17342 bound_to 10162
  139.9061  144.6884  150.8613 LP  0  0  0  0  0  0  0  0  0  0  0  0  # atno 17343 bound_to 10162
  157.7494  131.0336  150.4278 LP  0  0  0  0  0  0  0  0  0  0  0  0  # atno 17370 bound_to 10713
  156.4527  130.4015  149.6625 LP  0  0  0  0  0  0  0  0  0  0  0  0  # atno 17371 bound_to 10713
  140.6099  134.0092  155.7572 LP  0  0  0  0  0  0  0  0  0  0  0  0  # atno 17394 bound_to 11000
  141.0959  133.9844  157.3160 LP  0  0  0  0  0  0  0  0  0  0  0  0  # atno 17395 bound_to 11000

$$$$
