AV-unprocessed.smi:107|AV-procd|sdf|1014|dock9
  -GOLD-   2262018 13D 1   1.00000     0.00000
 Structure written by MMmdl.
 31 32  0  0  0  0  0  0  0  0  1 V2000
  152.0502  137.8095  154.0707 C   0  0  0  0  0  0  0  0  0  0  0  0
  151.0481  138.7554  154.7110 C   0  0  0  0  0  0  0  0  0  0  0  0
  149.7480  138.8074  154.3245 C   0  0  0  0  0  0  0  0  0  0  0  0
  148.8078  139.6558  154.8908 N   0  0  0  0  0  0  0  0  0  0  0  0
  147.3770  139.6364  154.4076 C   0  0  1  0  0  0  0  0  0  0  0  0
  147.2662  140.1682  152.9720 C   0  0  0  0  0  0  0  0  0  0  0  0
  146.6603  138.9966  152.2126 C   0  0  1  0  0  0  0  0  0  0  0  0
  147.6584  138.3083  151.4814 O   0  0  0  0  0  0  0  0  0  0  0  0
  146.0464  138.1271  153.3209 C   0  0  1  0  0  0  0  0  0  0  0  0
  145.8891  136.6336  152.9846 C   0  0  0  0  0  0  0  0  0  0  0  0
  147.0593  135.9300  153.3423 O   0  0  0  0  0  0  0  0  0  0  0  0
  146.9355  138.3154  154.4134 O   0  0  0  0  0  0  0  0  0  0  0  0
  149.1970  140.5221  155.9340 C   0  0  0  0  0  0  0  0  0  0  0  0
  148.4251  141.3073  156.4829 O   0  0  0  0  0  0  0  0  0  0  0  0
  150.5321  140.4696  156.3314 N   0  0  0  0  0  0  0  0  0  0  0  0
  151.5118  139.6348  155.7877 C   0  0  0  0  0  0  0  0  0  0  0  0
  152.6609  139.6830  156.2238 O   0  0  0  0  0  0  0  0  0  0  0  0
  150.8166  141.0901  157.0753 H   0  0  0  0  0  0  0  0  0  0  0  0
  151.5982  137.2240  153.2697 H   0  0  0  0  0  0  0  0  0  0  0  0
  152.4442  137.1138  154.8124 H   0  0  0  0  0  0  0  0  0  0  0  0
  152.8857  138.3672  153.6462 H   0  0  0  0  0  0  0  0  0  0  0  0
  149.4244  138.1488  153.5317 H   0  0  0  0  0  0  0  0  0  0  0  0
  146.7656  140.2028  155.1111 H   0  0  0  0  0  0  0  0  0  0  0  0
  146.5910  141.0247  152.9743 H   0  0  0  0  0  0  0  0  0  0  0  0
  148.2307  140.4924  152.5773 H   0  0  0  0  0  0  0  0  0  0  0  0
  145.8997  139.3307  151.5063 H   0  0  0  0  0  0  0  0  0  0  0  0
  148.4856  138.7448  151.6161 H   0  0  0  0  0  0  0  0  0  0  0  0
  145.0788  138.5558  153.5901 H   0  0  0  0  0  0  0  0  0  0  0  0
  145.0655  136.2047  153.5562 H   0  0  0  0  0  0  0  0  0  0  0  0
  145.6660  136.4850  151.9275 H   0  0  0  0  0  0  0  0  0  0  0  0
  147.7917  136.3094  152.8813 H   0  0  0  0  0  0  0  0  0  0  0  0
  1  2  1  0  0  0  0
  1 19  1  0  0  0  0
  1 20  1  0  0  0  0
  1 21  1  0  0  0  0
  2 16  1  0  0  0  0
  2  3  2  0  0  0  0
  3  4  1  0  0  0  0
  3 22  1  0  0  0  0
  4  5  1  0  0  0  0
  4 13  1  0  0  0  0
  5 12  1  0  0  0  0
  5  6  1  0  0  0  0
  5 23  1  0  0  0  0
  6  7  1  0  0  0  0
  6 24  1  0  0  0  0
  6 25  1  0  0  0  0
  7  8  1  0  0  0  0
  7  9  1  0  0  0  0
  7 26  1  0  0  0  0
  8 27  1  0  0  0  0
  9 10  1  0  0  0  0
  9 12  1  0  0  0  0
  9 28  1  0  0  0  0
 10 11  1  0  0  0  0
 10 29  1  0  0  0  0
 10 30  1  0  0  0  0
 11 31  1  0  0  0  0
 13 14  2  0  0  0  0
 13 15  1  0  0  0  0
 15 18  1  0  0  0  0
 15 16  1  0  0  0  0
 16 17  2  0  0  0  0
M  END
> <s_m_source_file>
AV-unprocessed.smi

> <i_m_source_file_index>
107

> <i_lp_mmshare_version>
43012

> <i_f3d_flags>
0

> <s_epik_input>
Tz1jMVtuSF1jKD1PKW4oW2NIXWMxW0NIM10pW0NAQEhdMltDSDJdW0NAQEhdKFtPSF0pW0NASF0oTzIpW0NIMl1bT0hd

> <s_epik_cmdline>
J2VwaWtfcHl0aG9uJywgJy1waCcsICc3LjAnLCAnLXRuJywgJzgnLCAnLW1hJywgJzIwMCcsICctbWV0YWxfYmluZGluZycsICctaW1hZScsICc8aW5maWxlLm1hZT4nLCAnLW9tYWUnLCAnPG91dGZpbGUubWFlPic=

> <r_lp_tautomer_probability>
0.999537

> <r_epik_Ionization_Penalty>
0.00121888

> <r_epik_Ionization_Penalty_Charging>
0.00121876

> <r_epik_Ionization_Penalty_Neutral>
1.19946e-07

> <r_epik_State_Penalty>
0.000805124

> <r_epik_Charging_Adjusted_Penalty>
0.00202389

> <i_epik_Tot_Q>
0

> <i_epik_Tot_abs_Q>
0

> <r_epik_Metal_State_Penalty>
0.662472

> <b_epik_Metal_Only>
0

> <s_epik_Chemistry_Notes>
This compound contains an acetal/aminal-like group ( X-CH(R)-Y where X, Y are N, S, or O) that may be acid/base labile, releasing an aldehyde.

> <s_lp_Force_Field>
OPLS_2005

> <r_lp_Energy>
28.3693

> <b_lp_Chiralities_Consistent>
1

> <s_lp_Variant>
AV-unprocessed.smi:107-2

> <Gold.Version>
5.8.1

> <Gold.Id.Protein>
6NUR|6NUR_protein|mol2

> <Gold.PLP.Fitness>
36.5188

> <Gold.PLP.PLP>
-24.5603

> <Gold.PLP.part.hbond>
-4.3153

> <Gold.PLP.part.metal>
0.0000

> <Gold.PLP.part.buried>
-0.2056

> <Gold.PLP.part.nonpolar>
-20.3872

> <Gold.PLP.part.repulsive>
0.2690

> <Gold.PLP.ligand.clash>
0.0000

> <Gold.PLP.ligand.torsion>
0.5086

> <Gold.PLP.Chemscore.Hbond>
3.3940

> <Gold.PLP.Chemscore.CHOScore>
0.9295

> <Gold.PLP.Chemscore.Metal>
0.0000

> <Gold.Chemscore.Hbonds>
donor molecule, donor type, donor heavy atom, donor atom, acceptor molecule, acceptor atom, score
      L1  H     8    27       P1  7957  0.94
      L1  H    11    31       P1  7948  1.00
      P1  H  7954  7966       L1     8  0.40
      P1  H  7997  8010       L1    17  1.00
      L1  C     3    22       P1  7948  0.94

> <Gold.PLP.Chemscore.Internal.Correction>
0.0053

> <Gold.Rescore>
     Score         DG    S(hbond)    S(metal)    S(lipo)     H(rot)  DE(clash)    DE(int)     intcor
     12.74     -13.50       2.78        0.00      48.84       2.73       0.24       0.51       ----

> <Gold.Chemscore.Fitness>
12.7428

> <Gold.Chemscore.DG>
-13.4956

> <Gold.Chemscore.ZeroCoef>
-5.4800

> <Gold.Chemscore.Hbond>
2.7779

> <Gold.Chemscore.Metal>
0.0000

> <Gold.Chemscore.Lipo>
48.8408

> <Gold.Chemscore.Internal_Hbond>
0.0000

> <Gold.Chemscore.DEClash>
0.2429

> <Gold.Chemscore.DEInternal>
0.5099

> <Gold.Chemscore.Rot>
2.7253

> <Gold.Chemscore.Internal.Correction>
   9.000000E+99

> <Gold.Chemscore.Hbonds>
donor molecule, donor type, donor heavy atom, donor atom, acceptor molecule, acceptor atom, score
      L1  H     8    27       P1  7957  0.45
      L1  H    11    31       P1  7948  0.90
      P1  H  7954  7966       L1     8  0.01
      P1  H  7997  8010       L1    17  0.98

> <Gold.Chemscore.Hbond.Weighted>
-9.2781

> <Gold.Chemscore.Metal.Weighted>
-0.0000

> <Gold.Chemscore.Lipo.Weighted>
-5.7144

> <Gold.Chemscore.Internal_Hbond.Weighted>
0.0000

> <Gold.Chemscore.DEClash.Weighted>
0.2429

> <Gold.Chemscore.DEInternal.Weighted>
0.5099

> <Gold.Chemscore.Rot.Weighted>
6.9769

> <Gold.Chemscore.Internal.Correction.Weighted>
   9.000000E+99

> <Gold.Protein.RotatedTorsions>
[ 6907 6896 6895 6894 ] final -142.83 input  -60.11 | X-H torsion
[ 7974 7965 7964 7962 ] final   82.71 input  175.53 | X-H torsion
[ 8008 7997 7996 7995 ] final   61.67 input   59.86 | X-H torsion
[ 10167 10162 10161 10158 ] final -111.65 input  -65.29 | X-H torsion
[ 10718 10713 10712 10709 ] final  -99.03 input   66.30 | X-H torsion
[ 10763 10752 10751 10750 ] final  -88.50 input  -60.55 | X-H torsion
[ 11005 11000 10999 10996 ] final   99.29 input  -57.11 | X-H torsion

> <Gold.Protein.ActiveResidues>
 VAL166  LYS551  ARG553  GLY616  TRP617  ASP618  TYR619  PRO620  LYS621  CYS622 
 ASP623  PHE694  ASN695  SER759  ASP760  ASP761  ALA762  ILE779  LEU786  VAL792 
 PHE793  MET794  SER795  GLU796  ALA797  LYS798  CYS799  TRP800  GLU811  SER814 

> <Gold.Protein.RotatedAtoms>
  151.0924  133.5306  159.2614 H   0  0  0  0  0  0  0  0  0  0  0  0  # atno 6907 bound_to 6896
  151.2168  135.0502  159.8943 H   0  0  0  0  0  0  0  0  0  0  0  0  # atno 6908 bound_to 6896
  152.5435  134.0732  159.8256 H   0  0  0  0  0  0  0  0  0  0  0  0  # atno 6909 bound_to 6896
  145.6215  139.2386  143.2136 H   0  0  0  0  0  0  0  0  0  0  0  0  # atno 7974 bound_to 7965
  155.6021  140.3494  155.4597 H   0  0  0  0  0  0  0  0  0  0  0  0  # atno 8008 bound_to 7997
  156.0220  140.1255  157.0372 H   0  0  0  0  0  0  0  0  0  0  0  0  # atno 8009 bound_to 7997
  154.4319  140.1060  156.5963 H   0  0  0  0  0  0  0  0  0  0  0  0  # atno 8010 bound_to 7997
  140.1312  143.4359  152.1626 H   0  0  0  0  0  0  0  0  0  0  0  0  # atno 10167 bound_to 10162
  156.0123  130.5264  150.6610 H   0  0  0  0  0  0  0  0  0  0  0  0  # atno 10718 bound_to 10713
  154.6453  135.5374  153.7837 H   0  0  0  0  0  0  0  0  0  0  0  0  # atno 10763 bound_to 10752
  153.0356  135.6469  154.1099 H   0  0  0  0  0  0  0  0  0  0  0  0  # atno 10764 bound_to 10752
  154.1020  135.2932  155.3229 H   0  0  0  0  0  0  0  0  0  0  0  0  # atno 10765 bound_to 10752
  139.8771  134.9089  156.4584 H   0  0  0  0  0  0  0  0  0  0  0  0  # atno 11005 bound_to 11000
  146.1428  140.7034  142.9359 LP  0  0  0  0  0  0  0  0  0  0  0  0  # atno 17320 bound_to 7965
  144.7229  140.4433  143.6994 LP  0  0  0  0  0  0  0  0  0  0  0  0  # atno 17321 bound_to 7965
  139.5518  144.7343  151.4411 LP  0  0  0  0  0  0  0  0  0  0  0  0  # atno 17342 bound_to 10162
  140.6815  143.8070  150.7128 LP  0  0  0  0  0  0  0  0  0  0  0  0  # atno 17343 bound_to 10162
  157.4353  131.0854  151.0998 LP  0  0  0  0  0  0  0  0  0  0  0  0  # atno 17370 bound_to 10713
  157.1559  130.6204  149.5596 LP  0  0  0  0  0  0  0  0  0  0  0  0  # atno 17371 bound_to 10713
  140.8882  133.7868  155.9542 LP  0  0  0  0  0  0  0  0  0  0  0  0  # atno 17394 bound_to 11000
  140.8782  134.2643  157.5157 LP  0  0  0  0  0  0  0  0  0  0  0  0  # atno 17395 bound_to 11000

$$$$
