AV-unprocessed.smi:48|AV-procd|sdf|449|dock10
  -GOLD-   2262016313D 1   1.00000     0.00000
 Structure written by MMmdl.
 30 32  0  0  0  0  0  0  0  0  1 V2000
  147.8388  138.5752  151.7342 O   0  0  0  0  0  0  0  0  0  0  0  0
  146.9954  138.6750  152.8616 C   0  0  0  0  0  0  0  0  0  0  0  0
  147.0381  140.1043  153.4220 C   0  0  1  0  0  0  0  0  0  0  0  0
  146.0963  140.2353  154.4816 O   0  0  0  0  0  0  0  0  0  0  0  0
  146.4418  141.3212  155.2894 C   0  0  2  0  0  0  0  0  0  0  0  0
  145.5427  142.4712  154.9454 N   0  0  0  0  0  0  0  0  0  0  0  0
  145.2408  142.9923  153.7363 C   0  0  0  0  0  0  0  0  0  0  0  0
  144.3981  144.0249  153.7073 N   0  0  0  0  0  0  0  0  0  0  0  0
  144.1190  144.1922  155.0535 C   0  0  0  0  0  0  0  0  0  0  0  0
  143.2993  145.1049  155.7607 C   0  0  0  0  0  0  0  0  0  0  0  0
  142.3955  146.3173  154.9293 Cl  0  0  0  0  0  0  0  0  0  0  0  0
  143.2403  145.0055  157.1106 N   0  0  0  0  0  0  0  0  0  0  0  0
  143.9522  144.0559  157.7308 C   0  0  0  0  0  0  0  0  0  0  0  0
  144.7635  143.1322  157.2019 N   0  0  0  0  0  0  0  0  0  0  0  0
  144.8184  143.2355  155.8413 C   0  0  0  0  0  0  0  0  0  0  0  0
  147.9352  141.6292  155.0222 C   0  0  2  0  0  0  0  0  0  0  0  0
  148.1615  142.8785  154.3856 O   0  0  0  0  0  0  0  0  0  0  0  0
  148.3411  140.4474  154.1435 C   0  0  2  0  0  0  0  0  0  0  0  0
  149.4049  140.7383  153.2561 O   0  0  0  0  0  0  0  0  0  0  0  0
  146.8390  140.8432  152.6433 H   0  0  0  0  0  0  0  0  0  0  0  0
  146.2177  141.1000  156.3335 H   0  0  0  0  0  0  0  0  0  0  0  0
  148.4816  141.6208  155.9658 H   0  0  0  0  0  0  0  0  0  0  0  0
  148.6329  139.6122  154.7821 H   0  0  0  0  0  0  0  0  0  0  0  0
  148.3080  139.3898  151.6371 H   0  0  0  0  0  0  0  0  0  0  0  0
  145.9783  138.3786  152.6040 H   0  0  0  0  0  0  0  0  0  0  0  0
  147.3606  137.9681  153.6070 H   0  0  0  0  0  0  0  0  0  0  0  0
  145.6582  142.5938  152.8235 H   0  0  0  0  0  0  0  0  0  0  0  0
  143.8594  144.0327  158.8065 H   0  0  0  0  0  0  0  0  0  0  0  0
  148.4179  143.5074  155.0426 H   0  0  0  0  0  0  0  0  0  0  0  0
  149.4168  140.0815  152.5769 H   0  0  0  0  0  0  0  0  0  0  0  0
  1  2  1  0  0  0  0
  1 24  1  0  0  0  0
  2  3  1  0  0  0  0
  2 25  1  0  0  0  0
  2 26  1  0  0  0  0
  3 20  1  0  0  0  0
  3 18  1  0  0  0  0
  3  4  1  0  0  0  0
  4  5  1  0  0  0  0
  5 21  1  0  0  0  0
  5  6  1  0  0  0  0
  5 16  1  0  0  0  0
  6 15  1  0  0  0  0
  6  7  1  0  0  0  0
  7  8  2  0  0  0  0
  7 27  1  0  0  0  0
  8  9  1  0  0  0  0
  9 15  2  0  0  0  0
  9 10  1  0  0  0  0
 10 11  1  0  0  0  0
 10 12  2  0  0  0  0
 12 13  1  0  0  0  0
 13 14  2  0  0  0  0
 13 28  1  0  0  0  0
 14 15  1  0  0  0  0
 16 22  1  0  0  0  0
 16 17  1  0  0  0  0
 16 18  1  0  0  0  0
 17 29  1  0  0  0  0
 18 23  1  0  0  0  0
 18 19  1  0  0  0  0
 19 30  1  0  0  0  0
M  END
> <s_m_source_file>
AV-unprocessed.smi

> <i_m_source_file_index>
48

> <i_lp_mmshare_version>
43012

> <i_f3d_flags>
0

> <s_epik_input>
W09IXVtDSDJdW0NASF0xT1tDQEhdKFtDQEhdKFtPSF0pW0NAQEhdMVtPSF0pbihbY0hdbjIpYyhjMjMpbltjSF1uYzNDbA==

> <s_epik_cmdline>
J2VwaWtfcHl0aG9uJywgJy1waCcsICc3LjAnLCAnLXRuJywgJzgnLCAnLW1hJywgJzIwMCcsICctbWV0YWxfYmluZGluZycsICctaW1hZScsICc8aW5maWxlLm1hZT4nLCAnLW9tYWUnLCAnPG91dGZpbGUubWFlPic=

> <r_lp_tautomer_probability>
1

> <r_epik_Ionization_Penalty>
3.45505e-06

> <r_epik_Ionization_Penalty_Charging>
0

> <r_epik_Ionization_Penalty_Neutral>
3.45505e-06

> <r_epik_State_Penalty>
-0

> <r_epik_Charging_Adjusted_Penalty>
0

> <i_epik_Tot_Q>
0

> <i_epik_Tot_abs_Q>
0

> <r_epik_Metal_State_Penalty>
-0

> <b_epik_Metal_Only>
0

> <s_epik_Chemistry_Notes>
This compound contains an acetal/aminal-like group ( X-CH(R)-Y where X, Y are N, S, or O) that may be acid/base labile, releasing an aldehyde.

> <s_lp_Force_Field>
OPLS_2005

> <r_lp_Energy>
41.4935

> <b_lp_Chiralities_Consistent>
1

> <s_lp_Variant>
AV-unprocessed.smi:48-3

> <Gold.Version>
5.8.1

> <Gold.Id.Protein>
6NUR|6NUR_protein|mol2

> <Gold.PLP.Fitness>
43.3552

> <Gold.PLP.PLP>
-31.9446

> <Gold.PLP.part.hbond>
-5.7429

> <Gold.PLP.part.metal>
0.0000

> <Gold.PLP.part.buried>
-3.7274

> <Gold.PLP.part.nonpolar>
-22.7230

> <Gold.PLP.part.repulsive>
0.4504

> <Gold.PLP.ligand.clash>
0.1939

> <Gold.PLP.ligand.torsion>
0.2034

> <Gold.PLP.Chemscore.Hbond>
3.9815

> <Gold.PLP.Chemscore.CHOScore>
0.0000

> <Gold.PLP.Chemscore.Metal>
0.0000

> <Gold.Chemscore.Hbonds>
donor molecule, donor type, donor heavy atom, donor atom, acceptor molecule, acceptor atom, score
      L1  H     1    24       P1  7957  0.80
      L1  H    17    29       P1  8028  0.70
      L1  H    19    30       P1  7957  0.55
      P1  H  7954  7966       L1     1  0.72
      P1  H  7989  7998       L1    19  0.12
      P1  H  8011  8017       L1    19  1.00

> <Gold.PLP.Chemscore.Internal.Correction>
0.0670

> <Gold.Rescore>
     Score         DG    S(hbond)    S(metal)    S(lipo)     H(rot)  DE(clash)    DE(int)     intcor
      9.10     -10.51       2.83        0.00      45.46       3.80       0.16       1.26       ----

> <Gold.Chemscore.Fitness>
9.0985

> <Gold.Chemscore.DG>
-10.5111

> <Gold.Chemscore.ZeroCoef>
-5.4800

> <Gold.Chemscore.Hbond>
2.8278

> <Gold.Chemscore.Metal>
0.0000

> <Gold.Chemscore.Lipo>
45.4575

> <Gold.Chemscore.Internal_Hbond>
0.0000

> <Gold.Chemscore.DEClash>
0.1567

> <Gold.Chemscore.DEInternal>
1.2558

> <Gold.Chemscore.Rot>
3.8017

> <Gold.Chemscore.Internal.Correction>
   9.000000E+99

> <Gold.Chemscore.Hbonds>
donor molecule, donor type, donor heavy atom, donor atom, acceptor molecule, acceptor atom, score
      L1  H     1    24       P1  7957  0.76
      L1  H    17    29       P1  8028  0.68
      L1  H    19    30       P1  7957  0.55
      P1  H  7954  7966       L1     1  0.10
      P1  H  7989  7998       L1    19  0.02
      P1  H  8011  8017       L1    19  0.44

> <Gold.Chemscore.Hbond.Weighted>
-9.4449

> <Gold.Chemscore.Metal.Weighted>
-0.0000

> <Gold.Chemscore.Lipo.Weighted>
-5.3185

> <Gold.Chemscore.Internal_Hbond.Weighted>
0.0000

> <Gold.Chemscore.DEClash.Weighted>
0.1567

> <Gold.Chemscore.DEInternal.Weighted>
1.2558

> <Gold.Chemscore.Rot.Weighted>
9.7324

> <Gold.Chemscore.Internal.Correction.Weighted>
   9.000000E+99

> <Gold.Protein.RotatedTorsions>
[ 6907 6896 6895 6894 ] final  -56.27 input  -60.11 | X-H torsion
[ 7974 7965 7964 7962 ] final  156.56 input  175.53 | X-H torsion
[ 8008 7997 7996 7995 ] final -124.54 input   59.86 | X-H torsion
[ 10167 10162 10161 10158 ] final  139.13 input  -65.29 | X-H torsion
[ 10718 10713 10712 10709 ] final -119.36 input   66.30 | X-H torsion
[ 10763 10752 10751 10750 ] final  -98.78 input  -60.55 | X-H torsion
[ 11005 11000 10999 10996 ] final -122.30 input  -57.11 | X-H torsion

> <Gold.Protein.ActiveResidues>
 VAL166  LYS551  ARG553  GLY616  TRP617  ASP618  TYR619  PRO620  LYS621  CYS622 
 ASP623  PHE694  ASN695  SER759  ASP760  ASP761  ALA762  ILE779  LEU786  VAL792 
 PHE793  MET794  SER795  GLU796  ALA797  LYS798  CYS799  TRP800  GLU811  SER814 

> <Gold.Protein.RotatedAtoms>
  150.8182  134.7375  159.6748 H   0  0  0  0  0  0  0  0  0  0  0  0  # atno 6907 bound_to 6896
  152.4299  134.5794  159.9953 H   0  0  0  0  0  0  0  0  0  0  0  0  # atno 6908 bound_to 6896
  151.5985  133.3321  159.3078 H   0  0  0  0  0  0  0  0  0  0  0  0  # atno 6909 bound_to 6896
  144.7956  139.7220  143.6203 H   0  0  0  0  0  0  0  0  0  0  0  0  # atno 7974 bound_to 7965
  155.1986  140.0415  157.2913 H   0  0  0  0  0  0  0  0  0  0  0  0  # atno 8008 bound_to 7997
  154.6090  140.2472  155.7665 H   0  0  0  0  0  0  0  0  0  0  0  0  # atno 8009 bound_to 7997
  156.2367  140.2919  156.0342 H   0  0  0  0  0  0  0  0  0  0  0  0  # atno 8010 bound_to 7997
  139.5088  144.6313  151.5810 H   0  0  0  0  0  0  0  0  0  0  0  0  # atno 10167 bound_to 10162
  156.1175  130.6297  150.9407 H   0  0  0  0  0  0  0  0  0  0  0  0  # atno 10718 bound_to 10713
  154.7443  135.4997  153.9176 H   0  0  0  0  0  0  0  0  0  0  0  0  # atno 10763 bound_to 10752
  153.1075  135.6701  153.9568 H   0  0  0  0  0  0  0  0  0  0  0  0  # atno 10764 bound_to 10752
  153.9336  135.3075  155.3424 H   0  0  0  0  0  0  0  0  0  0  0  0  # atno 10765 bound_to 10752
  141.0005  134.0409  157.3543 H   0  0  0  0  0  0  0  0  0  0  0  0  # atno 11005 bound_to 11000
  146.2222  139.5657  142.9610 LP  0  0  0  0  0  0  0  0  0  0  0  0  # atno 17320 bound_to 7965
  145.5683  141.0397  143.2188 LP  0  0  0  0  0  0  0  0  0  0  0  0  # atno 17321 bound_to 7965
  140.6046  143.9547  150.6410 LP  0  0  0  0  0  0  0  0  0  0  0  0  # atno 17342 bound_to 10162
  140.2770  143.3416  152.1186 LP  0  0  0  0  0  0  0  0  0  0  0  0  # atno 17343 bound_to 10162
  157.6359  131.0916  150.8350 LP  0  0  0  0  0  0  0  0  0  0  0  0  # atno 17370 bound_to 10713
  156.8451  130.5061  149.5317 LP  0  0  0  0  0  0  0  0  0  0  0  0  # atno 17371 bound_to 10713
  139.9036  135.0173  156.7385 LP  0  0  0  0  0  0  0  0  0  0  0  0  # atno 17394 bound_to 11000
  140.6896  133.9402  155.7958 LP  0  0  0  0  0  0  0  0  0  0  0  0  # atno 17395 bound_to 11000

$$$$
