#       Name:                AV-unprocessed.smi:1464
#       Creating user name   scv26
#       Creation time:       Fri Mar 27 06:01:59 2020


#       File generated by GOLD software.
#

@<TRIPOS>MOLECULE
AV-unprocessed.smi:1464
    47    48     1
SMALL
NO_CHARGES


@<TRIPOS>ATOM
      1 ****        -3.6672  -2.0246   2.5494 C.3            1 S1                 0.0000
      2 ****        -3.1099  -1.2194   1.3609 C.3            1 S1                 0.0000
      3 ****        -3.6365  -1.8197   0.0417 C.3            1 S1                 0.0000
      4 ****        -3.1424  -1.0359  -1.1787 C.3            1 S1                 0.0000
      5 ****        -1.6121  -0.9875  -1.2029 C.3            1 S1                 0.0000
      6 ****        -1.0500  -0.3767   0.0948 C.3            1 S1                 0.0000
      7 ****         0.4110  -0.3884   0.0374 N.am           1 S1                 0.0000
      8 ****         1.1786   0.5751  -0.4948 C.2            1 S1                 0.0000
      9 ****         0.7169   1.5947  -1.0102 O.2            1 S1                 0.0000
     10 ****         2.6942   0.3291  -0.4219 C.3            1 S1                 0.0000
     11 ****         3.5097   1.3934  -1.0253 N.am           1 S1                 0.0000
     12 ****         4.1073   2.3023  -0.0507 N.pl3          1 S1                -1.0000
     13 ****         4.8676   3.3396  -0.4914 C.2            1 S1                 0.0000
     14 ****         5.3887   4.1537   0.2674 O.2            1 S1                 0.0000
     15 ****         5.0695   3.4797  -1.9240 C.2            1 S1                 0.0000
     16 ****         4.5238   2.6126  -2.7995 C.2            1 S1                 0.0000
     17 ****         3.6982   1.4895  -2.3726 C.2            1 S1                 0.0000
     18 ****         3.2041   0.6885  -3.1665 O.2            1 S1                 0.0000
     19 ****        -1.5567  -1.1292   1.3556 C.3            1 S1                 0.0000
     20 ****        -1.0098  -0.4776   2.6451 C.3            1 S1                 0.0000
     21 ****        -3.2418  -3.0280   2.5833 H              1 S1                 0.0000
     22 ****        -4.7502  -2.1279   2.4779 H              1 S1                 0.0000
     23 ****        -3.4631  -1.5389   3.5029 H              1 S1                 0.0000
     24 ****        -3.5055  -0.2055   1.4401 H              1 S1                 0.0000
     25 ****        -3.3207  -2.8604  -0.0431 H              1 S1                 0.0000
     26 ****        -4.7271  -1.8290   0.0441 H              1 S1                 0.0000
     27 ****        -3.5144  -1.4970  -2.0940 H              1 S1                 0.0000
     28 ****        -3.5440  -0.0220  -1.1556 H              1 S1                 0.0000
     29 ****        -1.2196  -1.9964  -1.3386 H              1 S1                 0.0000
     30 ****        -1.2809  -0.4084  -2.0660 H              1 S1                 0.0000
     31 ****        -1.3951   0.6570   0.1656 H              1 S1                 0.0000
     32 ****         0.8753  -1.1891   0.4405 H              1 S1                 0.0000
     33 ****         2.9669   0.1949   0.6267 H              1 S1                 0.0000
     34 ****         2.9188  -0.6239  -0.9041 H              1 S1                 0.0000
     35 ****         5.6720   4.2960  -2.2943 H              1 S1                 0.0000
     36 ****         4.7009   2.7552  -3.8552 H              1 S1                 0.0000
     37 ****        -1.1661  -2.1474   1.3136 H              1 S1                 0.0000
     38 ****        -1.3945   0.5352   2.7684 H              1 S1                 0.0000
     39 ****         0.0783  -0.4164   2.6397 H              1 S1                 0.0000
     40 ****        -1.2751  -1.0476   3.5344 H              1 S1                 0.0000
     41 ****        -0.2728   1.7330  -1.0453 LP             1 S1                 0.0000
     42 ****         1.3320   2.2838  -1.3933 LP             1 S1                 0.0000
     43 ****         3.9591   2.1634   0.9284 LP             1 S1                 0.0000
     44 ****         5.2614   4.0689   1.2556 LP             1 S1                 0.0000
     45 ****         5.9401   4.9010  -0.1033 LP             1 S1                 0.0000
     46 ****         2.6413  -0.0664  -2.8300 LP             1 S1                 0.0000
     47 ****         3.3657   0.7929  -4.1478 LP             1 S1                 0.0000
@<TRIPOS>BOND
    1    1    2 1     
    2    1   21 1     
    3    1   22 1     
    4    1   23 1     
    5    2   19 1     
    6    2    3 1     
    7    2   24 1     
    8    3    4 1     
    9    3   25 1     
   10    3   26 1     
   11    4    5 1     
   12    4   27 1     
   13    4   28 1     
   14    5    6 1     
   15    5   29 1     
   16    5   30 1     
   17    6    7 1     
   18    6   19 1     
   19    6   31 1     
   20    7    8 am    
   21    7   32 1     
   22    8    9 2     
   23    8   10 1     
   24   10   33 1     
   25   10   34 1     
   26   10   11 1     
   27   11   12 1     
   28   11   17 am    
   29   12   13 1     
   30   13   14 2     
   31   13   15 1     
   32   15   35 1     
   33   15   16 2     
   34   16   36 1     
   35   16   17 1     
   36   17   18 2     
   37   19   20 1     
   38   19   37 1     
   39   20   38 1     
   40   20   39 1     
   41   20   40 1     
   42    9   41 1     
   43    9   42 1     
   44   12   43 1     
   45   14   44 1     
   46   14   45 1     
   47   18   46 1     
   48   18   47 1     
@<TRIPOS>SUBSTRUCTURE
      1 S1             1
@<TRIPOS>SET
LONE_PAIRS      STATIC     ATOMS    <user>   **** ""
7 41 42 43 44 45 46 47
DONOR_HYDROGENS      STATIC     ATOMS    <user>   **** ""
1 32
ATOM$BLUE        STATIC     ATOMS    COLORGROUP SYSTEM
7 41 42 43 44 45 46 47
ATOM$RED        STATIC     ATOMS    COLORGROUP SYSTEM
1 32
