AV-unprocessed.smi:2124|AV-procd|sdf|8672|dock4
  -GOLD-   2272011423D 1   1.00000     0.00000
 Structure written by MMmdl.
 46 48  0  0  0  0  0  0  0  0  2 V2000
  148.5392  134.2725  154.9311 C   0  0  0  0  0  0  0  0  0  0  0  0
  149.0841  135.6847  154.9343 C   0  0  0  0  0  0  0  0  0  0  0  0
  148.2880  136.6564  155.1700 N   0  0  0  0  0  0  0  0  0  0  0  0
  148.7862  137.9699  155.1896 C   0  0  0  0  0  0  0  0  0  0  0  0
  147.7732  139.0573  155.5026 C   0  0  0  0  0  0  0  0  0  0  0  0
  150.1052  138.2282  154.9568 C   0  0  0  0  0  0  0  0  0  0  0  0
  150.7050  139.6347  155.0140 C   0  0  0  0  0  0  0  0  0  0  0  0
  151.7142  139.8465  156.1433 C   0  0  0  0  0  0  0  0  0  0  0  0
  152.8085  139.2838  156.1132 O   0  0  0  0  0  0  0  0  0  0  0  0
  151.3409  140.6990  157.1090 N   0  0  0  0  0  0  0  0  0  0  0  0
  152.2138  141.2777  158.1234 C   0  0  2  0  0  0  0  0  0  0  0  0
  152.8776  140.1570  158.9386 C   0  0  0  0  0  0  0  0  0  0  0  0
  151.3884  142.2411  159.0094 C   0  0  1  0  0  0  0  0  0  0  0  0
  152.1908  142.9395  160.1296 C   0  0  0  0  0  0  0  0  0  0  0  0
  151.8178  144.4235  159.9482 C   0  0  1  0  0  0  0  0  0  0  0  0
  152.5266  144.9735  158.6965 C   0  0  0  0  0  0  0  0  0  0  0  0
  151.7456  144.3116  157.5468 C   0  0  0  0  0  0  0  0  0  0  0  0
  150.7146  143.4411  158.2933 C   0  0  2  0  0  0  0  0  0  0  0  0
  150.3705  144.3380  159.4772 C   0  0  0  0  0  0  0  0  0  0  0  0
  150.9892  137.0800  154.6868 C   0  0  0  0  0  0  0  0  0  0  0  0
  152.1900  137.2553  154.4847 O   0  0  0  0  0  0  0  0  0  0  0  0
  150.4298  135.8368  154.6863 N   0  5  0  0  0  0  0  0  0  0  0  0
  147.4888  134.2636  154.6376 H   0  0  0  0  0  0  0  0  0  0  0  0
  148.6231  133.8372  155.9269 H   0  0  0  0  0  0  0  0  0  0  0  0
  149.0910  133.6438  154.2312 H   0  0  0  0  0  0  0  0  0  0  0  0
  148.0613  139.6045  156.4001 H   0  0  0  0  0  0  0  0  0  0  0  0
  146.7818  138.6360  155.6739 H   0  0  0  0  0  0  0  0  0  0  0  0
  147.6989  139.7614  154.6740 H   0  0  0  0  0  0  0  0  0  0  0  0
  151.1785  139.9001  154.0683 H   0  0  0  0  0  0  0  0  0  0  0  0
  149.8953  140.3552  155.1320 H   0  0  0  0  0  0  0  0  0  0  0  0
  150.4094  141.0857  157.0479 H   0  0  0  0  0  0  0  0  0  0  0  0
  153.0041  141.8494  157.6340 H   0  0  0  0  0  0  0  0  0  0  0  0
  153.5507  140.5634  159.6937 H   0  0  0  0  0  0  0  0  0  0  0  0
  153.4652  139.5004  158.2962 H   0  0  0  0  0  0  0  0  0  0  0  0
  152.1348  139.5440  159.4501 H   0  0  0  0  0  0  0  0  0  0  0  0
  150.5899  141.6598  159.4749 H   0  0  0  0  0  0  0  0  0  0  0  0
  151.8767  142.5733  161.1076 H   0  0  0  0  0  0  0  0  0  0  0  0
  153.2668  142.7811  160.0481 H   0  0  0  0  0  0  0  0  0  0  0  0
  151.9787  145.0275  160.8417 H   0  0  0  0  0  0  0  0  0  0  0  0
  152.4388  146.0592  158.6430 H   0  0  0  0  0  0  0  0  0  0  0  0
  153.5876  144.7218  158.6773 H   0  0  0  0  0  0  0  0  0  0  0  0
  151.2387  145.0678  156.9459 H   0  0  0  0  0  0  0  0  0  0  0  0
  152.3856  143.7426  156.8736 H   0  0  0  0  0  0  0  0  0  0  0  0
  149.8574  143.1610  157.6797 H   0  0  0  0  0  0  0  0  0  0  0  0
  149.7051  143.8655  160.2019 H   0  0  0  0  0  0  0  0  0  0  0  0
  149.9515  145.3021  159.1828 H   0  0  0  0  0  0  0  0  0  0  0  0
  1  2  1  0  0  0  0
  1 23  1  0  0  0  0
  1 24  1  0  0  0  0
  1 25  1  0  0  0  0
  2 22  1  0  0  0  0
  2  3  2  0  0  0  0
  3  4  1  0  0  0  0
  4  5  1  0  0  0  0
  4  6  2  0  0  0  0
  5 26  1  0  0  0  0
  5 27  1  0  0  0  0
  5 28  1  0  0  0  0
  6  7  1  0  0  0  0
  6 20  1  0  0  0  0
  7  8  1  0  0  0  0
  7 29  1  0  0  0  0
  7 30  1  0  0  0  0
  8  9  2  0  0  0  0
  8 10  1  0  0  0  0
 10 11  1  0  0  0  0
 10 31  1  0  0  0  0
 11 12  1  0  0  0  0
 11 13  1  0  0  0  0
 11 32  1  0  0  0  0
 12 33  1  0  0  0  0
 12 34  1  0  0  0  0
 12 35  1  0  0  0  0
 13 18  1  0  0  0  0
 13 14  1  0  0  0  0
 13 36  1  0  0  0  0
 14 15  1  0  0  0  0
 14 37  1  0  0  0  0
 14 38  1  0  0  0  0
 15 19  1  0  0  0  0
 15 16  1  0  0  0  0
 15 39  1  0  0  0  0
 16 17  1  0  0  0  0
 16 40  1  0  0  0  0
 16 41  1  0  0  0  0
 17 18  1  0  0  0  0
 17 42  1  0  0  0  0
 17 43  1  0  0  0  0
 18 19  1  0  0  0  0
 18 44  1  0  0  0  0
 19 45  1  0  0  0  0
 19 46  1  0  0  0  0
 20 21  2  0  0  0  0
 20 22  1  0  0  0  0
M  CHG  1  22  -1
M  END
> <s_m_source_file>
AV-unprocessed.smi

> <i_m_source_file_index>
2124

> <i_lp_mmshare_version>
43012

> <i_f3d_flags>
0

> <s_epik_input>
W0NIM11jMW5jKFtDSDNdKWMoYyg9TylbbkhdMSlbQ0gyXUMoPU8pW05IXVtDQEhdKFtDSDNdKVtDQEhdKFtDSDJdW0NASF0yMylbQ0BIXShbQ0gyXTMpW0NIMl1bQ0gyXTI=

> <s_epik_cmdline>
J2VwaWtfcHl0aG9uJywgJy1waCcsICc3LjAnLCAnLXRuJywgJzgnLCAnLW1hJywgJzIwMCcsICctbWV0YWxfYmluZGluZycsICctaW1hZScsICc8aW5maWxlLm1hZT4nLCAnLW9tYWUnLCAnPG91dGZpbGUubWFlPic=

> <r_lp_tautomer_probability>
0.839158

> <r_epik_Ionization_Penalty>
6.63797

> <r_epik_Ionization_Penalty_Charging>
7.48558e-08

> <r_epik_Ionization_Penalty_Neutral>
6.63797

> <r_epik_State_Penalty>
4.49496

> <r_epik_Charging_Adjusted_Penalty>
4.49496

> <i_epik_Tot_Q>
-1

> <i_epik_Tot_abs_Q>
1

> <r_epik_Metal_State_Penalty>
0.841241

> <b_epik_Metal_Only>
1

> <s_lp_Force_Field>
OPLS_2005

> <r_lp_Energy>
53.1649

> <b_lp_Chiralities_Consistent>
1

> <s_lp_Variant>
AV-unprocessed.smi:2124-23

> <Gold.Version>
5.8.1

> <Gold.Id.Protein>
6NUR|6NUR_protein|mol2

> <Gold.PLP.Fitness>
46.3315

> <Gold.PLP.PLP>
-40.9778

> <Gold.PLP.part.hbond>
-2.0000

> <Gold.PLP.part.metal>
0.0000

> <Gold.PLP.part.buried>
-5.7646

> <Gold.PLP.part.nonpolar>
-33.5742

> <Gold.PLP.part.repulsive>
0.4902

> <Gold.PLP.ligand.clash>
0.0000

> <Gold.PLP.ligand.torsion>
0.0902

> <Gold.PLP.Chemscore.Hbond>
1.8320

> <Gold.PLP.Chemscore.CHOScore>
0.0000

> <Gold.PLP.Chemscore.Metal>
0.0000

> <Gold.Chemscore.Hbonds>
donor molecule, donor type, donor heavy atom, donor atom, acceptor molecule, acceptor atom, score
      P1  H  7997  8009       L1     9  1.00
      P1  H 10752 10764       L1    21  0.83

> <Gold.PLP.Chemscore.Internal.Correction>
0.0380

> <Gold.Rescore>
     Score         DG    S(hbond)    S(metal)    S(lipo)     H(rot)  DE(clash)    DE(int)     intcor
     19.04     -20.81       1.97        0.00     110.03       1.61       0.12       1.65       ----

> <Gold.Chemscore.Fitness>
19.0374

> <Gold.Chemscore.DG>
-20.8137

> <Gold.Chemscore.ZeroCoef>
-5.4800

> <Gold.Chemscore.Hbond>
1.9669

> <Gold.Chemscore.Metal>
0.0000

> <Gold.Chemscore.Lipo>
110.0288

> <Gold.Chemscore.Internal_Hbond>
0.0000

> <Gold.Chemscore.DEClash>
0.1227

> <Gold.Chemscore.DEInternal>
1.6536

> <Gold.Chemscore.Rot>
1.6051

> <Gold.Chemscore.Internal.Correction>
   9.000000E+99

> <Gold.Chemscore.Hbonds>
donor molecule, donor type, donor heavy atom, donor atom, acceptor molecule, acceptor atom, score
      P1  H  7997  8009       L1     9  0.98
      P1  H 10752 10764       L1    21  0.53

> <Gold.Chemscore.Hbond.Weighted>
-6.5693

> <Gold.Chemscore.Metal.Weighted>
-0.0000

> <Gold.Chemscore.Lipo.Weighted>
-12.8734

> <Gold.Chemscore.Internal_Hbond.Weighted>
0.0000

> <Gold.Chemscore.DEClash.Weighted>
0.1227

> <Gold.Chemscore.DEInternal.Weighted>
1.6536

> <Gold.Chemscore.Rot.Weighted>
4.1090

> <Gold.Chemscore.Internal.Correction.Weighted>
   9.000000E+99

> <Gold.Protein.RotatedTorsions>
[ 6907 6896 6895 6894 ] final -100.11 input  -60.11 | X-H torsion
[ 7974 7965 7964 7962 ] final  172.52 input  175.53 | X-H torsion
[ 8008 7997 7996 7995 ] final -176.65 input   59.86 | X-H torsion
[ 10167 10162 10161 10158 ] final  157.82 input  -65.29 | X-H torsion
[ 10718 10713 10712 10709 ] final   61.62 input   66.30 | X-H torsion
[ 10763 10752 10751 10750 ] final  -76.00 input  -60.55 | X-H torsion
[ 11005 11000 10999 10996 ] final -161.14 input  -57.11 | X-H torsion

> <Gold.Protein.ActiveResidues>
 VAL166  LYS551  ARG553  GLY616  TRP617  ASP618  TYR619  PRO620  LYS621  CYS622 
 ASP623  PHE694  ASN695  SER759  ASP760  ASP761  ALA762  ILE779  LEU786  VAL792 
 PHE793  MET794  SER795  GLU796  ALA797  LYS798  CYS799  TRP800  GLU811  SER814 

> <Gold.Protein.RotatedAtoms>
  150.7104  134.0938  159.3940 H   0  0  0  0  0  0  0  0  0  0  0  0  # atno 6907 bound_to 6896
  151.8924  135.0409  160.0508 H   0  0  0  0  0  0  0  0  0  0  0  0  # atno 6908 bound_to 6896
  152.2481  133.5156  159.5346 H   0  0  0  0  0  0  0  0  0  0  0  0  # atno 6909 bound_to 6896
  144.7266  139.9510  143.6432 H   0  0  0  0  0  0  0  0  0  0  0  0  # atno 7974 bound_to 7965
  155.9974  140.1213  157.0580 H   0  0  0  0  0  0  0  0  0  0  0  0  # atno 8008 bound_to 7997
  154.4231  140.1113  156.5718 H   0  0  0  0  0  0  0  0  0  0  0  0  # atno 8009 bound_to 7997
  155.6259  140.3472  155.4669 H   0  0  0  0  0  0  0  0  0  0  0  0  # atno 8010 bound_to 7997
  139.4824  144.4882  151.8346 H   0  0  0  0  0  0  0  0  0  0  0  0  # atno 10167 bound_to 10162
  157.5841  130.9004  149.9484 H   0  0  0  0  0  0  0  0  0  0  0  0  # atno 10718 bound_to 10713
  154.4940  135.5812  153.6480 H   0  0  0  0  0  0  0  0  0  0  0  0  # atno 10763 bound_to 10752
  152.9867  135.6119  154.3088 H   0  0  0  0  0  0  0  0  0  0  0  0  # atno 10764 bound_to 10752
  154.2990  135.2847  155.2599 H   0  0  0  0  0  0  0  0  0  0  0  0  # atno 10765 bound_to 10752
  140.6238  134.4723  157.5225 H   0  0  0  0  0  0  0  0  0  0  0  0  # atno 11005 bound_to 11000
  146.0711  139.3700  143.0522 LP  0  0  0  0  0  0  0  0  0  0  0  0  # atno 17320 bound_to 7965
  145.7967  140.9790  143.1020 LP  0  0  0  0  0  0  0  0  0  0  0  0  # atno 17321 bound_to 7965
  140.4364  144.2046  150.5889 LP  0  0  0  0  0  0  0  0  0  0  0  0  # atno 17342 bound_to 10162
  140.4728  143.2407  151.9065 LP  0  0  0  0  0  0  0  0  0  0  0  0  # atno 17343 bound_to 10162
  156.0889  130.3665  150.0434 LP  0  0  0  0  0  0  0  0  0  0  0  0  # atno 17370 bound_to 10713
  156.8568  130.9478  151.3621 LP  0  0  0  0  0  0  0  0  0  0  0  0  # atno 17371 bound_to 10713
  139.9143  134.8279  156.1420 LP  0  0  0  0  0  0  0  0  0  0  0  0  # atno 17394 bound_to 11000
  141.0724  133.6791  156.2167 LP  0  0  0  0  0  0  0  0  0  0  0  0  # atno 17395 bound_to 11000

$$$$
