AV-unprocessed.smi:1207|AV-procd|sdf|5051|dock1
  -GOLD-   22720 4 83D 1   1.00000     0.00000
 Structure written by MMmdl.
 52 54  0  0  0  0  0  0  0  0  2 V2000
  152.9709  142.7124  160.7060 C   0  0  0  0  0  0  0  0  0  0  0  0
  152.0527  142.3191  159.5620 C   0  0  0  0  0  0  0  0  0  0  0  0
  151.7397  140.9545  159.3706 C   0  0  0  0  0  0  0  0  0  0  0  0
  150.8885  140.5474  158.3203 C   0  0  0  0  0  0  0  0  0  0  0  0
  150.4576  139.2849  157.9517 N   0  0  0  0  0  0  0  0  0  0  0  0
  149.6879  139.5596  156.9032 C   0  0  0  0  0  0  0  0  0  0  0  0
  149.5790  140.8525  156.5398 N   0  0  0  0  0  0  0  0  0  0  0  0
  148.8098  141.3856  155.4297 C   0  0  0  0  0  0  0  0  0  0  0  0
  148.3944  140.3044  154.4098 C   0  0  2  0  0  0  0  0  0  0  0  0
  149.5482  139.9569  153.6704 O   0  0  0  0  0  0  0  0  0  0  0  0
  147.2797  140.7717  153.4444 C   0  0  0  0  0  0  0  0  0  0  0  0
  146.0888  141.3540  154.1241 N   0  3  1  0  0  0  0  0  0  0  0  0
  145.6742  140.5917  155.3268 C   0  0  0  0  0  0  0  0  0  0  0  0
  146.2470  142.7992  154.4344 C   0  0  0  0  0  0  0  0  0  0  0  0
  144.9398  143.5483  154.3631 C   0  0  0  0  0  0  0  0  0  0  0  0
  143.8334  143.4601  155.2562 C   0  0  0  0  0  0  0  0  0  0  0  0
  143.6870  142.6097  156.4853 C   0  0  0  0  0  0  0  0  0  0  0  0
  142.8428  144.2570  154.8956 N   0  0  0  0  0  0  0  0  0  0  0  0
  143.2766  144.9083  153.7374 O   0  0  0  0  0  0  0  0  0  0  0  0
  144.5274  144.4734  153.4420 C   0  0  0  0  0  0  0  0  0  0  0  0
  145.1609  145.0588  152.2244 C   0  0  0  0  0  0  0  0  0  0  0  0
  150.3540  141.5508  157.4598 C   0  0  0  0  0  0  0  0  0  0  0  0
  150.6565  142.9118  157.6415 C   0  0  0  0  0  0  0  0  0  0  0  0
  151.5112  143.3011  158.6939 C   0  0  0  0  0  0  0  0  0  0  0  0
  151.8375  144.7727  158.8782 C   0  0  0  0  0  0  0  0  0  0  0  0
  153.2849  141.8415  161.2820 H   0  0  0  0  0  0  0  0  0  0  0  0
  152.4627  143.3962  161.3862 H   0  0  0  0  0  0  0  0  0  0  0  0
  153.8671  143.2031  160.3259 H   0  0  0  0  0  0  0  0  0  0  0  0
  152.1517  140.2063  160.0321 H   0  0  0  0  0  0  0  0  0  0  0  0
  149.1815  138.7742  156.3610 H   0  0  0  0  0  0  0  0  0  0  0  0
  147.9243  141.8773  155.8365 H   0  0  0  0  0  0  0  0  0  0  0  0
  149.4008  142.1625  154.9431 H   0  0  0  0  0  0  0  0  0  0  0  0
  148.0693  139.4262  154.9657 H   0  0  0  0  0  0  0  0  0  0  0  0
  149.3482  140.0045  152.7482 H   0  0  0  0  0  0  0  0  0  0  0  0
  147.6648  141.5136  152.7434 H   0  0  0  0  0  0  0  0  0  0  0  0
  146.9858  139.9109  152.8452 H   0  0  0  0  0  0  0  0  0  0  0  0
  146.4865  140.5354  156.0527 H   0  0  0  0  0  0  0  0  0  0  0  0
  145.3661  139.5779  155.0742 H   0  0  0  0  0  0  0  0  0  0  0  0
  144.8193  141.0636  155.8124 H   0  0  0  0  0  0  0  0  0  0  0  0
  146.6653  142.9022  155.4363 H   0  0  0  0  0  0  0  0  0  0  0  0
  146.9910  143.2274  153.7613 H   0  0  0  0  0  0  0  0  0  0  0  0
  144.2144  141.6623  156.3747 H   0  0  0  0  0  0  0  0  0  0  0  0
  142.6407  142.3807  156.6918 H   0  0  0  0  0  0  0  0  0  0  0  0
  144.0948  143.1176  157.3596 H   0  0  0  0  0  0  0  0  0  0  0  0
  146.2140  144.7870  152.1555 H   0  0  0  0  0  0  0  0  0  0  0  0
  145.0955  146.1469  152.2400 H   0  0  0  0  0  0  0  0  0  0  0  0
  144.6624  144.7027  151.3227 H   0  0  0  0  0  0  0  0  0  0  0  0
  150.2340  143.6512  156.9774 H   0  0  0  0  0  0  0  0  0  0  0  0
  151.3366  145.3886  158.1307 H   0  0  0  0  0  0  0  0  0  0  0  0
  152.9107  144.9404  158.7847 H   0  0  0  0  0  0  0  0  0  0  0  0
  151.5175  145.1150  159.8625 H   0  0  0  0  0  0  0  0  0  0  0  0
  145.3238  141.2931  153.4677 H   0  0  0  0  0  0  0  0  0  0  0  0
  1  2  1  0  0  0  0
  1 26  1  0  0  0  0
  1 27  1  0  0  0  0
  1 28  1  0  0  0  0
  2 24  1  0  0  0  0
  2  3  2  0  0  0  0
  3  4  1  0  0  0  0
  3 29  1  0  0  0  0
  4 22  2  0  0  0  0
  4  5  1  0  0  0  0
  5  6  2  0  0  0  0
  6  7  1  0  0  0  0
  6 30  1  0  0  0  0
  7  8  1  0  0  0  0
  7 22  1  0  0  0  0
  8  9  1  0  0  0  0
  8 31  1  0  0  0  0
  8 32  1  0  0  0  0
  9 10  1  0  0  0  0
  9 11  1  0  0  0  0
  9 33  1  0  0  0  0
 10 34  1  0  0  0  0
 11 12  1  0  0  0  0
 11 35  1  0  0  0  0
 11 36  1  0  0  0  0
 12 13  1  0  0  0  0
 12 14  1  0  0  0  0
 12 52  1  0  0  0  0
 13 37  1  0  0  0  0
 13 38  1  0  0  0  0
 13 39  1  0  0  0  0
 14 15  1  0  0  0  0
 14 40  1  0  0  0  0
 14 41  1  0  0  0  0
 15 20  2  0  0  0  0
 15 16  1  0  0  0  0
 16 17  1  0  0  0  0
 16 18  2  0  0  0  0
 17 42  1  0  0  0  0
 17 43  1  0  0  0  0
 17 44  1  0  0  0  0
 18 19  1  0  0  0  0
 19 20  1  0  0  0  0
 20 21  1  0  0  0  0
 21 45  1  0  0  0  0
 21 46  1  0  0  0  0
 21 47  1  0  0  0  0
 22 23  1  0  0  0  0
 23 24  2  0  0  0  0
 23 48  1  0  0  0  0
 24 25  1  0  0  0  0
 25 49  1  0  0  0  0
 25 50  1  0  0  0  0
 25 51  1  0  0  0  0
M  CHG  1  12   1
M  END
> <s_m_source_file>
AV-unprocessed.smi

> <i_m_source_file_index>
1207

> <i_lp_mmshare_version>
43012

> <i_f3d_flags>
0

> <s_epik_input>
W0NIM11jKFtjSF0xKWMoW0NIM10pW2NIXWMoYzEyKW4oW2NIXW4yKVtDSDJdW0NASF0oW09IXSlbQ0gyXU4oW0NIM10pW0NIMl1jM2MoW0NIM10pbm9jM1tDSDNd

> <s_epik_cmdline>
J2VwaWtfcHl0aG9uJywgJy1waCcsICc3LjAnLCAnLXRuJywgJzgnLCAnLW1hJywgJzIwMCcsICctbWV0YWxfYmluZGluZycsICctaW1hZScsICc8aW5maWxlLm1hZT4nLCAnLW9tYWUnLCAnPG91dGZpbGUubWFlPic=

> <r_epik_Ionization_Penalty>
0.646518

> <r_epik_Ionization_Penalty_Charging>
0.559419

> <r_epik_Ionization_Penalty_Neutral>
0.0870981

> <r_epik_State_Penalty>
0.661677

> <r_epik_Charging_Adjusted_Penalty>
1.2211

> <i_epik_Tot_Q>
1

> <i_epik_Tot_abs_Q>
1

> <r_epik_Metal_State_Penalty>
0.649158

> <b_epik_Metal_Only>
0

> <s_lp_Force_Field>
OPLS_2005

> <r_lp_Energy>
10.0626

> <b_lp_Chiralities_Consistent>
1

> <s_lp_Variant>
AV-unprocessed.smi:1207-3

> <Gold.Version>
5.8.1

> <Gold.Id.Protein>
6NUR|6NUR_protein|mol2

> <Gold.PLP.Fitness>
57.6616

> <Gold.PLP.PLP>
-51.0198

> <Gold.PLP.part.hbond>
-2.8880

> <Gold.PLP.part.metal>
0.0000

> <Gold.PLP.part.buried>
-6.5838

> <Gold.PLP.part.nonpolar>
-45.1103

> <Gold.PLP.part.repulsive>
0.3198

> <Gold.PLP.ligand.clash>
0.0000

> <Gold.PLP.ligand.torsion>
1.0006

> <Gold.PLP.Chemscore.Hbond>
2.6402

> <Gold.PLP.Chemscore.CHOScore>
0.0000

> <Gold.PLP.Chemscore.Metal>
0.0000

> <Gold.Chemscore.Hbonds>
donor molecule, donor type, donor heavy atom, donor atom, acceptor molecule, acceptor atom, score
      L1  H    10    34       P1  7957  1.00
      L1  H    12    52       P1 10175  1.82
      P1  H  7989  7998       L1    10  0.20

> <Gold.PLP.Chemscore.Internal.Correction>
0.7226

> <Gold.Rescore>
     Score         DG    S(hbond)    S(metal)    S(lipo)     H(rot)  DE(clash)    DE(int)     intcor
     17.57     -18.68       1.12        0.00     134.50       2.46       0.06       1.05       ----

> <Gold.Chemscore.Fitness>
17.5685

> <Gold.Chemscore.DG>
-18.6840

> <Gold.Chemscore.ZeroCoef>
-5.4800

> <Gold.Chemscore.Hbond>
1.1247

> <Gold.Chemscore.Metal>
0.0000

> <Gold.Chemscore.Lipo>
134.4973

> <Gold.Chemscore.Internal_Hbond>
0.0000

> <Gold.Chemscore.DEClash>
0.0649

> <Gold.Chemscore.DEInternal>
1.0505

> <Gold.Chemscore.Rot>
2.4565

> <Gold.Chemscore.Internal.Correction>
   9.000000E+99

> <Gold.Chemscore.Hbonds>
donor molecule, donor type, donor heavy atom, donor atom, acceptor molecule, acceptor atom, score
      L1  H    10    34       P1  7957  0.98
      L1  H    12    52       P1 10175  0.22
      P1  H  7989  7998       L1    10  0.02

> <Gold.Chemscore.Hbond.Weighted>
-3.7565

> <Gold.Chemscore.Metal.Weighted>
-0.0000

> <Gold.Chemscore.Lipo.Weighted>
-15.7362

> <Gold.Chemscore.Internal_Hbond.Weighted>
0.0000

> <Gold.Chemscore.DEClash.Weighted>
0.0649

> <Gold.Chemscore.DEInternal.Weighted>
1.0505

> <Gold.Chemscore.Rot.Weighted>
6.2887

> <Gold.Chemscore.Internal.Correction.Weighted>
   9.000000E+99

> <Gold.Protein.RotatedTorsions>
[ 6907 6896 6895 6894 ] final   -1.85 input  -60.11 | X-H torsion
[ 7974 7965 7964 7962 ] final -147.62 input  175.53 | X-H torsion
[ 8008 7997 7996 7995 ] final -169.76 input   59.86 | X-H torsion
[ 10167 10162 10161 10158 ] final  -17.63 input  -65.29 | X-H torsion
[ 10718 10713 10712 10709 ] final   80.06 input   66.30 | X-H torsion
[ 10763 10752 10751 10750 ] final  -75.57 input  -60.55 | X-H torsion
[ 11005 11000 10999 10996 ] final  -98.40 input  -57.11 | X-H torsion

> <Gold.Protein.ActiveResidues>
 VAL166  LYS551  ARG553  GLY616  TRP617  ASP618  TYR619  PRO620  LYS621  CYS622 
 ASP623  PHE694  ASN695  SER759  ASP760  ASP761  ALA762  ILE779  LEU786  VAL792 
 PHE793  MET794  SER795  GLU796  ALA797  LYS798  CYS799  TRP800  GLU811  SER814 

> <Gold.Protein.RotatedAtoms>
  151.5393  135.1068  159.9922 H   0  0  0  0  0  0  0  0  0  0  0  0  # atno 6907 bound_to 6896
  152.4543  133.7686  159.6797 H   0  0  0  0  0  0  0  0  0  0  0  0  # atno 6908 bound_to 6896
  150.8481  133.7764  159.3060 H   0  0  0  0  0  0  0  0  0  0  0  0  # atno 6909 bound_to 6896
  144.8082  140.5303  143.5661 H   0  0  0  0  0  0  0  0  0  0  0  0  # atno 7974 bound_to 7965
  155.9092  140.1054  157.1292 H   0  0  0  0  0  0  0  0  0  0  0  0  # atno 8008 bound_to 7997
  154.4037  140.1277  156.4600 H   0  0  0  0  0  0  0  0  0  0  0  0  # atno 8009 bound_to 7997
  155.7330  140.3468  155.5070 H   0  0  0  0  0  0  0  0  0  0  0  0  # atno 8010 bound_to 7997
  140.7249  143.4996  150.9886 H   0  0  0  0  0  0  0  0  0  0  0  0  # atno 10167 bound_to 10162
  157.6795  130.9942  150.2024 H   0  0  0  0  0  0  0  0  0  0  0  0  # atno 10718 bound_to 10713
  154.4883  135.5827  153.6440 H   0  0  0  0  0  0  0  0  0  0  0  0  # atno 10763 bound_to 10752
  152.9858  135.6106  154.3158 H   0  0  0  0  0  0  0  0  0  0  0  0  # atno 10764 bound_to 10752
  154.3055  135.2846  155.2570 H   0  0  0  0  0  0  0  0  0  0  0  0  # atno 10765 bound_to 10752
  141.1346  133.8242  157.0834 H   0  0  0  0  0  0  0  0  0  0  0  0  # atno 11005 bound_to 11000
  145.5388  139.1475  143.3458 LP  0  0  0  0  0  0  0  0  0  0  0  0  # atno 17320 bound_to 7965
  146.2376  140.5528  142.8948 LP  0  0  0  0  0  0  0  0  0  0  0  0  # atno 17321 bound_to 7965
  139.8705  143.7199  152.3166 LP  0  0  0  0  0  0  0  0  0  0  0  0  # atno 17342 bound_to 10162
  139.7446  144.7550  151.0600 LP  0  0  0  0  0  0  0  0  0  0  0  0  # atno 17343 bound_to 10162
  156.2712  130.3722  149.8030 LP  0  0  0  0  0  0  0  0  0  0  0  0  # atno 17370 bound_to 10713
  156.5746  130.8439  151.3366 LP  0  0  0  0  0  0  0  0  0  0  0  0  # atno 17371 bound_to 10713
  140.0437  134.9841  157.1009 LP  0  0  0  0  0  0  0  0  0  0  0  0  # atno 17394 bound_to 11000
  140.4096  134.1996  155.7163 LP  0  0  0  0  0  0  0  0  0  0  0  0  # atno 17395 bound_to 11000

$$$$
