AV-unprocessed.smi:2114|AV-procd|sdf|8620|dock9
  -GOLD-   2272011363D 1   1.00000     0.00000
 Structure written by MMmdl.
 47 48  0  0  0  0  0  0  0  0  1 V2000
  154.9513  134.3823  149.9354 C   0  0  0  0  0  0  0  0  0  0  0  0
  154.5396  135.6145  150.5004 O   0  0  0  0  0  0  0  0  0  0  0  0
  154.8593  135.7145  151.8789 C   0  0  0  0  0  0  0  0  0  0  0  0
  154.2182  134.5438  152.6397 C   0  0  1  0  0  0  0  0  0  0  0  0
  154.3449  134.7260  154.1611 C   0  0  0  0  0  0  0  0  0  0  0  0
  152.8125  134.4260  152.2616 N   0  0  0  0  0  0  0  0  0  0  0  0
  151.8643  135.3479  152.4972 C   0  0  0  0  0  0  0  0  0  0  0  0
  152.0775  136.4079  153.0858 O   0  0  0  0  0  0  0  0  0  0  0  0
  150.4790  134.9853  152.0457 C   0  0  0  0  0  0  0  0  0  0  0  0
  149.5178  135.9700  151.7285 C   0  0  0  0  0  0  0  0  0  0  0  0
  148.2255  135.5675  151.3409 C   0  0  0  0  0  0  0  0  0  0  0  0
  147.9193  134.1875  151.2865 C   0  0  0  0  0  0  0  0  0  0  0  0
  146.6281  133.7638  150.9065 N   0  0  0  0  0  0  0  0  0  0  0  0
  146.3703  132.3318  151.0278 C   0  0  0  0  0  0  0  0  0  0  0  0
  145.0819  131.9375  150.2788 C   0  0  2  0  0  0  0  0  0  0  0  0
  145.2522  131.8959  148.7495 C   0  0  0  0  0  0  0  0  0  0  0  0
  143.9991  132.7804  150.6797 O   0  0  0  0  0  0  0  0  0  0  0  0
  144.2341  134.1775  150.5083 C   0  0  1  0  0  0  0  0  0  0  0  0
  142.9875  134.9312  150.9835 C   0  0  0  0  0  0  0  0  0  0  0  0
  145.4892  134.5896  151.2975 C   0  0  0  0  0  0  0  0  0  0  0  0
  148.8388  133.2438  151.6048 N   0  0  0  0  0  0  0  0  0  0  0  0
  150.0769  133.6344  151.9745 C   0  0  0  0  0  0  0  0  0  0  0  0
  154.6902  134.3588  148.8776 H   0  0  0  0  0  0  0  0  0  0  0  0
  154.4572  133.5405  150.4225 H   0  0  0  0  0  0  0  0  0  0  0  0
  156.0310  134.2510  150.0187 H   0  0  0  0  0  0  0  0  0  0  0  0
  155.9433  135.6853  152.0011 H   0  0  0  0  0  0  0  0  0  0  0  0
  154.5114  136.6677  152.2811 H   0  0  0  0  0  0  0  0  0  0  0  0
  154.7446  133.6304  152.3567 H   0  0  0  0  0  0  0  0  0  0  0  0
  155.3903  134.8058  154.4602 H   0  0  0  0  0  0  0  0  0  0  0  0
  153.9162  133.8803  154.6994 H   0  0  0  0  0  0  0  0  0  0  0  0
  153.8332  135.6286  154.4967 H   0  0  0  0  0  0  0  0  0  0  0  0
  152.5378  133.5721  151.7984 H   0  0  0  0  0  0  0  0  0  0  0  0
  149.7530  137.0229  151.7858 H   0  0  0  0  0  0  0  0  0  0  0  0
  147.4826  136.3167  151.1107 H   0  0  0  0  0  0  0  0  0  0  0  0
  147.2019  131.7327  150.6592 H   0  0  0  0  0  0  0  0  0  0  0  0
  146.2627  132.0959  152.0874 H   0  0  0  0  0  0  0  0  0  0  0  0
  144.8120  130.9287  150.5924 H   0  0  0  0  0  0  0  0  0  0  0  0
  145.9846  131.1407  148.4640 H   0  0  0  0  0  0  0  0  0  0  0  0
  145.5967  132.8475  148.3450 H   0  0  0  0  0  0  0  0  0  0  0  0
  144.3113  131.6440  148.2601 H   0  0  0  0  0  0  0  0  0  0  0  0
  144.3783  134.3989  149.4506 H   0  0  0  0  0  0  0  0  0  0  0  0
  143.1103  136.0078  150.8632 H   0  0  0  0  0  0  0  0  0  0  0  0
  142.7835  134.7325  152.0361 H   0  0  0  0  0  0  0  0  0  0  0  0
  142.1094  134.6309  150.4114 H   0  0  0  0  0  0  0  0  0  0  0  0
  145.3162  134.4779  152.3692 H   0  0  0  0  0  0  0  0  0  0  0  0
  145.7034  135.6426  151.1090 H   0  0  0  0  0  0  0  0  0  0  0  0
  150.7639  132.8368  152.2180 H   0  0  0  0  0  0  0  0  0  0  0  0
  1  2  1  0  0  0  0
  1 23  1  0  0  0  0
  1 24  1  0  0  0  0
  1 25  1  0  0  0  0
  2  3  1  0  0  0  0
  3  4  1  0  0  0  0
  3 26  1  0  0  0  0
  3 27  1  0  0  0  0
  4  5  1  0  0  0  0
  4  6  1  0  0  0  0
  4 28  1  0  0  0  0
  5 29  1  0  0  0  0
  5 30  1  0  0  0  0
  5 31  1  0  0  0  0
  6  7  1  0  0  0  0
  6 32  1  0  0  0  0
  7  8  2  0  0  0  0
  7  9  1  0  0  0  0
  9 22  1  0  0  0  0
  9 10  2  0  0  0  0
 10 11  1  0  0  0  0
 10 33  1  0  0  0  0
 11 12  2  0  0  0  0
 11 34  1  0  0  0  0
 12 13  1  0  0  0  0
 12 21  1  0  0  0  0
 13 20  1  0  0  0  0
 13 14  1  0  0  0  0
 14 15  1  0  0  0  0
 14 35  1  0  0  0  0
 14 36  1  0  0  0  0
 15 16  1  0  0  0  0
 15 17  1  0  0  0  0
 15 37  1  0  0  0  0
 16 38  1  0  0  0  0
 16 39  1  0  0  0  0
 16 40  1  0  0  0  0
 17 18  1  0  0  0  0
 18 19  1  0  0  0  0
 18 20  1  0  0  0  0
 18 41  1  0  0  0  0
 19 42  1  0  0  0  0
 19 43  1  0  0  0  0
 19 44  1  0  0  0  0
 20 45  1  0  0  0  0
 20 46  1  0  0  0  0
 21 22  2  0  0  0  0
 22 47  1  0  0  0  0
M  END
> <s_m_source_file>
AV-unprocessed.smi

> <i_m_source_file_index>
2114

> <i_lp_mmshare_version>
43012

> <i_f3d_flags>
0

> <s_epik_input>
W0NIM11PW0NIMl1bQ0BIXShbQ0gzXSlbTkhdQyg9TyljMVtjSF1bY0hdYyhuW2NIXTEpTjJbQ0gyXVtDQEBIXShbQ0gzXSlPW0NAQEhdKFtDSDNdKVtDSDJdMg==

> <s_epik_cmdline>
J2VwaWtfcHl0aG9uJywgJy1waCcsICc3LjAnLCAnLXRuJywgJzgnLCAnLW1hJywgJzIwMCcsICctbWV0YWxfYmluZGluZycsICctaW1hZScsICc8aW5maWxlLm1hZT4nLCAnLW9tYWUnLCAnPG91dGZpbGUubWFlPic=

> <r_lp_tautomer_probability>
1

> <r_epik_Ionization_Penalty>
1.92915e-05

> <r_epik_Ionization_Penalty_Charging>
0

> <r_epik_Ionization_Penalty_Neutral>
1.92915e-05

> <r_epik_State_Penalty>
-0

> <r_epik_Charging_Adjusted_Penalty>
0

> <i_epik_Tot_Q>
0

> <i_epik_Tot_abs_Q>
0

> <r_epik_Metal_State_Penalty>
-0

> <b_epik_Metal_Only>
0

> <s_lp_Force_Field>
OPLS_2005

> <r_lp_Energy>
21.8338

> <b_lp_Chiralities_Consistent>
1

> <s_lp_Variant>
AV-unprocessed.smi:2114-4

> <Gold.Version>
5.8.1

> <Gold.Id.Protein>
6NUR|6NUR_protein|mol2

> <Gold.PLP.Fitness>
35.0206

> <Gold.PLP.PLP>
-36.2386

> <Gold.PLP.part.hbond>
0.0000

> <Gold.PLP.part.metal>
0.0000

> <Gold.PLP.part.buried>
-5.1388

> <Gold.PLP.part.nonpolar>
-32.0361

> <Gold.PLP.part.repulsive>
0.4097

> <Gold.PLP.ligand.clash>
0.0000

> <Gold.PLP.ligand.torsion>
0.7886

> <Gold.PLP.Chemscore.Hbond>
0.0000

> <Gold.PLP.Chemscore.CHOScore>
0.0000

> <Gold.PLP.Chemscore.Metal>
0.0000

> <Gold.Chemscore.Hbonds>
donor molecule, donor type, donor heavy atom, donor atom, acceptor molecule, acceptor atom, score
      P1  H 10752 10765       L1     8  0.36

> <Gold.PLP.Chemscore.Internal.Correction>
0.3591

> <Gold.Rescore>
     Score         DG    S(hbond)    S(metal)    S(lipo)     H(rot)  DE(clash)    DE(int)     intcor
     10.39     -12.28       0.75        0.00      69.94       1.52       0.01       1.88       ----

> <Gold.Chemscore.Fitness>
10.3863

> <Gold.Chemscore.DG>
-12.2753

> <Gold.Chemscore.ZeroCoef>
-5.4800

> <Gold.Chemscore.Hbond>
0.7516

> <Gold.Chemscore.Metal>
0.0000

> <Gold.Chemscore.Lipo>
69.9398

> <Gold.Chemscore.Internal_Hbond>
0.0000

> <Gold.Chemscore.DEClash>
0.0089

> <Gold.Chemscore.DEInternal>
1.8801

> <Gold.Chemscore.Rot>
1.5226

> <Gold.Chemscore.Internal.Correction>
   9.000000E+99

> <Gold.Chemscore.Hbonds>
donor molecule, donor type, donor heavy atom, donor atom, acceptor molecule, acceptor atom, score
      P1  H 10752 10765       L1     8  0.03

> <Gold.Chemscore.Hbond.Weighted>
-2.5103

> <Gold.Chemscore.Metal.Weighted>
-0.0000

> <Gold.Chemscore.Lipo.Weighted>
-8.1830

> <Gold.Chemscore.Internal_Hbond.Weighted>
0.0000

> <Gold.Chemscore.DEClash.Weighted>
0.0089

> <Gold.Chemscore.DEInternal.Weighted>
1.8801

> <Gold.Chemscore.Rot.Weighted>
3.8980

> <Gold.Chemscore.Internal.Correction.Weighted>
   9.000000E+99

> <Gold.Protein.RotatedTorsions>
[ 6907 6896 6895 6894 ] final  144.56 input  -60.11 | X-H torsion
[ 7974 7965 7964 7962 ] final -169.72 input  175.53 | X-H torsion
[ 8008 7997 7996 7995 ] final  135.12 input   59.86 | X-H torsion
[ 10167 10162 10161 10158 ] final -112.19 input  -65.29 | X-H torsion
[ 10718 10713 10712 10709 ] final -149.03 input   66.30 | X-H torsion
[ 10763 10752 10751 10750 ] final  168.41 input  -60.55 | X-H torsion
[ 11005 11000 10999 10996 ] final   74.05 input  -57.11 | X-H torsion

> <Gold.Protein.ActiveResidues>
 VAL166  LYS551  ARG553  GLY616  TRP617  ASP618  TYR619  PRO620  LYS621  CYS622 
 ASP623  PHE694  ASN695  SER759  ASP760  ASP761  ALA762  ILE779  LEU786  VAL792 
 PHE793  MET794  SER795  GLU796  ALA797  LYS798  CYS799  TRP800  GLU811  SER814 

> <Gold.Protein.RotatedAtoms>
  152.1921  133.4780  159.5013 H   0  0  0  0  0  0  0  0  0  0  0  0  # atno 6907 bound_to 6896
  150.6953  134.1699  159.4217 H   0  0  0  0  0  0  0  0  0  0  0  0  # atno 6908 bound_to 6896
  151.9614  135.0121  160.0598 H   0  0  0  0  0  0  0  0  0  0  0  0  # atno 6909 bound_to 6896
  144.7181  140.2179  143.6319 H   0  0  0  0  0  0  0  0  0  0  0  0  # atno 7974 bound_to 7965
  156.3002  140.2479  156.3529 H   0  0  0  0  0  0  0  0  0  0  0  0  # atno 8008 bound_to 7997
  154.8949  140.0408  157.1879 H   0  0  0  0  0  0  0  0  0  0  0  0  # atno 8009 bound_to 7997
  154.8560  140.2913  155.5572 H   0  0  0  0  0  0  0  0  0  0  0  0  # atno 8010 bound_to 7997
  140.1254  143.4407  152.1663 H   0  0  0  0  0  0  0  0  0  0  0  0  # atno 10167 bound_to 10162
  156.4279  130.8061  151.2287 H   0  0  0  0  0  0  0  0  0  0  0  0  # atno 10718 bound_to 10713
  154.3681  135.2753  155.2282 H   0  0  0  0  0  0  0  0  0  0  0  0  # atno 10763 bound_to 10752
  154.4441  135.5947  153.6152 H   0  0  0  0  0  0  0  0  0  0  0  0  # atno 10764 bound_to 10752
  152.9840  135.6026  154.3909 H   0  0  0  0  0  0  0  0  0  0  0  0  # atno 10765 bound_to 10752
  139.9410  134.7399  156.1100 H   0  0  0  0  0  0  0  0  0  0  0  0  # atno 11005 bound_to 11000
  145.8529  139.2184  143.1761 LP  0  0  0  0  0  0  0  0  0  0  0  0  # atno 17320 bound_to 7965
  146.0244  140.8317  142.9907 LP  0  0  0  0  0  0  0  0  0  0  0  0  # atno 17321 bound_to 7965
  139.5547  144.7364  151.4330 LP  0  0  0  0  0  0  0  0  0  0  0  0  # atno 17342 bound_to 10162
  140.6848  143.7999  150.7171 LP  0  0  0  0  0  0  0  0  0  0  0  0  # atno 17343 bound_to 10162
  157.7508  131.0207  150.3722 LP  0  0  0  0  0  0  0  0  0  0  0  0  # atno 17370 bound_to 10713
  156.4053  130.3923  149.6930 LP  0  0  0  0  0  0  0  0  0  0  0  0  # atno 17371 bound_to 10713
  141.1044  133.6665  156.2829 LP  0  0  0  0  0  0  0  0  0  0  0  0  # atno 17394 bound_to 11000
  140.5953  134.5610  157.5507 LP  0  0  0  0  0  0  0  0  0  0  0  0  # atno 17395 bound_to 11000

$$$$
