AV-unprocessed.smi:1811|AV-procd|sdf|7335|dock8
  -GOLD-   22720 8593D 1   1.00000     0.00000
 Structure written by MMmdl.
 43 44  0  0  0  0  0  0  0  0  1 V2000
  152.8351  144.6677  158.0025 C   0  0  0  0  0  0  0  0  0  0  0  0
  151.9014  144.2620  159.1629 C   0  0  0  0  0  0  0  0  0  0  0  0
  152.6198  143.1962  160.0126 C   0  0  0  0  0  0  0  0  0  0  0  0
  151.6301  145.4945  160.0518 C   0  0  0  0  0  0  0  0  0  0  0  0
  150.5716  143.6449  158.6437 C   0  0  0  0  0  0  0  0  0  0  0  0
  150.6950  142.2710  157.9707 C   0  0  0  0  0  0  0  0  0  0  0  0
  151.1655  141.3263  158.6027 O   0  0  0  0  0  0  0  0  0  0  0  0
  150.2204  142.1957  156.7141 N   0  0  0  0  0  0  0  0  0  0  0  0
  150.1925  141.0863  155.8199 C   0  0  0  0  0  0  0  0  0  0  0  0
  151.2475  140.1474  155.7038 C   0  0  0  0  0  0  0  0  0  0  0  0
  151.1297  139.0944  154.7782 C   0  0  0  0  0  0  0  0  0  0  0  0
  149.9648  139.0184  153.9942 C   0  0  0  0  0  0  0  0  0  0  0  0
  148.9582  139.9113  154.0803 N   0  0  0  0  0  0  0  0  0  0  0  0
  149.0683  140.9281  154.9690 C   0  0  0  0  0  0  0  0  0  0  0  0
  148.0106  141.8517  155.0244 N   0  0  0  0  0  0  0  0  0  0  0  0
  147.2334  141.7901  156.2552 C   0  0  0  0  0  0  0  0  0  0  0  0
  146.2069  142.9359  156.2820 C   0  0  0  0  0  0  0  0  0  0  0  0
  145.3891  142.8732  155.1165 O   0  0  0  0  0  0  0  0  0  0  0  0
  146.1501  143.0052  153.9190 C   0  0  0  0  0  0  0  0  0  0  0  0
  147.1751  141.8615  153.8306 C   0  0  0  0  0  0  0  0  0  0  0  0
  153.8042  145.0023  158.3742 H   0  0  0  0  0  0  0  0  0  0  0  0
  152.4226  145.4865  157.4126 H   0  0  0  0  0  0  0  0  0  0  0  0
  153.0151  143.8308  157.3270 H   0  0  0  0  0  0  0  0  0  0  0  0
  152.8451  142.3055  159.4247 H   0  0  0  0  0  0  0  0  0  0  0  0
  152.0086  142.8836  160.8601 H   0  0  0  0  0  0  0  0  0  0  0  0
  153.5632  143.5706  160.4117 H   0  0  0  0  0  0  0  0  0  0  0  0
  152.5534  145.8810  160.4848 H   0  0  0  0  0  0  0  0  0  0  0  0
  150.9595  145.2491  160.8761 H   0  0  0  0  0  0  0  0  0  0  0  0
  151.1754  146.3107  159.4894 H   0  0  0  0  0  0  0  0  0  0  0  0
  149.8704  143.5414  159.4731 H   0  0  0  0  0  0  0  0  0  0  0  0
  150.0949  144.3353  157.9454 H   0  0  0  0  0  0  0  0  0  0  0  0
  149.7835  143.0355  156.3618 H   0  0  0  0  0  0  0  0  0  0  0  0
  152.1495  140.2170  156.2907 H   0  0  0  0  0  0  0  0  0  0  0  0
  151.9177  138.3641  154.6690 H   0  0  0  0  0  0  0  0  0  0  0  0
  149.8409  138.2236  153.2736 H   0  0  0  0  0  0  0  0  0  0  0  0
  146.7194  140.8299  156.3203 H   0  0  0  0  0  0  0  0  0  0  0  0
  147.8984  141.8609  157.1167 H   0  0  0  0  0  0  0  0  0  0  0  0
  145.5741  142.8547  157.1658 H   0  0  0  0  0  0  0  0  0  0  0  0
  146.7068  143.9045  156.3358 H   0  0  0  0  0  0  0  0  0  0  0  0
  145.4758  142.9735  153.0630 H   0  0  0  0  0  0  0  0  0  0  0  0
  146.6482  143.9759  153.8978 H   0  0  0  0  0  0  0  0  0  0  0  0
  147.7985  141.9829  152.9438 H   0  0  0  0  0  0  0  0  0  0  0  0
  146.6570  140.9064  153.7345 H   0  0  0  0  0  0  0  0  0  0  0  0
  1  2  1  0  0  0  0
  1 21  1  0  0  0  0
  1 22  1  0  0  0  0
  1 23  1  0  0  0  0
  2  3  1  0  0  0  0
  2  4  1  0  0  0  0
  2  5  1  0  0  0  0
  3 24  1  0  0  0  0
  3 25  1  0  0  0  0
  3 26  1  0  0  0  0
  4 27  1  0  0  0  0
  4 28  1  0  0  0  0
  4 29  1  0  0  0  0
  5  6  1  0  0  0  0
  5 30  1  0  0  0  0
  5 31  1  0  0  0  0
  6  7  2  0  0  0  0
  6  8  1  0  0  0  0
  8  9  1  0  0  0  0
  8 32  1  0  0  0  0
  9 14  1  0  0  0  0
  9 10  2  0  0  0  0
 10 11  1  0  0  0  0
 10 33  1  0  0  0  0
 11 12  2  0  0  0  0
 11 34  1  0  0  0  0
 12 13  1  0  0  0  0
 12 35  1  0  0  0  0
 13 14  2  0  0  0  0
 14 15  1  0  0  0  0
 15 20  1  0  0  0  0
 15 16  1  0  0  0  0
 16 17  1  0  0  0  0
 16 36  1  0  0  0  0
 16 37  1  0  0  0  0
 17 18  1  0  0  0  0
 17 38  1  0  0  0  0
 17 39  1  0  0  0  0
 18 19  1  0  0  0  0
 19 20  1  0  0  0  0
 19 40  1  0  0  0  0
 19 41  1  0  0  0  0
 20 42  1  0  0  0  0
 20 43  1  0  0  0  0
M  END
> <s_m_source_file>
AV-unprocessed.smi

> <i_m_source_file_index>
1811

> <i_lp_mmshare_version>
43012

> <i_f3d_flags>
0

> <s_epik_input>
W0NIM11DKFtDSDNdKShbQ0gzXSlbQ0gyXUMoPU8pW05IXWMxW2NIXVtjSF1bY0hdbmMxTjJbQ0gyXVtDSDJdT1tDSDJdW0NIMl0y

> <s_epik_cmdline>
J2VwaWtfcHl0aG9uJywgJy1waCcsICc3LjAnLCAnLXRuJywgJzgnLCAnLW1hJywgJzIwMCcsICctbWV0YWxfYmluZGluZycsICctaW1hZScsICc8aW5maWxlLm1hZT4nLCAnLW9tYWUnLCAnPG91dGZpbGUubWFlPic=

> <r_lp_tautomer_probability>
1

> <r_epik_Ionization_Penalty>
0.000654353

> <r_epik_Ionization_Penalty_Charging>
0

> <r_epik_Ionization_Penalty_Neutral>
0.000654353

> <r_epik_State_Penalty>
0.000408291

> <r_epik_Charging_Adjusted_Penalty>
0.000408291

> <i_epik_Tot_Q>
0

> <i_epik_Tot_abs_Q>
0

> <r_epik_Metal_State_Penalty>
-0

> <b_epik_Metal_Only>
0

> <s_lp_Force_Field>
OPLS_2005

> <r_lp_Energy>
24.8373

> <b_lp_Chiralities_Consistent>
1

> <s_lp_Variant>
AV-unprocessed.smi:1811-1

> <Gold.Version>
5.8.1

> <Gold.Id.Protein>
6NUR|6NUR_protein|mol2

> <Gold.PLP.Fitness>
50.8353

> <Gold.PLP.PLP>
-46.0539

> <Gold.PLP.part.hbond>
-0.9468

> <Gold.PLP.part.metal>
0.0000

> <Gold.PLP.part.buried>
-5.6694

> <Gold.PLP.part.nonpolar>
-40.5532

> <Gold.PLP.part.repulsive>
1.4637

> <Gold.PLP.ligand.clash>
0.0000

> <Gold.PLP.ligand.torsion>
0.7267

> <Gold.PLP.Chemscore.Hbond>
0.9913

> <Gold.PLP.Chemscore.CHOScore>
1.0380

> <Gold.PLP.Chemscore.Metal>
0.0000

> <Gold.Chemscore.Hbonds>
donor molecule, donor type, donor heavy atom, donor atom, acceptor molecule, acceptor atom, score
      L1  H     8    32       P1  8028  0.99
      L1  C    12    35       P1  7948  0.94
      L1  C    12    35       P1  7957  0.10

> <Gold.PLP.Chemscore.Internal.Correction>
0.1471

> <Gold.Rescore>
     Score         DG    S(hbond)    S(metal)    S(lipo)     H(rot)  DE(clash)    DE(int)     intcor
     15.35     -17.78       0.82        0.00     110.16       1.30       0.21       2.21       ----

> <Gold.Chemscore.Fitness>
15.3510

> <Gold.Chemscore.DG>
-17.7763

> <Gold.Chemscore.ZeroCoef>
-5.4800

> <Gold.Chemscore.Hbond>
0.8222

> <Gold.Chemscore.Metal>
0.0000

> <Gold.Chemscore.Lipo>
110.1632

> <Gold.Chemscore.Internal_Hbond>
0.0000

> <Gold.Chemscore.DEClash>
0.2114

> <Gold.Chemscore.DEInternal>
2.2138

> <Gold.Chemscore.Rot>
1.3042

> <Gold.Chemscore.Internal.Correction>
   9.000000E+99

> <Gold.Chemscore.Hbonds>
donor molecule, donor type, donor heavy atom, donor atom, acceptor molecule, acceptor atom, score
      L1  H     8    32       P1  8028  0.92

> <Gold.Chemscore.Hbond.Weighted>
-2.7460

> <Gold.Chemscore.Metal.Weighted>
-0.0000

> <Gold.Chemscore.Lipo.Weighted>
-12.8891

> <Gold.Chemscore.Internal_Hbond.Weighted>
0.0000

> <Gold.Chemscore.DEClash.Weighted>
0.2114

> <Gold.Chemscore.DEInternal.Weighted>
2.2138

> <Gold.Chemscore.Rot.Weighted>
3.3389

> <Gold.Chemscore.Internal.Correction.Weighted>
   9.000000E+99

> <Gold.Protein.RotatedTorsions>
[ 6907 6896 6895 6894 ] final  -37.85 input  -60.11 | X-H torsion
[ 7974 7965 7964 7962 ] final -110.70 input  175.53 | X-H torsion
[ 8008 7997 7996 7995 ] final   88.81 input   59.86 | X-H torsion
[ 10167 10162 10161 10158 ] final -101.80 input  -65.29 | X-H torsion
[ 10718 10713 10712 10709 ] final  168.02 input   66.30 | X-H torsion
[ 10763 10752 10751 10750 ] final -134.23 input  -60.55 | X-H torsion
[ 11005 11000 10999 10996 ] final  131.73 input  -57.11 | X-H torsion

> <Gold.Protein.ActiveResidues>
 VAL166  LYS551  ARG553  GLY616  TRP617  ASP618  TYR619  PRO620  LYS621  CYS622 
 ASP623  PHE694  ASN695  SER759  ASP760  ASP761  ALA762  ILE779  LEU786  VAL792 
 PHE793  MET794  SER795  GLU796  ALA797  LYS798  CYS799  TRP800  GLU811  SER814 

> <Gold.Protein.RotatedAtoms>
  151.0097  134.9387  159.7999 H   0  0  0  0  0  0  0  0  0  0  0  0  # atno 6907 bound_to 6896
  152.5299  134.3045  159.9100 H   0  0  0  0  0  0  0  0  0  0  0  0  # atno 6908 bound_to 6896
  151.3051  133.4063  159.2677 H   0  0  0  0  0  0  0  0  0  0  0  0  # atno 6909 bound_to 6896
  145.1650  140.8897  143.3568 H   0  0  0  0  0  0  0  0  0  0  0  0  # atno 7974 bound_to 7965
  155.9923  140.3367  155.6765 H   0  0  0  0  0  0  0  0  0  0  0  0  # atno 8008 bound_to 7997
  155.6404  140.0694  157.2638 H   0  0  0  0  0  0  0  0  0  0  0  0  # atno 8009 bound_to 7997
  154.4223  140.1744  156.1554 H   0  0  0  0  0  0  0  0  0  0  0  0  # atno 8010 bound_to 7997
  140.2374  143.3563  152.0832 H   0  0  0  0  0  0  0  0  0  0  0  0  # atno 10167 bound_to 10162
  157.0432  131.0292  151.2706 H   0  0  0  0  0  0  0  0  0  0  0  0  # atno 10718 bound_to 10713
  154.8722  135.3741  154.4702 H   0  0  0  0  0  0  0  0  0  0  0  0  # atno 10763 bound_to 10752
  153.5364  135.7027  153.5663 H   0  0  0  0  0  0  0  0  0  0  0  0  # atno 10764 bound_to 10752
  153.3845  135.3988  155.1845 H   0  0  0  0  0  0  0  0  0  0  0  0  # atno 10765 bound_to 10752
  139.9747  134.9567  156.9480 H   0  0  0  0  0  0  0  0  0  0  0  0  # atno 11005 bound_to 11000
  145.0291  139.3356  143.6033 LP  0  0  0  0  0  0  0  0  0  0  0  0  # atno 17320 bound_to 7965
  146.3477  139.9622  142.8716 LP  0  0  0  0  0  0  0  0  0  0  0  0  # atno 17321 bound_to 7965
  139.5089  144.6858  151.5892 LP  0  0  0  0  0  0  0  0  0  0  0  0  # atno 17342 bound_to 10162
  140.6139  143.9384  150.6474 LP  0  0  0  0  0  0  0  0  0  0  0  0  # atno 17343 bound_to 10162
  157.5088  130.7926  149.7683 LP  0  0  0  0  0  0  0  0  0  0  0  0  # atno 17370 bound_to 10713
  156.0031  130.3869  150.2530 LP  0  0  0  0  0  0  0  0  0  0  0  0  # atno 17371 bound_to 10713
  140.5219  134.0899  155.7294 LP  0  0  0  0  0  0  0  0  0  0  0  0  # atno 17394 bound_to 11000
  141.1425  133.9113  157.2292 LP  0  0  0  0  0  0  0  0  0  0  0  0  # atno 17395 bound_to 11000

$$$$
