#       Name:                AV-unprocessed.smi:1078
#       Creating user name   scv26
#       Creation time:       Fri Mar 27 03:22:40 2020


#       File generated by GOLD software.
#

@<TRIPOS>MOLECULE
AV-unprocessed.smi:1078
    41    42     1
SMALL
NO_CHARGES


@<TRIPOS>ATOM
      1 ****        -2.0762  -1.5622   1.6026 C.3            1 S1                 0.0000
      2 ****        -1.6167  -0.6577   0.4462 C.3            1 S1                 0.0000
      3 ****        -2.1382  -1.1396  -0.9286 C.3            1 S1                 0.0000
      4 ****        -3.5778  -1.3283  -0.9601 N.pl3          1 S1                 0.0000
      5 ****        -4.2871  -2.4973  -1.1422 C.2            1 S1                 0.0000
      6 ****        -5.6138  -2.1768  -1.1057 C.2            1 S1                 0.0000
      7 ****        -5.6164  -0.7684  -0.9026 C.2            1 S1                 0.0000
      8 ****        -4.3961  -0.2628  -0.8208 N.2            1 S1                 0.0000
      9 ****        -0.1393  -0.5682   0.4584 N.4            1 S1                 1.0000
     10 ****         0.4402   0.5442  -0.3250 C.3            1 S1                 0.0000
     11 ****         1.9648   0.6359  -0.1284 C.3            1 S1                 0.0000
     12 ****         2.3397   1.0541   1.3110 C.3            1 S1                 0.0000
     13 ****         3.8625   1.1600   1.4951 C.3            1 S1                 0.0000
     14 ****         4.4813   2.1266   0.4743 C.3            1 S1                 0.0000
     15 ****         4.1168   1.7203  -0.9612 C.3            1 S1                 0.0000
     16 ****         2.5935   1.6154  -1.1407 C.3            1 S1                 0.0000
     17 ****        -3.1620  -1.5706   1.7010 H              1 S1                 0.0000
     18 ****        -1.6722  -1.2168   2.5548 H              1 S1                 0.0000
     19 ****        -1.7472  -2.5914   1.4553 H              1 S1                 0.0000
     20 ****        -2.0101   0.3411   0.6422 H              1 S1                 0.0000
     21 ****        -1.8822  -0.4280  -1.7139 H              1 S1                 0.0000
     22 ****        -1.6649  -2.0849  -1.1982 H              1 S1                 0.0000
     23 ****        -3.7960  -3.4496  -1.2789 H              1 S1                 0.0000
     24 ****        -6.4548  -2.8462  -1.2110 H              1 S1                 0.0000
     25 ****        -6.4629  -0.1032  -0.8149 H              1 S1                 0.0000
     26 ****         0.1463  -0.4344   1.4179 H              1 S1                 0.0000
     27 ****         0.2204   0.3841  -1.3805 H              1 S1                 0.0000
     28 ****        -0.0320   1.4855  -0.0398 H              1 S1                 0.0000
     29 ****         2.3898  -0.3511  -0.3202 H              1 S1                 0.0000
     30 ****         1.8798   2.0147   1.5479 H              1 S1                 0.0000
     31 ****         1.9427   0.3380   2.0310 H              1 S1                 0.0000
     32 ****         4.0921   1.4936   2.5076 H              1 S1                 0.0000
     33 ****         4.3141   0.1733   1.3856 H              1 S1                 0.0000
     34 ****         4.1275   3.1399   0.6687 H              1 S1                 0.0000
     35 ****         5.5652   2.1494   0.5915 H              1 S1                 0.0000
     36 ****         4.5253   2.4448  -1.6666 H              1 S1                 0.0000
     37 ****         4.5804   0.7619  -1.1989 H              1 S1                 0.0000
     38 ****         2.3714   1.2949  -2.1593 H              1 S1                 0.0000
     39 ****         2.1463   2.6036  -1.0249 H              1 S1                 0.0000
     40 ****         0.2465  -1.4421   0.1304 H              1 S1                 0.0000
     41 ****        -4.1378   0.6938  -0.6860 LP             1 S1                 0.0000
@<TRIPOS>BOND
    1    1    2 1     
    2    1   17 1     
    3    1   18 1     
    4    1   19 1     
    5    2    3 1     
    6    2    9 1     
    7    2   20 1     
    8    3    4 1     
    9    3   21 1     
   10    3   22 1     
   11    4    8 1     
   12    4    5 1     
   13    5    6 2     
   14    5   23 1     
   15    6    7 1     
   16    6   24 1     
   17    7    8 2     
   18    7   25 1     
   19    9   10 1     
   20    9   26 1     
   21    9   40 1     
   22   10   11 1     
   23   10   27 1     
   24   10   28 1     
   25   11   16 1     
   26   11   12 1     
   27   11   29 1     
   28   12   13 1     
   29   12   30 1     
   30   12   31 1     
   31   13   14 1     
   32   13   32 1     
   33   13   33 1     
   34   14   15 1     
   35   14   34 1     
   36   14   35 1     
   37   15   16 1     
   38   15   36 1     
   39   15   37 1     
   40   16   38 1     
   41   16   39 1     
   42    8   41 1     
@<TRIPOS>SUBSTRUCTURE
      1 S1             1
@<TRIPOS>SET
LONE_PAIRS      STATIC     ATOMS    <user>   **** ""
1 41
DONOR_HYDROGENS      STATIC     ATOMS    <user>   **** ""
2 26 40
ATOM$BLUE        STATIC     ATOMS    COLORGROUP SYSTEM
1 41
ATOM$RED        STATIC     ATOMS    COLORGROUP SYSTEM
2 26 40
