AV-unprocessed.smi:1231|AV-procd|sdf|5166|dock8
  -GOLD-   22720 4243D 1   1.00000     0.00000
 Structure written by MMmdl.
 43 44  0  0  0  0  0  0  0  0  2 V2000
  148.1451  133.2827  152.4999 C   0  0  0  0  0  0  0  0  0  0  0  0
  146.6722  133.3686  152.9382 C   0  0  1  0  0  0  0  0  0  0  0  0
  146.2593  134.7662  153.4407 C   0  0  0  0  0  0  0  0  0  0  0  0
  146.1224  135.7230  152.3170 N   0  3  2  0  0  0  0  0  0  0  0  0
  145.7819  137.0916  152.7782 C   0  0  0  0  0  0  0  0  0  0  0  0
  146.2281  138.1746  151.7772 C   0  0  0  0  0  0  0  0  0  0  0  0
  147.3957  138.9027  152.2605 N   0  0  0  0  0  0  0  0  0  0  0  0
  147.5839  139.2871  153.5314 C   0  0  0  0  0  0  0  0  0  0  0  0
  146.7780  139.0535  154.4329 O   0  0  0  0  0  0  0  0  0  0  0  0
  148.7470  139.9461  153.6758 N   0  0  0  0  0  0  0  0  0  0  0  0
  149.3046  140.4916  154.8629 C   0  0  0  0  0  0  0  0  0  0  0  0
  148.3695  141.0628  155.7557 C   0  0  0  0  0  0  0  0  0  0  0  0
  148.8217  141.6303  156.9628 C   0  0  0  0  0  0  0  0  0  0  0  0
  150.1992  141.6138  157.2451 C   0  0  0  0  0  0  0  0  0  0  0  0
  151.0628  141.0273  156.3016 C   0  0  0  0  0  0  0  0  0  0  0  0
  150.6315  140.4818  155.1445 N   0  0  0  0  0  0  0  0  0  0  0  0
  145.1821  135.1909  151.3016 C   0  0  0  0  0  0  0  0  0  0  0  0
  145.6504  133.8106  150.8071 C   0  0  2  0  0  0  0  0  0  0  0  0
  144.6580  133.1869  149.8196 C   0  0  0  0  0  0  0  0  0  0  0  0
  145.7770  132.9266  151.9180 O   0  0  0  0  0  0  0  0  0  0  0  0
  148.8099  133.4992  153.3365 H   0  0  0  0  0  0  0  0  0  0  0  0
  148.3841  133.9898  151.7061 H   0  0  0  0  0  0  0  0  0  0  0  0
  148.3858  132.2818  152.1408 H   0  0  0  0  0  0  0  0  0  0  0  0
  146.5511  132.6708  153.7672 H   0  0  0  0  0  0  0  0  0  0  0  0
  145.3053  134.6990  153.9667 H   0  0  0  0  0  0  0  0  0  0  0  0
  146.9915  135.1324  154.1617 H   0  0  0  0  0  0  0  0  0  0  0  0
  144.7109  137.1528  152.9782 H   0  0  0  0  0  0  0  0  0  0  0  0
  146.2828  137.2846  153.7283 H   0  0  0  0  0  0  0  0  0  0  0  0
  146.4868  137.7144  150.8234 H   0  0  0  0  0  0  0  0  0  0  0  0
  145.4270  138.8851  151.5714 H   0  0  0  0  0  0  0  0  0  0  0  0
  148.1047  139.1359  151.5802 H   0  0  0  0  0  0  0  0  0  0  0  0
  149.2994  140.0723  152.8406 H   0  0  0  0  0  0  0  0  0  0  0  0
  147.3143  141.0667  155.5235 H   0  0  0  0  0  0  0  0  0  0  0  0
  148.1230  142.0699  157.6593 H   0  0  0  0  0  0  0  0  0  0  0  0
  150.5841  142.0389  158.1602 H   0  0  0  0  0  0  0  0  0  0  0  0
  152.1274  140.9953  156.4796 H   0  0  0  0  0  0  0  0  0  0  0  0
  144.1822  135.1185  151.7332 H   0  0  0  0  0  0  0  0  0  0  0  0
  145.1128  135.8708  150.4531 H   0  0  0  0  0  0  0  0  0  0  0  0
  146.6116  133.9091  150.3022 H   0  0  0  0  0  0  0  0  0  0  0  0
  144.5349  133.8146  148.9367 H   0  0  0  0  0  0  0  0  0  0  0  0
  143.6761  133.0553  150.2757 H   0  0  0  0  0  0  0  0  0  0  0  0
  145.0038  132.2082  149.4857 H   0  0  0  0  0  0  0  0  0  0  0  0
  147.0315  135.7821  151.8810 H   0  0  0  0  0  0  0  0  0  0  0  0
  1  2  1  0  0  0  0
  1 21  1  0  0  0  0
  1 22  1  0  0  0  0
  1 23  1  0  0  0  0
  2 20  1  0  0  0  0
  2  3  1  0  0  0  0
  2 24  1  0  0  0  0
  3  4  1  0  0  0  0
  3 25  1  0  0  0  0
  3 26  1  0  0  0  0
  4  5  1  0  0  0  0
  4 17  1  0  0  0  0
  4 43  1  0  0  0  0
  5  6  1  0  0  0  0
  5 27  1  0  0  0  0
  5 28  1  0  0  0  0
  6  7  1  0  0  0  0
  6 29  1  0  0  0  0
  6 30  1  0  0  0  0
  7  8  1  0  0  0  0
  7 31  1  0  0  0  0
  8  9  2  0  0  0  0
  8 10  1  0  0  0  0
 10 11  1  0  0  0  0
 10 32  1  0  0  0  0
 11 16  1  0  0  0  0
 11 12  2  0  0  0  0
 12 13  1  0  0  0  0
 12 33  1  0  0  0  0
 13 14  2  0  0  0  0
 13 34  1  0  0  0  0
 14 15  1  0  0  0  0
 14 35  1  0  0  0  0
 15 16  2  0  0  0  0
 15 36  1  0  0  0  0
 17 18  1  0  0  0  0
 17 37  1  0  0  0  0
 17 38  1  0  0  0  0
 18 19  1  0  0  0  0
 18 20  1  0  0  0  0
 18 39  1  0  0  0  0
 19 40  1  0  0  0  0
 19 41  1  0  0  0  0
 19 42  1  0  0  0  0
M  CHG  1   4   1
M  END
> <s_m_source_file>
AV-unprocessed.smi

> <i_m_source_file_index>
1231

> <i_lp_mmshare_version>
43012

> <i_f3d_flags>
0

> <s_epik_input>
W0NIM11bQ0BASF0xW0NIMl1OKFtDSDJdW0NASF0oTzEpW0NIM10pW0NIMl1bQ0gyXVtOSF1DKD1PKVtOSF1jMltjSF1bY0hdW2NIXVtjSF1uMg==

> <s_epik_cmdline>
J2VwaWtfcHl0aG9uJywgJy1waCcsICc3LjAnLCAnLXRuJywgJzgnLCAnLW1hJywgJzIwMCcsICctbWV0YWxfYmluZGluZycsICctaW1hZScsICc8aW5maWxlLm1hZT4nLCAnLW9tYWUnLCAnPG91dGZpbGUubWFlPic=

> <r_epik_Ionization_Penalty>
0.602565

> <r_epik_Ionization_Penalty_Charging>
0.602531

> <r_epik_Ionization_Penalty_Neutral>
3.43186e-05

> <r_epik_State_Penalty>
0.617039

> <r_epik_Charging_Adjusted_Penalty>
1.21957

> <i_epik_Tot_Q>
1

> <i_epik_Tot_abs_Q>
1

> <r_epik_Metal_State_Penalty>
0.617041

> <b_epik_Metal_Only>
0

> <s_lp_Force_Field>
OPLS_2005

> <r_lp_Energy>
18.3102

> <b_lp_Chiralities_Consistent>
1

> <s_lp_Variant>
AV-unprocessed.smi:1231-7

> <Gold.Version>
5.8.1

> <Gold.Id.Protein>
6NUR|6NUR_protein|mol2

> <Gold.PLP.Fitness>
47.3003

> <Gold.PLP.PLP>
-34.6250

> <Gold.PLP.part.hbond>
-4.7677

> <Gold.PLP.part.metal>
0.0000

> <Gold.PLP.part.buried>
-2.1289

> <Gold.PLP.part.nonpolar>
-27.9006

> <Gold.PLP.part.repulsive>
0.5262

> <Gold.PLP.ligand.clash>
0.0000

> <Gold.PLP.ligand.torsion>
0.9633

> <Gold.PLP.Chemscore.Hbond>
4.8640

> <Gold.PLP.Chemscore.CHOScore>
0.0000

> <Gold.PLP.Chemscore.Metal>
0.0000

> <Gold.Chemscore.Hbonds>
donor molecule, donor type, donor heavy atom, donor atom, acceptor molecule, acceptor atom, score
      L1  H     4    43       P1  7948  2.00
      L1  H     7    31       P1  7957  1.00
      L1  H    10    32       P1  7957  1.00
      P1  H  7989  7998       L1    16  1.00

> <Gold.PLP.Chemscore.Internal.Correction>
0.0100

> <Gold.Rescore>
     Score         DG    S(hbond)    S(metal)    S(lipo)     H(rot)  DE(clash)    DE(int)     intcor
     17.48     -21.36       3.65        0.00      65.57       1.55       0.01       3.87       ----

> <Gold.Chemscore.Fitness>
17.4754

> <Gold.Chemscore.DG>
-21.3609

> <Gold.Chemscore.ZeroCoef>
-5.4800

> <Gold.Chemscore.Hbond>
3.6495

> <Gold.Chemscore.Metal>
0.0000

> <Gold.Chemscore.Lipo>
65.5661

> <Gold.Chemscore.Internal_Hbond>
0.0000

> <Gold.Chemscore.DEClash>
0.0108

> <Gold.Chemscore.DEInternal>
3.8747

> <Gold.Chemscore.Rot>
1.5546

> <Gold.Chemscore.Internal.Correction>
   9.000000E+99

> <Gold.Chemscore.Hbonds>
donor molecule, donor type, donor heavy atom, donor atom, acceptor molecule, acceptor atom, score
      L1  H     4    43       P1  7948  0.97
      L1  H     7    31       P1  7957  0.86
      L1  H    10    32       P1  7957  0.98
      P1  H  7989  7998       L1    16  0.63

> <Gold.Chemscore.Hbond.Weighted>
-12.1893

> <Gold.Chemscore.Metal.Weighted>
-0.0000

> <Gold.Chemscore.Lipo.Weighted>
-7.6712

> <Gold.Chemscore.Internal_Hbond.Weighted>
0.0000

> <Gold.Chemscore.DEClash.Weighted>
0.0108

> <Gold.Chemscore.DEInternal.Weighted>
3.8747

> <Gold.Chemscore.Rot.Weighted>
3.9797

> <Gold.Chemscore.Internal.Correction.Weighted>
   9.000000E+99

> <Gold.Protein.RotatedTorsions>
[ 6907 6896 6895 6894 ] final  127.90 input  -60.11 | X-H torsion
[ 7974 7965 7964 7962 ] final   33.74 input  175.53 | X-H torsion
[ 8008 7997 7996 7995 ] final  -71.37 input   59.86 | X-H torsion
[ 10167 10162 10161 10158 ] final  101.56 input  -65.29 | X-H torsion
[ 10718 10713 10712 10709 ] final -121.75 input   66.30 | X-H torsion
[ 10763 10752 10751 10750 ] final  -22.50 input  -60.55 | X-H torsion
[ 11005 11000 10999 10996 ] final   84.77 input  -57.11 | X-H torsion

> <Gold.Protein.ActiveResidues>
 VAL166  LYS551  ARG553  GLY616  TRP617  ASP618  TYR619  PRO620  LYS621  CYS622 
 ASP623  PHE694  ASN695  SER759  ASP760  ASP761  ALA762  ILE779  LEU786  VAL792 
 PHE793  MET794  SER795  GLU796  ALA797  LYS798  CYS799  TRP800  GLU811  SER814 

> <Gold.Protein.RotatedAtoms>
  152.3770  133.6494  159.6130 H   0  0  0  0  0  0  0  0  0  0  0  0  # atno 6907 bound_to 6896
  150.7711  133.9177  159.3397 H   0  0  0  0  0  0  0  0  0  0  0  0  # atno 6908 bound_to 6896
  151.6990  135.0934  160.0298 H   0  0  0  0  0  0  0  0  0  0  0  0  # atno 6909 bound_to 6896
  146.1400  139.6358  142.9169 H   0  0  0  0  0  0  0  0  0  0  0  0  # atno 7974 bound_to 7965
  154.5083  140.0817  156.7938 H   0  0  0  0  0  0  0  0  0  0  0  0  # atno 8008 bound_to 7997
  155.3844  140.3429  155.4230 H   0  0  0  0  0  0  0  0  0  0  0  0  # atno 8009 bound_to 7997
  156.1542  140.1568  156.8707 H   0  0  0  0  0  0  0  0  0  0  0  0  # atno 8010 bound_to 7997
  139.7427  144.7006  151.0550 H   0  0  0  0  0  0  0  0  0  0  0  0  # atno 10167 bound_to 10162
  156.1363  130.6432  150.9701 H   0  0  0  0  0  0  0  0  0  0  0  0  # atno 10718 bound_to 10713
  153.6530  135.6980  153.5202 H   0  0  0  0  0  0  0  0  0  0  0  0  # atno 10763 bound_to 10752
  153.2691  135.4220  155.0970 H   0  0  0  0  0  0  0  0  0  0  0  0  # atno 10764 bound_to 10752
  154.8471  135.3574  154.6075 H   0  0  0  0  0  0  0  0  0  0  0  0  # atno 10765 bound_to 10752
  139.8990  134.8240  156.2491 H   0  0  0  0  0  0  0  0  0  0  0  0  # atno 11005 bound_to 11000
  145.5068  141.0436  143.2510 LP  0  0  0  0  0  0  0  0  0  0  0  0  # atno 17320 bound_to 7965
  144.7782  139.6584  143.7166 LP  0  0  0  0  0  0  0  0  0  0  0  0  # atno 17321 bound_to 7965
  140.7788  143.4904  150.9900 LP  0  0  0  0  0  0  0  0  0  0  0  0  # atno 17342 bound_to 10162
  139.8592  143.7336  152.3174 LP  0  0  0  0  0  0  0  0  0  0  0  0  # atno 17343 bound_to 10162
  157.6535  131.0893  150.7999 LP  0  0  0  0  0  0  0  0  0  0  0  0  # atno 17370 bound_to 10713
  156.8079  130.4942  149.5360 LP  0  0  0  0  0  0  0  0  0  0  0  0  # atno 17371 bound_to 10713
  141.0235  133.7028  156.1309 LP  0  0  0  0  0  0  0  0  0  0  0  0  # atno 17394 bound_to 11000
  140.7199  134.4370  157.5575 LP  0  0  0  0  0  0  0  0  0  0  0  0  # atno 17395 bound_to 11000

$$$$
