AV-unprocessed.smi:427|AV-procd|sdf|2543|dock5
  -GOLD-   2262022503D 1   1.00000     0.00000
 Structure written by MMmdl.
 51 52  0  0  0  0  0  0  0  0  1 V2000
  152.7459  139.3472  158.2348 C   0  0  0  0  0  0  0  0  0  0  0  0
  152.8665  140.5648  159.1325 C   0  0  0  0  0  0  0  0  0  0  0  0
  152.2449  141.7736  158.7553 C   0  0  0  0  0  0  0  0  0  0  0  0
  152.3395  142.9290  159.5684 C   0  0  0  0  0  0  0  0  0  0  0  0
  151.6719  144.2647  159.1879 C   0  0  0  0  0  0  0  0  0  0  0  0
  151.8623  145.2831  160.3313 C   0  0  0  0  0  0  0  0  0  0  0  0
  150.1540  144.1298  158.9288 C   0  0  0  0  0  0  0  0  0  0  0  0
  152.3177  144.8197  157.9010 C   0  0  0  0  0  0  0  0  0  0  0  0
  153.0767  142.8356  160.7708 C   0  0  0  0  0  0  0  0  0  0  0  0
  153.6987  141.6328  161.1526 C   0  0  0  0  0  0  0  0  0  0  0  0
  153.6000  140.4809  160.3359 C   0  0  0  0  0  0  0  0  0  0  0  0
  154.1805  139.2685  160.6437 O   0  0  0  0  0  0  0  0  0  0  0  0
  154.7960  139.1100  161.9160 C   0  0  0  0  0  0  0  0  0  0  0  0
  156.0989  139.9250  161.9655 C   0  0  1  0  0  0  0  0  0  0  0  0
  156.4172  140.1438  163.3251 O   0  0  0  0  0  0  0  0  0  0  0  0
  157.2713  139.2263  161.2414 C   0  0  0  0  0  0  0  0  0  0  0  0
  158.3029  140.1477  160.7955 N   0  0  0  0  0  0  0  0  0  0  0  0
  159.4018  140.3832  161.6586 C   0  0  0  0  0  0  0  0  0  0  0  0
  159.5041  139.8362  162.7572 O   0  0  0  0  0  0  0  0  0  0  0  0
  160.3868  141.3311  161.1488 C   0  0  0  0  0  0  0  0  0  0  0  0
  160.2212  141.9261  159.9474 C   0  0  0  0  0  0  0  0  0  0  0  0
  159.1286  141.6862  159.1374 N   0  0  0  0  0  0  0  0  0  0  0  0
  158.9564  142.3284  157.8662 C   0  0  0  0  0  0  0  0  0  0  0  0
  158.1211  140.7848  159.5448 C   0  0  0  0  0  0  0  0  0  0  0  0
  157.1278  140.5746  158.8426 O   0  0  0  0  0  0  0  0  0  0  0  0
  152.1408  139.5562  157.3523 H   0  0  0  0  0  0  0  0  0  0  0  0
  152.2816  138.5223  158.7758 H   0  0  0  0  0  0  0  0  0  0  0  0
  153.7325  139.0254  157.9003 H   0  0  0  0  0  0  0  0  0  0  0  0
  151.6955  141.7889  157.8274 H   0  0  0  0  0  0  0  0  0  0  0  0
  151.3825  146.2343  160.0986 H   0  0  0  0  0  0  0  0  0  0  0  0
  152.9143  145.4955  160.5224 H   0  0  0  0  0  0  0  0  0  0  0  0
  151.4277  144.9168  161.2621 H   0  0  0  0  0  0  0  0  0  0  0  0
  149.6238  143.7716  159.8121 H   0  0  0  0  0  0  0  0  0  0  0  0
  149.9439  143.4453  158.1060 H   0  0  0  0  0  0  0  0  0  0  0  0
  149.7121  145.0906  158.6623 H   0  0  0  0  0  0  0  0  0  0  0  0
  151.8507  145.7569  157.5955 H   0  0  0  0  0  0  0  0  0  0  0  0
  152.2137  144.1175  157.0730 H   0  0  0  0  0  0  0  0  0  0  0  0
  153.3814  145.0215  158.0284 H   0  0  0  0  0  0  0  0  0  0  0  0
  153.1733  143.6936  161.4191 H   0  0  0  0  0  0  0  0  0  0  0  0
  154.2475  141.6215  162.0818 H   0  0  0  0  0  0  0  0  0  0  0  0
  154.1202  139.4873  162.6851 H   0  0  0  0  0  0  0  0  0  0  0  0
  154.9929  138.0586  162.1332 H   0  0  0  0  0  0  0  0  0  0  0  0
  155.9022  140.8991  161.5158 H   0  0  0  0  0  0  0  0  0  0  0  0
  155.6324  140.0309  163.8393 H   0  0  0  0  0  0  0  0  0  0  0  0
  157.7322  138.4449  161.8480 H   0  0  0  0  0  0  0  0  0  0  0  0
  156.9239  138.7010  160.3499 H   0  0  0  0  0  0  0  0  0  0  0  0
  161.2595  141.5602  161.7426 H   0  0  0  0  0  0  0  0  0  0  0  0
  160.9767  142.6213  159.6118 H   0  0  0  0  0  0  0  0  0  0  0  0
  158.9263  141.5472  157.1048 H   0  0  0  0  0  0  0  0  0  0  0  0
  159.8077  142.9905  157.7053 H   0  0  0  0  0  0  0  0  0  0  0  0
  158.0275  142.8996  157.9084 H   0  0  0  0  0  0  0  0  0  0  0  0
  1  2  1  0  0  0  0
  1 26  1  0  0  0  0
  1 27  1  0  0  0  0
  1 28  1  0  0  0  0
  2 11  1  0  0  0  0
  2  3  2  0  0  0  0
  3  4  1  0  0  0  0
  3 29  1  0  0  0  0
  4  5  1  0  0  0  0
  4  9  2  0  0  0  0
  5  6  1  0  0  0  0
  5  7  1  0  0  0  0
  5  8  1  0  0  0  0
  6 30  1  0  0  0  0
  6 31  1  0  0  0  0
  6 32  1  0  0  0  0
  7 33  1  0  0  0  0
  7 34  1  0  0  0  0
  7 35  1  0  0  0  0
  8 36  1  0  0  0  0
  8 37  1  0  0  0  0
  8 38  1  0  0  0  0
  9 10  1  0  0  0  0
  9 39  1  0  0  0  0
 10 11  2  0  0  0  0
 10 40  1  0  0  0  0
 11 12  1  0  0  0  0
 12 13  1  0  0  0  0
 13 14  1  0  0  0  0
 13 41  1  0  0  0  0
 13 42  1  0  0  0  0
 14 15  1  0  0  0  0
 14 16  1  0  0  0  0
 14 43  1  0  0  0  0
 15 44  1  0  0  0  0
 16 17  1  0  0  0  0
 16 45  1  0  0  0  0
 16 46  1  0  0  0  0
 17 24  1  0  0  0  0
 17 18  1  0  0  0  0
 18 19  2  0  0  0  0
 18 20  1  0  0  0  0
 20 21  2  0  0  0  0
 20 47  1  0  0  0  0
 21 22  1  0  0  0  0
 21 48  1  0  0  0  0
 22 23  1  0  0  0  0
 22 24  1  0  0  0  0
 23 49  1  0  0  0  0
 23 50  1  0  0  0  0
 23 51  1  0  0  0  0
 24 25  2  0  0  0  0
M  END
> <s_m_source_file>
AV-unprocessed.smi

> <i_m_source_file_index>
427

> <i_lp_mmshare_version>
43012

> <i_f3d_flags>
0

> <s_epik_input>
W0NIM11jMVtjSF1jKEMoW0NIM10pKFtDSDNdKVtDSDNdKVtjSF1bY0hdYzFPW0NIMl1bQ0BIXShbT0hdKVtDSDJdbjJjKD1PKVtjSF1bY0hdbihbQ0gzXSljMj1P

> <s_epik_cmdline>
J2VwaWtfcHl0aG9uJywgJy1waCcsICc3LjAnLCAnLXRuJywgJzgnLCAnLW1hJywgJzIwMCcsICctbWV0YWxfYmluZGluZycsICctaW1hZScsICc8aW5maWxlLm1hZT4nLCAnLW9tYWUnLCAnPG91dGZpbGUubWFlPic=

> <r_lp_tautomer_probability>
1

> <r_epik_Ionization_Penalty>
2.02112e-07

> <r_epik_Ionization_Penalty_Charging>
8.49383e-08

> <r_epik_Ionization_Penalty_Neutral>
1.17174e-07

> <r_epik_State_Penalty>
-0

> <r_epik_Charging_Adjusted_Penalty>
8.49383e-08

> <i_epik_Tot_Q>
0

> <i_epik_Tot_abs_Q>
0

> <r_epik_Metal_State_Penalty>
-0

> <b_epik_Metal_Only>
0

> <s_lp_Force_Field>
OPLS_2005

> <r_lp_Energy>
28.8364

> <b_lp_Chiralities_Consistent>
1

> <s_lp_Variant>
AV-unprocessed.smi:427-2

> <Gold.Version>
5.8.1

> <Gold.Id.Protein>
6NUR|6NUR_protein|mol2

> <Gold.PLP.Fitness>
52.7133

> <Gold.PLP.PLP>
-51.8981

> <Gold.PLP.part.hbond>
-1.5550

> <Gold.PLP.part.metal>
0.0000

> <Gold.PLP.part.buried>
-5.9338

> <Gold.PLP.part.nonpolar>
-45.1273

> <Gold.PLP.part.repulsive>
0.0645

> <Gold.PLP.ligand.clash>
0.0000

> <Gold.PLP.ligand.torsion>
0.9443

> <Gold.PLP.Chemscore.Hbond>
0.8882

> <Gold.PLP.Chemscore.CHOScore>
0.0000

> <Gold.PLP.Chemscore.Metal>
0.0000

> <Gold.Chemscore.Hbonds>
donor molecule, donor type, donor heavy atom, donor atom, acceptor molecule, acceptor atom, score
      P1  H  7997  8008       L1    25  0.73

> <Gold.PLP.Chemscore.Internal.Correction>
0.0393

> <Gold.Rescore>
     Score         DG    S(hbond)    S(metal)    S(lipo)     H(rot)  DE(clash)    DE(int)     intcor
     17.36     -19.40       0.79        0.00     150.81       2.49       0.31       1.73       ----

> <Gold.Chemscore.Fitness>
17.3567

> <Gold.Chemscore.DG>
-19.4015

> <Gold.Chemscore.ZeroCoef>
-5.4800

> <Gold.Chemscore.Hbond>
0.7931

> <Gold.Chemscore.Metal>
0.0000

> <Gold.Chemscore.Lipo>
150.8132

> <Gold.Chemscore.Internal_Hbond>
0.0000

> <Gold.Chemscore.DEClash>
0.3126

> <Gold.Chemscore.DEInternal>
1.7321

> <Gold.Chemscore.Rot>
2.4894

> <Gold.Chemscore.Internal.Correction>
   9.000000E+99

> <Gold.Chemscore.Hbonds>
donor molecule, donor type, donor heavy atom, donor atom, acceptor molecule, acceptor atom, score
      P1  H  7997  8008       L1    25  0.71

> <Gold.Chemscore.Hbond.Weighted>
-2.6491

> <Gold.Chemscore.Metal.Weighted>
-0.0000

> <Gold.Chemscore.Lipo.Weighted>
-17.6451

> <Gold.Chemscore.Internal_Hbond.Weighted>
0.0000

> <Gold.Chemscore.DEClash.Weighted>
0.3126

> <Gold.Chemscore.DEInternal.Weighted>
1.7321

> <Gold.Chemscore.Rot.Weighted>
6.3728

> <Gold.Chemscore.Internal.Correction.Weighted>
   9.000000E+99

> <Gold.Protein.RotatedTorsions>
[ 6907 6896 6895 6894 ] final   14.45 input  -60.11 | X-H torsion
[ 7974 7965 7964 7962 ] final -113.17 input  175.53 | X-H torsion
[ 8008 7997 7996 7995 ] final -173.37 input   59.86 | X-H torsion
[ 10167 10162 10161 10158 ] final  -69.48 input  -65.29 | X-H torsion
[ 10718 10713 10712 10709 ] final -108.66 input   66.30 | X-H torsion
[ 10763 10752 10751 10750 ] final   62.94 input  -60.55 | X-H torsion
[ 11005 11000 10999 10996 ] final   82.60 input  -57.11 | X-H torsion

> <Gold.Protein.ActiveResidues>
 VAL166  LYS551  ARG553  GLY616  TRP617  ASP618  TYR619  PRO620  LYS621  CYS622 
 ASP623  PHE694  ASN695  SER759  ASP760  ASP761  ALA762  ILE779  LEU786  VAL792 
 PHE793  MET794  SER795  GLU796  ALA797  LYS798  CYS799  TRP800  GLU811  SER814 

> <Gold.Protein.RotatedAtoms>
  151.8024  135.0705  160.0401 H   0  0  0  0  0  0  0  0  0  0  0  0  # atno 6907 bound_to 6896
  152.3079  133.5718  159.5670 H   0  0  0  0  0  0  0  0  0  0  0  0  # atno 6908 bound_to 6896
  150.7305  134.0111  159.3712 H   0  0  0  0  0  0  0  0  0  0  0  0  # atno 6909 bound_to 6896
  145.1352  140.8747  143.3734 H   0  0  0  0  0  0  0  0  0  0  0  0  # atno 7974 bound_to 7965
  155.9565  140.1136  157.0932 H   0  0  0  0  0  0  0  0  0  0  0  0  # atno 8008 bound_to 7997
  154.4122  140.1190  156.5189 H   0  0  0  0  0  0  0  0  0  0  0  0  # atno 8009 bound_to 7997
  155.6775  140.3473  155.4844 H   0  0  0  0  0  0  0  0  0  0  0  0  # atno 8010 bound_to 7997
  140.5427  143.2314  151.7059 H   0  0  0  0  0  0  0  0  0  0  0  0  # atno 10167 bound_to 10162
  156.0497  130.5724  150.7992 H   0  0  0  0  0  0  0  0  0  0  0  0  # atno 10718 bound_to 10713
  153.0000  135.5447  154.6272 H   0  0  0  0  0  0  0  0  0  0  0  0  # atno 10763 bound_to 10752
  154.5558  135.2830  155.0968 H   0  0  0  0  0  0  0  0  0  0  0  0  # atno 10764 bound_to 10752
  154.2190  135.6454  153.5191 H   0  0  0  0  0  0  0  0  0  0  0  0  # atno 10765 bound_to 10752
  139.9058  134.8083  156.2196 H   0  0  0  0  0  0  0  0  0  0  0  0  # atno 11005 bound_to 11000
  145.0592  139.3119  143.5889 LP  0  0  0  0  0  0  0  0  0  0  0  0  # atno 17320 bound_to 7965
  146.3510  140.0028  142.8674 LP  0  0  0  0  0  0  0  0  0  0  0  0  # atno 17321 bound_to 7965
  139.4995  144.3943  152.0248 LP  0  0  0  0  0  0  0  0  0  0  0  0  # atno 17342 bound_to 10162
  140.3053  144.3600  150.6049 LP  0  0  0  0  0  0  0  0  0  0  0  0  # atno 17343 bound_to 10162
  157.5410  131.0940  150.9827 LP  0  0  0  0  0  0  0  0  0  0  0  0  # atno 17370 bound_to 10713
  157.0110  130.5636  149.5321 LP  0  0  0  0  0  0  0  0  0  0  0  0  # atno 17371 bound_to 10713
  141.0414  133.6936  156.1604 LP  0  0  0  0  0  0  0  0  0  0  0  0  # atno 17394 bound_to 11000
  140.6950  134.4625  157.5588 LP  0  0  0  0  0  0  0  0  0  0  0  0  # atno 17395 bound_to 11000

$$$$
