#       Name:                AV-unprocessed.smi:153
#       Creating user name   scv26
#       Creation time:       Thu Mar 26 18:50:39 2020


#       File generated by GOLD software.
#

@<TRIPOS>MOLECULE
AV-unprocessed.smi:153
    71    74     1
SMALL
NO_CHARGES


@<TRIPOS>ATOM
      1 ****        -4.1688  -2.9169   2.2118 C.3            1 S1                 0.0000
      2 ****        -3.3926  -2.3280   1.0175 C.3            1 S1                 0.0000
      3 ****        -2.6047  -1.2490   1.5090 O.3            1 S1                 0.0000
      4 ****        -3.3060  -0.0163   1.3688 C.3            1 S1                 0.0000
      5 ****        -4.5216  -0.3032   0.4834 C.3            1 S1                 0.0000
      6 ****        -4.2566  -1.6917  -0.0918 C.3            1 S1                 0.0000
      7 ****        -5.4846  -2.3759  -0.2589 O.3            1 S1                 0.0000
      8 ****        -3.5750  -1.6797  -1.4882 C.3            1 S1                 0.0000
      9 ****        -2.3039  -0.9738  -1.5448 N.pl3          1 S1                 0.0000
     10 ****        -1.0640  -1.4870  -1.2478 C.2            1 S1                 0.0000
     11 ****        -0.0767  -0.6446  -1.3624 N.2            1 S1                 0.0000
     12 ****        -0.6672   0.5426  -1.7854 C.ar           1 S1                 0.0000
     13 ****        -0.1882   1.8554  -2.0971 C.ar           1 S1                 0.0000
     14 ****         1.1127   2.2676  -2.0027 N.pl3          1 S1                 0.0000
     15 ****         1.4331   3.6563  -2.3288 C.3            1 S1                 0.0000
     16 ****         2.0511   1.5630  -1.1301 C.3            1 S1                 0.0000
     17 ****         1.7376   1.7541   0.3723 C.3            1 S1                 0.0000
     18 ****         2.3554   2.9292   0.8561 O.3            1 S1                 0.0000
     19 ****         2.1512   0.5578   1.2586 C.3            1 S1                 0.0000
     20 ****         3.4049  -0.1191   0.9159 N.3            1 S1                 0.0000
     21 ****         3.5351  -1.3723   1.6519 C.3            1 S1                 0.0000
     22 ****         4.8388  -2.1121   1.3064 C.3            1 S1                 0.0000
     23 ****         5.9506  -1.2604   1.5619 O.3            1 S1                 0.0000
     24 ****         5.8880  -0.0426   0.8273 C.3            1 S1                 0.0000
     25 ****         4.5861   0.7029   1.1692 C.3            1 S1                 0.0000
     26 ****        -1.1199   2.7565  -2.5143 N.ar           1 S1                 0.0000
     27 ****        -2.4094   2.4255  -2.6062 C.ar           1 S1                 0.0000
     28 ****        -2.9895   1.2582  -2.3334 N.ar           1 S1                 0.0000
     29 ****        -2.0727   0.3377  -1.9231 C.ar           1 S1                 0.0000
     30 ****        -4.7653  -3.7787   1.9121 H              1 S1                 0.0000
     31 ****        -4.8402  -2.1855   2.6619 H              1 S1                 0.0000
     32 ****        -3.4812  -3.2533   2.9878 H              1 S1                 0.0000
     33 ****        -2.7444  -3.1066   0.6154 H              1 S1                 0.0000
     34 ****        -3.6106   0.3598   2.3456 H              1 S1                 0.0000
     35 ****        -2.6446   0.7231   0.9169 H              1 S1                 0.0000
     36 ****        -5.4130  -0.3168   1.1127 H              1 S1                 0.0000
     37 ****        -4.6838   0.4581  -0.2791 H              1 S1                 0.0000
     38 ****        -6.0111  -1.8993  -0.8826 H              1 S1                 0.0000
     39 ****        -3.4026  -2.7030  -1.8251 H              1 S1                 0.0000
     40 ****        -4.2424  -1.2307  -2.2250 H              1 S1                 0.0000
     41 ****        -0.9129  -2.5084  -0.9307 H              1 S1                 0.0000
     42 ****         1.1381   3.8933  -3.3516 H              1 S1                 0.0000
     43 ****         2.5036   3.8437  -2.2458 H              1 S1                 0.0000
     44 ****         0.9219   4.3394  -1.6494 H              1 S1                 0.0000
     45 ****         2.0678   0.5096  -1.3990 H              1 S1                 0.0000
     46 ****         3.0668   1.9005  -1.3398 H              1 S1                 0.0000
     47 ****         0.6650   1.8913   0.5141 H              1 S1                 0.0000
     48 ****         3.2910   2.8310   0.7695 H              1 S1                 0.0000
     49 ****         2.1555   0.8530   2.3091 H              1 S1                 0.0000
     50 ****         1.3472  -0.1747   1.1720 H              1 S1                 0.0000
     51 ****         3.5070  -1.1756   2.7249 H              1 S1                 0.0000
     52 ****         2.6863  -2.0208   1.4319 H              1 S1                 0.0000
     53 ****         4.9345  -3.0143   1.9106 H              1 S1                 0.0000
     54 ****         4.8414  -2.4236   0.2608 H              1 S1                 0.0000
     55 ****         6.7534   0.5708   1.0784 H              1 S1                 0.0000
     56 ****         5.9428  -0.2524  -0.2422 H              1 S1                 0.0000
     57 ****         4.5469   1.6152   0.5756 H              1 S1                 0.0000
     58 ****         4.6076   1.0090   2.2163 H              1 S1                 0.0000
     59 ****        -3.0707   3.2103  -2.9424 H              1 S1                 0.0000
     60 ****        -1.7503  -1.2025   0.9914 LP             1 S1                 0.0000
     61 ****        -2.4007  -1.4037   2.4757 LP             1 S1                 0.0000
     62 ****        -5.9638  -2.4276   0.6173 LP             1 S1                 0.0000
     63 ****        -5.3121  -3.3001  -0.5995 LP             1 S1                 0.0000
     64 ****         0.8929  -0.8139  -1.1852 LP             1 S1                 0.0000
     65 ****         2.1175   3.0646   1.8179 LP             1 S1                 0.0000
     66 ****         2.0476   3.7170   0.3226 LP             1 S1                 0.0000
     67 ****         3.3596  -0.2977  -0.0669 LP             1 S1                 0.0000
     68 ****         6.7889  -1.7438   1.3097 LP             1 S1                 0.0000
     69 ****         5.9711  -1.0447   2.5382 LP             1 S1                 0.0000
     70 ****        -0.8325   3.6833  -2.7562 LP             1 S1                 0.0000
     71 ****        -3.9698   1.0806  -2.4185 LP             1 S1                 0.0000
@<TRIPOS>BOND
    1    1    2 1     
    2    1   30 1     
    3    1   31 1     
    4    1   32 1     
    5    2    6 1     
    6    2    3 1     
    7    2   33 1     
    8    3    4 1     
    9    4    5 1     
   10    4   34 1     
   11    4   35 1     
   12    5    6 1     
   13    5   36 1     
   14    5   37 1     
   15    6    7 1     
   16    6    8 1     
   17    7   38 1     
   18    8    9 1     
   19    8   39 1     
   20    8   40 1     
   21    9   29 1     
   22    9   10 1     
   23   10   11 2     
   24   10   41 1     
   25   11   12 1     
   26   12   29 ar    
   27   12   13 ar    
   28   13   14 1     
   29   13   26 ar    
   30   14   15 1     
   31   14   16 1     
   32   15   42 1     
   33   15   43 1     
   34   15   44 1     
   35   16   17 1     
   36   16   45 1     
   37   16   46 1     
   38   17   18 1     
   39   17   19 1     
   40   17   47 1     
   41   18   48 1     
   42   19   20 1     
   43   19   49 1     
   44   19   50 1     
   45   20   25 1     
   46   20   21 1     
   47   21   22 1     
   48   21   51 1     
   49   21   52 1     
   50   22   23 1     
   51   22   53 1     
   52   22   54 1     
   53   23   24 1     
   54   24   25 1     
   55   24   55 1     
   56   24   56 1     
   57   25   57 1     
   58   25   58 1     
   59   26   27 ar    
   60   27   28 ar    
   61   27   59 1     
   62   28   29 ar    
   63    3   60 1     
   64    3   61 1     
   65    7   62 1     
   66    7   63 1     
   67   11   64 1     
   68   18   65 1     
   69   18   66 1     
   70   20   67 1     
   71   23   68 1     
   72   23   69 1     
   73   26   70 1     
   74   28   71 1     
@<TRIPOS>SUBSTRUCTURE
      1 S1             1
@<TRIPOS>SET
LONE_PAIRS      STATIC     ATOMS    <user>   **** ""
12 60 61 62 63 64 65 66 67 68 69 70 71
DONOR_HYDROGENS      STATIC     ATOMS    <user>   **** ""
2 38 48
ATOM$BLUE        STATIC     ATOMS    COLORGROUP SYSTEM
12 60 61 62 63 64 65 66 67 68 69 70 71
ATOM$RED        STATIC     ATOMS    COLORGROUP SYSTEM
2 38 48
