AV-unprocessed.smi:1803|AV-procd|sdf|7293|dock6
  -GOLD-   22720 8553D 1   1.00000     0.00000
 Structure written by MMmdl.
 35 37  0  0  0  0  0  0  0  0  3 V2000
  149.0988  135.8235  159.4481 O   0  0  0  0  0  0  0  0  0  0  0  0
  148.5624  136.9005  159.7052 C   0  0  0  0  0  0  0  0  0  0  0  0
  147.7698  137.0999  160.7898 N   0  5  0  0  0  0  0  0  0  0  0  0
  147.1265  136.0951  161.4131 C   0  0  0  0  0  0  0  0  0  0  0  0
  146.0400  136.2987  162.1757 N   0  0  0  0  0  0  0  0  0  0  0  0
  145.5367  135.1306  162.7312 N   0  0  0  0  0  0  0  0  0  0  0  0
  146.2516  134.0687  162.3604 C   0  0  0  0  0  0  0  0  0  0  0  0
  147.6099  134.4009  161.3064 S   0  0  0  0  0  0  0  0  0  0  0  0
  148.7551  137.9379  158.8680 N   0  0  0  0  0  0  0  0  0  0  0  0
  149.5182  137.8984  157.6249 C   0  0  2  0  0  0  0  0  0  0  0  0
  150.9377  137.3764  157.8041 C   0  0  0  0  0  0  0  0  0  0  0  0
  151.6508  137.8800  156.5448 C   0  0  0  0  0  0  0  0  0  0  0  0
  150.9287  139.0973  156.0991 N   0  3  2  0  0  0  0  0  0  0  0  0
  151.7962  140.2967  155.9510 C   0  0  0  0  0  0  0  0  0  0  0  0
  150.9550  141.5806  155.8969 C   0  0  0  0  0  0  0  0  0  0  0  0
  150.1625  141.7885  157.2013 C   0  0  0  0  0  0  0  0  0  0  0  0
  149.8992  140.4667  157.9477 C   0  0  0  0  0  0  0  0  0  0  0  0
  149.7331  139.2758  156.9705 C   0  0  2  0  0  0  0  0  0  0  0  0
  145.9783  133.0843  162.7100 H   0  0  0  0  0  0  0  0  0  0  0  0
  148.3063  138.8119  159.1009 H   0  0  0  0  0  0  0  0  0  0  0  0
  149.0110  137.2425  156.9140 H   0  0  0  0  0  0  0  0  0  0  0  0
  151.3950  137.8189  158.6904 H   0  0  0  0  0  0  0  0  0  0  0  0
  150.9818  136.2918  157.9093 H   0  0  0  0  0  0  0  0  0  0  0  0
  152.7124  138.0514  156.7276 H   0  0  0  0  0  0  0  0  0  0  0  0
  151.5747  137.1373  155.7501 H   0  0  0  0  0  0  0  0  0  0  0  0
  152.4939  140.3629  156.7876 H   0  0  0  0  0  0  0  0  0  0  0  0
  152.3962  140.1909  155.0466 H   0  0  0  0  0  0  0  0  0  0  0  0
  151.5889  142.4464  155.7036 H   0  0  0  0  0  0  0  0  0  0  0  0
  150.2627  141.5160  155.0562 H   0  0  0  0  0  0  0  0  0  0  0  0
  150.7017  142.4664  157.8641 H   0  0  0  0  0  0  0  0  0  0  0  0
  149.2177  142.2809  156.9683 H   0  0  0  0  0  0  0  0  0  0  0  0
  150.7292  140.2628  158.6256 H   0  0  0  0  0  0  0  0  0  0  0  0
  149.0182  140.5871  158.5786 H   0  0  0  0  0  0  0  0  0  0  0  0
  148.8784  139.4958  156.3290 H   0  0  0  0  0  0  0  0  0  0  0  0
  150.5646  138.8881  155.1805 H   0  0  0  0  0  0  0  0  0  0  0  0
  1  2  2  0  0  0  0
  2  3  1  0  0  0  0
  2  9  1  0  0  0  0
  3  4  1  0  0  0  0
  4  8  1  0  0  0  0
  4  5  2  0  0  0  0
  5  6  1  0  0  0  0
  6  7  2  0  0  0  0
  7  8  1  0  0  0  0
  7 19  1  0  0  0  0
  9 10  1  0  0  0  0
  9 20  1  0  0  0  0
 10 18  1  0  0  0  0
 10 11  1  0  0  0  0
 10 21  1  0  0  0  0
 11 12  1  0  0  0  0
 11 22  1  0  0  0  0
 11 23  1  0  0  0  0
 12 13  1  0  0  0  0
 12 24  1  0  0  0  0
 12 25  1  0  0  0  0
 13 18  1  0  0  0  0
 13 14  1  0  0  0  0
 13 35  1  0  0  0  0
 14 15  1  0  0  0  0
 14 26  1  0  0  0  0
 14 27  1  0  0  0  0
 15 16  1  0  0  0  0
 15 28  1  0  0  0  0
 15 29  1  0  0  0  0
 16 17  1  0  0  0  0
 16 30  1  0  0  0  0
 16 31  1  0  0  0  0
 17 18  1  0  0  0  0
 17 32  1  0  0  0  0
 17 33  1  0  0  0  0
 18 34  1  0  0  0  0
M  CHG  1   3  -1
M  CHG  1  13   1
M  END
> <s_m_source_file>
AV-unprocessed.smi

> <i_m_source_file_index>
1803

> <i_lp_mmshare_version>
43012

> <i_f3d_flags>
0

> <s_epik_input>
czFbY0hdbm5jMVtOSF1DKD1PKVtOSF1bQ0BIXShbQ0gyXVtDSDJdMilbQ0BASF0oTjIzKVtDSDJdW0NIMl1bQ0gyXVtDSDJdMw==

> <s_epik_cmdline>
J2VwaWtfcHl0aG9uJywgJy1waCcsICc3LjAnLCAnLXRuJywgJzgnLCAnLW1hJywgJzIwMCcsICctbWV0YWxfYmluZGluZycsICctaW1hZScsICc8aW5maWxlLm1hZT4nLCAnLW9tYWUnLCAnPG91dGZpbGUubWFlPic=

> <r_lp_tautomer_probability>
1

> <r_epik_Ionization_Penalty>
3.78828

> <r_epik_Ionization_Penalty_Charging>
3.7591

> <r_epik_Ionization_Penalty_Neutral>
0.0291838

> <r_epik_State_Penalty>
3.757

> <r_epik_Charging_Adjusted_Penalty>
7.51609

> <i_epik_Tot_Q>
0

> <i_epik_Tot_abs_Q>
2

> <r_epik_Metal_State_Penalty>
0.558016

> <b_epik_Metal_Only>
1

> <s_lp_Force_Field>
OPLS_2005

> <r_lp_Energy>
34.1757

> <b_lp_Chiralities_Consistent>
1

> <s_lp_Variant>
AV-unprocessed.smi:1803-15

> <Gold.Version>
5.8.1

> <Gold.Id.Protein>
6NUR|6NUR_protein|mol2

> <Gold.PLP.Fitness>
37.6650

> <Gold.PLP.PLP>
-24.6898

> <Gold.PLP.part.hbond>
-3.0000

> <Gold.PLP.part.metal>
0.0000

> <Gold.PLP.part.buried>
-4.3678

> <Gold.PLP.part.nonpolar>
-16.5841

> <Gold.PLP.part.repulsive>
0.2723

> <Gold.PLP.ligand.clash>
0.0000

> <Gold.PLP.ligand.torsion>
0.2746

> <Gold.PLP.Chemscore.Hbond>
4.5052

> <Gold.PLP.Chemscore.CHOScore>
0.0000

> <Gold.PLP.Chemscore.Metal>
0.0000

> <Gold.Chemscore.Hbonds>
donor molecule, donor type, donor heavy atom, donor atom, acceptor molecule, acceptor atom, score
      P1  H  6896  6907       L1     1  1.00
      P1  H  6931  6943       L1     3  1.63
      P1  H  6934  6947       L1     3  1.79

> <Gold.PLP.Chemscore.Internal.Correction>
0.0089

> <Gold.Rescore>
     Score         DG    S(hbond)    S(metal)    S(lipo)     H(rot)  DE(clash)    DE(int)     intcor
     12.47     -15.61       1.98        0.00      51.87       1.00       0.21       2.93       ----

> <Gold.Chemscore.Fitness>
12.4668

> <Gold.Chemscore.DG>
-15.6056

> <Gold.Chemscore.ZeroCoef>
-5.4800

> <Gold.Chemscore.Hbond>
1.9810

> <Gold.Chemscore.Metal>
0.0000

> <Gold.Chemscore.Lipo>
51.8722

> <Gold.Chemscore.Internal_Hbond>
0.0000

> <Gold.Chemscore.DEClash>
0.2102

> <Gold.Chemscore.DEInternal>
2.9286

> <Gold.Chemscore.Rot>
1.0000

> <Gold.Chemscore.Internal.Correction>
   9.000000E+99

> <Gold.Chemscore.Hbonds>
donor molecule, donor type, donor heavy atom, donor atom, acceptor molecule, acceptor atom, score
      P1  H  6896  6907       L1     1  0.93
      P1  H  6931  6943       L1     3  0.16
      P1  H  6934  6947       L1     3  0.65

> <Gold.Chemscore.Hbond.Weighted>
-6.6166

> <Gold.Chemscore.Metal.Weighted>
-0.0000

> <Gold.Chemscore.Lipo.Weighted>
-6.0691

> <Gold.Chemscore.Internal_Hbond.Weighted>
0.0000

> <Gold.Chemscore.DEClash.Weighted>
0.2102

> <Gold.Chemscore.DEInternal.Weighted>
2.9286

> <Gold.Chemscore.Rot.Weighted>
2.5600

> <Gold.Chemscore.Internal.Correction.Weighted>
   9.000000E+99

> <Gold.Protein.RotatedTorsions>
[ 6907 6896 6895 6894 ] final  -73.70 input  -60.11 | X-H torsion
[ 7974 7965 7964 7962 ] final  121.49 input  175.53 | X-H torsion
[ 8008 7997 7996 7995 ] final -141.40 input   59.86 | X-H torsion
[ 10167 10162 10161 10158 ] final  -93.28 input  -65.29 | X-H torsion
[ 10718 10713 10712 10709 ] final  156.98 input   66.30 | X-H torsion
[ 10763 10752 10751 10750 ] final  -87.13 input  -60.55 | X-H torsion
[ 11005 11000 10999 10996 ] final -148.58 input  -57.11 | X-H torsion

> <Gold.Protein.ActiveResidues>
 VAL166  LYS551  ARG553  GLY616  TRP617  ASP618  TYR619  PRO620  LYS621  CYS622 
 ASP623  PHE694  ASN695  SER759  ASP760  ASP761  ALA762  ILE779  LEU786  VAL792 
 PHE793  MET794  SER795  GLU796  ALA797  LYS798  CYS799  TRP800  GLU811  SER814 

> <Gold.Protein.RotatedAtoms>
  150.7120  134.4978  159.5546 H   0  0  0  0  0  0  0  0  0  0  0  0  # atno 6907 bound_to 6896
  152.2582  134.8059  160.0444 H   0  0  0  0  0  0  0  0  0  0  0  0  # atno 6908 bound_to 6896
  151.8783  133.3454  159.3794 H   0  0  0  0  0  0  0  0  0  0  0  0  # atno 6909 bound_to 6896
  145.1186  139.3404  143.4726 H   0  0  0  0  0  0  0  0  0  0  0  0  # atno 7974 bound_to 7965
  155.4772  140.0557  157.2972 H   0  0  0  0  0  0  0  0  0  0  0  0  # atno 8008 bound_to 7997
  154.4674  140.2025  156.0034 H   0  0  0  0  0  0  0  0  0  0  0  0  # atno 8009 bound_to 7997
  156.0998  140.3221  155.7932 H   0  0  0  0  0  0  0  0  0  0  0  0  # atno 8010 bound_to 7997
  140.3263  143.3020  151.9991 H   0  0  0  0  0  0  0  0  0  0  0  0  # atno 10167 bound_to 10162
  157.1976  131.0669  151.2043 H   0  0  0  0  0  0  0  0  0  0  0  0  # atno 10718 bound_to 10713
  154.6302  135.5424  153.7672 H   0  0  0  0  0  0  0  0  0  0  0  0  # atno 10763 bound_to 10752
  153.0281  135.6434  154.1312 H   0  0  0  0  0  0  0  0  0  0  0  0  # atno 10764 bound_to 10752
  154.1242  135.2918  155.3181 H   0  0  0  0  0  0  0  0  0  0  0  0  # atno 10765 bound_to 10752
  140.7598  134.3311  157.5104 H   0  0  0  0  0  0  0  0  0  0  0  0  # atno 11005 bound_to 11000
  146.3522  140.1136  142.8603 LP  0  0  0  0  0  0  0  0  0  0  0  0  # atno 17320 bound_to 7965
  145.0765  140.9192  143.4851 LP  0  0  0  0  0  0  0  0  0  0  0  0  # atno 17321 bound_to 7965
  139.4864  144.6271  151.7143 LP  0  0  0  0  0  0  0  0  0  0  0  0  # atno 17342 bound_to 10162
  140.5438  144.0536  150.6099 LP  0  0  0  0  0  0  0  0  0  0  0  0  # atno 17343 bound_to 10162
  157.3799  130.7225  149.6622 LP  0  0  0  0  0  0  0  0  0  0  0  0  # atno 17370 bound_to 10713
  155.9704  130.4175  150.4284 LP  0  0  0  0  0  0  0  0  0  0  0  0  # atno 17371 bound_to 10713
  139.8773  134.9195  156.3227 LP  0  0  0  0  0  0  0  0  0  0  0  0  # atno 17394 bound_to 11000
  140.9674  133.7349  156.0486 LP  0  0  0  0  0  0  0  0  0  0  0  0  # atno 17395 bound_to 11000

$$$$
