#       Name:                AV-unprocessed.smi:649
#       Creating user name   scv26
#       Creation time:       Fri Mar 27 00:10:28 2020


#       File generated by GOLD software.
#

@<TRIPOS>MOLECULE
AV-unprocessed.smi:649
    41    42     1
SMALL
NO_CHARGES


@<TRIPOS>ATOM
      1 ****        -4.1654  -2.4409  -0.4778 C.3            1 S1                 0.0000
      2 ****        -3.3885  -1.1406  -0.4960 C.ar           1 S1                 0.0000
      3 ****        -4.0631   0.0945  -0.4776 C.ar           1 S1                 0.0000
      4 ****        -3.3306   1.2952  -0.4861 C.ar           1 S1                 0.0000
      5 ****        -1.9198   1.2774  -0.5185 C.ar           1 S1                 0.0000
      6 ****        -1.1772   2.6027  -0.5079 C.3            1 S1                 0.0000
      7 ****        -1.2321   0.0353  -0.5519 C.ar           1 S1                 0.0000
      8 ****         0.2946  -0.0357  -0.5879 C.3            1 S1                 0.0000
      9 ****         0.7553  -1.1023  -1.3971 O.3            1 S1                 0.0000
     10 ****         0.8727  -0.2090   0.8341 C.3            1 S1                 0.0000
     11 ****         2.3094  -0.0748   0.8943 N.am           1 S1                 0.0000
     12 ****         3.1539  -1.1731   0.9475 C.2            1 S1                 0.0000
     13 ****         4.5047  -1.0711   0.9736 C.2            1 S1                 0.0000
     14 ****         5.4903  -2.4883   1.0374 Cl             1 S1                 0.0000
     15 ****         5.1398   0.2459   0.9429 C.2            1 S1                 0.0000
     16 ****         6.3516   0.4530   0.9607 O.2            1 S1                 0.0000
     17 ****         4.2506   1.3233   0.8861 N.am           1 S1                 0.0000
     18 ****         2.8591   1.2274   0.8580 C.2            1 S1                 0.0000
     19 ****         2.1753   2.2491   0.7996 O.2            1 S1                 0.0000
     20 ****        -1.9806  -1.1649  -0.5294 C.ar           1 S1                 0.0000
     21 ****         4.6502   2.2501   0.8591 H              1 S1                 0.0000
     22 ****        -5.2412  -2.2630  -0.4845 H              1 S1                 0.0000
     23 ****        -3.9201  -3.0134   0.4170 H              1 S1                 0.0000
     24 ****        -3.9148  -3.0439  -1.3510 H              1 S1                 0.0000
     25 ****        -5.1425   0.1272  -0.4517 H              1 S1                 0.0000
     26 ****        -3.8615   2.2356  -0.4640 H              1 S1                 0.0000
     27 ****        -0.4666   2.6362   0.3174 H              1 S1                 0.0000
     28 ****        -1.8628   3.4419  -0.3862 H              1 S1                 0.0000
     29 ****        -0.6365   2.7482  -1.4432 H              1 S1                 0.0000
     30 ****         0.6870   0.8718  -1.0436 H              1 S1                 0.0000
     31 ****         0.4721  -0.9461  -2.2851 H              1 S1                 0.0000
     32 ****         0.4612   0.5208   1.5350 H              1 S1                 0.0000
     33 ****         0.6297  -1.1890   1.2486 H              1 S1                 0.0000
     34 ****         2.7177  -2.1619   0.9644 H              1 S1                 0.0000
     35 ****        -1.4736  -2.1190  -0.5353 H              1 S1                 0.0000
     36 ****         0.3735  -1.9657  -1.0676 LP             1 S1                 0.0000
     37 ****         1.7539  -1.1450  -1.3635 LP             1 S1                 0.0000
     38 ****         6.9898  -0.3159   0.9991 LP             1 S1                 0.0000
     39 ****         6.6991   1.3904   0.9367 LP             1 S1                 0.0000
     40 ****         1.1779   2.1825   0.7754 LP             1 S1                 0.0000
     41 ****         2.6173   3.1459   0.7763 LP             1 S1                 0.0000
@<TRIPOS>BOND
    1    1    2 1     
    2    1   22 1     
    3    1   23 1     
    4    1   24 1     
    5    2   20 ar    
    6    2    3 ar    
    7    3    4 ar    
    8    3   25 1     
    9    4    5 ar    
   10    4   26 1     
   11    5    6 1     
   12    5    7 ar    
   13    6   27 1     
   14    6   28 1     
   15    6   29 1     
   16    7    8 1     
   17    7   20 ar    
   18    8    9 1     
   19    8   10 1     
   20    8   30 1     
   21    9   31 1     
   22   10   11 1     
   23   10   32 1     
   24   10   33 1     
   25   11   18 1     
   26   11   12 1     
   27   12   13 2     
   28   12   34 1     
   29   13   14 1     
   30   13   15 1     
   31   15   16 2     
   32   15   17 1     
   33   17   21 1     
   34   17   18 1     
   35   18   19 2     
   36   20   35 1     
   37    9   36 1     
   38    9   37 1     
   39   16   38 1     
   40   16   39 1     
   41   19   40 1     
   42   19   41 1     
@<TRIPOS>SUBSTRUCTURE
      1 S1             1
@<TRIPOS>SET
LONE_PAIRS      STATIC     ATOMS    <user>   **** ""
6 36 37 38 39 40 41
DONOR_HYDROGENS      STATIC     ATOMS    <user>   **** ""
2 31 21
ATOM$BLUE        STATIC     ATOMS    COLORGROUP SYSTEM
6 36 37 38 39 40 41
ATOM$RED        STATIC     ATOMS    COLORGROUP SYSTEM
2 31 21
