AV-unprocessed.smi:1956|AV-procd|sdf|7903|dock7
  -GOLD-   2272010 63D 1   1.00000     0.00000
 Structure written by MMmdl.
 46 47  0  0  0  0  0  0  0  0  2 V2000
  147.8366  129.9772  153.9187 C   0  0  0  0  0  0  0  0  0  0  0  0
  148.7987  130.4588  154.8506 O   0  0  0  0  0  0  0  0  0  0  0  0
  149.1088  131.8033  154.8367 C   0  0  0  0  0  0  0  0  0  0  0  0
  150.1140  132.2724  155.7053 C   0  0  0  0  0  0  0  0  0  0  0  0
  150.4350  133.6432  155.6992 C   0  0  0  0  0  0  0  0  0  0  0  0
  149.7314  134.5075  154.8264 C   0  0  0  0  0  0  0  0  0  0  0  0
  149.9740  135.9038  154.7152 N   0  0  0  0  0  0  0  0  0  0  0  0
  150.8899  136.6464  155.3603 C   0  0  0  0  0  0  0  0  0  0  0  0
  151.6746  136.2294  156.2121 O   0  0  0  0  0  0  0  0  0  0  0  0
  150.8358  137.9308  154.9790 N   0  0  0  0  0  0  0  0  0  0  0  0
  151.7007  138.9867  155.4939 C   0  0  0  0  0  0  0  0  0  0  0  0
  150.8868  140.2201  155.9324 C   0  0  0  0  0  0  0  0  0  0  0  0
  151.6285  141.0868  156.8832 N   0  3  2  0  0  0  0  0  0  0  0  0
  151.9077  140.3923  158.1672 C   0  0  0  0  0  0  0  0  0  0  0  0
  152.7968  141.2497  159.0810 C   0  0  0  0  0  0  0  0  0  0  0  0
  152.1614  142.6221  159.3334 C   0  0  0  0  0  0  0  0  0  0  0  0
  151.8527  143.3191  157.9978 C   0  0  2  0  0  0  0  0  0  0  0  0
  151.1915  144.6868  158.2199 C   0  0  0  0  0  0  0  0  0  0  0  0
  150.9831  142.4088  157.1065 C   0  0  0  0  0  0  0  0  0  0  0  0
  148.7537  133.9355  153.9861 C   0  0  0  0  0  0  0  0  0  0  0  0
  148.4404  132.6226  153.9875 N   0  0  0  0  0  0  0  0  0  0  0  0
  147.7020  128.9051  154.0616 H   0  0  0  0  0  0  0  0  0  0  0  0
  148.1630  130.1347  152.8897 H   0  0  0  0  0  0  0  0  0  0  0  0
  146.8664  130.4542  154.0643 H   0  0  0  0  0  0  0  0  0  0  0  0
  150.6343  131.5915  156.3630 H   0  0  0  0  0  0  0  0  0  0  0  0
  151.2190  133.9971  156.3504 H   0  0  0  0  0  0  0  0  0  0  0  0
  149.3418  136.4042  154.1077 H   0  0  0  0  0  0  0  0  0  0  0  0
  150.1587  138.1931  154.2772 H   0  0  0  0  0  0  0  0  0  0  0  0
  152.2981  138.6069  156.3245 H   0  0  0  0  0  0  0  0  0  0  0  0
  152.4007  139.2440  154.7001 H   0  0  0  0  0  0  0  0  0  0  0  0
  150.5722  140.8045  155.0663 H   0  0  0  0  0  0  0  0  0  0  0  0
  149.9728  139.8729  156.4165 H   0  0  0  0  0  0  0  0  0  0  0  0
  150.9667  140.1585  158.6678 H   0  0  0  0  0  0  0  0  0  0  0  0
  152.4092  139.4432  157.9738 H   0  0  0  0  0  0  0  0  0  0  0  0
  152.9608  140.7362  160.0290 H   0  0  0  0  0  0  0  0  0  0  0  0
  153.7790  141.3773  158.6238 H   0  0  0  0  0  0  0  0  0  0  0  0
  151.2447  142.5008  159.9122 H   0  0  0  0  0  0  0  0  0  0  0  0
  152.8322  143.2356  159.9358 H   0  0  0  0  0  0  0  0  0  0  0  0
  152.7979  143.4920  157.4806 H   0  0  0  0  0  0  0  0  0  0  0  0
  150.2370  144.5867  158.7375 H   0  0  0  0  0  0  0  0  0  0  0  0
  151.0050  145.1921  157.2718 H   0  0  0  0  0  0  0  0  0  0  0  0
  151.8284  145.3379  158.8196 H   0  0  0  0  0  0  0  0  0  0  0  0
  150.8164  142.9091  156.1536 H   0  0  0  0  0  0  0  0  0  0  0  0
  150.0013  142.2621  157.5605 H   0  0  0  0  0  0  0  0  0  0  0  0
  148.1987  134.5513  153.2932 H   0  0  0  0  0  0  0  0  0  0  0  0
  152.5286  141.2656  156.4611 H   0  0  0  0  0  0  0  0  0  0  0  0
  1  2  1  0  0  0  0
  1 22  1  0  0  0  0
  1 23  1  0  0  0  0
  1 24  1  0  0  0  0
  2  3  1  0  0  0  0
  3 21  1  0  0  0  0
  3  4  2  0  0  0  0
  4  5  1  0  0  0  0
  4 25  1  0  0  0  0
  5  6  2  0  0  0  0
  5 26  1  0  0  0  0
  6  7  1  0  0  0  0
  6 20  1  0  0  0  0
  7  8  1  0  0  0  0
  7 27  1  0  0  0  0
  8  9  2  0  0  0  0
  8 10  1  0  0  0  0
 10 11  1  0  0  0  0
 10 28  1  0  0  0  0
 11 12  1  0  0  0  0
 11 29  1  0  0  0  0
 11 30  1  0  0  0  0
 12 13  1  0  0  0  0
 12 31  1  0  0  0  0
 12 32  1  0  0  0  0
 13 19  1  0  0  0  0
 13 14  1  0  0  0  0
 13 46  1  0  0  0  0
 14 15  1  0  0  0  0
 14 33  1  0  0  0  0
 14 34  1  0  0  0  0
 15 16  1  0  0  0  0
 15 35  1  0  0  0  0
 15 36  1  0  0  0  0
 16 17  1  0  0  0  0
 16 37  1  0  0  0  0
 16 38  1  0  0  0  0
 17 18  1  0  0  0  0
 17 19  1  0  0  0  0
 17 39  1  0  0  0  0
 18 40  1  0  0  0  0
 18 41  1  0  0  0  0
 18 42  1  0  0  0  0
 19 43  1  0  0  0  0
 19 44  1  0  0  0  0
 20 21  2  0  0  0  0
 20 45  1  0  0  0  0
M  CHG  1  13   1
M  END
> <s_m_source_file>
AV-unprocessed.smi

> <i_m_source_file_index>
1956

> <i_lp_mmshare_version>
43012

> <i_f3d_flags>
0

> <s_epik_input>
W0NIM11PYzFbY0hdW2NIXWMoW2NIXW4xKVtOSF1DKD1PKVtOSF1bQ0gyXVtDSDJdTjJbQ0gyXVtDSDJdW0NIMl1bQ0BASF0oW0NIM10pW0NIMl0y

> <s_epik_cmdline>
J2VwaWtfcHl0aG9uJywgJy1waCcsICc3LjAnLCAnLXRuJywgJzgnLCAnLW1hJywgJzIwMCcsICctbWV0YWxfYmluZGluZycsICctaW1hZScsICc8aW5maWxlLm1hZT4nLCAnLW9tYWUnLCAnPG91dGZpbGUubWFlPic=

> <r_lp_tautomer_probability>
1

> <r_epik_Ionization_Penalty>
0.00179545

> <r_epik_Ionization_Penalty_Charging>
0.00171832

> <r_epik_Ionization_Penalty_Neutral>
7.7124e-05

> <r_epik_State_Penalty>
0.0011618

> <r_epik_Charging_Adjusted_Penalty>
0.00288012

> <i_epik_Tot_Q>
1

> <i_epik_Tot_abs_Q>
1

> <r_epik_Metal_State_Penalty>
-0

> <b_epik_Metal_Only>
0

> <s_lp_Force_Field>
OPLS_2005

> <r_lp_Energy>
19.732

> <b_lp_Chiralities_Consistent>
1

> <s_lp_Variant>
AV-unprocessed.smi:1956-4

> <Gold.Version>
5.8.1

> <Gold.Id.Protein>
6NUR|6NUR_protein|mol2

> <Gold.PLP.Fitness>
43.8656

> <Gold.PLP.PLP>
-37.0006

> <Gold.PLP.part.hbond>
-2.1697

> <Gold.PLP.part.metal>
0.0000

> <Gold.PLP.part.buried>
-3.1989

> <Gold.PLP.part.nonpolar>
-31.8289

> <Gold.PLP.part.repulsive>
0.4279

> <Gold.PLP.ligand.clash>
0.0000

> <Gold.PLP.ligand.torsion>
0.2038

> <Gold.PLP.Chemscore.Hbond>
1.4150

> <Gold.PLP.Chemscore.CHOScore>
1.0000

> <Gold.PLP.Chemscore.Metal>
0.0000

> <Gold.Chemscore.Hbonds>
donor molecule, donor type, donor heavy atom, donor atom, acceptor molecule, acceptor atom, score
      L1  H     7    27       P1  7948  0.26
      P1  H 10752 10764       L1     9  1.00
      L1  C    20    45       P1  7948  0.98

> <Gold.PLP.Chemscore.Internal.Correction>
0.0277

> <Gold.Rescore>
     Score         DG    S(hbond)    S(metal)    S(lipo)     H(rot)  DE(clash)    DE(int)     intcor
     15.37     -17.05       1.43        0.00      95.44       1.71       0.23       1.45       ----

> <Gold.Chemscore.Fitness>
15.3668

> <Gold.Chemscore.DG>
-17.0501

> <Gold.Chemscore.ZeroCoef>
-5.4800

> <Gold.Chemscore.Hbond>
1.4319

> <Gold.Chemscore.Metal>
0.0000

> <Gold.Chemscore.Lipo>
95.4437

> <Gold.Chemscore.Internal_Hbond>
0.0000

> <Gold.Chemscore.DEClash>
0.2311

> <Gold.Chemscore.DEInternal>
1.4523

> <Gold.Chemscore.Rot>
1.7107

> <Gold.Chemscore.Internal.Correction>
   9.000000E+99

> <Gold.Chemscore.Hbonds>
donor molecule, donor type, donor heavy atom, donor atom, acceptor molecule, acceptor atom, score
      L1  H     7    27       P1  7948  0.23
      P1  H 10752 10764       L1     9  0.37

> <Gold.Chemscore.Hbond.Weighted>
-4.7826

> <Gold.Chemscore.Metal.Weighted>
-0.0000

> <Gold.Chemscore.Lipo.Weighted>
-11.1669

> <Gold.Chemscore.Internal_Hbond.Weighted>
0.0000

> <Gold.Chemscore.DEClash.Weighted>
0.2311

> <Gold.Chemscore.DEInternal.Weighted>
1.4523

> <Gold.Chemscore.Rot.Weighted>
4.3794

> <Gold.Chemscore.Internal.Correction.Weighted>
   9.000000E+99

> <Gold.Protein.RotatedTorsions>
[ 6907 6896 6895 6894 ] final   55.22 input  -60.11 | X-H torsion
[ 7974 7965 7964 7962 ] final -143.70 input  175.53 | X-H torsion
[ 8008 7997 7996 7995 ] final   51.65 input   59.86 | X-H torsion
[ 10167 10162 10161 10158 ] final  -33.58 input  -65.29 | X-H torsion
[ 10718 10713 10712 10709 ] final -123.36 input   66.30 | X-H torsion
[ 10763 10752 10751 10750 ] final  -24.93 input  -60.55 | X-H torsion
[ 11005 11000 10999 10996 ] final  135.10 input  -57.11 | X-H torsion

> <Gold.Protein.ActiveResidues>
 VAL166  LYS551  ARG553  GLY616  TRP617  ASP618  TYR619  PRO620  LYS621  CYS622 
 ASP623  PHE694  ASN695  SER759  ASP760  ASP761  ALA762  ILE779  LEU786  VAL792 
 PHE793  MET794  SER795  GLU796  ALA797  LYS798  CYS799  TRP800  GLU811  SER814 

> <Gold.Protein.RotatedAtoms>
  152.3517  134.6996  160.0234 H   0  0  0  0  0  0  0  0  0  0  0  0  # atno 6907 bound_to 6896
  151.7348  133.3314  159.3358 H   0  0  0  0  0  0  0  0  0  0  0  0  # atno 6908 bound_to 6896
  150.7544  134.6264  159.6208 H   0  0  0  0  0  0  0  0  0  0  0  0  # atno 6909 bound_to 6896
  144.8350  140.5801  143.5490 H   0  0  0  0  0  0  0  0  0  0  0  0  # atno 7974 bound_to 7965
  155.4388  140.3453  155.4287 H   0  0  0  0  0  0  0  0  0  0  0  0  # atno 8008 bound_to 7997
  156.1292  140.1509  156.9121 H   0  0  0  0  0  0  0  0  0  0  0  0  # atno 8009 bound_to 7997
  154.4881  140.0849  156.7513 H   0  0  0  0  0  0  0  0  0  0  0  0  # atno 8010 bound_to 7997
  140.7202  143.3610  151.1963 H   0  0  0  0  0  0  0  0  0  0  0  0  # atno 10167 bound_to 10162
  156.1495  130.6524  150.9893 H   0  0  0  0  0  0  0  0  0  0  0  0  # atno 10718 bound_to 10713
  153.6917  135.6961  153.5088 H   0  0  0  0  0  0  0  0  0  0  0  0  # atno 10763 bound_to 10752
  153.2408  135.4306  155.0695 H   0  0  0  0  0  0  0  0  0  0  0  0  # atno 10764 bound_to 10752
  154.8370  135.3507  154.6459 H   0  0  0  0  0  0  0  0  0  0  0  0  # atno 10765 bound_to 10752
  139.9958  134.9498  156.9960 H   0  0  0  0  0  0  0  0  0  0  0  0  # atno 11005 bound_to 11000
  145.4814  139.1495  143.3760 LP  0  0  0  0  0  0  0  0  0  0  0  0  # atno 17320 bound_to 7965
  146.2650  140.4950  142.8838 LP  0  0  0  0  0  0  0  0  0  0  0  0  # atno 17321 bound_to 7965
  139.7162  143.9297  152.2967 LP  0  0  0  0  0  0  0  0  0  0  0  0  # atno 17342 bound_to 10162
  139.9038  144.6896  150.8636 LP  0  0  0  0  0  0  0  0  0  0  0  0  # atno 17343 bound_to 10162
  157.6645  131.0874  150.7760 LP  0  0  0  0  0  0  0  0  0  0  0  0  # atno 17370 bound_to 10713
  156.7830  130.4865  149.5398 LP  0  0  0  0  0  0  0  0  0  0  0  0  # atno 17371 bound_to 10713
  140.4822  134.1278  155.7218 LP  0  0  0  0  0  0  0  0  0  0  0  0  # atno 17394 bound_to 11000
  141.1603  133.8806  157.1867 LP  0  0  0  0  0  0  0  0  0  0  0  0  # atno 17395 bound_to 11000

$$$$
