AV-unprocessed.smi:3217|AV-procd|sdf|12289|dock3
  -GOLD-   2272018133D 1   1.00000     0.00000
 Structure written by MMmdl.
 34 35  0  0  0  0  0  0  0  0  1 V2000
  147.9465  133.1224  155.6943 C   0  0  0  0  0  0  0  0  0  0  0  0
  148.8315  133.1226  154.4382 C   0  0  2  0  0  0  0  0  0  0  0  0
  149.1701  134.5041  154.1028 N   0  0  0  0  0  0  0  0  0  0  0  0
  149.9013  135.3403  154.8537 C   0  0  0  0  0  0  0  0  0  0  0  0
  150.3724  135.0396  155.9500 O   0  0  0  0  0  0  0  0  0  0  0  0
  150.0257  136.5376  154.2557 N   0  0  0  0  0  0  0  0  0  0  0  0
  150.7155  137.6929  154.7140 C   0  0  0  0  0  0  0  0  0  0  0  0
  151.7365  137.5142  155.6700 C   0  0  0  0  0  0  0  0  0  0  0  0
  152.4281  138.6402  156.1556 C   0  0  0  0  0  0  0  0  0  0  0  0
  152.0632  139.9104  155.6695 C   0  0  0  0  0  0  0  0  0  0  0  0
  151.0789  140.1018  154.7663 N   0  0  0  0  0  0  0  0  0  0  0  0
  150.4208  139.0170  154.3033 C   0  0  0  0  0  0  0  0  0  0  0  0
  148.1397  132.4599  153.2312 C   0  0  2  0  0  0  0  0  0  0  0  0
  147.0006  133.2767  152.6167 C   0  0  0  0  0  0  0  0  0  0  0  0
  146.0853  132.2273  152.0027 C   0  0  0  0  0  0  0  0  0  0  0  0
  146.6053  130.9022  152.5640 C   0  0  0  0  0  0  0  0  0  0  0  0
  147.4693  131.2728  153.6273 O   0  0  0  0  0  0  0  0  0  0  0  0
  147.6997  132.1077  156.0071 H   0  0  0  0  0  0  0  0  0  0  0  0
  147.0106  133.6548  155.5211 H   0  0  0  0  0  0  0  0  0  0  0  0
  148.4541  133.6045  156.5305 H   0  0  0  0  0  0  0  0  0  0  0  0
  149.7355  132.5558  154.6674 H   0  0  0  0  0  0  0  0  0  0  0  0
  148.8259  134.8471  153.2182 H   0  0  0  0  0  0  0  0  0  0  0  0
  149.5198  136.6525  153.3899 H   0  0  0  0  0  0  0  0  0  0  0  0
  151.9917  136.5268  156.0266 H   0  0  0  0  0  0  0  0  0  0  0  0
  153.2184  138.5331  156.8837 H   0  0  0  0  0  0  0  0  0  0  0  0
  152.5717  140.7964  156.0201 H   0  0  0  0  0  0  0  0  0  0  0  0
  149.6301  139.2383  153.6039 H   0  0  0  0  0  0  0  0  0  0  0  0
  148.8721  132.2091  152.4609 H   0  0  0  0  0  0  0  0  0  0  0  0
  146.4597  133.8173  153.3946 H   0  0  0  0  0  0  0  0  0  0  0  0
  147.3554  134.0053  151.8872 H   0  0  0  0  0  0  0  0  0  0  0  0
  145.0495  132.4044  152.2945 H   0  0  0  0  0  0  0  0  0  0  0  0
  146.1333  132.2332  150.9133 H   0  0  0  0  0  0  0  0  0  0  0  0
  145.8047  130.2496  152.9125 H   0  0  0  0  0  0  0  0  0  0  0  0
  147.1794  130.3642  151.8082 H   0  0  0  0  0  0  0  0  0  0  0  0
  1  2  1  0  0  0  0
  1 18  1  0  0  0  0
  1 19  1  0  0  0  0
  1 20  1  0  0  0  0
  2  3  1  0  0  0  0
  2 13  1  0  0  0  0
  2 21  1  0  0  0  0
  3  4  1  0  0  0  0
  3 22  1  0  0  0  0
  4  5  2  0  0  0  0
  4  6  1  0  0  0  0
  6  7  1  0  0  0  0
  6 23  1  0  0  0  0
  7 12  1  0  0  0  0
  7  8  2  0  0  0  0
  8  9  1  0  0  0  0
  8 24  1  0  0  0  0
  9 10  2  0  0  0  0
  9 25  1  0  0  0  0
 10 11  1  0  0  0  0
 10 26  1  0  0  0  0
 11 12  2  0  0  0  0
 12 27  1  0  0  0  0
 13 17  1  0  0  0  0
 13 14  1  0  0  0  0
 13 28  1  0  0  0  0
 14 15  1  0  0  0  0
 14 29  1  0  0  0  0
 14 30  1  0  0  0  0
 15 16  1  0  0  0  0
 15 31  1  0  0  0  0
 15 32  1  0  0  0  0
 16 17  1  0  0  0  0
 16 33  1  0  0  0  0
 16 34  1  0  0  0  0
M  END
> <s_m_source_file>
AV-unprocessed.smi

> <i_m_source_file_index>
3217

> <i_lp_mmshare_version>
43012

> <i_f3d_flags>
0

> <s_epik_input>
TzFbQ0gyXVtDSDJdW0NIMl1bQ0BIXTFbQ0BIXShbQ0gzXSlbTkhdQyg9TylbTkhdYzJbY0hdW2NIXVtjSF1uW2NIXTI=

> <s_epik_cmdline>
J2VwaWtfcHl0aG9uJywgJy1waCcsICc3LjAnLCAnLXRuJywgJzgnLCAnLW1hJywgJzIwMCcsICctbWV0YWxfYmluZGluZycsICctaW1hZScsICc8aW5maWxlLm1hZT4nLCAnLW9tYWUnLCAnPG91dGZpbGUubWFlPic=

> <r_epik_Ionization_Penalty>
0.00475451

> <r_epik_Ionization_Penalty_Charging>
0

> <r_epik_Ionization_Penalty_Neutral>
0.00475451

> <r_epik_State_Penalty>
0.00341814

> <r_epik_Charging_Adjusted_Penalty>
0.00341814

> <i_epik_Tot_Q>
0

> <i_epik_Tot_abs_Q>
0

> <r_epik_Metal_State_Penalty>
-0

> <b_epik_Metal_Only>
0

> <s_lp_Force_Field>
OPLS_2005

> <r_lp_Energy>
20.3997

> <b_lp_Chiralities_Consistent>
1

> <s_lp_Variant>
AV-unprocessed.smi:3217-1

> <Gold.Version>
5.8.1

> <Gold.Id.Protein>
6NUR|6NUR_protein|mol2

> <Gold.PLP.Fitness>
39.2912

> <Gold.PLP.PLP>
-28.1176

> <Gold.PLP.part.hbond>
-3.9481

> <Gold.PLP.part.metal>
0.0000

> <Gold.PLP.part.buried>
-1.5379

> <Gold.PLP.part.nonpolar>
-22.4592

> <Gold.PLP.part.repulsive>
0.2703

> <Gold.PLP.ligand.clash>
0.0000

> <Gold.PLP.ligand.torsion>
0.3505

> <Gold.PLP.Chemscore.Hbond>
2.9513

> <Gold.PLP.Chemscore.CHOScore>
1.0000

> <Gold.PLP.Chemscore.Metal>
0.0000

> <Gold.Chemscore.Hbonds>
donor molecule, donor type, donor heavy atom, donor atom, acceptor molecule, acceptor atom, score
      L1  H     3    22       P1  7948  0.93
      L1  H     6    23       P1  7948  1.00
      P1  H  7989  7998       L1    11  1.00
      L1  C    12    27       P1  7957  0.91

> <Gold.PLP.Chemscore.Internal.Correction>
0.0208

> <Gold.Rescore>
     Score         DG    S(hbond)    S(metal)    S(lipo)     H(rot)  DE(clash)    DE(int)     intcor
     14.34     -16.54       1.99        0.00      64.53       1.22       0.61       1.58       ----

> <Gold.Chemscore.Fitness>
14.3440

> <Gold.Chemscore.DG>
-16.5356

> <Gold.Chemscore.ZeroCoef>
-5.4800

> <Gold.Chemscore.Hbond>
1.9874

> <Gold.Chemscore.Metal>
0.0000

> <Gold.Chemscore.Lipo>
64.5311

> <Gold.Chemscore.Internal_Hbond>
0.0000

> <Gold.Chemscore.DEClash>
0.6083

> <Gold.Chemscore.DEInternal>
1.5833

> <Gold.Chemscore.Rot>
1.2236

> <Gold.Chemscore.Internal.Correction>
   9.000000E+99

> <Gold.Chemscore.Hbonds>
donor molecule, donor type, donor heavy atom, donor atom, acceptor molecule, acceptor atom, score
      L1  H     3    22       P1  7948  0.27
      L1  H     6    23       P1  7948  0.69
      P1  H  7989  7998       L1    11  0.44

> <Gold.Chemscore.Hbond.Weighted>
-6.6380

> <Gold.Chemscore.Metal.Weighted>
-0.0000

> <Gold.Chemscore.Lipo.Weighted>
-7.5501

> <Gold.Chemscore.Internal_Hbond.Weighted>
0.0000

> <Gold.Chemscore.DEClash.Weighted>
0.6083

> <Gold.Chemscore.DEInternal.Weighted>
1.5833

> <Gold.Chemscore.Rot.Weighted>
3.1325

> <Gold.Chemscore.Internal.Correction.Weighted>
   9.000000E+99

> <Gold.Protein.RotatedTorsions>
[ 6907 6896 6895 6894 ] final  -12.21 input  -60.11 | X-H torsion
[ 7974 7965 7964 7962 ] final -102.28 input  175.53 | X-H torsion
[ 8008 7997 7996 7995 ] final   59.99 input   59.86 | X-H torsion
[ 10167 10162 10161 10158 ] final  176.23 input  -65.29 | X-H torsion
[ 10718 10713 10712 10709 ] final  -62.05 input   66.30 | X-H torsion
[ 10763 10752 10751 10750 ] final  -17.26 input  -60.55 | X-H torsion
[ 11005 11000 10999 10996 ] final  174.91 input  -57.11 | X-H torsion

> <Gold.Protein.ActiveResidues>
 VAL166  LYS551  ARG553  GLY616  TRP617  ASP618  TYR619  PRO620  LYS621  CYS622 
 ASP623  PHE694  ASN695  SER759  ASP760  ASP761  ALA762  ILE779  LEU786  VAL792 
 PHE793  MET794  SER795  GLU796  ALA797  LYS798  CYS799  TRP800  GLU811  SER814 

> <Gold.Protein.RotatedAtoms>
  151.3741  135.0928  159.9474 H   0  0  0  0  0  0  0  0  0  0  0  0  # atno 6907 bound_to 6896
  152.5127  133.9136  159.7510 H   0  0  0  0  0  0  0  0  0  0  0  0  # atno 6908 bound_to 6896
  150.9556  133.6447  159.2793 H   0  0  0  0  0  0  0  0  0  0  0  0  # atno 6909 bound_to 6896
  145.2708  140.9298  143.2987 H   0  0  0  0  0  0  0  0  0  0  0  0  # atno 7974 bound_to 7965
  155.5751  140.3490  155.4525 H   0  0  0  0  0  0  0  0  0  0  0  0  # atno 8008 bound_to 7997
  156.0415  140.1297  157.0176 H   0  0  0  0  0  0  0  0  0  0  0  0  # atno 8009 bound_to 7997
  154.4394  140.1023  156.6229 H   0  0  0  0  0  0  0  0  0  0  0  0  # atno 8010 bound_to 7997
  139.5206  144.2940  152.0438 H   0  0  0  0  0  0  0  0  0  0  0  0  # atno 10167 bound_to 10162
  156.0881  130.4205  150.1080 H   0  0  0  0  0  0  0  0  0  0  0  0  # atno 10718 bound_to 10713
  153.5712  135.7007  153.5504 H   0  0  0  0  0  0  0  0  0  0  0  0  # atno 10763 bound_to 10752
  153.3343  135.4038  155.1520 H   0  0  0  0  0  0  0  0  0  0  0  0  # atno 10764 bound_to 10752
  154.8633  135.3726  154.5234 H   0  0  0  0  0  0  0  0  0  0  0  0  # atno 10765 bound_to 10752
  140.3564  134.7150  157.4302 H   0  0  0  0  0  0  0  0  0  0  0  0  # atno 11005 bound_to 11000
  144.9337  139.4269  143.6483 LP  0  0  0  0  0  0  0  0  0  0  0  0  # atno 17320 bound_to 7965
  146.3247  139.8261  142.8917 LP  0  0  0  0  0  0  0  0  0  0  0  0  # atno 17321 bound_to 7965
  140.2390  144.4289  150.6268 LP  0  0  0  0  0  0  0  0  0  0  0  0  # atno 17342 bound_to 10162
  140.6304  143.2187  151.6508 LP  0  0  0  0  0  0  0  0  0  0  0  0  # atno 17343 bound_to 10162
  156.9097  130.9647  151.3565 LP  0  0  0  0  0  0  0  0  0  0  0  0  # atno 17370 bound_to 10713
  157.6021  130.8520  149.8819 LP  0  0  0  0  0  0  0  0  0  0  0  0  # atno 17371 bound_to 10713
  140.0661  134.5927  155.8693 LP  0  0  0  0  0  0  0  0  0  0  0  0  # atno 17394 bound_to 11000
  141.1997  133.6608  156.5858 LP  0  0  0  0  0  0  0  0  0  0  0  0  # atno 17395 bound_to 11000

$$$$
