AV-unprocessed.smi:100|AV-procd|sdf|899|dock8
  -GOLD-   2262017393D 1   1.00000     0.00000
 Structure written by MMmdl.
 31 33  0  0  0  0  0  0  0  0  1 V2000
  144.8026  138.6348  153.6934 N   0  0  0  0  0  0  0  0  0  0  0  0
  146.0817  138.6856  154.0901 C   0  0  0  0  0  0  0  0  0  0  0  0
  146.7105  137.5234  154.3850 N   0  0  0  0  0  0  0  0  0  0  0  0
  147.9872  137.5468  154.7827 C   0  0  0  0  0  0  0  0  0  0  0  0
  148.7930  138.6002  154.9464 N   0  0  0  0  0  0  0  0  0  0  0  0
  148.1537  139.7701  154.6516 C   0  0  0  0  0  0  0  0  0  0  0  0
  146.8061  139.8977  154.2161 C   0  0  0  0  0  0  0  0  0  0  0  0
  146.5022  141.2367  154.0065 N   0  0  0  0  0  0  0  0  0  0  0  0
  147.6111  141.8610  154.3037 C   0  0  0  0  0  0  0  0  0  0  0  0
  148.6532  141.0529  154.7057 N   0  0  0  0  0  0  0  0  0  0  0  0
  150.0370  141.4455  155.1041 C   0  0  2  0  0  0  0  0  0  0  0  0
  150.8740  140.3636  154.8229 O   0  0  0  0  0  0  0  0  0  0  0  0
  151.7680  140.1712  155.9090 C   0  0  2  0  0  0  0  0  0  0  0  0
  152.3479  138.7482  155.8990 C   0  0  0  0  0  0  0  0  0  0  0  0
  153.3858  138.6350  156.8493 O   0  0  0  0  0  0  0  0  0  0  0  0
  150.9208  140.5347  157.1299 C   0  0  2  0  0  0  0  0  0  0  0  0
  150.1074  139.5295  157.4608 F   0  0  0  0  0  0  0  0  0  0  0  0
  150.0899  141.7025  156.6215 C   0  0  1  0  0  0  0  0  0  0  0  0
  150.7179  142.9307  156.9304 O   0  0  0  0  0  0  0  0  0  0  0  0
  144.3119  139.4882  153.4684 H   0  0  0  0  0  0  0  0  0  0  0  0
  144.3315  137.7446  153.6235 H   0  0  0  0  0  0  0  0  0  0  0  0
  148.4251  136.5843  155.0026 H   0  0  0  0  0  0  0  0  0  0  0  0
  147.6991  142.9359  154.2378 H   0  0  0  0  0  0  0  0  0  0  0  0
  150.2901  142.3100  154.4883 H   0  0  0  0  0  0  0  0  0  0  0  0
  152.5758  140.8977  155.8004 H   0  0  0  0  0  0  0  0  0  0  0  0
  151.5778  138.0046  156.1048 H   0  0  0  0  0  0  0  0  0  0  0  0
  152.7577  138.5196  154.9147 H   0  0  0  0  0  0  0  0  0  0  0  0
  153.0531  138.1719  157.6029 H   0  0  0  0  0  0  0  0  0  0  0  0
  151.5163  140.7684  158.0132 H   0  0  0  0  0  0  0  0  0  0  0  0
  149.0895  141.7115  157.0574 H   0  0  0  0  0  0  0  0  0  0  0  0
  150.0860  143.6252  156.8208 H   0  0  0  0  0  0  0  0  0  0  0  0
  1  2  1  0  0  0  0
  1 20  1  0  0  0  0
  1 21  1  0  0  0  0
  2  7  1  0  0  0  0
  2  3  2  0  0  0  0
  3  4  1  0  0  0  0
  4  5  2  0  0  0  0
  4 22  1  0  0  0  0
  5  6  1  0  0  0  0
  6 10  1  0  0  0  0
  6  7  2  0  0  0  0
  7  8  1  0  0  0  0
  8  9  2  0  0  0  0
  9 10  1  0  0  0  0
  9 23  1  0  0  0  0
 10 11  1  0  0  0  0
 11 18  1  0  0  0  0
 11 12  1  0  0  0  0
 11 24  1  0  0  0  0
 12 13  1  0  0  0  0
 13 14  1  0  0  0  0
 13 16  1  0  0  0  0
 13 25  1  0  0  0  0
 14 15  1  0  0  0  0
 14 26  1  0  0  0  0
 14 27  1  0  0  0  0
 15 28  1  0  0  0  0
 16 17  1  0  0  0  0
 16 18  1  0  0  0  0
 16 29  1  0  0  0  0
 18 19  1  0  0  0  0
 18 30  1  0  0  0  0
 19 31  1  0  0  0  0
M  END
> <s_m_source_file>
AV-unprocessed.smi

> <i_m_source_file_index>
100

> <i_lp_mmshare_version>
43012

> <i_f3d_flags>
0

> <s_epik_input>
bjFbY0hdbmMoW05IMl0pYyhjMTIpbltjSF1uMltDQEBIXTNPW0NAQEhdKFtDSDJdW09IXSlbQ0BIXShGKVtDQEhdM1tPSF0=

> <s_epik_cmdline>
J2VwaWtfcHl0aG9uJywgJy1waCcsICc3LjAnLCAnLXRuJywgJzgnLCAnLW1hJywgJzIwMCcsICctbWV0YWxfYmluZGluZycsICctaW1hZScsICc8aW5maWxlLm1hZT4nLCAnLW9tYWUnLCAnPG91dGZpbGUubWFlPic=

> <r_lp_tautomer_probability>
1

> <r_epik_Ionization_Penalty>
0.000750324

> <r_epik_Ionization_Penalty_Charging>
0

> <r_epik_Ionization_Penalty_Neutral>
0.000750324

> <r_epik_State_Penalty>
-0

> <r_epik_Charging_Adjusted_Penalty>
0

> <i_epik_Tot_Q>
0

> <i_epik_Tot_abs_Q>
0

> <r_epik_Metal_State_Penalty>
-0

> <b_epik_Metal_Only>
0

> <s_epik_Chemistry_Notes>
This compound contains an acetal/aminal-like group ( X-CH(R)-Y where X, Y are N, S, or O) that may be acid/base labile, releasing an aldehyde.

> <s_lp_Force_Field>
OPLS_2005

> <r_lp_Energy>
28.7864

> <b_lp_Chiralities_Consistent>
1

> <s_lp_Variant>
AV-unprocessed.smi:100-3

> <Gold.Version>
5.8.1

> <Gold.Id.Protein>
6NUR|6NUR_protein|mol2

> <Gold.PLP.Fitness>
38.9063

> <Gold.PLP.PLP>
-25.5141

> <Gold.PLP.part.hbond>
-3.7983

> <Gold.PLP.part.metal>
0.0000

> <Gold.PLP.part.buried>
-4.0451

> <Gold.PLP.part.nonpolar>
-18.3570

> <Gold.PLP.part.repulsive>
0.4403

> <Gold.PLP.ligand.clash>
0.0000

> <Gold.PLP.ligand.torsion>
0.7977

> <Gold.PLP.Chemscore.Hbond>
3.9920

> <Gold.PLP.Chemscore.CHOScore>
1.0000

> <Gold.PLP.Chemscore.Metal>
0.0000

> <Gold.Chemscore.Hbonds>
donor molecule, donor type, donor heavy atom, donor atom, acceptor molecule, acceptor atom, score
      L1  H     1    20       P1 10175  0.99
      L1  H    19    31       P1  8028  1.00
      P1  H  7989  7998       L1    12  1.00
      P1  H  7997  8008       L1    15  0.99
      L1  C     9    23       P1  8028  1.00

> <Gold.PLP.Chemscore.Internal.Correction>
0.0117

> <Gold.Rescore>
     Score         DG    S(hbond)    S(metal)    S(lipo)     H(rot)  DE(clash)    DE(int)     intcor
      9.43     -12.03       3.44        0.00      27.55       3.19       0.33       2.27       ----

> <Gold.Chemscore.Fitness>
9.4318

> <Gold.Chemscore.DG>
-12.0340

> <Gold.Chemscore.ZeroCoef>
-5.4800

> <Gold.Chemscore.Hbond>
3.4423

> <Gold.Chemscore.Metal>
0.0000

> <Gold.Chemscore.Lipo>
27.5507

> <Gold.Chemscore.Internal_Hbond>
0.0000

> <Gold.Chemscore.DEClash>
0.3348

> <Gold.Chemscore.DEInternal>
2.2674

> <Gold.Chemscore.Rot>
3.1901

> <Gold.Chemscore.Internal.Correction>
   9.000000E+99

> <Gold.Chemscore.Hbonds>
donor molecule, donor type, donor heavy atom, donor atom, acceptor molecule, acceptor atom, score
      L1  H     1    20       P1 10175  0.90
      L1  H    19    31       P1  8028  0.93
      P1  H  7989  7998       L1    12  0.24
      P1  H  7997  8008       L1    15  0.73

> <Gold.Chemscore.Hbond.Weighted>
-11.4973

> <Gold.Chemscore.Metal.Weighted>
-0.0000

> <Gold.Chemscore.Lipo.Weighted>
-3.2234

> <Gold.Chemscore.Internal_Hbond.Weighted>
0.0000

> <Gold.Chemscore.DEClash.Weighted>
0.3348

> <Gold.Chemscore.DEInternal.Weighted>
2.2674

> <Gold.Chemscore.Rot.Weighted>
8.1667

> <Gold.Chemscore.Internal.Correction.Weighted>
   9.000000E+99

> <Gold.Protein.RotatedTorsions>
[ 6907 6896 6895 6894 ] final  -91.12 input  -60.11 | X-H torsion
[ 7974 7965 7964 7962 ] final    9.95 input  175.53 | X-H torsion
[ 8008 7997 7996 7995 ] final  -71.05 input   59.86 | X-H torsion
[ 10167 10162 10161 10158 ] final  -37.34 input  -65.29 | X-H torsion
[ 10718 10713 10712 10709 ] final  -90.03 input   66.30 | X-H torsion
[ 10763 10752 10751 10750 ] final   -0.32 input  -60.55 | X-H torsion
[ 11005 11000 10999 10996 ] final   12.96 input  -57.11 | X-H torsion

> <Gold.Protein.ActiveResidues>
 VAL166  LYS551  ARG553  GLY616  TRP617  ASP618  TYR619  PRO620  LYS621  CYS622 
 ASP623  PHE694  ASN695  SER759  ASP760  ASP761  ALA762  ILE779  LEU786  VAL792 
 PHE793  MET794  SER795  GLU796  ALA797  LYS798  CYS799  TRP800  GLU811  SER814 

> <Gold.Protein.RotatedAtoms>
  150.6889  134.2326  159.4440 H   0  0  0  0  0  0  0  0  0  0  0  0  # atno 6907 bound_to 6896
  152.0275  134.9784  160.0581 H   0  0  0  0  0  0  0  0  0  0  0  0  # atno 6908 bound_to 6896
  152.1337  133.4388  159.4770 H   0  0  0  0  0  0  0  0  0  0  0  0  # atno 6909 bound_to 6896
  146.2396  139.9707  142.8447 H   0  0  0  0  0  0  0  0  0  0  0  0  # atno 7974 bound_to 7965
  154.5058  140.0823  156.7891 H   0  0  0  0  0  0  0  0  0  0  0  0  # atno 8008 bound_to 7997
  155.3897  140.3432  155.4232 H   0  0  0  0  0  0  0  0  0  0  0  0  # atno 8009 bound_to 7997
  156.1513  140.1559  156.8752 H   0  0  0  0  0  0  0  0  0  0  0  0  # atno 8010 bound_to 7997
  140.7120  143.3348  151.2487 H   0  0  0  0  0  0  0  0  0  0  0  0  # atno 10167 bound_to 10162
  155.9986  130.4894  150.5261 H   0  0  0  0  0  0  0  0  0  0  0  0  # atno 10718 bound_to 10713
  153.3304  135.6975  153.6953 H   0  0  0  0  0  0  0  0  0  0  0  0  # atno 10763 bound_to 10752
  153.5757  135.3507  155.2856 H   0  0  0  0  0  0  0  0  0  0  0  0  # atno 10764 bound_to 10752
  154.8617  135.4283  154.2491 H   0  0  0  0  0  0  0  0  0  0  0  0  # atno 10765 bound_to 10752
  140.4861  134.0887  155.7761 H   0  0  0  0  0  0  0  0  0  0  0  0  # atno 11005 bound_to 11000
  145.1683  140.9708  143.4336 LP  0  0  0  0  0  0  0  0  0  0  0  0  # atno 17320 bound_to 7965
  145.0052  139.3561  143.6148 LP  0  0  0  0  0  0  0  0  0  0  0  0  # atno 17321 bound_to 7965
  139.6840  143.9805  152.2824 LP  0  0  0  0  0  0  0  0  0  0  0  0  # atno 17342 bound_to 10162
  139.9445  144.6660  150.8233 LP  0  0  0  0  0  0  0  0  0  0  0  0  # atno 17343 bound_to 10162
  157.3216  131.0683  151.1928 LP  0  0  0  0  0  0  0  0  0  0  0  0  # atno 17370 bound_to 10713
  157.2839  130.6763  149.6080 LP  0  0  0  0  0  0  0  0  0  0  0  0  # atno 17371 bound_to 10713
  141.1507  133.8973  157.2104 LP  0  0  0  0  0  0  0  0  0  0  0  0  # atno 17394 bound_to 11000
  139.9797  135.0102  156.9719 LP  0  0  0  0  0  0  0  0  0  0  0  0  # atno 17395 bound_to 11000

$$$$
