#       Name:                AV-unprocessed.smi:832
#       Creating user name   scv26
#       Creation time:       Fri Mar 27 01:33:18 2020


#       File generated by GOLD software.
#

@<TRIPOS>MOLECULE
AV-unprocessed.smi:832
    47    48     1
SMALL
NO_CHARGES


@<TRIPOS>ATOM
      1 ****        -4.4023   6.7449  -0.9503 C.3            1 S1                 0.0000
      2 ****        -3.8297   5.3893  -0.7146 C.2            1 S1                 0.0000
      3 ****        -3.0307   4.8749   0.2674 C.2            1 S1                 0.0000
      4 ****        -2.8745   3.5190  -0.1253 C.2            1 S1                 0.0000
      5 ****        -2.1005   2.6203   0.6525 N.am           1 S1                 0.0000
      6 ****        -1.8936   1.3117   0.4266 C.2            1 S1                 0.0000
      7 ****        -2.3387   0.6782  -0.5309 O.2            1 S1                 0.0000
      8 ****        -1.1300   0.7656   1.3846 N.am           1 S1                 0.0000
      9 ****        -0.7459  -0.6410   1.4597 C.3            1 S1                 0.0000
     10 ****         0.6467  -0.8972   0.8519 C.3            1 S1                 0.0000
     11 ****         0.7690  -0.6183  -0.6451 C.3            1 S1                 0.0000
     12 ****         1.9810  -1.4530  -1.0408 C.3            1 S1                 0.0000
     13 ****         1.8656  -2.6978  -0.2493 N.4            1 S1                 1.0000
     14 ****         3.1344  -3.4516  -0.0400 C.3            1 S1                 0.0000
     15 ****         3.8711  -3.7111  -1.3683 C.3            1 S1                 0.0000
     16 ****         2.8713  -4.7943   0.6684 C.3            1 S1                 0.0000
     17 ****         1.1192  -2.3541   0.9887 C.3            1 S1                 0.0000
     18 ****        -3.5158   3.2328  -1.2480 N.2            1 S1                 0.0000
     19 ****        -4.1315   4.4302  -1.6313 O.3            1 S1                 0.0000
     20 ****        -4.1717   7.4150  -0.1220 H              1 S1                 0.0000
     21 ****        -5.4865   6.6943  -1.0519 H              1 S1                 0.0000
     22 ****        -3.9961   7.1820  -1.8625 H              1 S1                 0.0000
     23 ****        -2.6281   5.3880   1.1281 H              1 S1                 0.0000
     24 ****        -1.6737   3.0134   1.4783 H              1 S1                 0.0000
     25 ****        -0.8072   1.3638   2.1312 H              1 S1                 0.0000
     26 ****        -0.7401  -0.9238   2.5127 H              1 S1                 0.0000
     27 ****        -1.4961  -1.2735   0.9814 H              1 S1                 0.0000
     28 ****         1.3733  -0.2647   1.3653 H              1 S1                 0.0000
     29 ****        -0.1156  -0.9765  -1.1739 H              1 S1                 0.0000
     30 ****         0.8938   0.4410  -0.8723 H              1 S1                 0.0000
     31 ****         2.0101  -1.6533  -2.1122 H              1 S1                 0.0000
     32 ****         2.8950  -0.9231  -0.7669 H              1 S1                 0.0000
     33 ****         3.7858  -2.8488   0.5950 H              1 S1                 0.0000
     34 ****         4.7724  -4.3028  -1.2043 H              1 S1                 0.0000
     35 ****         4.1869  -2.7861  -1.8506 H              1 S1                 0.0000
     36 ****         3.2422  -4.2587  -2.0711 H              1 S1                 0.0000
     37 ****         3.7978  -5.3541   0.8000 H              1 S1                 0.0000
     38 ****         2.1890  -5.4190   0.0908 H              1 S1                 0.0000
     39 ****         2.4402  -4.6612   1.6603 H              1 S1                 0.0000
     40 ****         1.7314  -2.4592   1.8854 H              1 S1                 0.0000
     41 ****         0.2784  -3.0427   1.0815 H              1 S1                 0.0000
     42 ****         1.2525  -3.3005  -0.7797 H              1 S1                 0.0000
     43 ****        -2.9031   1.1386  -1.2161 LP             1 S1                 0.0000
     44 ****        -2.1357  -0.2966  -0.6232 LP             1 S1                 0.0000
     45 ****        -3.5523   2.3520  -1.7199 LP             1 S1                 0.0000
     46 ****        -3.7961   4.7079  -2.5315 LP             1 S1                 0.0000
     47 ****        -5.1224   4.3017  -1.6699 LP             1 S1                 0.0000
@<TRIPOS>BOND
    1    1    2 1     
    2    1   20 1     
    3    1   21 1     
    4    1   22 1     
    5    2   19 1     
    6    2    3 2     
    7    3    4 1     
    8    3   23 1     
    9    4    5 1     
   10    4   18 2     
   11    5    6 am    
   12    5   24 1     
   13    6    7 2     
   14    6    8 am    
   15    8    9 1     
   16    8   25 1     
   17    9   10 1     
   18    9   26 1     
   19    9   27 1     
   20   10   17 1     
   21   10   11 1     
   22   10   28 1     
   23   11   12 1     
   24   11   29 1     
   25   11   30 1     
   26   12   13 1     
   27   12   31 1     
   28   12   32 1     
   29   13   14 1     
   30   13   17 1     
   31   13   42 1     
   32   14   15 1     
   33   14   16 1     
   34   14   33 1     
   35   15   34 1     
   36   15   35 1     
   37   15   36 1     
   38   16   37 1     
   39   16   38 1     
   40   16   39 1     
   41   17   40 1     
   42   17   41 1     
   43   18   19 1     
   44    7   43 1     
   45    7   44 1     
   46   18   45 1     
   47   19   46 1     
   48   19   47 1     
@<TRIPOS>SUBSTRUCTURE
      1 S1             1
@<TRIPOS>SET
LONE_PAIRS      STATIC     ATOMS    <user>   **** ""
5 43 44 45 46 47
DONOR_HYDROGENS      STATIC     ATOMS    <user>   **** ""
3 24 25 42
ATOM$BLUE        STATIC     ATOMS    COLORGROUP SYSTEM
5 43 44 45 46 47
ATOM$RED        STATIC     ATOMS    COLORGROUP SYSTEM
3 24 25 42
