AV-unprocessed.smi:583|AV-procd|sdf|2998|dock5
  -GOLD-   2262023503D 1   1.00000     0.00000
 Structure written by MMmdl.
 35 36  0  0  0  0  0  0  0  0  1 V2000
  151.6603  140.5439  155.3845 O   0  0  0  0  0  0  0  0  0  0  0  0
  151.0419  140.4153  156.4421 C   0  0  0  0  0  0  0  0  0  0  0  0
  151.7293  139.8570  157.6967 C   0  0  0  0  0  0  0  0  0  0  0  0
  152.3527  140.8950  158.5352 N   0  0  0  0  0  0  0  0  0  0  0  0
  151.6697  142.1217  158.6520 C   0  0  0  0  0  0  0  0  0  0  0  0
  152.1243  143.1457  159.3998 C   0  0  0  0  0  0  0  0  0  0  0  0
  151.3917  144.4769  159.4640 C   0  0  0  0  0  0  0  0  0  0  0  0
  150.1447  144.3176  159.9081 F   0  0  0  0  0  0  0  0  0  0  0  0
  152.0182  145.3330  160.2725 F   0  0  0  0  0  0  0  0  0  0  0  0
  151.3336  145.0208  158.2491 F   0  0  0  0  0  0  0  0  0  0  0  0
  153.3934  142.9414  160.0700 C   0  0  0  0  0  0  0  0  0  0  0  0
  154.0627  141.7767  159.9639 C   0  0  0  0  0  0  0  0  0  0  0  0
  153.5434  140.6641  159.1656 C   0  0  0  0  0  0  0  0  0  0  0  0
  154.1412  139.5919  159.0683 O   0  0  0  0  0  0  0  0  0  0  0  0
  149.7442  140.7285  156.5754 N   0  0  0  0  0  0  0  0  0  0  0  0
  148.8996  141.2729  155.5168 C   0  0  1  0  0  0  0  0  0  0  0  0
  148.4938  140.2014  154.4838 C   0  0  0  0  0  0  0  0  0  0  0  0
  147.3318  140.7435  153.6423 C   0  0  0  0  0  0  0  0  0  0  0  0
  146.3966  141.8796  154.7353 S   0  0  0  0  0  0  0  0  0  0  0  0
  146.3624  143.2137  154.1177 O   0  0  0  0  0  0  0  0  0  0  0  0
  145.1610  141.2231  155.1889 O   0  0  0  0  0  0  0  0  0  0  0  0
  147.6148  141.8731  156.1040 C   0  0  0  0  0  0  0  0  0  0  0  0
  151.0040  139.2887  158.2821 H   0  0  0  0  0  0  0  0  0  0  0  0
  152.4727  139.1249  157.3784 H   0  0  0  0  0  0  0  0  0  0  0  0
  150.7456  142.1770  158.0949 H   0  0  0  0  0  0  0  0  0  0  0  0
  153.8131  143.7338  160.6721 H   0  0  0  0  0  0  0  0  0  0  0  0
  155.0041  141.6584  160.4800 H   0  0  0  0  0  0  0  0  0  0  0  0
  149.3126  140.5857  157.4770 H   0  0  0  0  0  0  0  0  0  0  0  0
  149.4353  142.0696  154.9968 H   0  0  0  0  0  0  0  0  0  0  0  0
  149.3331  139.9017  153.8553 H   0  0  0  0  0  0  0  0  0  0  0  0
  148.1556  139.3073  155.0093 H   0  0  0  0  0  0  0  0  0  0  0  0
  147.7040  141.3227  152.7968 H   0  0  0  0  0  0  0  0  0  0  0  0
  146.6774  139.9575  153.2648 H   0  0  0  0  0  0  0  0  0  0  0  0
  147.2123  141.2470  156.9010 H   0  0  0  0  0  0  0  0  0  0  0  0
  147.7524  142.8833  156.4900 H   0  0  0  0  0  0  0  0  0  0  0  0
  1  2  2  0  0  0  0
  2  3  1  0  0  0  0
  2 15  1  0  0  0  0
  3  4  1  0  0  0  0
  3 23  1  0  0  0  0
  3 24  1  0  0  0  0
  4 13  1  0  0  0  0
  4  5  1  0  0  0  0
  5  6  2  0  0  0  0
  5 25  1  0  0  0  0
  6  7  1  0  0  0  0
  6 11  1  0  0  0  0
  7  8  1  0  0  0  0
  7  9  1  0  0  0  0
  7 10  1  0  0  0  0
 11 12  2  0  0  0  0
 11 26  1  0  0  0  0
 12 13  1  0  0  0  0
 12 27  1  0  0  0  0
 13 14  2  0  0  0  0
 15 16  1  0  0  0  0
 15 28  1  0  0  0  0
 16 22  1  0  0  0  0
 16 17  1  0  0  0  0
 16 29  1  0  0  0  0
 17 18  1  0  0  0  0
 17 30  1  0  0  0  0
 17 31  1  0  0  0  0
 18 19  1  0  0  0  0
 18 32  1  0  0  0  0
 18 33  1  0  0  0  0
 19 20  2  0  0  0  0
 19 21  2  0  0  0  0
 19 22  1  0  0  0  0
 22 34  1  0  0  0  0
 22 35  1  0  0  0  0
M  END
> <s_m_source_file>
AV-unprocessed.smi

> <i_m_source_file_index>
583

> <i_lp_mmshare_version>
43012

> <i_f3d_flags>
0

> <s_epik_input>
Tz1TMSg9TylbQ0gyXVtDSDJdW0NASF0oW0NIMl0xKVtOSF1DKD1PKVtDSDJdbjJbY0hdYyhDKEYpKEYpRilbY0hdW2NIXWMyPU8=

> <s_epik_cmdline>
J2VwaWtfcHl0aG9uJywgJy1waCcsICc3LjAnLCAnLXRuJywgJzgnLCAnLW1hJywgJzIwMCcsICctbWV0YWxfYmluZGluZycsICctaW1hZScsICc8aW5maWxlLm1hZT4nLCAnLW9tYWUnLCAnPG91dGZpbGUubWFlPic=

> <r_lp_tautomer_probability>
1

> <r_epik_Ionization_Penalty>
1.22016e-07

> <r_epik_Ionization_Penalty_Charging>
1.48237e-08

> <r_epik_Ionization_Penalty_Neutral>
1.07193e-07

> <r_epik_State_Penalty>
-0

> <r_epik_Charging_Adjusted_Penalty>
1.48237e-08

> <i_epik_Tot_Q>
0

> <i_epik_Tot_abs_Q>
0

> <r_epik_Metal_State_Penalty>
-0

> <b_epik_Metal_Only>
0

> <s_lp_Force_Field>
OPLS_2005

> <r_lp_Energy>
16.0517

> <b_lp_Chiralities_Consistent>
1

> <s_lp_Variant>
AV-unprocessed.smi:583-2

> <Gold.Version>
5.8.1

> <Gold.Id.Protein>
6NUR|6NUR_protein|mol2

> <Gold.PLP.Fitness>
46.4375

> <Gold.PLP.PLP>
-43.4951

> <Gold.PLP.part.hbond>
-2.4753

> <Gold.PLP.part.metal>
0.0000

> <Gold.PLP.part.buried>
-4.3508

> <Gold.PLP.part.nonpolar>
-38.0787

> <Gold.PLP.part.repulsive>
1.1449

> <Gold.PLP.ligand.clash>
0.0000

> <Gold.PLP.ligand.torsion>
0.9305

> <Gold.PLP.Chemscore.Hbond>
1.5860

> <Gold.PLP.Chemscore.CHOScore>
0.0000

> <Gold.PLP.Chemscore.Metal>
0.0000

> <Gold.Chemscore.Hbonds>
donor molecule, donor type, donor heavy atom, donor atom, acceptor molecule, acceptor atom, score
      P1  H  7989  7998       L1     1  0.75
      P1  H  7997  8010       L1    14  0.75

> <Gold.PLP.Chemscore.Internal.Correction>
0.0453

> <Gold.Rescore>
     Score         DG    S(hbond)    S(metal)    S(lipo)     H(rot)  DE(clash)    DE(int)     intcor
     12.25     -13.43       0.94        0.00      79.10       1.73       0.10       1.07       ----

> <Gold.Chemscore.Fitness>
12.2509

> <Gold.Chemscore.DG>
-13.4265

> <Gold.Chemscore.ZeroCoef>
-5.4800

> <Gold.Chemscore.Hbond>
0.9355

> <Gold.Chemscore.Metal>
0.0000

> <Gold.Chemscore.Lipo>
79.0966

> <Gold.Chemscore.Internal_Hbond>
0.0000

> <Gold.Chemscore.DEClash>
0.1037

> <Gold.Chemscore.DEInternal>
1.0719

> <Gold.Chemscore.Rot>
1.7314

> <Gold.Chemscore.Internal.Correction>
   9.000000E+99

> <Gold.Chemscore.Hbonds>
donor molecule, donor type, donor heavy atom, donor atom, acceptor molecule, acceptor atom, score
      P1  H  7989  7998       L1     1  0.76
      P1  H  7997  8010       L1    14  0.09

> <Gold.Chemscore.Hbond.Weighted>
-3.1246

> <Gold.Chemscore.Metal.Weighted>
-0.0000

> <Gold.Chemscore.Lipo.Weighted>
-9.2543

> <Gold.Chemscore.Internal_Hbond.Weighted>
0.0000

> <Gold.Chemscore.DEClash.Weighted>
0.1037

> <Gold.Chemscore.DEInternal.Weighted>
1.0719

> <Gold.Chemscore.Rot.Weighted>
4.4324

> <Gold.Chemscore.Internal.Correction.Weighted>
   9.000000E+99

> <Gold.Protein.RotatedTorsions>
[ 6907 6896 6895 6894 ] final -114.14 input  -60.11 | X-H torsion
[ 7974 7965 7964 7962 ] final -167.00 input  175.53 | X-H torsion
[ 8008 7997 7996 7995 ] final    5.03 input   59.86 | X-H torsion
[ 10167 10162 10161 10158 ] final   30.00 input  -65.29 | X-H torsion
[ 10718 10713 10712 10709 ] final -155.41 input   66.30 | X-H torsion
[ 10763 10752 10751 10750 ] final   -9.01 input  -60.55 | X-H torsion
[ 11005 11000 10999 10996 ] final  -19.42 input  -57.11 | X-H torsion

> <Gold.Protein.ActiveResidues>
 VAL166  LYS551  ARG553  GLY616  TRP617  ASP618  TYR619  PRO620  LYS621  CYS622 
 ASP623  PHE694  ASN695  SER759  ASP760  ASP761  ALA762  ILE779  LEU786  VAL792 
 PHE793  MET794  SER795  GLU796  ALA797  LYS798  CYS799  TRP800  GLU811  SER814 

> <Gold.Protein.RotatedAtoms>
  150.7880  133.8844  159.3295 H   0  0  0  0  0  0  0  0  0  0  0  0  # atno 6907 bound_to 6896
  151.6690  135.0977  160.0204 H   0  0  0  0  0  0  0  0  0  0  0  0  # atno 6908 bound_to 6896
  152.3948  133.6692  159.6302 H   0  0  0  0  0  0  0  0  0  0  0  0  # atno 6909 bound_to 6896
  144.7232  140.2583  143.6268 H   0  0  0  0  0  0  0  0  0  0  0  0  # atno 7974 bound_to 7965
  154.7233  140.2716  155.6521 H   0  0  0  0  0  0  0  0  0  0  0  0  # atno 8008 bound_to 7997
  156.2830  140.2730  156.1836 H   0  0  0  0  0  0  0  0  0  0  0  0  # atno 8009 bound_to 7997
  155.0478  140.0371  157.2523 H   0  0  0  0  0  0  0  0  0  0  0  0  # atno 8010 bound_to 7997
  140.4716  144.0753  150.6239 H   0  0  0  0  0  0  0  0  0  0  0  0  # atno 10167 bound_to 10162
  156.5125  130.8441  151.2651 H   0  0  0  0  0  0  0  0  0  0  0  0  # atno 10718 bound_to 10713
  153.4487  135.7015  153.6122 H   0  0  0  0  0  0  0  0  0  0  0  0  # atno 10763 bound_to 10752
  153.4466  135.3767  155.2260 H   0  0  0  0  0  0  0  0  0  0  0  0  # atno 10764 bound_to 10752
  154.8728  135.3987  154.3896 H   0  0  0  0  0  0  0  0  0  0  0  0  # atno 10765 bound_to 10752
  140.8365  133.7958  155.9814 H   0  0  0  0  0  0  0  0  0  0  0  0  # atno 11005 bound_to 11000
  145.8160  139.2023  143.1965 LP  0  0  0  0  0  0  0  0  0  0  0  0  # atno 17320 bound_to 7965
  146.0555  140.8025  142.9761 LP  0  0  0  0  0  0  0  0  0  0  0  0  # atno 17321 bound_to 7965
  140.3969  143.2723  151.9994 LP  0  0  0  0  0  0  0  0  0  0  0  0  # atno 17342 bound_to 10162
  139.4819  144.6030  151.7571 LP  0  0  0  0  0  0  0  0  0  0  0  0  # atno 17343 bound_to 10162
  157.7448  130.9945  150.2709 LP  0  0  0  0  0  0  0  0  0  0  0  0  # atno 17370 bound_to 10713
  156.3227  130.3788  149.7561 LP  0  0  0  0  0  0  0  0  0  0  0  0  # atno 17371 bound_to 10713
  140.8942  134.2458  157.5078 LP  0  0  0  0  0  0  0  0  0  0  0  0  # atno 17394 bound_to 11000
  139.8704  134.9676  156.4602 LP  0  0  0  0  0  0  0  0  0  0  0  0  # atno 17395 bound_to 11000

$$$$
