AV-unprocessed.smi:25|AV-procd|sdf|179|dock1
  -GOLD-   2262015443D 1   1.00000     0.00000
 Structure written by MMmdl.
 47 50  0  0  0  0  0  0  0  0  1 V2000
  152.3426  144.9113  158.6919 C   0  0  0  0  0  0  0  0  0  0  0  0
  151.7341  143.7918  159.5601 C   0  0  2  0  0  0  0  0  0  0  0  0
  151.8660  144.1107  161.0663 C   0  0  0  0  0  0  0  0  0  0  0  0
  152.7813  143.0353  161.5643 C   0  0  0  0  0  0  0  0  0  0  0  0
  153.2984  142.9289  162.8669 C   0  0  0  0  0  0  0  0  0  0  0  0
  154.1743  141.8628  163.1540 C   0  0  0  0  0  0  0  0  0  0  0  0
  154.5211  140.9393  162.1436 C   0  0  0  0  0  0  0  0  0  0  0  0
  153.9921  141.0627  160.8401 C   0  0  0  0  0  0  0  0  0  0  0  0
  153.0969  142.1231  160.5585 C   0  0  0  0  0  0  0  0  0  0  0  0
  152.4212  142.4952  159.3563 N   0  0  0  0  0  0  0  0  0  0  0  0
  152.2247  141.7821  158.2127 C   0  0  0  0  0  0  0  0  0  0  0  0
  152.7661  140.6859  158.0484 O   0  0  0  0  0  0  0  0  0  0  0  0
  151.3444  142.3266  157.0709 C   0  0  0  0  0  0  0  0  0  0  0  0
  150.1441  141.5026  156.7953 N   0  0  0  0  0  0  0  0  0  0  0  0
  148.9386  141.8082  157.4762 C   0  0  0  0  0  0  0  0  0  0  0  0
  148.8810  142.7313  158.2901 O   0  0  0  0  0  0  0  0  0  0  0  0
  147.7931  140.9712  157.1373 C   0  0  0  0  0  0  0  0  0  0  0  0
  146.6071  141.1943  157.7284 F   0  0  0  0  0  0  0  0  0  0  0  0
  147.9034  139.9760  156.2338 C   0  0  0  0  0  0  0  0  0  0  0  0
  149.0868  139.6856  155.5809 N   0  0  0  0  0  0  0  0  0  0  0  0
  149.1627  138.5716  154.5620 C   0  0  2  0  0  0  0  0  0  0  0  0
  147.8056  137.8676  154.4422 C   0  0  0  0  0  0  0  0  0  0  0  0
  148.0000  136.6527  155.3241 C   0  0  0  0  0  0  0  0  0  0  0  0
  149.4774  136.3502  155.1063 C   0  0  0  0  0  0  0  0  0  0  0  0
  150.0990  137.6261  154.9938 O   0  0  0  0  0  0  0  0  0  0  0  0
  150.2363  140.4634  155.8377 C   0  0  0  0  0  0  0  0  0  0  0  0
  151.2889  140.2494  155.2326 O   0  0  0  0  0  0  0  0  0  0  0  0
  151.8626  145.8678  158.8999 H   0  0  0  0  0  0  0  0  0  0  0  0
  152.2201  144.7159  157.6269 H   0  0  0  0  0  0  0  0  0  0  0  0
  153.4093  145.0262  158.8879 H   0  0  0  0  0  0  0  0  0  0  0  0
  150.6739  143.6916  159.3196 H   0  0  0  0  0  0  0  0  0  0  0  0
  152.2899  145.0971  161.2581 H   0  0  0  0  0  0  0  0  0  0  0  0
  150.9045  144.0411  161.5760 H   0  0  0  0  0  0  0  0  0  0  0  0
  153.0360  143.6486  163.6284 H   0  0  0  0  0  0  0  0  0  0  0  0
  154.5885  141.7572  164.1458 H   0  0  0  0  0  0  0  0  0  0  0  0
  155.2026  140.1325  162.3694 H   0  0  0  0  0  0  0  0  0  0  0  0
  154.3099  140.3409  160.1100 H   0  0  0  0  0  0  0  0  0  0  0  0
  151.0410  143.3417  157.3259 H   0  0  0  0  0  0  0  0  0  0  0  0
  151.9478  142.4129  156.1669 H   0  0  0  0  0  0  0  0  0  0  0  0
  147.0217  139.3920  156.0157 H   0  0  0  0  0  0  0  0  0  0  0  0
  149.5085  139.0229  153.6308 H   0  0  0  0  0  0  0  0  0  0  0  0
  146.9755  138.5079  154.7437 H   0  0  0  0  0  0  0  0  0  0  0  0
  147.6609  137.5665  153.4040 H   0  0  0  0  0  0  0  0  0  0  0  0
  147.8157  136.9091  156.3678 H   0  0  0  0  0  0  0  0  0  0  0  0
  147.3497  135.8198  155.0561 H   0  0  0  0  0  0  0  0  0  0  0  0
  149.9119  135.7621  155.9147 H   0  0  0  0  0  0  0  0  0  0  0  0
  149.6203  135.8053  154.1724 H   0  0  0  0  0  0  0  0  0  0  0  0
  1  2  1  0  0  0  0
  1 28  1  0  0  0  0
  1 29  1  0  0  0  0
  1 30  1  0  0  0  0
  2 10  1  0  0  0  0
  2  3  1  0  0  0  0
  2 31  1  0  0  0  0
  3  4  1  0  0  0  0
  3 32  1  0  0  0  0
  3 33  1  0  0  0  0
  4  9  2  0  0  0  0
  4  5  1  0  0  0  0
  5  6  2  0  0  0  0
  5 34  1  0  0  0  0
  6  7  1  0  0  0  0
  6 35  1  0  0  0  0
  7  8  2  0  0  0  0
  7 36  1  0  0  0  0
  8  9  1  0  0  0  0
  8 37  1  0  0  0  0
  9 10  1  0  0  0  0
 10 11  1  0  0  0  0
 11 12  2  0  0  0  0
 11 13  1  0  0  0  0
 13 14  1  0  0  0  0
 13 38  1  0  0  0  0
 13 39  1  0  0  0  0
 14 26  1  0  0  0  0
 14 15  1  0  0  0  0
 15 16  2  0  0  0  0
 15 17  1  0  0  0  0
 17 18  1  0  0  0  0
 17 19  2  0  0  0  0
 19 20  1  0  0  0  0
 19 40  1  0  0  0  0
 20 21  1  0  0  0  0
 20 26  1  0  0  0  0
 21 25  1  0  0  0  0
 21 22  1  0  0  0  0
 21 41  1  0  0  0  0
 22 23  1  0  0  0  0
 22 42  1  0  0  0  0
 22 43  1  0  0  0  0
 23 24  1  0  0  0  0
 23 44  1  0  0  0  0
 23 45  1  0  0  0  0
 24 25  1  0  0  0  0
 24 46  1  0  0  0  0
 24 47  1  0  0  0  0
 26 27  2  0  0  0  0
M  END
> <s_m_source_file>
AV-unprocessed.smi

> <i_m_source_file_index>
25

> <i_lp_mmshare_version>
43012

> <i_f3d_flags>
0

> <s_epik_input>
W2NIXTFbY0hdW2NIXVtjSF1jKGMxMilOKFtDQEhdKFtDSDNdKVtDSDJdMilDKD1PKVtDSDJdbjNjKD1PKWMoRilbY0hdbihjMz1PKVtDQEBIXTRbQ0gyXVtDSDJdW0NIMl1PNA==

> <s_epik_cmdline>
J2VwaWtfcHl0aG9uJywgJy1waCcsICc3LjAnLCAnLXRuJywgJzgnLCAnLW1hJywgJzIwMCcsICctbWV0YWxfYmluZGluZycsICctaW1hZScsICc8aW5maWxlLm1hZT4nLCAnLW9tYWUnLCAnPG91dGZpbGUubWFlPic=

> <r_lp_tautomer_probability>
1

> <r_epik_Ionization_Penalty>
1.67943e-06

> <r_epik_Ionization_Penalty_Charging>
3.79603e-09

> <r_epik_Ionization_Penalty_Neutral>
1.67563e-06

> <r_epik_State_Penalty>
-0

> <r_epik_Charging_Adjusted_Penalty>
3.79603e-09

> <i_epik_Tot_Q>
0

> <i_epik_Tot_abs_Q>
0

> <r_epik_Metal_State_Penalty>
-0

> <b_epik_Metal_Only>
0

> <s_epik_Chemistry_Notes>
This compound contains an acetal/aminal-like group ( X-CH(R)-Y where X, Y are N, S, or O) that may be acid/base labile, releasing an aldehyde.

> <s_lp_Force_Field>
OPLS_2005

> <r_lp_Energy>
56.1974

> <b_lp_Chiralities_Consistent>
1

> <s_lp_Variant>
AV-unprocessed.smi:25-1

> <Gold.Version>
5.8.1

> <Gold.Id.Protein>
6NUR|6NUR_protein|mol2

> <Gold.PLP.Fitness>
54.6310

> <Gold.PLP.PLP>
-51.4227

> <Gold.PLP.part.hbond>
-1.9144

> <Gold.PLP.part.metal>
0.0000

> <Gold.PLP.part.buried>
-4.4365

> <Gold.PLP.part.nonpolar>
-44.4554

> <Gold.PLP.part.repulsive>
0.5999

> <Gold.PLP.ligand.clash>
0.0000

> <Gold.PLP.ligand.torsion>
0.4037

> <Gold.PLP.Chemscore.Hbond>
1.3276

> <Gold.PLP.Chemscore.CHOScore>
0.0000

> <Gold.PLP.Chemscore.Metal>
0.0000

> <Gold.Chemscore.Hbonds>
donor molecule, donor type, donor heavy atom, donor atom, acceptor molecule, acceptor atom, score
      P1  H  7989  7998       L1    27  1.00
      P1  H  7997  8010       L1    12  0.50

> <Gold.PLP.Chemscore.Internal.Correction>
0.0329

> <Gold.Rescore>
     Score         DG    S(hbond)    S(metal)    S(lipo)     H(rot)  DE(clash)    DE(int)     intcor
     18.56     -21.06       1.84        0.00     114.56       1.55       0.18       2.32       ----

> <Gold.Chemscore.Fitness>
18.5640

> <Gold.Chemscore.DG>
-21.0650

> <Gold.Chemscore.ZeroCoef>
-5.4800

> <Gold.Chemscore.Hbond>
1.8401

> <Gold.Chemscore.Metal>
0.0000

> <Gold.Chemscore.Lipo>
114.5649

> <Gold.Chemscore.Internal_Hbond>
0.0000

> <Gold.Chemscore.DEClash>
0.1766

> <Gold.Chemscore.DEInternal>
2.3244

> <Gold.Chemscore.Rot>
1.5489

> <Gold.Chemscore.Internal.Correction>
   9.000000E+99

> <Gold.Chemscore.Hbonds>
donor molecule, donor type, donor heavy atom, donor atom, acceptor molecule, acceptor atom, score
      P1  H  7989  7998       L1    27  0.96
      P1  H  7997  8010       L1    12  0.51

> <Gold.Chemscore.Hbond.Weighted>
-6.1460

> <Gold.Chemscore.Metal.Weighted>
-0.0000

> <Gold.Chemscore.Lipo.Weighted>
-13.4041

> <Gold.Chemscore.Internal_Hbond.Weighted>
0.0000

> <Gold.Chemscore.DEClash.Weighted>
0.1766

> <Gold.Chemscore.DEInternal.Weighted>
2.3244

> <Gold.Chemscore.Rot.Weighted>
3.9651

> <Gold.Chemscore.Internal.Correction.Weighted>
   9.000000E+99

> <Gold.Protein.RotatedTorsions>
[ 6907 6896 6895 6894 ] final  107.21 input  -60.11 | X-H torsion
[ 7974 7965 7964 7962 ] final   44.77 input  175.53 | X-H torsion
[ 8008 7997 7996 7995 ] final   45.32 input   59.86 | X-H torsion
[ 10167 10162 10161 10158 ] final   24.68 input  -65.29 | X-H torsion
[ 10718 10713 10712 10709 ] final  -53.95 input   66.30 | X-H torsion
[ 10763 10752 10751 10750 ] final  -71.47 input  -60.55 | X-H torsion
[ 11005 11000 10999 10996 ] final   77.42 input  -57.11 | X-H torsion

> <Gold.Protein.ActiveResidues>
 VAL166  LYS551  ARG553  GLY616  TRP617  ASP618  TYR619  PRO620  LYS621  CYS622 
 ASP623  PHE694  ASN695  SER759  ASP760  ASP761  ALA762  ILE779  LEU786  VAL792 
 PHE793  MET794  SER795  GLU796  ALA797  LYS798  CYS799  TRP800  GLU811  SER814 

> <Gold.Protein.RotatedAtoms>
  152.5163  133.9268  159.7560 H   0  0  0  0  0  0  0  0  0  0  0  0  # atno 6907 bound_to 6896
  150.9627  133.6419  159.2758 H   0  0  0  0  0  0  0  0  0  0  0  0  # atno 6908 bound_to 6896
  151.3658  135.0918  159.9502 H   0  0  0  0  0  0  0  0  0  0  0  0  # atno 6909 bound_to 6896
  146.0539  139.5038  142.9700 H   0  0  0  0  0  0  0  0  0  0  0  0  # atno 7974 bound_to 7965
  155.3340  140.3404  155.4239 H   0  0  0  0  0  0  0  0  0  0  0  0  # atno 8008 bound_to 7997
  156.1847  140.1676  156.8244 H   0  0  0  0  0  0  0  0  0  0  0  0  # atno 8009 bound_to 7997
  154.5373  140.0732  156.8432 H   0  0  0  0  0  0  0  0  0  0  0  0  # atno 8010 bound_to 7997
  140.5169  144.0068  150.6398 H   0  0  0  0  0  0  0  0  0  0  0  0  # atno 10167 bound_to 10162
  156.1492  130.4152  149.9973 H   0  0  0  0  0  0  0  0  0  0  0  0  # atno 10718 bound_to 10713
  154.4322  135.5961  153.6076 H   0  0  0  0  0  0  0  0  0  0  0  0  # atno 10763 bound_to 10752
  152.9799  135.5978  154.3825 H   0  0  0  0  0  0  0  0  0  0  0  0  # atno 10764 bound_to 10752
  154.3664  135.2841  155.2270 H   0  0  0  0  0  0  0  0  0  0  0  0  # atno 10765 bound_to 10752
  139.9255  134.7681  156.1519 H   0  0  0  0  0  0  0  0  0  0  0  0  # atno 11005 bound_to 11000
  145.6676  141.0225  143.1675 LP  0  0  0  0  0  0  0  0  0  0  0  0  # atno 17320 bound_to 7965
  144.7137  139.8273  143.7406 LP  0  0  0  0  0  0  0  0  0  0  0  0  # atno 17321 bound_to 7965
  140.3406  143.3022  152.0592 LP  0  0  0  0  0  0  0  0  0  0  0  0  # atno 17342 bound_to 10162
  139.4912  144.6445  151.6807 LP  0  0  0  0  0  0  0  0  0  0  0  0  # atno 17343 bound_to 10162
  156.7836  130.9230  151.3646 LP  0  0  0  0  0  0  0  0  0  0  0  0  # atno 17370 bound_to 10713
  157.6642  130.8993  149.9897 LP  0  0  0  0  0  0  0  0  0  0  0  0  # atno 17371 bound_to 10713
  141.0810  133.6754  156.2335 LP  0  0  0  0  0  0  0  0  0  0  0  0  # atno 17394 bound_to 11000
  140.6348  134.5227  157.5563 LP  0  0  0  0  0  0  0  0  0  0  0  0  # atno 17395 bound_to 11000

$$$$
