AV-unprocessed.smi:525|AV-procd|sdf|2808|dock6
  -GOLD-   2262023283D 1   1.00000     0.00000
 Structure written by MMmdl.
 43 45  0  0  0  0  0  0  0  0  1 V2000
  152.5519  144.5584  160.9912 C   0  0  0  0  0  0  0  0  0  0  0  0
  152.2103  143.2051  161.2480 O   0  0  0  0  0  0  0  0  0  0  0  0
  153.3180  142.4014  161.6280 C   0  0  0  0  0  0  0  0  0  0  0  0
  154.3153  142.2072  160.4723 C   0  0  0  0  0  0  0  0  0  0  0  0
  153.7784  141.3519  159.4225 N   0  0  0  0  0  0  0  0  0  0  0  0
  154.2270  140.1419  159.0024 C   0  0  0  0  0  0  0  0  0  0  0  0
  155.6400  139.3685  159.7340 S   0  0  0  0  0  0  0  0  0  0  0  0
  154.9730  137.7043  160.0828 C   0  0  1  0  0  0  0  0  0  0  0  0
  155.1395  136.7074  158.9248 C   0  0  0  0  0  0  0  0  0  0  0  0
  155.8359  137.1236  157.8640 N   0  0  0  0  0  0  0  0  0  0  0  0
  154.6531  135.5799  158.9827 O   0  0  0  0  0  0  0  0  0  0  0  0
  155.6298  137.1492  161.3423 C   0  0  0  0  0  0  0  0  0  0  0  0
  155.1905  135.9335  161.9162 C   0  0  0  0  0  0  0  0  0  0  0  0
  155.8073  135.4304  163.0779 C   0  0  0  0  0  0  0  0  0  0  0  0
  156.8680  136.1375  163.6748 C   0  0  0  0  0  0  0  0  0  0  0  0
  157.3108  137.3487  163.1098 C   0  0  0  0  0  0  0  0  0  0  0  0
  156.6944  137.8524  161.9479 C   0  0  0  0  0  0  0  0  0  0  0  0
  153.5187  139.5781  158.0213 N   0  0  0  0  0  0  0  0  0  0  0  0
  152.5360  140.5139  157.7710 C   0  0  0  0  0  0  0  0  0  0  0  0
  151.4788  140.5081  156.8330 C   0  0  0  0  0  0  0  0  0  0  0  0
  150.5836  141.5956  156.7608 C   0  0  0  0  0  0  0  0  0  0  0  0
  150.7319  142.7006  157.6240 C   0  0  0  0  0  0  0  0  0  0  0  0
  151.7782  142.7249  158.5660 C   0  0  0  0  0  0  0  0  0  0  0  0
  152.6696  141.6375  158.6327 C   0  0  0  0  0  0  0  0  0  0  0  0
  151.6641  145.1066  160.6766 H   0  0  0  0  0  0  0  0  0  0  0  0
  153.2953  144.6472  160.1993 H   0  0  0  0  0  0  0  0  0  0  0  0
  152.9415  145.0409  161.8882 H   0  0  0  0  0  0  0  0  0  0  0  0
  153.8163  142.8133  162.5070 H   0  0  0  0  0  0  0  0  0  0  0  0
  152.9305  141.4280  161.9296 H   0  0  0  0  0  0  0  0  0  0  0  0
  154.6254  143.1632  160.0522 H   0  0  0  0  0  0  0  0  0  0  0  0
  155.2251  141.7427  160.8534 H   0  0  0  0  0  0  0  0  0  0  0  0
  153.9078  137.8247  160.2852 H   0  0  0  0  0  0  0  0  0  0  0  0
  155.9710  136.5073  157.0759 H   0  0  0  0  0  0  0  0  0  0  0  0
  156.2225  138.0563  157.8541 H   0  0  0  0  0  0  0  0  0  0  0  0
  154.3769  135.3830  161.4666 H   0  0  0  0  0  0  0  0  0  0  0  0
  155.4661  134.5015  163.5107 H   0  0  0  0  0  0  0  0  0  0  0  0
  157.3411  135.7516  164.5656 H   0  0  0  0  0  0  0  0  0  0  0  0
  158.1237  137.8922  163.5685 H   0  0  0  0  0  0  0  0  0  0  0  0
  157.0428  138.7830  161.5247 H   0  0  0  0  0  0  0  0  0  0  0  0
  151.3566  139.6662  156.1678 H   0  0  0  0  0  0  0  0  0  0  0  0
  149.7795  141.5819  156.0398 H   0  0  0  0  0  0  0  0  0  0  0  0
  150.0423  143.5298  157.5626 H   0  0  0  0  0  0  0  0  0  0  0  0
  151.8955  143.5699  159.2280 H   0  0  0  0  0  0  0  0  0  0  0  0
  1  2  1  0  0  0  0
  1 25  1  0  0  0  0
  1 26  1  0  0  0  0
  1 27  1  0  0  0  0
  2  3  1  0  0  0  0
  3  4  1  0  0  0  0
  3 28  1  0  0  0  0
  3 29  1  0  0  0  0
  4  5  1  0  0  0  0
  4 30  1  0  0  0  0
  4 31  1  0  0  0  0
  5 24  1  0  0  0  0
  5  6  1  0  0  0  0
  6  7  1  0  0  0  0
  6 18  2  0  0  0  0
  7  8  1  0  0  0  0
  8  9  1  0  0  0  0
  8 12  1  0  0  0  0
  8 32  1  0  0  0  0
  9 10  1  0  0  0  0
  9 11  2  0  0  0  0
 10 33  1  0  0  0  0
 10 34  1  0  0  0  0
 12 17  1  0  0  0  0
 12 13  2  0  0  0  0
 13 14  1  0  0  0  0
 13 35  1  0  0  0  0
 14 15  2  0  0  0  0
 14 36  1  0  0  0  0
 15 16  1  0  0  0  0
 15 37  1  0  0  0  0
 16 17  2  0  0  0  0
 16 38  1  0  0  0  0
 17 39  1  0  0  0  0
 18 19  1  0  0  0  0
 19 24  2  0  0  0  0
 19 20  1  0  0  0  0
 20 21  2  0  0  0  0
 20 40  1  0  0  0  0
 21 22  1  0  0  0  0
 21 41  1  0  0  0  0
 22 23  2  0  0  0  0
 22 42  1  0  0  0  0
 23 24  1  0  0  0  0
 23 43  1  0  0  0  0
M  END
> <s_m_source_file>
AV-unprocessed.smi

> <i_m_source_file_index>
525

> <i_lp_mmshare_version>
43012

> <i_f3d_flags>
0

> <s_epik_input>
W2NIXTFbY0hdW2NIXVtjSF1jKGMxMiluKFtDSDJdW0NIMl1PW0NIM10pYyhuMilTW0NASF0oQyg9TylbTkgyXSljM1tjSF1bY0hdW2NIXVtjSF1bY0hdMw==

> <s_epik_cmdline>
J2VwaWtfcHl0aG9uJywgJy1waCcsICc3LjAnLCAnLXRuJywgJzgnLCAnLW1hJywgJzIwMCcsICctbWV0YWxfYmluZGluZycsICctaW1hZScsICc8aW5maWxlLm1hZT4nLCAnLW9tYWUnLCAnPG91dGZpbGUubWFlPic=

> <r_epik_Ionization_Penalty>
0.0706634

> <r_epik_Ionization_Penalty_Charging>
0

> <r_epik_Ionization_Penalty_Neutral>
0.0706634

> <r_epik_State_Penalty>
0.0619781

> <r_epik_Charging_Adjusted_Penalty>
0.0619781

> <i_epik_Tot_Q>
0

> <i_epik_Tot_abs_Q>
0

> <r_epik_Metal_State_Penalty>
0.0552401

> <b_epik_Metal_Only>
0

> <s_lp_Force_Field>
OPLS_2005

> <r_lp_Energy>
10.3034

> <b_lp_Chiralities_Consistent>
1

> <s_lp_Variant>
AV-unprocessed.smi:525-2

> <Gold.Version>
5.8.1

> <Gold.Id.Protein>
6NUR|6NUR_protein|mol2

> <Gold.PLP.Fitness>
54.8308

> <Gold.PLP.PLP>
-50.1655

> <Gold.PLP.part.hbond>
-2.0000

> <Gold.PLP.part.metal>
0.0000

> <Gold.PLP.part.buried>
-1.7117

> <Gold.PLP.part.nonpolar>
-45.2959

> <Gold.PLP.part.repulsive>
0.1598

> <Gold.PLP.ligand.clash>
0.0000

> <Gold.PLP.ligand.torsion>
0.6156

> <Gold.PLP.Chemscore.Hbond>
1.9000

> <Gold.PLP.Chemscore.CHOScore>
0.0000

> <Gold.PLP.Chemscore.Metal>
0.0000

> <Gold.Chemscore.Hbonds>
donor molecule, donor type, donor heavy atom, donor atom, acceptor molecule, acceptor atom, score
      P1  H  7997  8008       L1    18  0.25

> <Gold.PLP.Chemscore.Internal.Correction>
0.1965

> <Gold.Rescore>
     Score         DG    S(hbond)    S(metal)    S(lipo)     H(rot)  DE(clash)    DE(int)     intcor
     15.86     -19.07       1.37        0.00     130.43       2.44       0.78       2.43       ----

> <Gold.Chemscore.Fitness>
15.8567

> <Gold.Chemscore.DG>
-19.0667

> <Gold.Chemscore.ZeroCoef>
-5.4800

> <Gold.Chemscore.Hbond>
1.3690

> <Gold.Chemscore.Metal>
0.0000

> <Gold.Chemscore.Lipo>
130.4255

> <Gold.Chemscore.Internal_Hbond>
0.0000

> <Gold.Chemscore.DEClash>
0.7799

> <Gold.Chemscore.DEInternal>
2.4300

> <Gold.Chemscore.Rot>
2.4396

> <Gold.Chemscore.Internal.Correction>
   9.000000E+99

> <Gold.Chemscore.Hbond.Weighted>
-4.5724

> <Gold.Chemscore.Metal.Weighted>
-0.0000

> <Gold.Chemscore.Lipo.Weighted>
-15.2598

> <Gold.Chemscore.Internal_Hbond.Weighted>
0.0000

> <Gold.Chemscore.DEClash.Weighted>
0.7799

> <Gold.Chemscore.DEInternal.Weighted>
2.4300

> <Gold.Chemscore.Rot.Weighted>
6.2454

> <Gold.Chemscore.Internal.Correction.Weighted>
   9.000000E+99

> <Gold.Protein.RotatedTorsions>
[ 6907 6896 6895 6894 ] final   62.83 input  -60.11 | X-H torsion
[ 7974 7965 7964 7962 ] final  160.01 input  175.53 | X-H torsion
[ 8008 7997 7996 7995 ] final  -93.31 input   59.86 | X-H torsion
[ 10167 10162 10161 10158 ] final   -4.66 input  -65.29 | X-H torsion
[ 10718 10713 10712 10709 ] final  -44.53 input   66.30 | X-H torsion
[ 10763 10752 10751 10750 ] final  170.75 input  -60.55 | X-H torsion
[ 11005 11000 10999 10996 ] final    7.86 input  -57.11 | X-H torsion

> <Gold.Protein.ActiveResidues>
 VAL166  LYS551  ARG553  GLY616  TRP617  ASP618  TYR619  PRO620  LYS621  CYS622 
 ASP623  PHE694  ASN695  SER759  ASP760  ASP761  ALA762  ILE779  LEU786  VAL792 
 PHE793  MET794  SER795  GLU796  ALA797  LYS798  CYS799  TRP800  GLU811  SER814 

> <Gold.Protein.RotatedAtoms>
  152.4204  134.5965  159.9988 H   0  0  0  0  0  0  0  0  0  0  0  0  # atno 6907 bound_to 6896
  151.6117  133.3341  159.3077 H   0  0  0  0  0  0  0  0  0  0  0  0  # atno 6908 bound_to 6896
  150.8092  134.7275  159.6738 H   0  0  0  0  0  0  0  0  0  0  0  0  # atno 6909 bound_to 6896
  144.7759  139.7698  143.6279 H   0  0  0  0  0  0  0  0  0  0  0  0  # atno 7974 bound_to 7965
  154.7340  140.0500  157.0752 H   0  0  0  0  0  0  0  0  0  0  0  0  # atno 8008 bound_to 7997
  155.0264  140.3153  155.4755 H   0  0  0  0  0  0  0  0  0  0  0  0  # atno 8009 bound_to 7997
  156.2848  140.2158  156.5384 H   0  0  0  0  0  0  0  0  0  0  0  0  # atno 8010 bound_to 7997
  140.6936  143.6397  150.8446 H   0  0  0  0  0  0  0  0  0  0  0  0  # atno 10167 bound_to 10162
  156.2376  130.4177  149.8799 H   0  0  0  0  0  0  0  0  0  0  0  0  # atno 10718 bound_to 10713
  154.4021  135.2755  155.2090 H   0  0  0  0  0  0  0  0  0  0  0  0  # atno 10763 bound_to 10752
  154.4111  135.6022  153.5957 H   0  0  0  0  0  0  0  0  0  0  0  0  # atno 10764 bound_to 10752
  152.9831  135.5949  154.4291 H   0  0  0  0  0  0  0  0  0  0  0  0  # atno 10765 bound_to 10752
  140.5434  134.0352  155.7912 H   0  0  0  0  0  0  0  0  0  0  0  0  # atno 11005 bound_to 11000
  146.1938  139.5193  142.9788 LP  0  0  0  0  0  0  0  0  0  0  0  0  # atno 17320 bound_to 7965
  145.6187  141.0326  143.1927 LP  0  0  0  0  0  0  0  0  0  0  0  0  # atno 17321 bound_to 7965
  140.0113  143.5640  152.2838 LP  0  0  0  0  0  0  0  0  0  0  0  0  # atno 17342 bound_to 10162
  139.6364  144.7650  151.2428 LP  0  0  0  0  0  0  0  0  0  0  0  0  # atno 17343 bound_to 10162
  156.6391  130.8697  151.3510 LP  0  0  0  0  0  0  0  0  0  0  0  0  # atno 17370 bound_to 10713
  157.7161  130.9499  150.1262 LP  0  0  0  0  0  0  0  0  0  0  0  0  # atno 17371 bound_to 10713
  141.1214  133.9456  157.2723 LP  0  0  0  0  0  0  0  0  0  0  0  0  # atno 17394 bound_to 11000
  139.9492  135.0178  156.8943 LP  0  0  0  0  0  0  0  0  0  0  0  0  # atno 17395 bound_to 11000

$$$$
