#       Name:                AV-unprocessed.smi:806
#       Creating user name   scv26
#       Creation time:       Fri Mar 27 01:23:51 2020


#       File generated by GOLD software.
#

@<TRIPOS>MOLECULE
AV-unprocessed.smi:806
    49    50     1
SMALL
NO_CHARGES


@<TRIPOS>ATOM
      1 ****         0.2268  -2.2850   1.7389 C.3            1 S1                 0.0000
      2 ****        -0.4403  -1.0905   1.1898 N.am           1 S1                 0.0000
      3 ****         0.1676   0.1305   1.2055 C.2            1 S1                 0.0000
      4 ****        -0.4366   1.1680   0.9279 O.2            1 S1                 0.0000
      5 ****         1.6604   0.2445   1.5871 C.3            1 S1                 0.0000
      6 ****         2.3198   1.4969   1.1772 N.3            1 S1                 0.0000
      7 ****         2.4944   1.5968  -0.2676 C.3            1 S1                 0.0000
      8 ****         3.2022   2.9174  -0.6045 C.3            1 S1                 0.0000
      9 ****         3.4568   3.0408  -2.0268 N.pl3          1 S1                 0.0000
     10 ****         4.6412   2.8442  -2.7052 C.2            1 S1                 0.0000
     11 ****         4.3940   3.0720  -4.0287 C.2            1 S1                 0.0000
     12 ****         3.0115   3.4075  -4.0612 C.2            1 S1                 0.0000
     13 ****         2.4534   3.3881  -2.8615 N.2            1 S1                 0.0000
     14 ****        -1.8299  -1.2665   0.6605 C.3            1 S1                 0.0000
     15 ****        -1.9974  -0.5379  -0.6184 C.1            1 S1                 0.0000
     16 ****        -2.1289   0.0290  -1.6196 N.1            1 S1                 0.0000
     17 ****        -2.1963  -2.7524   0.3545 C.3            1 S1                 0.0000
     18 ****        -3.6476  -2.9152  -0.1330 C.3            1 S1                 0.0000
     19 ****        -4.6342  -2.3569   0.9023 C.3            1 S1                 0.0000
     20 ****        -4.3091  -0.8983   1.2539 C.3            1 S1                 0.0000
     21 ****        -2.8467  -0.7414   1.7104 C.3            1 S1                 0.0000
     22 ****         1.1194  -2.0879   2.3293 H              1 S1                 0.0000
     23 ****         0.5096  -2.9704   0.9396 H              1 S1                 0.0000
     24 ****        -0.4326  -2.8053   2.4322 H              1 S1                 0.0000
     25 ****         1.7330   0.1649   2.6721 H              1 S1                 0.0000
     26 ****         2.2266  -0.5870   1.1655 H              1 S1                 0.0000
     27 ****         3.2208   1.5981   1.6219 H              1 S1                 0.0000
     28 ****         3.0933   0.7557  -0.6199 H              1 S1                 0.0000
     29 ****         1.5356   1.5511  -0.7847 H              1 S1                 0.0000
     30 ****         2.6006   3.7692  -0.2829 H              1 S1                 0.0000
     31 ****         4.1552   2.9855  -0.0776 H              1 S1                 0.0000
     32 ****         5.5504   2.5607  -2.1959 H              1 S1                 0.0000
     33 ****         5.0939   3.0087  -4.8487 H              1 S1                 0.0000
     34 ****         2.4013   3.6625  -4.9151 H              1 S1                 0.0000
     35 ****        -1.5186  -3.1583  -0.3975 H              1 S1                 0.0000
     36 ****        -2.0981  -3.3827   1.2370 H              1 S1                 0.0000
     37 ****        -3.7888  -2.4120  -1.0898 H              1 S1                 0.0000
     38 ****        -3.8607  -3.9696  -0.3113 H              1 S1                 0.0000
     39 ****        -5.6539  -2.4304   0.5234 H              1 S1                 0.0000
     40 ****        -4.5961  -2.9659   1.8063 H              1 S1                 0.0000
     41 ****        -4.4987  -0.2614   0.3893 H              1 S1                 0.0000
     42 ****        -4.9800  -0.5512   2.0403 H              1 S1                 0.0000
     43 ****        -2.7069  -1.2746   2.6518 H              1 S1                 0.0000
     44 ****        -2.6676   0.3104   1.9327 H              1 S1                 0.0000
     45 ****        -1.4049   1.1318   0.6808 LP             1 S1                 0.0000
     46 ****         0.0414   2.0461   0.9498 LP             1 S1                 0.0000
     47 ****         1.7100   2.2329   1.4710 LP             1 S1                 0.0000
     48 ****         1.5020   3.5861  -2.6257 LP             1 S1                 0.0000
     49 ****        -2.2424   0.5185  -2.4841 LP             1 S1                 0.0000
@<TRIPOS>BOND
    1    1    2 1     
    2    1   22 1     
    3    1   23 1     
    4    1   24 1     
    5    2    3 am    
    6    2   14 1     
    7    3    4 2     
    8    3    5 1     
    9    5    6 1     
   10    5   25 1     
   11    5   26 1     
   12    6    7 1     
   13    6   27 1     
   14    7    8 1     
   15    7   28 1     
   16    7   29 1     
   17    8    9 1     
   18    8   30 1     
   19    8   31 1     
   20    9   13 1     
   21    9   10 1     
   22   10   11 2     
   23   10   32 1     
   24   11   12 1     
   25   11   33 1     
   26   12   13 2     
   27   12   34 1     
   28   14   21 1     
   29   14   15 1     
   30   14   17 1     
   31   15   16 3     
   32   17   18 1     
   33   17   35 1     
   34   17   36 1     
   35   18   19 1     
   36   18   37 1     
   37   18   38 1     
   38   19   20 1     
   39   19   39 1     
   40   19   40 1     
   41   20   21 1     
   42   20   41 1     
   43   20   42 1     
   44   21   43 1     
   45   21   44 1     
   46    4   45 1     
   47    4   46 1     
   48    6   47 1     
   49   13   48 1     
   50   16   49 1     
@<TRIPOS>SUBSTRUCTURE
      1 S1             1
@<TRIPOS>SET
LONE_PAIRS      STATIC     ATOMS    <user>   **** ""
5 45 46 47 48 49
DONOR_HYDROGENS      STATIC     ATOMS    <user>   **** ""
1 27
ATOM$BLUE        STATIC     ATOMS    COLORGROUP SYSTEM
5 45 46 47 48 49
ATOM$RED        STATIC     ATOMS    COLORGROUP SYSTEM
1 27
