AV-unprocessed.smi:2535|AV-procd|sdf|9977|dock3
  -GOLD-   2272014 23D 1   1.00000     0.00000
 Structure written by MMmdl.
 26 27  0  0  0  0  0  0  0  0  2 V2000
  149.4006  140.9587  154.9478 C   0  0  0  0  0  0  0  0  0  0  0  0
  150.6197  140.6281  155.6592 N   0  0  0  0  0  0  0  0  0  0  0  0
  151.6525  140.0220  155.0247 N   0  0  0  0  0  0  0  0  0  0  0  0
  152.5886  139.8495  155.9129 N   0  0  0  0  0  0  0  0  0  0  0  0
  152.2036  140.3329  157.1489 N   0  0  0  0  0  0  0  0  0  0  0  0
  150.9823  140.8058  156.9372 C   0  0  0  0  0  0  0  0  0  0  0  0
  150.1223  141.4519  157.9790 C   0  0  0  0  0  0  0  0  0  0  0  0
  150.6376  142.8372  158.4059 C   0  0  1  0  0  0  0  0  0  0  0  0
  151.9298  142.8190  159.2281 C   0  0  0  0  0  0  0  0  0  0  0  0
  152.4867  144.2201  159.0090 C   0  0  0  0  0  0  0  0  0  0  0  0
  152.1163  144.5239  157.5551 C   0  0  0  0  0  0  0  0  0  0  0  0
  150.9281  143.7028  157.2452 N   0  3  0  0  0  0  0  0  0  0  0  0
  148.5572  140.4414  155.4048 H   0  0  0  0  0  0  0  0  0  0  0  0
  149.4734  140.6566  153.9022 H   0  0  0  0  0  0  0  0  0  0  0  0
  149.2277  142.0334  154.9904 H   0  0  0  0  0  0  0  0  0  0  0  0
  149.0980  141.5273  157.6124 H   0  0  0  0  0  0  0  0  0  0  0  0
  150.0869  140.7897  158.8447 H   0  0  0  0  0  0  0  0  0  0  0  0
  149.8672  143.3448  158.9889 H   0  0  0  0  0  0  0  0  0  0  0  0
  151.7612  142.5884  160.2808 H   0  0  0  0  0  0  0  0  0  0  0  0
  152.6278  142.0831  158.8274 H   0  0  0  0  0  0  0  0  0  0  0  0
  151.9854  144.9238  159.6752 H   0  0  0  0  0  0  0  0  0  0  0  0
  153.5590  144.2860  159.1959 H   0  0  0  0  0  0  0  0  0  0  0  0
  151.9205  145.5842  157.3931 H   0  0  0  0  0  0  0  0  0  0  0  0
  152.9243  144.2244  156.8867 H   0  0  0  0  0  0  0  0  0  0  0  0
  151.1359  143.1293  156.4402 H   0  0  0  0  0  0  0  0  0  0  0  0
  150.1303  144.2897  157.0455 H   0  0  0  0  0  0  0  0  0  0  0  0
  1  2  1  0  0  0  0
  1 13  1  0  0  0  0
  1 14  1  0  0  0  0
  1 15  1  0  0  0  0
  2  6  1  0  0  0  0
  2  3  1  0  0  0  0
  3  4  2  0  0  0  0
  4  5  1  0  0  0  0
  5  6  2  0  0  0  0
  6  7  1  0  0  0  0
  7  8  1  0  0  0  0
  7 16  1  0  0  0  0
  7 17  1  0  0  0  0
  8 12  1  0  0  0  0
  8  9  1  0  0  0  0
  8 18  1  0  0  0  0
  9 10  1  0  0  0  0
  9 19  1  0  0  0  0
  9 20  1  0  0  0  0
 10 11  1  0  0  0  0
 10 21  1  0  0  0  0
 10 22  1  0  0  0  0
 11 12  1  0  0  0  0
 11 23  1  0  0  0  0
 11 24  1  0  0  0  0
 12 25  1  0  0  0  0
 12 26  1  0  0  0  0
M  CHG  1  12   1
M  END
> <s_m_source_file>
AV-unprocessed.smi

> <i_m_source_file_index>
2535

> <i_lp_mmshare_version>
43012

> <i_f3d_flags>
0

> <s_epik_input>
W0NIM11uMW5ubmMxW0NIMl1bQ0BASF0yW0NIMl1bQ0gyXVtDSDJdW05IXTI=

> <s_epik_cmdline>
J2VwaWtfcHl0aG9uJywgJy1waCcsICc3LjAnLCAnLXRuJywgJzgnLCAnLW1hJywgJzIwMCcsICctbWV0YWxfYmluZGluZycsICctaW1hZScsICc8aW5maWxlLm1hZT4nLCAnLW9tYWUnLCAnPG91dGZpbGUubWFlPic=

> <r_lp_tautomer_probability>
1

> <r_epik_Ionization_Penalty>
0.000863359

> <r_epik_Ionization_Penalty_Charging>
0.000863359

> <r_epik_Ionization_Penalty_Neutral>
1.80841e-10

> <r_epik_State_Penalty>
0.000557253

> <r_epik_Charging_Adjusted_Penalty>
0.00142061

> <i_epik_Tot_Q>
1

> <i_epik_Tot_abs_Q>
1

> <r_epik_Metal_State_Penalty>
-0

> <b_epik_Metal_Only>
0

> <s_lp_Force_Field>
OPLS_2005

> <r_lp_Energy>
24.3547

> <b_lp_Chiralities_Consistent>
1

> <s_lp_Variant>
AV-unprocessed.smi:2535-2

> <Gold.Version>
5.8.1

> <Gold.Id.Protein>
6NUR|6NUR_protein|mol2

> <Gold.PLP.Fitness>
38.3671

> <Gold.PLP.PLP>
-27.4546

> <Gold.PLP.part.hbond>
-3.5406

> <Gold.PLP.part.metal>
0.0000

> <Gold.PLP.part.buried>
-3.5514

> <Gold.PLP.part.nonpolar>
-20.2914

> <Gold.PLP.part.repulsive>
0.0420

> <Gold.PLP.ligand.clash>
0.0000

> <Gold.PLP.ligand.torsion>
0.1569

> <Gold.PLP.Chemscore.Hbond>
3.7420

> <Gold.PLP.Chemscore.CHOScore>
0.0000

> <Gold.PLP.Chemscore.Metal>
0.0000

> <Gold.Chemscore.Hbonds>
donor molecule, donor type, donor heavy atom, donor atom, acceptor molecule, acceptor atom, score
      L1  H    12    26       P1  8028  1.73
      P1  H  7989  7998       L1     3  1.00
      P1  H  7997  8010       L1     4  1.00

> <Gold.PLP.Chemscore.Internal.Correction>
0.0002

> <Gold.Rescore>
     Score         DG    S(hbond)    S(metal)    S(lipo)     H(rot)  DE(clash)    DE(int)     intcor
     14.23     -14.50       1.63        0.00      59.95       1.34       0.16       0.11       ----

> <Gold.Chemscore.Fitness>
14.2262

> <Gold.Chemscore.DG>
-14.5012

> <Gold.Chemscore.ZeroCoef>
-5.4800

> <Gold.Chemscore.Hbond>
1.6286

> <Gold.Chemscore.Metal>
0.0000

> <Gold.Chemscore.Lipo>
59.9474

> <Gold.Chemscore.Internal_Hbond>
0.0000

> <Gold.Chemscore.DEClash>
0.1638

> <Gold.Chemscore.DEInternal>
0.1113

> <Gold.Chemscore.Rot>
1.3407

> <Gold.Chemscore.Internal.Correction>
   9.000000E+99

> <Gold.Chemscore.Hbonds>
donor molecule, donor type, donor heavy atom, donor atom, acceptor molecule, acceptor atom, score
      L1  H    12    26       P1  8028  0.70
      P1  H  7989  7998       L1     3  0.29
      P1  H  7997  8010       L1     4  0.29

> <Gold.Chemscore.Hbond.Weighted>
-5.4397

> <Gold.Chemscore.Metal.Weighted>
-0.0000

> <Gold.Chemscore.Lipo.Weighted>
-7.0138

> <Gold.Chemscore.Internal_Hbond.Weighted>
0.0000

> <Gold.Chemscore.DEClash.Weighted>
0.1638

> <Gold.Chemscore.DEInternal.Weighted>
0.1113

> <Gold.Chemscore.Rot.Weighted>
3.4323

> <Gold.Chemscore.Internal.Correction.Weighted>
   9.000000E+99

> <Gold.Protein.RotatedTorsions>
[ 6907 6896 6895 6894 ] final   70.87 input  -60.11 | X-H torsion
[ 7974 7965 7964 7962 ] final   59.59 input  175.53 | X-H torsion
[ 8008 7997 7996 7995 ] final  101.46 input   59.86 | X-H torsion
[ 10167 10162 10161 10158 ] final  -31.97 input  -65.29 | X-H torsion
[ 10718 10713 10712 10709 ] final  -97.81 input   66.30 | X-H torsion
[ 10763 10752 10751 10750 ] final  173.85 input  -60.55 | X-H torsion
[ 11005 11000 10999 10996 ] final  -76.84 input  -57.11 | X-H torsion

> <Gold.Protein.ActiveResidues>
 VAL166  LYS551  ARG553  GLY616  TRP617  ASP618  TYR619  PRO620  LYS621  CYS622 
 ASP623  PHE694  ASN695  SER759  ASP760  ASP761  ALA762  ILE779  LEU786  VAL792 
 PHE793  MET794  SER795  GLU796  ALA797  LYS798  CYS799  TRP800  GLU811  SER814 

> <Gold.Protein.RotatedAtoms>
  152.4776  134.4804  159.9663 H   0  0  0  0  0  0  0  0  0  0  0  0  # atno 6907 bound_to 6896
  151.4817  133.3539  159.2847 H   0  0  0  0  0  0  0  0  0  0  0  0  # atno 6908 bound_to 6896
  150.8825  134.8244  159.7296 H   0  0  0  0  0  0  0  0  0  0  0  0  # atno 6909 bound_to 6896
  145.9054  139.3613  143.0567 H   0  0  0  0  0  0  0  0  0  0  0  0  # atno 7974 bound_to 7965
  156.1301  140.3197  155.8337 H   0  0  0  0  0  0  0  0  0  0  0  0  # atno 8008 bound_to 7997
  155.4347  140.0521  157.3033 H   0  0  0  0  0  0  0  0  0  0  0  0  # atno 8009 bound_to 7997
  154.4893  140.2085  155.9597 H   0  0  0  0  0  0  0  0  0  0  0  0  # atno 8010 bound_to 7997
  140.7228  143.3730  151.1742 H   0  0  0  0  0  0  0  0  0  0  0  0  # atno 10167 bound_to 10162
  156.0092  130.5211  150.6430 H   0  0  0  0  0  0  0  0  0  0  0  0  # atno 10718 bound_to 10713
  154.4458  135.2763  155.1816 H   0  0  0  0  0  0  0  0  0  0  0  0  # atno 10763 bound_to 10752
  154.3663  135.6118  153.5720 H   0  0  0  0  0  0  0  0  0  0  0  0  # atno 10764 bound_to 10752
  152.9843  135.5846  154.4794 H   0  0  0  0  0  0  0  0  0  0  0  0  # atno 10765 bound_to 10752
  141.1656  133.6999  156.7730 H   0  0  0  0  0  0  0  0  0  0  0  0  # atno 11005 bound_to 11000
  145.8738  140.9404  143.0636 LP  0  0  0  0  0  0  0  0  0  0  0  0  # atno 17320 bound_to 7965
  144.6739  140.0690  143.7473 LP  0  0  0  0  0  0  0  0  0  0  0  0  # atno 17321 bound_to 7965
  139.7305  143.9080  152.3018 LP  0  0  0  0  0  0  0  0  0  0  0  0  # atno 17342 bound_to 10162
  139.8867  144.6988  150.8816 LP  0  0  0  0  0  0  0  0  0  0  0  0  # atno 17343 bound_to 10162
  157.4206  131.0836  151.1134 LP  0  0  0  0  0  0  0  0  0  0  0  0  # atno 17370 bound_to 10713
  157.1737  130.6279  149.5649 LP  0  0  0  0  0  0  0  0  0  0  0  0  # atno 17371 bound_to 10713
  140.2450  134.8584  157.3611 LP  0  0  0  0  0  0  0  0  0  0  0  0  # atno 17394 bound_to 11000
  140.1758  134.4551  155.7802 LP  0  0  0  0  0  0  0  0  0  0  0  0  # atno 17395 bound_to 11000

$$$$
