AV-unprocessed.smi:1815|AV-procd|sdf|7357|dock6
  -GOLD-   22720 9 13D 1   1.00000     0.00000
 Structure written by MMmdl.
 38 39  0  0  0  0  0  0  0  0  2 V2000
  153.4923  141.3917  160.5044 C   0  0  0  0  0  0  0  0  0  0  0  0
  152.2290  141.5020  159.6443 C   0  0  2  0  0  0  0  0  0  0  0  0
  152.0383  140.2741  158.7361 C   0  0  0  0  0  0  0  0  0  0  0  0
  150.8832  140.4187  157.8609 N   0  0  0  0  0  0  0  0  0  0  0  0
  150.6909  139.2219  157.0411 C   0  0  0  0  0  0  0  0  0  0  0  0
  150.5639  137.8978  157.8207 C   0  0  0  0  0  0  0  0  0  0  0  0
  149.5677  137.9823  158.8847 N   0  0  0  0  0  0  0  0  0  0  0  0
  148.9074  136.9484  159.4251 C   0  0  0  0  0  0  0  0  0  0  0  0
  149.1164  135.8038  159.0162 O   0  0  0  0  0  0  0  0  0  0  0  0
  148.0472  137.3042  160.4065 N   0  5  0  0  0  0  0  0  0  0  0  0
  147.4435  136.3586  161.1444 C   0  0  0  0  0  0  0  0  0  0  0  0
  147.8139  135.0731  161.1263 N   0  0  0  0  0  0  0  0  0  0  0  0
  147.0485  134.2626  161.9666 C   0  0  0  0  0  0  0  0  0  0  0  0
  146.0658  134.9452  162.6331 C   0  0  0  0  0  0  0  0  0  0  0  0
  146.0724  136.6366  162.2225 S   0  0  0  0  0  0  0  0  0  0  0  0
  151.0394  141.6299  157.0596 C   0  0  0  0  0  0  0  0  0  0  0  0
  151.2679  142.8877  157.9214 C   0  0  1  0  0  0  0  0  0  0  0  0
  149.9952  143.3735  158.6355 C   0  0  0  0  0  0  0  0  0  0  0  0
  152.3425  142.6736  158.8383 O   0  0  0  0  0  0  0  0  0  0  0  0
  153.4504  140.5163  161.1528 H   0  0  0  0  0  0  0  0  0  0  0  0
  153.6085  142.2700  161.1395 H   0  0  0  0  0  0  0  0  0  0  0  0
  154.3853  141.3076  159.8846 H   0  0  0  0  0  0  0  0  0  0  0  0
  151.3697  141.6006  160.3084 H   0  0  0  0  0  0  0  0  0  0  0  0
  152.9373  140.1180  158.1374 H   0  0  0  0  0  0  0  0  0  0  0  0
  151.9194  139.3853  159.3570 H   0  0  0  0  0  0  0  0  0  0  0  0
  149.8114  139.3498  156.4086 H   0  0  0  0  0  0  0  0  0  0  0  0
  151.5335  139.1245  156.3552 H   0  0  0  0  0  0  0  0  0  0  0  0
  150.2930  137.0775  157.1571 H   0  0  0  0  0  0  0  0  0  0  0  0
  151.5314  137.6258  158.2450 H   0  0  0  0  0  0  0  0  0  0  0  0
  149.3699  138.9013  159.2523 H   0  0  0  0  0  0  0  0  0  0  0  0
  147.2726  133.2081  162.0276 H   0  0  0  0  0  0  0  0  0  0  0  0
  145.3424  134.5594  163.3352 H   0  0  0  0  0  0  0  0  0  0  0  0
  151.8860  141.5076  156.3824 H   0  0  0  0  0  0  0  0  0  0  0  0
  150.1631  141.7884  156.4321 H   0  0  0  0  0  0  0  0  0  0  0  0
  151.5869  143.6930  157.2592 H   0  0  0  0  0  0  0  0  0  0  0  0
  149.2236  143.6383  157.9123 H   0  0  0  0  0  0  0  0  0  0  0  0
  150.2005  144.2578  159.2386 H   0  0  0  0  0  0  0  0  0  0  0  0
  149.5761  142.6104  159.2912 H   0  0  0  0  0  0  0  0  0  0  0  0
  1  2  1  0  0  0  0
  1 20  1  0  0  0  0
  1 21  1  0  0  0  0
  1 22  1  0  0  0  0
  2 19  1  0  0  0  0
  2  3  1  0  0  0  0
  2 23  1  0  0  0  0
  3  4  1  0  0  0  0
  3 24  1  0  0  0  0
  3 25  1  0  0  0  0
  4  5  1  0  0  0  0
  4 16  1  0  0  0  0
  5  6  1  0  0  0  0
  5 26  1  0  0  0  0
  5 27  1  0  0  0  0
  6  7  1  0  0  0  0
  6 28  1  0  0  0  0
  6 29  1  0  0  0  0
  7  8  1  0  0  0  0
  7 30  1  0  0  0  0
  8  9  2  0  0  0  0
  8 10  1  0  0  0  0
 10 11  1  0  0  0  0
 11 15  1  0  0  0  0
 11 12  2  0  0  0  0
 12 13  1  0  0  0  0
 13 14  2  0  0  0  0
 13 31  1  0  0  0  0
 14 15  1  0  0  0  0
 14 32  1  0  0  0  0
 16 17  1  0  0  0  0
 16 33  1  0  0  0  0
 16 34  1  0  0  0  0
 17 18  1  0  0  0  0
 17 19  1  0  0  0  0
 17 35  1  0  0  0  0
 18 36  1  0  0  0  0
 18 37  1  0  0  0  0
 18 38  1  0  0  0  0
M  CHG  1  10  -1
M  END
> <s_m_source_file>
AV-unprocessed.smi

> <i_m_source_file_index>
1815

> <i_lp_mmshare_version>
43012

> <i_f3d_flags>
0

> <s_epik_input>
W0NIM11bQ0BASF0xW0NIMl1OKFtDSDJdW0NASF0oTzEpW0NIM10pW0NIMl1bQ0gyXVtOSF1DKD1PKVtOSF1jMm5bY0hdW2NIXXMy

> <s_epik_cmdline>
J2VwaWtfcHl0aG9uJywgJy1waCcsICc3LjAnLCAnLXRuJywgJzgnLCAnLW1hJywgJzIwMCcsICctbWV0YWxfYmluZGluZycsICctaW1hZScsICc8aW5maWxlLm1hZT4nLCAnLW9tYWUnLCAnPG91dGZpbGUubWFlPic=

> <r_lp_tautomer_probability>
0.999

> <r_epik_Ionization_Penalty>
7.22374

> <r_epik_Ionization_Penalty_Charging>
5.82415

> <r_epik_Ionization_Penalty_Neutral>
1.39959

> <r_epik_State_Penalty>
6.03347

> <r_epik_Charging_Adjusted_Penalty>
11.8576

> <i_epik_Tot_Q>
-1

> <i_epik_Tot_abs_Q>
1

> <r_epik_Metal_State_Penalty>
2.01024

> <b_epik_Metal_Only>
1

> <s_lp_Force_Field>
OPLS_2005

> <r_lp_Energy>
21.2187

> <b_lp_Chiralities_Consistent>
1

> <s_lp_Variant>
AV-unprocessed.smi:1815-8

> <Gold.Version>
5.8.1

> <Gold.Id.Protein>
6NUR|6NUR_protein|mol2

> <Gold.PLP.Fitness>
44.6711

> <Gold.PLP.PLP>
-33.5977

> <Gold.PLP.part.hbond>
-3.0000

> <Gold.PLP.part.metal>
0.0000

> <Gold.PLP.part.buried>
-5.4839

> <Gold.PLP.part.nonpolar>
-26.1829

> <Gold.PLP.part.repulsive>
0.2188

> <Gold.PLP.ligand.clash>
0.0000

> <Gold.PLP.ligand.torsion>
0.2467

> <Gold.PLP.Chemscore.Hbond>
3.8357

> <Gold.PLP.Chemscore.CHOScore>
0.0000

> <Gold.PLP.Chemscore.Metal>
0.0000

> <Gold.Chemscore.Hbonds>
donor molecule, donor type, donor heavy atom, donor atom, acceptor molecule, acceptor atom, score
      P1  H  6896  6907       L1     9  0.98
      P1  H  6931  6943       L1    10  1.28
      P1  H  6934  6947       L1    10  1.41

> <Gold.PLP.Chemscore.Internal.Correction>
0.0597

> <Gold.Rescore>
     Score         DG    S(hbond)    S(metal)    S(lipo)     H(rot)  DE(clash)    DE(int)     intcor
     14.17     -16.34       1.87        0.00      73.85       1.57       0.19       1.97       ----

> <Gold.Chemscore.Fitness>
14.1711

> <Gold.Chemscore.DG>
-16.3363

> <Gold.Chemscore.ZeroCoef>
-5.4800

> <Gold.Chemscore.Hbond>
1.8651

> <Gold.Chemscore.Metal>
0.0000

> <Gold.Chemscore.Lipo>
73.8453

> <Gold.Chemscore.Internal_Hbond>
0.0000

> <Gold.Chemscore.DEClash>
0.1913

> <Gold.Chemscore.DEInternal>
1.9739

> <Gold.Chemscore.Rot>
1.5676

> <Gold.Chemscore.Internal.Correction>
   9.000000E+99

> <Gold.Chemscore.Hbonds>
donor molecule, donor type, donor heavy atom, donor atom, acceptor molecule, acceptor atom, score
      P1  H  6896  6907       L1     9  0.90
      P1  H  6931  6943       L1    10  0.10
      P1  H  6934  6947       L1    10  0.38

> <Gold.Chemscore.Hbond.Weighted>
-6.2294

> <Gold.Chemscore.Metal.Weighted>
-0.0000

> <Gold.Chemscore.Lipo.Weighted>
-8.6399

> <Gold.Chemscore.Internal_Hbond.Weighted>
0.0000

> <Gold.Chemscore.DEClash.Weighted>
0.1913

> <Gold.Chemscore.DEInternal.Weighted>
1.9739

> <Gold.Chemscore.Rot.Weighted>
4.0130

> <Gold.Chemscore.Internal.Correction.Weighted>
   9.000000E+99

> <Gold.Protein.RotatedTorsions>
[ 6907 6896 6895 6894 ] final  -57.50 input  -60.11 | X-H torsion
[ 7974 7965 7964 7962 ] final  -68.06 input  175.53 | X-H torsion
[ 8008 7997 7996 7995 ] final   98.13 input   59.86 | X-H torsion
[ 10167 10162 10161 10158 ] final  -58.02 input  -65.29 | X-H torsion
[ 10718 10713 10712 10709 ] final  159.82 input   66.30 | X-H torsion
[ 10763 10752 10751 10750 ] final   42.22 input  -60.55 | X-H torsion
[ 11005 11000 10999 10996 ] final -100.49 input  -57.11 | X-H torsion

> <Gold.Protein.ActiveResidues>
 VAL166  LYS551  ARG553  GLY616  TRP617  ASP618  TYR619  PRO620  LYS621  CYS622 
 ASP623  PHE694  ASN695  SER759  ASP760  ASP761  ALA762  ILE779  LEU786  VAL792 
 PHE793  MET794  SER795  GLU796  ALA797  LYS798  CYS799  TRP800  GLU811  SER814 

> <Gold.Protein.RotatedAtoms>
  150.8081  134.7218  159.6662 H   0  0  0  0  0  0  0  0  0  0  0  0  # atno 6907 bound_to 6896
  152.4200  134.5968  159.9999 H   0  0  0  0  0  0  0  0  0  0  0  0  # atno 6908 bound_to 6896
  151.6186  133.3304  159.3119 H   0  0  0  0  0  0  0  0  0  0  0  0  # atno 6909 bound_to 6896
  145.7213  140.9037  143.0629 H   0  0  0  0  0  0  0  0  0  0  0  0  # atno 7974 bound_to 7965
  156.0973  140.3248  155.7895 H   0  0  0  0  0  0  0  0  0  0  0  0  # atno 8008 bound_to 7997
  155.4896  140.0560  157.2973 H   0  0  0  0  0  0  0  0  0  0  0  0  # atno 8009 bound_to 7997
  154.4674  140.1996  156.0097 H   0  0  0  0  0  0  0  0  0  0  0  0  # atno 8010 bound_to 7997
  140.6223  143.2424  151.5450 H   0  0  0  0  0  0  0  0  0  0  0  0  # atno 10167 bound_to 10162
  157.1589  131.0582  151.2242 H   0  0  0  0  0  0  0  0  0  0  0  0  # atno 10718 bound_to 10713
  152.9888  135.6138  154.2915 H   0  0  0  0  0  0  0  0  0  0  0  0  # atno 10763 bound_to 10752
  154.2640  135.2781  155.2768 H   0  0  0  0  0  0  0  0  0  0  0  0  # atno 10764 bound_to 10752
  154.5181  135.5822  153.6716 H   0  0  0  0  0  0  0  0  0  0  0  0  # atno 10765 bound_to 10752
  141.1269  133.8403  157.1109 H   0  0  0  0  0  0  0  0  0  0  0  0  # atno 11005 bound_to 11000
  144.6916  139.9206  143.7467 LP  0  0  0  0  0  0  0  0  0  0  0  0  # atno 17320 bound_to 7965
  146.0623  139.3616  143.0573 LP  0  0  0  0  0  0  0  0  0  0  0  0  # atno 17321 bound_to 7965
  139.5449  144.2547  152.1423 LP  0  0  0  0  0  0  0  0  0  0  0  0  # atno 17342 bound_to 10162
  140.1770  144.4881  150.6548 LP  0  0  0  0  0  0  0  0  0  0  0  0  # atno 17343 bound_to 10162
  157.4151  130.7406  149.6869 LP  0  0  0  0  0  0  0  0  0  0  0  0  # atno 17370 bound_to 10713
  155.9757  130.4085  150.3829 LP  0  0  0  0  0  0  0  0  0  0  0  0  # atno 17371 bound_to 10713
  140.0276  134.9917  157.0716 LP  0  0  0  0  0  0  0  0  0  0  0  0  # atno 17394 bound_to 11000
  140.4338  134.1753  155.7169 LP  0  0  0  0  0  0  0  0  0  0  0  0  # atno 17395 bound_to 11000

$$$$
