AV-unprocessed.smi:1352|AV-procd|sdf|5531|dock3
  -GOLD-   22720 5123D 1   1.00000     0.00000
 Structure written by MMmdl.
 47 48  0  0  0  0  0  0  0  0  2 V2000
  142.6223  137.4322  152.8550 C   0  0  0  0  0  0  0  0  0  0  0  0
  143.8360  136.6175  153.3357 C   0  0  1  0  0  0  0  0  0  0  0  0
  143.9974  135.2820  152.5864 C   0  0  0  0  0  0  0  0  0  0  0  0
  144.5287  135.4917  151.1571 C   0  0  2  0  0  0  0  0  0  0  0  0
  144.7486  134.1518  150.4408 C   0  0  0  0  0  0  0  0  0  0  0  0
  145.8188  136.3339  151.1845 C   0  0  0  0  0  0  0  0  0  0  0  0
  145.6056  137.6306  151.8779 N   0  3  2  0  0  0  0  0  0  0  0  0
  146.7849  138.5262  151.7712 C   0  0  0  0  0  0  0  0  0  0  0  0
  146.4992  139.9384  152.3180 C   0  0  0  0  0  0  0  0  0  0  0  0
  147.6957  140.5465  152.8878 N   0  0  0  0  0  0  0  0  0  0  0  0
  147.8130  140.9706  154.1553 C   0  0  0  0  0  0  0  0  0  0  0  0
  146.8916  140.9115  154.9706 O   0  0  0  0  0  0  0  0  0  0  0  0
  149.1731  141.5688  154.5433 C   0  0  0  0  0  0  0  0  0  0  0  0
  149.6953  141.0497  155.8186 N   0  0  0  0  0  0  0  0  0  0  0  0
  149.1995  141.6342  157.0010 C   0  0  0  0  0  0  0  0  0  0  0  0
  149.6068  141.2337  158.2159 C   0  0  0  0  0  0  0  0  0  0  0  0
  150.5824  140.1725  158.2931 C   0  0  0  0  0  0  0  0  0  0  0  0
  151.0609  139.6041  157.1685 C   0  0  0  0  0  0  0  0  0  0  0  0
  150.6160  140.0366  155.8385 C   0  0  0  0  0  0  0  0  0  0  0  0
  151.0437  139.5204  154.8056 O   0  0  0  0  0  0  0  0  0  0  0  0
  145.1441  137.4311  153.2781 C   0  0  0  0  0  0  0  0  0  0  0  0
  142.7282  137.7519  151.8184 H   0  0  0  0  0  0  0  0  0  0  0  0
  142.4896  138.3282  153.4620 H   0  0  0  0  0  0  0  0  0  0  0  0
  141.7043  136.8488  152.9300 H   0  0  0  0  0  0  0  0  0  0  0  0
  143.6466  136.3786  154.3830 H   0  0  0  0  0  0  0  0  0  0  0  0
  144.6928  134.6481  153.1386 H   0  0  0  0  0  0  0  0  0  0  0  0
  143.0487  134.7439  152.5650 H   0  0  0  0  0  0  0  0  0  0  0  0
  143.7780  136.0407  150.5878 H   0  0  0  0  0  0  0  0  0  0  0  0
  145.4977  133.5459  150.9513 H   0  0  0  0  0  0  0  0  0  0  0  0
  145.0867  134.3051  149.4155 H   0  0  0  0  0  0  0  0  0  0  0  0
  143.8252  133.5733  150.3989 H   0  0  0  0  0  0  0  0  0  0  0  0
  146.6233  135.7856  151.6779 H   0  0  0  0  0  0  0  0  0  0  0  0
  146.1438  136.5187  150.1597 H   0  0  0  0  0  0  0  0  0  0  0  0
  147.6395  138.0771  152.2796 H   0  0  0  0  0  0  0  0  0  0  0  0
  147.0662  138.6169  150.7212 H   0  0  0  0  0  0  0  0  0  0  0  0
  146.0950  140.5788  151.5318 H   0  0  0  0  0  0  0  0  0  0  0  0
  145.7490  139.9068  153.1069 H   0  0  0  0  0  0  0  0  0  0  0  0
  148.4990  140.6348  152.2818 H   0  0  0  0  0  0  0  0  0  0  0  0
  149.8926  141.3844  153.7432 H   0  0  0  0  0  0  0  0  0  0  0  0
  149.0665  142.6534  154.5864 H   0  0  0  0  0  0  0  0  0  0  0  0
  148.4687  142.4167  156.8575 H   0  0  0  0  0  0  0  0  0  0  0  0
  149.2125  141.6908  159.1116 H   0  0  0  0  0  0  0  0  0  0  0  0
  150.9293  139.8318  159.2576 H   0  0  0  0  0  0  0  0  0  0  0  0
  151.7897  138.8110  157.2455 H   0  0  0  0  0  0  0  0  0  0  0  0
  144.9915  138.3887  153.7745 H   0  0  0  0  0  0  0  0  0  0  0  0
  145.9249  136.9143  153.8387 H   0  0  0  0  0  0  0  0  0  0  0  0
  144.8552  138.0907  151.3822 H   0  0  0  0  0  0  0  0  0  0  0  0
  1  2  1  0  0  0  0
  1 22  1  0  0  0  0
  1 23  1  0  0  0  0
  1 24  1  0  0  0  0
  2 21  1  0  0  0  0
  2  3  1  0  0  0  0
  2 25  1  0  0  0  0
  3  4  1  0  0  0  0
  3 26  1  0  0  0  0
  3 27  1  0  0  0  0
  4  5  1  0  0  0  0
  4  6  1  0  0  0  0
  4 28  1  0  0  0  0
  5 29  1  0  0  0  0
  5 30  1  0  0  0  0
  5 31  1  0  0  0  0
  6  7  1  0  0  0  0
  6 32  1  0  0  0  0
  6 33  1  0  0  0  0
  7  8  1  0  0  0  0
  7 21  1  0  0  0  0
  7 47  1  0  0  0  0
  8  9  1  0  0  0  0
  8 34  1  0  0  0  0
  8 35  1  0  0  0  0
  9 10  1  0  0  0  0
  9 36  1  0  0  0  0
  9 37  1  0  0  0  0
 10 11  1  0  0  0  0
 10 38  1  0  0  0  0
 11 12  2  0  0  0  0
 11 13  1  0  0  0  0
 13 14  1  0  0  0  0
 13 39  1  0  0  0  0
 13 40  1  0  0  0  0
 14 19  1  0  0  0  0
 14 15  1  0  0  0  0
 15 16  2  0  0  0  0
 15 41  1  0  0  0  0
 16 17  1  0  0  0  0
 16 42  1  0  0  0  0
 17 18  2  0  0  0  0
 17 43  1  0  0  0  0
 18 19  1  0  0  0  0
 18 44  1  0  0  0  0
 19 20  2  0  0  0  0
 21 45  1  0  0  0  0
 21 46  1  0  0  0  0
M  CHG  1   7   1
M  END
> <s_m_source_file>
AV-unprocessed.smi

> <i_m_source_file_index>
1352

> <i_lp_mmshare_version>
43012

> <i_f3d_flags>
0

> <s_epik_input>
W0NIM11bQ0BASF0xW0NIMl1bQ0BASF0oW0NIM10pW0NIMl1OKFtDSDJdMSlbQ0gyXVtDSDJdW05IXUMoPU8pW0NIMl1uMltjSF1bY0hdW2NIXVtjSF1jMj1P

> <s_epik_cmdline>
J2VwaWtfcHl0aG9uJywgJy1waCcsICc3LjAnLCAnLXRuJywgJzgnLCAnLW1hJywgJzIwMCcsICctbWV0YWxfYmluZGluZycsICctaW1hZScsICc8aW5maWxlLm1hZT4nLCAnLW9tYWUnLCAnPG91dGZpbGUubWFlPic=

> <r_lp_tautomer_probability>
1

> <r_epik_Ionization_Penalty>
0.00156146

> <r_epik_Ionization_Penalty_Charging>
0.00156138

> <r_epik_Ionization_Penalty_Neutral>
8.12891e-08

> <r_epik_State_Penalty>
0.00104868

> <r_epik_Charging_Adjusted_Penalty>
0.00261006

> <i_epik_Tot_Q>
1

> <i_epik_Tot_abs_Q>
1

> <r_epik_Metal_State_Penalty>
-0

> <b_epik_Metal_Only>
0

> <s_lp_Force_Field>
OPLS_2005

> <r_lp_Energy>
27.867

> <b_lp_Chiralities_Consistent>
1

> <s_lp_Variant>
AV-unprocessed.smi:1352-4

> <Gold.Version>
5.8.1

> <Gold.Id.Protein>
6NUR|6NUR_protein|mol2

> <Gold.PLP.Fitness>
46.9868

> <Gold.PLP.PLP>
-36.2904

> <Gold.PLP.part.hbond>
-3.0000

> <Gold.PLP.part.metal>
0.0000

> <Gold.PLP.part.buried>
2.7309

> <Gold.PLP.part.nonpolar>
-35.4413

> <Gold.PLP.part.repulsive>
0.3528

> <Gold.PLP.ligand.clash>
0.0000

> <Gold.PLP.ligand.torsion>
0.6704

> <Gold.PLP.Chemscore.Hbond>
3.0000

> <Gold.PLP.Chemscore.CHOScore>
1.0000

> <Gold.PLP.Chemscore.Metal>
0.0000

> <Gold.Chemscore.Hbonds>
donor molecule, donor type, donor heavy atom, donor atom, acceptor molecule, acceptor atom, score
      L1  H     7    47       P1 10171  1.00
      L1  H    10    38       P1  7957  1.00
      P1  H  7989  7998       L1    20  1.00
      L1  C    15    41       P1  8028  0.73

> <Gold.PLP.Chemscore.Internal.Correction>
0.0371

> <Gold.Rescore>
     Score         DG    S(hbond)    S(metal)    S(lipo)     H(rot)  DE(clash)    DE(int)     intcor
     17.39     -19.41       2.91        0.00      76.10       1.83       1.43       0.59       ----

> <Gold.Chemscore.Fitness>
17.3862

> <Gold.Chemscore.DG>
-19.4072

> <Gold.Chemscore.ZeroCoef>
-5.4800

> <Gold.Chemscore.Hbond>
2.9088

> <Gold.Chemscore.Metal>
0.0000

> <Gold.Chemscore.Lipo>
76.1034

> <Gold.Chemscore.Internal_Hbond>
0.0000

> <Gold.Chemscore.DEClash>
1.4327

> <Gold.Chemscore.DEInternal>
0.5884

> <Gold.Chemscore.Rot>
1.8329

> <Gold.Chemscore.Internal.Correction>
   9.000000E+99

> <Gold.Chemscore.Hbonds>
donor molecule, donor type, donor heavy atom, donor atom, acceptor molecule, acceptor atom, score
      L1  H     7    47       P1 10171  0.98
      L1  H    10    38       P1  7957  0.97
      P1  H  7989  7998       L1    20  0.81

> <Gold.Chemscore.Hbond.Weighted>
-9.7154

> <Gold.Chemscore.Metal.Weighted>
-0.0000

> <Gold.Chemscore.Lipo.Weighted>
-8.9041

> <Gold.Chemscore.Internal_Hbond.Weighted>
0.0000

> <Gold.Chemscore.DEClash.Weighted>
1.4327

> <Gold.Chemscore.DEInternal.Weighted>
0.5884

> <Gold.Chemscore.Rot.Weighted>
4.6922

> <Gold.Chemscore.Internal.Correction.Weighted>
   9.000000E+99

> <Gold.Protein.RotatedTorsions>
[ 6907 6896 6895 6894 ] final -114.89 input  -60.11 | X-H torsion
[ 7974 7965 7964 7962 ] final   71.99 input  175.53 | X-H torsion
[ 8008 7997 7996 7995 ] final  102.99 input   59.86 | X-H torsion
[ 10167 10162 10161 10158 ] final  -41.13 input  -65.29 | X-H torsion
[ 10718 10713 10712 10709 ] final  132.25 input   66.30 | X-H torsion
[ 10763 10752 10751 10750 ] final -132.93 input  -60.55 | X-H torsion
[ 11005 11000 10999 10996 ] final   90.05 input  -57.11 | X-H torsion

> <Gold.Protein.ActiveResidues>
 VAL166  LYS551  ARG553  GLY616  TRP617  ASP618  TYR619  PRO620  LYS621  CYS622 
 ASP623  PHE694  ASN695  SER759  ASP760  ASP761  ALA762  ILE779  LEU786  VAL792 
 PHE793  MET794  SER795  GLU796  ALA797  LYS798  CYS799  TRP800  GLU811  SER814 

> <Gold.Protein.RotatedAtoms>
  150.7936  133.8736  159.3265 H   0  0  0  0  0  0  0  0  0  0  0  0  # atno 6907 bound_to 6896
  151.6567  135.0993  160.0181 H   0  0  0  0  0  0  0  0  0  0  0  0  # atno 6908 bound_to 6896
  152.4015  133.6785  159.6355 H   0  0  0  0  0  0  0  0  0  0  0  0  # atno 6909 bound_to 6896
  145.7589  139.2792  143.1387 H   0  0  0  0  0  0  0  0  0  0  0  0  # atno 7974 bound_to 7965
  156.1443  140.3172  155.8546 H   0  0  0  0  0  0  0  0  0  0  0  0  # atno 8008 bound_to 7997
  155.4094  140.0505  157.3049 H   0  0  0  0  0  0  0  0  0  0  0  0  # atno 8009 bound_to 7997
  154.5003  140.2126  155.9372 H   0  0  0  0  0  0  0  0  0  0  0  0  # atno 8010 bound_to 7997
  140.7012  143.3112  151.3023 H   0  0  0  0  0  0  0  0  0  0  0  0  # atno 10167 bound_to 10162
  157.4889  131.1089  150.9583 H   0  0  0  0  0  0  0  0  0  0  0  0  # atno 10718 bound_to 10713
  154.8738  135.3782  154.4490 H   0  0  0  0  0  0  0  0  0  0  0  0  # atno 10763 bound_to 10752
  153.5168  135.7029  153.5757 H   0  0  0  0  0  0  0  0  0  0  0  0  # atno 10764 bound_to 10752
  153.4022  135.3945  155.1961 H   0  0  0  0  0  0  0  0  0  0  0  0  # atno 10765 bound_to 10752
  139.8863  134.8590  156.3230 H   0  0  0  0  0  0  0  0  0  0  0  0  # atno 11005 bound_to 11000
  146.0283  140.8282  142.9888 LP  0  0  0  0  0  0  0  0  0  0  0  0  # atno 17320 bound_to 7965
  144.6834  140.2731  143.7303 LP  0  0  0  0  0  0  0  0  0  0  0  0  # atno 17321 bound_to 7965
  139.6536  144.0318  152.2644 LP  0  0  0  0  0  0  0  0  0  0  0  0  # atno 17342 bound_to 10162
  139.9862  144.6394  150.7856 LP  0  0  0  0  0  0  0  0  0  0  0  0  # atno 17343 bound_to 10162
  157.0291  130.5704  149.5341 LP  0  0  0  0  0  0  0  0  0  0  0  0  # atno 17370 bound_to 10713
  156.0162  130.5256  150.8141 LP  0  0  0  0  0  0  0  0  0  0  0  0  # atno 17371 bound_to 10713
  140.9774  133.7289  156.0622 LP  0  0  0  0  0  0  0  0  0  0  0  0  # atno 17394 bound_to 11000
  140.7793  134.3744  157.5491 LP  0  0  0  0  0  0  0  0  0  0  0  0  # atno 17395 bound_to 11000

$$$$
