#       Name:                AV-unprocessed.smi:2218
#       Creating user name   scv26
#       Creation time:       Fri Mar 27 12:19:04 2020


#       File generated by GOLD software.
#

@<TRIPOS>MOLECULE
AV-unprocessed.smi:2218
    39    39     1
SMALL
NO_CHARGES


@<TRIPOS>ATOM
      1 ****        -5.0985   2.9834   2.5929 C.3            1 S1                 0.0000
      2 ****        -4.4038   2.2874   1.4733 C.2            1 S1                 0.0000
      3 ****        -3.6969   1.1648   1.6270 N.2            1 S1                 0.0000
      4 ****        -3.1377   0.7116   0.4272 C.2            1 S1                 0.0000
      5 ****        -2.3084  -0.5423   0.4113 C.3            1 S1                 0.0000
      6 ****        -0.8051  -0.2501   0.5121 C.2            1 S1                 0.0000
      7 ****        -0.3743   0.9044   0.5162 O.2            1 S1                 0.0000
      8 ****        -0.0086  -1.3276   0.5824 N.am           1 S1                 0.0000
      9 ****         1.4481  -1.2933   0.6395 C.3            1 S1                 0.0000
     10 ****         2.0583  -1.1245  -0.7612 C.3            1 S1                 0.0000
     11 ****         3.5931  -1.1310  -0.7411 C.3            1 S1                 0.0000
     12 ****         4.1952  -0.9716  -2.1514 C.3            1 S1                 0.0000
     13 ****         5.7286  -1.0251  -2.1660 C.2            1 S1                 0.0000
     14 ****         6.2695  -1.0530  -3.2929 O.co2          1 S1                 0.0000
     15 ****         6.3410  -1.0322  -1.0747 O.co2          1 S1                -1.0000
     16 ****        -3.4436   1.5110  -0.6470 C.2            1 S1                 0.0000
     17 ****        -4.4324   2.8692  -0.1867 S.3            1 S1                 0.0000
     18 ****        -5.1836   2.3267   3.4593 H              1 S1                 0.0000
     19 ****        -6.0997   3.2825   2.2827 H              1 S1                 0.0000
     20 ****        -4.5393   3.8737   2.8810 H              1 S1                 0.0000
     21 ****        -2.5948  -1.2002   1.2328 H              1 S1                 0.0000
     22 ****        -2.4906  -1.1006  -0.5077 H              1 S1                 0.0000
     23 ****        -0.4420  -2.2395   0.5760 H              1 S1                 0.0000
     24 ****         1.7827  -0.4948   1.3041 H              1 S1                 0.0000
     25 ****         1.7899  -2.2290   1.0825 H              1 S1                 0.0000
     26 ****         1.7023  -1.9261  -1.4097 H              1 S1                 0.0000
     27 ****         1.7097  -0.1908  -1.2043 H              1 S1                 0.0000
     28 ****         3.9451  -0.3249  -0.0956 H              1 S1                 0.0000
     29 ****         3.9406  -2.0638  -0.2942 H              1 S1                 0.0000
     30 ****         3.8177  -1.7583  -2.8057 H              1 S1                 0.0000
     31 ****         3.8798  -0.0223  -2.5856 H              1 S1                 0.0000
     32 ****        -3.1415   1.3863  -1.6761 H              1 S1                 0.0000
     33 ****        -3.5800   0.6989   2.5041 LP             1 S1                 0.0000
     34 ****        -1.0085   1.6750   0.4530 LP             1 S1                 0.0000
     35 ****         0.6095   1.0707   0.5827 LP             1 S1                 0.0000
     36 ****         7.2661  -1.0837  -3.3685 LP             1 S1                 0.0000
     37 ****         5.7054  -1.0446  -4.1186 LP             1 S1                 0.0000
     38 ****         7.3405  -1.0621  -1.0624 LP             1 S1                 0.0000
     39 ****         5.8309  -1.0080  -0.2149 LP             1 S1                 0.0000
@<TRIPOS>BOND
    1    1    2 1     
    2    1   18 1     
    3    1   19 1     
    4    1   20 1     
    5    2   17 1     
    6    2    3 2     
    7    3    4 1     
    8    4    5 1     
    9    4   16 2     
   10    5    6 1     
   11    5   21 1     
   12    5   22 1     
   13    6    7 2     
   14    6    8 am    
   15    8    9 1     
   16    8   23 1     
   17    9   10 1     
   18    9   24 1     
   19    9   25 1     
   20   10   11 1     
   21   10   26 1     
   22   10   27 1     
   23   11   12 1     
   24   11   28 1     
   25   11   29 1     
   26   12   13 1     
   27   12   30 1     
   28   12   31 1     
   29   13   14 ar    
   30   13   15 ar    
   31   16   17 1     
   32   16   32 1     
   33    3   33 1     
   34    7   34 1     
   35    7   35 1     
   36   14   36 1     
   37   14   37 1     
   38   15   38 1     
   39   15   39 1     
@<TRIPOS>SUBSTRUCTURE
      1 S1             1
@<TRIPOS>SET
LONE_PAIRS      STATIC     ATOMS    <user>   **** ""
7 33 34 35 36 37 38 39
DONOR_HYDROGENS      STATIC     ATOMS    <user>   **** ""
1 23
ATOM$BLUE        STATIC     ATOMS    COLORGROUP SYSTEM
7 33 34 35 36 37 38 39
ATOM$RED        STATIC     ATOMS    COLORGROUP SYSTEM
1 23
