AV-unprocessed.smi:229|AV-procd|sdf|1748|dock4
  -GOLD-   2262020263D 1   1.00000     0.00000
 Structure written by MMmdl.
 58 62  0  0  0  0  0  0  0  0  1 V2000
  145.4548  133.7562  156.1635 C   0  0  0  0  0  0  0  0  0  0  0  0
  146.3603  134.9486  156.4959 C   0  0  0  0  0  0  0  0  0  0  0  0
  147.6293  134.9934  155.6320 C   0  0  1  0  0  0  0  0  0  0  0  0
  148.5203  136.1962  155.9846 C   0  0  0  0  0  0  0  0  0  0  0  0
  149.7651  136.1325  155.2265 N   0  0  0  0  0  0  0  0  0  0  0  0
  150.5448  137.2418  155.1829 C   0  0  0  0  0  0  0  0  0  0  0  0
  151.6542  137.2647  154.3960 N   0  0  0  0  0  0  0  0  0  0  0  0
  152.4201  138.3583  154.3400 C   0  0  0  0  0  0  0  0  0  0  0  0
  152.2657  139.5186  154.9805 N   0  0  0  0  0  0  0  0  0  0  0  0
  151.1600  139.4993  155.7780 C   0  0  0  0  0  0  0  0  0  0  0  0
  150.2524  138.4139  155.9359 C   0  0  0  0  0  0  0  0  0  0  0  0
  149.2519  138.7622  156.8364 N   0  0  0  0  0  0  0  0  0  0  0  0
  149.5457  139.9858  157.1830 C   0  0  0  0  0  0  0  0  0  0  0  0
  150.6752  140.5061  156.5938 N   0  0  0  0  0  0  0  0  0  0  0  0
  151.2257  141.8346  156.7980 C   0  0  0  0  0  0  0  0  0  0  0  0
  150.4528  142.6302  157.8678 C   0  0  2  0  0  0  0  0  0  0  0  0
  149.1528  142.9534  157.4099 O   0  0  0  0  0  0  0  0  0  0  0  0
  151.1965  143.9022  158.3247 C   0  0  2  0  0  0  0  0  0  0  0  0
  152.5419  143.6746  159.0358 C   0  0  0  0  0  0  0  0  0  0  0  0
  152.3453  144.3252  160.3932 C   0  0  0  0  0  0  0  0  0  0  0  0
  151.2523  145.3494  160.1170 C   0  0  0  0  0  0  0  0  0  0  0  0
  150.3928  144.6664  159.2199 O   0  0  0  0  0  0  0  0  0  0  0  0
  150.4908  134.8855  155.4371 C   0  0  0  0  0  0  0  0  0  0  0  0
  149.5933  133.6693  155.1262 C   0  0  1  0  0  0  0  0  0  0  0  0
  149.3755  133.4157  153.6375 C   0  0  0  0  0  0  0  0  0  0  0  0
  149.0353  131.9336  153.6145 C   0  0  0  0  0  0  0  0  0  0  0  0
  149.9197  131.3697  154.5704 O   0  0  0  0  0  0  0  0  0  0  0  0
  150.2329  132.3420  155.5656 C   0  0  0  0  0  0  0  0  0  0  0  0
  148.3606  133.7851  155.8472 O   0  0  0  0  0  0  0  0  0  0  0  0
  144.5585  133.7651  156.7840 H   0  0  0  0  0  0  0  0  0  0  0  0
  145.9676  132.8095  156.3351 H   0  0  0  0  0  0  0  0  0  0  0  0
  145.1376  133.7810  155.1207 H   0  0  0  0  0  0  0  0  0  0  0  0
  145.7933  135.8692  156.3519 H   0  0  0  0  0  0  0  0  0  0  0  0
  146.6326  134.9176  157.5516 H   0  0  0  0  0  0  0  0  0  0  0  0
  147.3260  135.0690  154.5881 H   0  0  0  0  0  0  0  0  0  0  0  0
  147.9908  137.1236  155.7611 H   0  0  0  0  0  0  0  0  0  0  0  0
  148.7462  136.1984  157.0521 H   0  0  0  0  0  0  0  0  0  0  0  0
  153.2790  138.2950  153.6882 H   0  0  0  0  0  0  0  0  0  0  0  0
  148.9427  140.5467  157.8822 H   0  0  0  0  0  0  0  0  0  0  0  0
  152.2713  141.7294  157.0899 H   0  0  0  0  0  0  0  0  0  0  0  0
  151.2218  142.3648  155.8447 H   0  0  0  0  0  0  0  0  0  0  0  0
  150.3210  141.9908  158.7416 H   0  0  0  0  0  0  0  0  0  0  0  0
  149.2130  143.7084  156.8449 H   0  0  0  0  0  0  0  0  0  0  0  0
  151.3765  144.5304  157.4509 H   0  0  0  0  0  0  0  0  0  0  0  0
  152.8203  142.6243  159.1249 H   0  0  0  0  0  0  0  0  0  0  0  0
  153.3395  144.1784  158.4887 H   0  0  0  0  0  0  0  0  0  0  0  0
  151.9852  143.5859  161.1096 H   0  0  0  0  0  0  0  0  0  0  0  0
  153.2572  144.7704  160.7916 H   0  0  0  0  0  0  0  0  0  0  0  0
  150.7269  145.6609  161.0198 H   0  0  0  0  0  0  0  0  0  0  0  0
  151.6607  146.2361  159.6295 H   0  0  0  0  0  0  0  0  0  0  0  0
  151.3987  134.8401  154.8362 H   0  0  0  0  0  0  0  0  0  0  0  0
  150.8085  134.8499  156.4803 H   0  0  0  0  0  0  0  0  0  0  0  0
  148.6109  134.0337  153.1705 H   0  0  0  0  0  0  0  0  0  0  0  0
  150.3046  133.5803  153.0898 H   0  0  0  0  0  0  0  0  0  0  0  0
  148.0052  131.7690  153.9339 H   0  0  0  0  0  0  0  0  0  0  0  0
  149.1673  131.4836  152.6306 H   0  0  0  0  0  0  0  0  0  0  0  0
  151.3192  132.4241  155.6162 H   0  0  0  0  0  0  0  0  0  0  0  0
  149.8831  132.0211  156.5476 H   0  0  0  0  0  0  0  0  0  0  0  0
  1  2  1  0  0  0  0
  1 30  1  0  0  0  0
  1 31  1  0  0  0  0
  1 32  1  0  0  0  0
  2  3  1  0  0  0  0
  2 33  1  0  0  0  0
  2 34  1  0  0  0  0
  3 29  1  0  0  0  0
  3  4  1  0  0  0  0
  3 35  1  0  0  0  0
  4  5  1  0  0  0  0
  4 36  1  0  0  0  0
  4 37  1  0  0  0  0
  5  6  1  0  0  0  0
  5 23  1  0  0  0  0
  6 11  1  0  0  0  0
  6  7  2  0  0  0  0
  7  8  1  0  0  0  0
  8  9  2  0  0  0  0
  8 38  1  0  0  0  0
  9 10  1  0  0  0  0
 10 14  1  0  0  0  0
 10 11  2  0  0  0  0
 11 12  1  0  0  0  0
 12 13  2  0  0  0  0
 13 14  1  0  0  0  0
 13 39  1  0  0  0  0
 14 15  1  0  0  0  0
 15 16  1  0  0  0  0
 15 40  1  0  0  0  0
 15 41  1  0  0  0  0
 16 17  1  0  0  0  0
 16 18  1  0  0  0  0
 16 42  1  0  0  0  0
 17 43  1  0  0  0  0
 18 22  1  0  0  0  0
 18 19  1  0  0  0  0
 18 44  1  0  0  0  0
 19 20  1  0  0  0  0
 19 45  1  0  0  0  0
 19 46  1  0  0  0  0
 20 21  1  0  0  0  0
 20 47  1  0  0  0  0
 20 48  1  0  0  0  0
 21 22  1  0  0  0  0
 21 49  1  0  0  0  0
 21 50  1  0  0  0  0
 23 24  1  0  0  0  0
 23 51  1  0  0  0  0
 23 52  1  0  0  0  0
 24 28  1  0  0  0  0
 24 25  1  0  0  0  0
 24 29  1  0  0  0  0
 25 26  1  0  0  0  0
 25 53  1  0  0  0  0
 25 54  1  0  0  0  0
 26 27  1  0  0  0  0
 26 55  1  0  0  0  0
 26 56  1  0  0  0  0
 27 28  1  0  0  0  0
 28 57  1  0  0  0  0
 28 58  1  0  0  0  0
M  END
> <s_m_source_file>
AV-unprocessed.smi

> <i_m_source_file_index>
229

> <i_lp_mmshare_version>
43012

> <i_f3d_flags>
0

> <s_epik_input>
W0NIMl0xT1tDSDJdW0NIMl1bQ0BdMTJbQ0gyXU4oW0NIMl1bQ0BIXShPMilbQ0gyXVtDSDNdKWMobltjSF1uMyljKGMzNCluW2NIXW40W0NIMl1bQ0BIXShbT0hdKVtDQEBIXTVbQ0gyXVtDSDJdW0NIMl1PNQ==

> <s_epik_cmdline>
J2VwaWtfcHl0aG9uJywgJy1waCcsICc3LjAnLCAnLXRuJywgJzgnLCAnLW1hJywgJzIwMCcsICctbWV0YWxfYmluZGluZycsICctaW1hZScsICc8aW5maWxlLm1hZT4nLCAnLW9tYWUnLCAnPG91dGZpbGUubWFlPic=

> <r_lp_tautomer_probability>
1

> <r_epik_Ionization_Penalty>
0.00318402

> <r_epik_Ionization_Penalty_Charging>
0

> <r_epik_Ionization_Penalty_Neutral>
0.00318402

> <r_epik_State_Penalty>
0.00215642

> <r_epik_Charging_Adjusted_Penalty>
0.00215642

> <i_epik_Tot_Q>
0

> <i_epik_Tot_abs_Q>
0

> <r_epik_Metal_State_Penalty>
-0

> <b_epik_Metal_Only>
0

> <s_lp_Force_Field>
OPLS_2005

> <r_lp_Energy>
56.2374

> <b_lp_Chiralities_Consistent>
1

> <s_lp_Variant>
AV-unprocessed.smi:229-2

> <Gold.Version>
5.8.1

> <Gold.Id.Protein>
6NUR|6NUR_protein|mol2

> <Gold.PLP.Fitness>
53.0966

> <Gold.PLP.PLP>
-44.9724

> <Gold.PLP.part.hbond>
-3.2160

> <Gold.PLP.part.metal>
0.0000

> <Gold.PLP.part.buried>
-8.6040

> <Gold.PLP.part.nonpolar>
-33.6458

> <Gold.PLP.part.repulsive>
0.5199

> <Gold.PLP.ligand.clash>
0.0000

> <Gold.PLP.ligand.torsion>
0.2781

> <Gold.PLP.Chemscore.Hbond>
2.7930

> <Gold.PLP.Chemscore.CHOScore>
0.0000

> <Gold.PLP.Chemscore.Metal>
0.0000

> <Gold.Chemscore.Hbonds>
donor molecule, donor type, donor heavy atom, donor atom, acceptor molecule, acceptor atom, score
      L1  H    17    43       P1  8028  1.00
      P1  H  7989  7998       L1     9  0.68
      P1  H 10752 10764       L1     7  0.93

> <Gold.PLP.Chemscore.Internal.Correction>
0.3014

> <Gold.Rescore>
     Score         DG    S(hbond)    S(metal)    S(lipo)     H(rot)  DE(clash)    DE(int)     intcor
     14.16     -16.80       1.83        0.00      98.20       2.46       0.20       2.43       ----

> <Gold.Chemscore.Fitness>
14.1648

> <Gold.Chemscore.DG>
-16.7993

> <Gold.Chemscore.ZeroCoef>
-5.4800

> <Gold.Chemscore.Hbond>
1.8338

> <Gold.Chemscore.Metal>
0.0000

> <Gold.Chemscore.Lipo>
98.2040

> <Gold.Chemscore.Internal_Hbond>
0.0000

> <Gold.Chemscore.DEClash>
0.2013

> <Gold.Chemscore.DEInternal>
2.4331

> <Gold.Chemscore.Rot>
2.4591

> <Gold.Chemscore.Internal.Correction>
   9.000000E+99

> <Gold.Chemscore.Hbonds>
donor molecule, donor type, donor heavy atom, donor atom, acceptor molecule, acceptor atom, score
      L1  H    17    43       P1  8028  0.80
      P1  H  7989  7998       L1     9  0.09
      P1  H 10752 10764       L1     7  0.43

> <Gold.Chemscore.Hbond.Weighted>
-6.1247

> <Gold.Chemscore.Metal.Weighted>
-0.0000

> <Gold.Chemscore.Lipo.Weighted>
-11.4899

> <Gold.Chemscore.Internal_Hbond.Weighted>
0.0000

> <Gold.Chemscore.DEClash.Weighted>
0.2013

> <Gold.Chemscore.DEInternal.Weighted>
2.4331

> <Gold.Chemscore.Rot.Weighted>
6.2953

> <Gold.Chemscore.Internal.Correction.Weighted>
   9.000000E+99

> <Gold.Protein.RotatedTorsions>
[ 6907 6896 6895 6894 ] final -177.66 input  -60.11 | X-H torsion
[ 7974 7965 7964 7962 ] final -101.86 input  175.53 | X-H torsion
[ 8008 7997 7996 7995 ] final  -68.12 input   59.86 | X-H torsion
[ 10167 10162 10161 10158 ] final  -81.13 input  -65.29 | X-H torsion
[ 10718 10713 10712 10709 ] final  -52.04 input   66.30 | X-H torsion
[ 10763 10752 10751 10750 ] final  -80.33 input  -60.55 | X-H torsion
[ 11005 11000 10999 10996 ] final  144.29 input  -57.11 | X-H torsion

> <Gold.Protein.ActiveResidues>
 VAL166  LYS551  ARG553  GLY616  TRP617  ASP618  TYR619  PRO620  LYS621  CYS622 
 ASP623  PHE694  ASN695  SER759  ASP760  ASP761  ALA762  ILE779  LEU786  VAL792 
 PHE793  MET794  SER795  GLU796  ALA797  LYS798  CYS799  TRP800  GLU811  SER814 

> <Gold.Protein.RotatedAtoms>
  151.6246  133.3336  159.3095 H   0  0  0  0  0  0  0  0  0  0  0  0  # atno 6907 bound_to 6896
  150.8088  134.7234  159.6680 H   0  0  0  0  0  0  0  0  0  0  0  0  # atno 6908 bound_to 6896
  152.4184  134.6004  160.0050 H   0  0  0  0  0  0  0  0  0  0  0  0  # atno 6909 bound_to 6896
  145.2761  140.9313  143.2958 H   0  0  0  0  0  0  0  0  0  0  0  0  # atno 7974 bound_to 7965
  154.4846  140.0879  156.7456 H   0  0  0  0  0  0  0  0  0  0  0  0  # atno 8008 bound_to 7997
  155.4384  140.3452  155.4269 H   0  0  0  0  0  0  0  0  0  0  0  0  # atno 8009 bound_to 7997
  156.1242  140.1483  156.9149 H   0  0  0  0  0  0  0  0  0  0  0  0  # atno 8010 bound_to 7997
  140.4440  143.2505  151.8585 H   0  0  0  0  0  0  0  0  0  0  0  0  # atno 10167 bound_to 10162
  156.1657  130.4149  149.9724 H   0  0  0  0  0  0  0  0  0  0  0  0  # atno 10718 bound_to 10713
  154.5499  135.5665  153.6912 H   0  0  0  0  0  0  0  0  0  0  0  0  # atno 10763 bound_to 10752
  152.9986  135.6248  154.2389 H   0  0  0  0  0  0  0  0  0  0  0  0  # atno 10764 bound_to 10752
  154.2323  135.2865  155.2865 H   0  0  0  0  0  0  0  0  0  0  0  0  # atno 10765 bound_to 10752
  140.0620  134.9199  157.1201 H   0  0  0  0  0  0  0  0  0  0  0  0  # atno 11005 bound_to 11000
  144.9293  139.4318  143.6503 LP  0  0  0  0  0  0  0  0  0  0  0  0  # atno 17320 bound_to 7965
  146.3231  139.8195  142.8929 LP  0  0  0  0  0  0  0  0  0  0  0  0  # atno 17321 bound_to 7965
  139.4791  144.5197  151.8819 LP  0  0  0  0  0  0  0  0  0  0  0  0  # atno 17342 bound_to 10162
  140.4285  144.2147  150.5887 LP  0  0  0  0  0  0  0  0  0  0  0  0  # atno 17343 bound_to 10162
  156.7540  130.9126  151.3638 LP  0  0  0  0  0  0  0  0  0  0  0  0  # atno 17370 bound_to 10713
  157.6766  130.9100  150.0164 LP  0  0  0  0  0  0  0  0  0  0  0  0  # atno 17371 bound_to 10713
  140.3755  134.2343  155.7174 LP  0  0  0  0  0  0  0  0  0  0  0  0  # atno 17394 bound_to 11000
  141.1977  133.8052  157.0615 LP  0  0  0  0  0  0  0  0  0  0  0  0  # atno 17395 bound_to 11000

$$$$
