AV-unprocessed.smi:3139|AV-procd|sdf|11956|dock1
  -GOLD-   2272017353D 1   1.00000     0.00000
 Structure written by MMmdl.
 33 33  0  0  0  0  0  0  0  0  2 V2000
  151.8619  145.0576  158.9129 C   0  0  0  0  0  0  0  0  0  0  0  0
  152.3880  143.6149  158.7636 C   0  0  2  0  0  0  0  0  0  0  0  0
  151.4297  142.7040  157.9783 C   0  0  0  0  0  0  0  0  0  0  0  0
  151.0153  143.0334  156.8659 O   0  0  0  0  0  0  0  0  0  0  0  0
  151.0983  141.5468  158.5726 N   0  0  0  0  0  0  0  0  0  0  0  0
  150.2345  140.5082  158.0106 C   0  0  0  0  0  0  0  0  0  0  0  0
  151.0149  139.3364  157.3483 C   0  0  0  0  0  0  0  0  0  0  0  0
  152.1811  138.9208  158.2679 C   0  0  0  0  0  0  0  0  0  0  0  0
  150.0744  138.1221  157.1525 C   0  0  0  0  0  0  0  0  0  0  0  0
  151.6139  139.7816  155.9881 C   0  0  0  0  0  0  0  0  0  0  0  0
  150.8446  140.2411  155.1143 O   0  0  0  0  0  0  0  0  0  0  0  0
  152.8489  139.6448  155.8378 O   0  5  0  0  0  0  0  0  0  0  0  0
  152.7257  143.0143  160.0497 N   0  0  0  0  0  0  0  0  0  0  0  0
  152.4854  143.5225  161.3105 C   0  0  0  0  0  0  0  0  0  0  0  0
  153.0090  142.6440  162.2151 C   0  0  0  0  0  0  0  0  0  0  0  0
  153.5704  141.6194  161.4038 C   0  0  0  0  0  0  0  0  0  0  0  0
  153.4074  141.8463  160.1109 N   0  0  0  0  0  0  0  0  0  0  0  0
  151.6811  145.5117  157.9379 H   0  0  0  0  0  0  0  0  0  0  0  0
  152.5868  145.6836  159.4339 H   0  0  0  0  0  0  0  0  0  0  0  0
  150.9273  145.0979  159.4740 H   0  0  0  0  0  0  0  0  0  0  0  0
  153.3124  143.6713  158.1862 H   0  0  0  0  0  0  0  0  0  0  0  0
  151.4949  141.3524  159.4808 H   0  0  0  0  0  0  0  0  0  0  0  0
  149.6229  140.1294  158.8306 H   0  0  0  0  0  0  0  0  0  0  0  0
  149.5251  140.9349  157.2997 H   0  0  0  0  0  0  0  0  0  0  0  0
  151.8145  138.5748  159.2349 H   0  0  0  0  0  0  0  0  0  0  0  0
  152.8624  139.7515  158.4581 H   0  0  0  0  0  0  0  0  0  0  0  0
  152.7658  138.1098  157.8315 H   0  0  0  0  0  0  0  0  0  0  0  0
  149.6154  137.8268  158.0964 H   0  0  0  0  0  0  0  0  0  0  0  0
  150.6105  137.2524  156.7704 H   0  0  0  0  0  0  0  0  0  0  0  0
  149.2650  138.3419  156.4553 H   0  0  0  0  0  0  0  0  0  0  0  0
  151.9677  144.4591  161.4571 H   0  0  0  0  0  0  0  0  0  0  0  0
  152.9981  142.7246  163.2918 H   0  0  0  0  0  0  0  0  0  0  0  0
  154.0917  140.7256  161.7135 H   0  0  0  0  0  0  0  0  0  0  0  0
  1  2  1  0  0  0  0
  1 18  1  0  0  0  0
  1 19  1  0  0  0  0
  1 20  1  0  0  0  0
  2  3  1  0  0  0  0
  2 13  1  0  0  0  0
  2 21  1  0  0  0  0
  3  4  2  0  0  0  0
  3  5  1  0  0  0  0
  5  6  1  0  0  0  0
  5 22  1  0  0  0  0
  6  7  1  0  0  0  0
  6 23  1  0  0  0  0
  6 24  1  0  0  0  0
  7  8  1  0  0  0  0
  7  9  1  0  0  0  0
  7 10  1  0  0  0  0
  8 25  1  0  0  0  0
  8 26  1  0  0  0  0
  8 27  1  0  0  0  0
  9 28  1  0  0  0  0
  9 29  1  0  0  0  0
  9 30  1  0  0  0  0
 10 11  2  0  0  0  0
 10 12  1  0  0  0  0
 13 17  1  0  0  0  0
 13 14  1  0  0  0  0
 14 15  2  0  0  0  0
 14 31  1  0  0  0  0
 15 16  1  0  0  0  0
 15 32  1  0  0  0  0
 16 17  2  0  0  0  0
 16 33  1  0  0  0  0
M  CHG  1  12  -1
M  END
> <s_m_source_file>
AV-unprocessed.smi

> <i_m_source_file_index>
3139

> <i_lp_mmshare_version>
43012

> <i_f3d_flags>
0

> <s_epik_input>
bjFbY0hdW2NIXVtjSF1uMVtDQEhdKFtDSDNdKUMoPU8pW05IXVtDSDJdQyhbQ0gzXSkoW0NIM10pQyg9TylbT0hd

> <s_epik_cmdline>
J2VwaWtfcHl0aG9uJywgJy1waCcsICc3LjAnLCAnLXRuJywgJzgnLCAnLW1hJywgJzIwMCcsICctbWV0YWxfYmluZGluZycsICctaW1hZScsICc8aW5maWxlLm1hZT4nLCAnLW9tYWUnLCAnPG91dGZpbGUubWFlPic=

> <r_lp_tautomer_probability>
1

> <r_epik_Ionization_Penalty>
0.00184643

> <r_epik_Ionization_Penalty_Charging>
0.00181045

> <r_epik_Ionization_Penalty_Neutral>
3.59763e-05

> <r_epik_State_Penalty>
0.00122842

> <r_epik_Charging_Adjusted_Penalty>
0.00303887

> <i_epik_Tot_Q>
-1

> <i_epik_Tot_abs_Q>
1

> <r_epik_Metal_State_Penalty>
-0

> <b_epik_Metal_Only>
0

> <s_lp_Force_Field>
OPLS_2005

> <r_lp_Energy>
5.55707

> <b_lp_Chiralities_Consistent>
1

> <s_lp_Variant>
AV-unprocessed.smi:3139-1

> <Gold.Version>
5.8.1

> <Gold.Id.Protein>
6NUR|6NUR_protein|mol2

> <Gold.PLP.Fitness>
45.9929

> <Gold.PLP.PLP>
-37.9051

> <Gold.PLP.part.hbond>
-2.0000

> <Gold.PLP.part.metal>
0.0000

> <Gold.PLP.part.buried>
-6.5152

> <Gold.PLP.part.nonpolar>
-30.3478

> <Gold.PLP.part.repulsive>
0.9370

> <Gold.PLP.ligand.clash>
0.0000

> <Gold.PLP.ligand.torsion>
0.5486

> <Gold.PLP.Chemscore.Hbond>
3.0000

> <Gold.PLP.Chemscore.CHOScore>
0.0000

> <Gold.PLP.Chemscore.Metal>
0.0000

> <Gold.Chemscore.Hbonds>
donor molecule, donor type, donor heavy atom, donor atom, acceptor molecule, acceptor atom, score
      P1  H  7989  7998       L1    11  1.00
      P1  H  7997  8010       L1    12  2.00

> <Gold.PLP.Chemscore.Internal.Correction>
0.1850

> <Gold.Rescore>
     Score         DG    S(hbond)    S(metal)    S(lipo)     H(rot)  DE(clash)    DE(int)     intcor
     13.08     -15.15       1.97        0.00      77.21       2.32       0.14       1.93       ----

> <Gold.Chemscore.Fitness>
13.0815

> <Gold.Chemscore.DG>
-15.1518

> <Gold.Chemscore.ZeroCoef>
-5.4800

> <Gold.Chemscore.Hbond>
1.9724

> <Gold.Chemscore.Metal>
0.0000

> <Gold.Chemscore.Lipo>
77.2115

> <Gold.Chemscore.Internal_Hbond>
0.0000

> <Gold.Chemscore.DEClash>
0.1372

> <Gold.Chemscore.DEInternal>
1.9331

> <Gold.Chemscore.Rot>
2.3241

> <Gold.Chemscore.Internal.Correction>
   9.000000E+99

> <Gold.Chemscore.Hbonds>
donor molecule, donor type, donor heavy atom, donor atom, acceptor molecule, acceptor atom, score
      P1  H  7989  7998       L1    11  0.93
      P1  H  7997  8010       L1    12  0.99

> <Gold.Chemscore.Hbond.Weighted>
-6.5878

> <Gold.Chemscore.Metal.Weighted>
-0.0000

> <Gold.Chemscore.Lipo.Weighted>
-9.0337

> <Gold.Chemscore.Internal_Hbond.Weighted>
0.0000

> <Gold.Chemscore.DEClash.Weighted>
0.1372

> <Gold.Chemscore.DEInternal.Weighted>
1.9331

> <Gold.Chemscore.Rot.Weighted>
5.9498

> <Gold.Chemscore.Internal.Correction.Weighted>
   9.000000E+99

> <Gold.Protein.RotatedTorsions>
[ 6907 6896 6895 6894 ] final  -91.15 input  -60.11 | X-H torsion
[ 7974 7965 7964 7962 ] final  -81.80 input  175.53 | X-H torsion
[ 8008 7997 7996 7995 ] final   90.59 input   59.86 | X-H torsion
[ 10167 10162 10161 10158 ] final  -92.86 input  -65.29 | X-H torsion
[ 10718 10713 10712 10709 ] final  152.12 input   66.30 | X-H torsion
[ 10763 10752 10751 10750 ] final  109.46 input  -60.55 | X-H torsion
[ 11005 11000 10999 10996 ] final   65.95 input  -57.11 | X-H torsion

> <Gold.Protein.ActiveResidues>
 VAL166  LYS551  ARG553  GLY616  TRP617  ASP618  TYR619  PRO620  LYS621  CYS622 
 ASP623  PHE694  ASN695  SER759  ASP760  ASP761  ALA762  ILE779  LEU786  VAL792 
 PHE793  MET794  SER795  GLU796  ALA797  LYS798  CYS799  TRP800  GLU811  SER814 

> <Gold.Protein.RotatedAtoms>
  150.6889  134.2322  159.4438 H   0  0  0  0  0  0  0  0  0  0  0  0  # atno 6907 bound_to 6896
  152.0272  134.9786  160.0581 H   0  0  0  0  0  0  0  0  0  0  0  0  # atno 6908 bound_to 6896
  152.1340  133.4390  159.4771 H   0  0  0  0  0  0  0  0  0  0  0  0  # atno 6909 bound_to 6896
  145.5418  140.9508  143.1547 H   0  0  0  0  0  0  0  0  0  0  0  0  # atno 7974 bound_to 7965
  156.0137  140.3347  155.6967 H   0  0  0  0  0  0  0  0  0  0  0  0  # atno 8008 bound_to 7997
  155.6121  140.0666  157.2721 H   0  0  0  0  0  0  0  0  0  0  0  0  # atno 8009 bound_to 7997
  154.4290  140.1791  156.1271 H   0  0  0  0  0  0  0  0  0  0  0  0  # atno 8010 bound_to 7997
  140.3306  143.2997  151.9946 H   0  0  0  0  0  0  0  0  0  0  0  0  # atno 10167 bound_to 10162
  157.2619  131.0800  151.1660 H   0  0  0  0  0  0  0  0  0  0  0  0  # atno 10718 bound_to 10713
  153.4351  135.3779  155.2194 H   0  0  0  0  0  0  0  0  0  0  0  0  # atno 10763 bound_to 10752
  154.8752  135.3849  154.4220 H   0  0  0  0  0  0  0  0  0  0  0  0  # atno 10764 bound_to 10752
  153.4758  135.7087  153.6030 H   0  0  0  0  0  0  0  0  0  0  0  0  # atno 10765 bound_to 10752
  139.9862  134.6664  156.0172 H   0  0  0  0  0  0  0  0  0  0  0  0  # atno 11005 bound_to 11000
  144.7573  139.7042  143.7249 LP  0  0  0  0  0  0  0  0  0  0  0  0  # atno 17320 bound_to 7965
  146.1976  139.5251  142.9764 LP  0  0  0  0  0  0  0  0  0  0  0  0  # atno 17321 bound_to 7965
  139.4857  144.6238  151.7204 LP  0  0  0  0  0  0  0  0  0  0  0  0  # atno 17342 bound_to 10162
  140.5401  144.0593  150.6085 LP  0  0  0  0  0  0  0  0  0  0  0  0  # atno 17343 bound_to 10162
  157.3166  130.6916  149.6245 LP  0  0  0  0  0  0  0  0  0  0  0  0  # atno 17370 bound_to 10713
  155.9664  130.4347  150.5063 LP  0  0  0  0  0  0  0  0  0  0  0  0  # atno 17371 bound_to 10713
  141.1526  133.6546  156.4062 LP  0  0  0  0  0  0  0  0  0  0  0  0  # atno 17394 bound_to 11000
  140.4998  134.6496  157.5244 LP  0  0  0  0  0  0  0  0  0  0  0  0  # atno 17395 bound_to 11000

$$$$
