AV-unprocessed.smi:639|AV-procd|sdf|3148|dock9
  -GOLD-   22720 0 73D 1   1.00000     0.00000
 Structure written by MMmdl.
 23 24  0  0  0  0  0  0  0  0  2 V2000
  152.1749  145.2485  158.9164 C   0  0  0  0  0  0  0  0  0  0  0  0
  152.0757  143.8352  158.6222 N   0  0  0  0  0  0  0  0  0  0  0  0
  151.5663  143.2241  157.4974 C   0  0  0  0  0  0  0  0  0  0  0  0
  151.6808  141.8706  157.6684 C   0  0  0  0  0  0  0  0  0  0  0  0
  151.2682  140.7411  156.7405 C   0  0  1  0  0  0  0  0  0  0  0  0
  150.6313  141.2883  155.4482 C   0  0  0  0  0  0  0  0  0  0  0  0
  152.3721  139.8516  156.4074 N   0  5  0  0  0  0  0  0  0  0  0  0
  152.1024  138.6181  156.8972 C   0  0  0  0  0  0  0  0  0  0  0  0
  152.8016  137.6101  156.8243 O   0  0  0  0  0  0  0  0  0  0  0  0
  150.9144  138.6033  157.5090 N   0  0  0  0  0  0  0  0  0  0  0  0
  150.3230  139.7932  157.4658 C   0  0  0  0  0  0  0  0  0  0  0  0
  149.2173  140.0902  157.9179 O   0  0  0  0  0  0  0  0  0  0  0  0
  152.2819  141.7639  158.9581 C   0  0  0  0  0  0  0  0  0  0  0  0
  152.5187  142.9364  159.5233 N   0  0  0  0  0  0  0  0  0  0  0  0
  151.7857  145.8322  158.0816 H   0  0  0  0  0  0  0  0  0  0  0  0
  153.2178  145.5193  159.0827 H   0  0  0  0  0  0  0  0  0  0  0  0
  151.5959  145.4803  159.8109 H   0  0  0  0  0  0  0  0  0  0  0  0
  151.1658  143.7957  156.6729 H   0  0  0  0  0  0  0  0  0  0  0  0
  149.7552  141.9016  155.6624 H   0  0  0  0  0  0  0  0  0  0  0  0
  150.3123  140.4844  154.7830 H   0  0  0  0  0  0  0  0  0  0  0  0
  151.3376  141.9094  154.8959 H   0  0  0  0  0  0  0  0  0  0  0  0
  150.5108  137.7846  157.9387 H   0  0  0  0  0  0  0  0  0  0  0  0
  152.5531  140.8674  159.4958 H   0  0  0  0  0  0  0  0  0  0  0  0
  1  2  1  0  0  0  0
  1 15  1  0  0  0  0
  1 16  1  0  0  0  0
  1 17  1  0  0  0  0
  2 14  1  0  0  0  0
  2  3  1  0  0  0  0
  3  4  2  0  0  0  0
  3 18  1  0  0  0  0
  4  5  1  0  0  0  0
  4 13  1  0  0  0  0
  5 11  1  0  0  0  0
  5  6  1  0  0  0  0
  5  7  1  0  0  0  0
  6 19  1  0  0  0  0
  6 20  1  0  0  0  0
  6 21  1  0  0  0  0
  7  8  1  0  0  0  0
  8  9  2  0  0  0  0
  8 10  1  0  0  0  0
 10 11  1  0  0  0  0
 10 22  1  0  0  0  0
 11 12  2  0  0  0  0
 13 14  2  0  0  0  0
 13 23  1  0  0  0  0
M  CHG  1   7  -1
M  END
> <s_m_source_file>
AV-unprocessed.smi

> <i_m_source_file_index>
639

> <i_lp_mmshare_version>
43012

> <i_f3d_flags>
0

> <s_epik_input>
W0NIM11uMVtjSF1jKFtjSF1uMSlbQ0BAXTIoW0NIM10pW05IXUMoPU8pW05IXUMyPU8=

> <s_epik_cmdline>
J2VwaWtfcHl0aG9uJywgJy1waCcsICc3LjAnLCAnLXRuJywgJzgnLCAnLW1hJywgJzIwMCcsICctbWV0YWxfYmluZGluZycsICctaW1hZScsICc8aW5maWxlLm1hZT4nLCAnLW9tYWUnLCAnPG91dGZpbGUubWFlPic=

> <r_lp_tautomer_probability>
1

> <r_epik_Ionization_Penalty>
4.83415

> <r_epik_Ionization_Penalty_Charging>
4.8337

> <r_epik_Ionization_Penalty_Neutral>
0.000449923

> <r_epik_State_Penalty>
4.85653

> <r_epik_Charging_Adjusted_Penalty>
9.69023

> <i_epik_Tot_Q>
-1

> <i_epik_Tot_abs_Q>
1

> <r_epik_Metal_State_Penalty>
1.31841

> <b_epik_Metal_Only>
1

> <s_lp_Force_Field>
OPLS_2005

> <r_lp_Energy>
8.78459

> <b_lp_Chiralities_Consistent>
1

> <s_lp_Variant>
AV-unprocessed.smi:639-5

> <Gold.Version>
5.8.1

> <Gold.Id.Protein>
6NUR|6NUR_protein|mol2

> <Gold.PLP.Fitness>
33.9607

> <Gold.PLP.PLP>
-24.9630

> <Gold.PLP.part.hbond>
-1.0000

> <Gold.PLP.part.metal>
0.0000

> <Gold.PLP.part.buried>
-3.8018

> <Gold.PLP.part.nonpolar>
-19.7048

> <Gold.PLP.part.repulsive>
0.0298

> <Gold.PLP.ligand.clash>
0.0000

> <Gold.PLP.ligand.torsion>
0.0301

> <Gold.PLP.Chemscore.Hbond>
2.0000

> <Gold.PLP.Chemscore.CHOScore>
1.0000

> <Gold.PLP.Chemscore.Metal>
0.0000

> <Gold.Chemscore.Hbonds>
donor molecule, donor type, donor heavy atom, donor atom, acceptor molecule, acceptor atom, score
      P1  H  7997  8010       L1     7  1.87
      L1  C     3    18       P1  8028  0.73

> <Gold.PLP.Chemscore.Internal.Correction>
0.0579

> <Gold.Rescore>
     Score         DG    S(hbond)    S(metal)    S(lipo)     H(rot)  DE(clash)    DE(int)     intcor
     12.28     -12.31       0.92        0.00      54.06       1.00       0.01       0.03       ----

> <Gold.Chemscore.Fitness>
12.2769

> <Gold.Chemscore.DG>
-12.3141

> <Gold.Chemscore.ZeroCoef>
-5.4800

> <Gold.Chemscore.Hbond>
0.9190

> <Gold.Chemscore.Metal>
0.0000

> <Gold.Chemscore.Lipo>
54.0572

> <Gold.Chemscore.Internal_Hbond>
0.0000

> <Gold.Chemscore.DEClash>
0.0081

> <Gold.Chemscore.DEInternal>
0.0292

> <Gold.Chemscore.Rot>
1.0000

> <Gold.Chemscore.Internal.Correction>
   9.000000E+99

> <Gold.Chemscore.Hbonds>
donor molecule, donor type, donor heavy atom, donor atom, acceptor molecule, acceptor atom, score
      P1  H  7997  8010       L1     7  0.72

> <Gold.Chemscore.Hbond.Weighted>
-3.0694

> <Gold.Chemscore.Metal.Weighted>
-0.0000

> <Gold.Chemscore.Lipo.Weighted>
-6.3247

> <Gold.Chemscore.Internal_Hbond.Weighted>
0.0000

> <Gold.Chemscore.DEClash.Weighted>
0.0081

> <Gold.Chemscore.DEInternal.Weighted>
0.0292

> <Gold.Chemscore.Rot.Weighted>
2.5600

> <Gold.Chemscore.Internal.Correction.Weighted>
   9.000000E+99

> <Gold.Protein.RotatedTorsions>
[ 6907 6896 6895 6894 ] final    7.47 input  -60.11 | X-H torsion
[ 7974 7965 7964 7962 ] final  -67.04 input  175.53 | X-H torsion
[ 8008 7997 7996 7995 ] final   93.53 input   59.86 | X-H torsion
[ 10167 10162 10161 10158 ] final -163.01 input  -65.29 | X-H torsion
[ 10718 10713 10712 10709 ] final -137.55 input   66.30 | X-H torsion
[ 10763 10752 10751 10750 ] final   66.84 input  -60.55 | X-H torsion
[ 11005 11000 10999 10996 ] final   87.22 input  -57.11 | X-H torsion

> <Gold.Protein.ActiveResidues>
 VAL166  LYS551  ARG553  GLY616  TRP617  ASP618  TYR619  PRO620  LYS621  CYS622 
 ASP623  PHE694  ASN695  SER759  ASP760  ASP761  ALA762  ILE779  LEU786  VAL792 
 PHE793  MET794  SER795  GLU796  ALA797  LYS798  CYS799  TRP800  GLU811  SER814 

> <Gold.Protein.RotatedAtoms>
  151.6904  135.0947  160.0232 H   0  0  0  0  0  0  0  0  0  0  0  0  # atno 6907 bound_to 6896
  152.3782  133.6505  159.6148 H   0  0  0  0  0  0  0  0  0  0  0  0  # atno 6908 bound_to 6896
  150.7725  133.9075  159.3401 H   0  0  0  0  0  0  0  0  0  0  0  0  # atno 6909 bound_to 6896
  145.7342  140.8983  143.0564 H   0  0  0  0  0  0  0  0  0  0  0  0  # atno 7974 bound_to 7965
  156.0478  140.3311  155.7316 H   0  0  0  0  0  0  0  0  0  0  0  0  # atno 8008 bound_to 7997
  155.5647  140.0622  157.2838 H   0  0  0  0  0  0  0  0  0  0  0  0  # atno 8009 bound_to 7997
  154.4422  140.1871  156.0807 H   0  0  0  0  0  0  0  0  0  0  0  0  # atno 8010 bound_to 7997
  139.6351  144.0365  152.2048 H   0  0  0  0  0  0  0  0  0  0  0  0  # atno 10167 bound_to 10162
  156.2893  130.7366  151.1387 H   0  0  0  0  0  0  0  0  0  0  0  0  # atno 10718 bound_to 10713
  153.0158  135.5306  154.6886 H   0  0  0  0  0  0  0  0  0  0  0  0  # atno 10763 bound_to 10752
  154.6027  135.2870  155.0520 H   0  0  0  0  0  0  0  0  0  0  0  0  # atno 10764 bound_to 10752
  154.1572  135.6553  153.5029 H   0  0  0  0  0  0  0  0  0  0  0  0  # atno 10765 bound_to 10752
  139.8925  134.8407  156.2829 H   0  0  0  0  0  0  0  0  0  0  0  0  # atno 11005 bound_to 11000
  144.6886  139.9372  143.7474 LP  0  0  0  0  0  0  0  0  0  0  0  0  # atno 17320 bound_to 7965
  146.0509  139.3510  143.0640 LP  0  0  0  0  0  0  0  0  0  0  0  0  # atno 17321 bound_to 7965
  140.0040  144.6272  150.7705 LP  0  0  0  0  0  0  0  0  0  0  0  0  # atno 17342 bound_to 10162
  140.7461  143.2885  151.3395 LP  0  0  0  0  0  0  0  0  0  0  0  0  # atno 17343 bound_to 10162
  157.7338  131.0588  150.5559 LP  0  0  0  0  0  0  0  0  0  0  0  0  # atno 17370 bound_to 10713
  156.5674  130.4271  149.6035 LP  0  0  0  0  0  0  0  0  0  0  0  0  # atno 17371 bound_to 10713
  141.0027  133.7142  156.0985 LP  0  0  0  0  0  0  0  0  0  0  0  0  # atno 17394 bound_to 11000
  140.7476  134.4081  157.5546 LP  0  0  0  0  0  0  0  0  0  0  0  0  # atno 17395 bound_to 11000

$$$$
