#       Name:                AV-unprocessed.smi:3335
#       Creating user name   scv26
#       Creation time:       Fri Mar 27 19:22:04 2020


#       File generated by GOLD software.
#

@<TRIPOS>MOLECULE
AV-unprocessed.smi:3335
    50    51     1
SMALL
NO_CHARGES


@<TRIPOS>ATOM
      1 ****        -3.1453  -3.3150  -1.7093 C.3            1 S1                 0.0000
      2 ****        -2.9809  -1.8918  -1.2603 C.2            1 S1                 0.0000
      3 ****        -2.9145  -0.7219  -2.0682 C.2            1 S1                 0.0000
      4 ****        -2.7521   0.3824  -1.3585 N.2            1 S1                 0.0000
      5 ****        -2.7272  -0.0366  -0.0727 N.pl3          1 S1                 0.0000
      6 ****        -2.5074   0.9093   1.0166 C.3            1 S1                 0.0000
      7 ****        -3.3140   2.2115   0.8248 C.3            1 S1                 0.0000
      8 ****        -0.9925   1.1273   1.2579 C.3            1 S1                 0.0000
      9 ****        -0.7055   1.9204   2.5454 C.3            1 S1                 0.0000
     10 ****        -0.3513   1.7695   0.0832 N.4            1 S1                 1.0000
     11 ****         1.0871   1.4736  -0.1158 C.3            1 S1                 0.0000
     12 ****         1.7010   2.5238  -1.0544 C.3            1 S1                 0.0000
     13 ****         1.2934   0.0630  -0.7047 C.2            1 S1                 0.0000
     14 ****         0.4765  -0.3644  -1.5217 O.2            1 S1                 0.0000
     15 ****         2.3656  -0.6639  -0.3241 N.am           1 S1                 0.0000
     16 ****         3.3997  -0.2525   0.6252 C.3            1 S1                 0.0000
     17 ****         4.4938  -1.3163   0.5358 C.3            1 S1                 0.0000
     18 ****         3.7650  -2.5597   0.0473 C.3            1 S1                 0.0000
     19 ****         2.6366  -2.0105  -0.8250 C.3            1 S1                 0.0000
     20 ****        -2.8507  -1.4080   0.0104 C.2            1 S1                 0.0000
     21 ****        -3.4703  -3.3774  -2.7480 H              1 S1                 0.0000
     22 ****        -3.8860  -3.8438  -1.1093 H              1 S1                 0.0000
     23 ****        -2.2106  -3.8705  -1.6311 H              1 S1                 0.0000
     24 ****        -2.9702  -0.6441  -3.1440 H              1 S1                 0.0000
     25 ****        -2.9084   0.4296   1.9108 H              1 S1                 0.0000
     26 ****        -3.2632   2.8462   1.7091 H              1 S1                 0.0000
     27 ****        -4.3679   1.9914   0.6511 H              1 S1                 0.0000
     28 ****        -2.9556   2.7959  -0.0231 H              1 S1                 0.0000
     29 ****        -0.5557   0.1359   1.3881 H              1 S1                 0.0000
     30 ****        -1.2144   1.4751   3.4007 H              1 S1                 0.0000
     31 ****        -1.0351   2.9562   2.4643 H              1 S1                 0.0000
     32 ****         0.3591   1.9341   2.7778 H              1 S1                 0.0000
     33 ****        -0.8359   1.4552  -0.7467 H              1 S1                 0.0000
     34 ****         1.5764   1.5627   0.8528 H              1 S1                 0.0000
     35 ****         2.7666   2.3489  -1.2072 H              1 S1                 0.0000
     36 ****         1.5928   3.5271  -0.6416 H              1 S1                 0.0000
     37 ****         1.2207   2.5162  -2.0339 H              1 S1                 0.0000
     38 ****         3.7997   0.7374   0.4027 H              1 S1                 0.0000
     39 ****         2.9735  -0.2332   1.6294 H              1 S1                 0.0000
     40 ****         5.2375  -1.0162  -0.2036 H              1 S1                 0.0000
     41 ****         5.0099  -1.4729   1.4835 H              1 S1                 0.0000
     42 ****         4.4166  -3.2498  -0.4894 H              1 S1                 0.0000
     43 ****         3.3418  -3.0933   0.8995 H              1 S1                 0.0000
     44 ****         1.7551  -2.6522  -0.7818 H              1 S1                 0.0000
     45 ****         2.9564  -1.9434  -1.8661 H              1 S1                 0.0000
     46 ****        -2.8319  -1.9238   0.9593 H              1 S1                 0.0000
     47 ****        -0.4768   2.7680   0.1654 H              1 S1                 0.0000
     48 ****        -2.6667   1.3193  -1.6974 LP             1 S1                 0.0000
     49 ****        -0.3031   0.2007  -1.7918 LP             1 S1                 0.0000
     50 ****         0.5929  -1.2765  -1.9148 LP             1 S1                 0.0000
@<TRIPOS>BOND
    1    1    2 1     
    2    1   21 1     
    3    1   22 1     
    4    1   23 1     
    5    2   20 2     
    6    2    3 1     
    7    3    4 2     
    8    3   24 1     
    9    4    5 1     
   10    5    6 1     
   11    5   20 1     
   12    6    7 1     
   13    6    8 1     
   14    6   25 1     
   15    7   26 1     
   16    7   27 1     
   17    7   28 1     
   18    8    9 1     
   19    8   10 1     
   20    8   29 1     
   21    9   30 1     
   22    9   31 1     
   23    9   32 1     
   24   10   11 1     
   25   10   33 1     
   26   10   47 1     
   27   11   12 1     
   28   11   13 1     
   29   11   34 1     
   30   12   35 1     
   31   12   36 1     
   32   12   37 1     
   33   13   14 2     
   34   13   15 am    
   35   15   19 1     
   36   15   16 1     
   37   16   17 1     
   38   16   38 1     
   39   16   39 1     
   40   17   18 1     
   41   17   40 1     
   42   17   41 1     
   43   18   19 1     
   44   18   42 1     
   45   18   43 1     
   46   19   44 1     
   47   19   45 1     
   48   20   46 1     
   49    4   48 1     
   50   14   49 1     
   51   14   50 1     
@<TRIPOS>SUBSTRUCTURE
      1 S1             1
@<TRIPOS>SET
LONE_PAIRS      STATIC     ATOMS    <user>   **** ""
3 48 49 50
DONOR_HYDROGENS      STATIC     ATOMS    <user>   **** ""
2 33 47
ATOM$BLUE        STATIC     ATOMS    COLORGROUP SYSTEM
3 48 49 50
ATOM$RED        STATIC     ATOMS    COLORGROUP SYSTEM
2 33 47
