#       Name:                AV-unprocessed.smi:2923
#       Creating user name   scv26
#       Creation time:       Fri Mar 27 16:10:14 2020


#       File generated by GOLD software.
#

@<TRIPOS>MOLECULE
AV-unprocessed.smi:2923
    52    54     1
SMALL
NO_CHARGES


@<TRIPOS>ATOM
      1 ****        -6.7075   1.0765   1.3618 C.3            1 S1                 0.0000
      2 ****        -6.0393   1.4595   0.1277 N.3            1 S1                 0.0000
      3 ****        -6.6754   1.0319  -1.1091 C.3            1 S1                 0.0000
      4 ****        -4.6621   1.2043   0.1518 C.ar           1 S1                 0.0000
      5 ****        -4.1591  -0.1165   0.1648 C.ar           1 S1                 0.0000
      6 ****        -2.7648  -0.3112   0.1871 C.ar           1 S1                 0.0000
      7 ****        -1.9168   0.8216   0.2029 C.ar           1 S1                 0.0000
      8 ****        -0.4976   0.7588   0.2001 N.am           1 S1                 0.0000
      9 ****         0.2967  -0.2543   0.5850 C.2            1 S1                 0.0000
     10 ****        -0.0878  -1.3246   1.0555 O.2            1 S1                 0.0000
     11 ****         1.5881   0.0521   0.4064 N.am           1 S1                 0.0000
     12 ****         2.7104  -0.8282   0.7484 C.3            1 S1                 0.0000
     13 ****         4.0593  -0.1069   0.6870 C.3            1 S1                 0.0000
     14 ****         4.5098   1.3093   0.6811 C.3            1 S1                 0.0000
     15 ****         5.6077   1.1592  -0.4069 C.3            1 S1                 0.0000
     16 ****         5.4284  -0.1634  -0.9758 O.3            1 S1                 0.0000
     17 ****         4.0513  -0.4275  -0.7938 C.3            1 S1                 0.0000
     18 ****         3.2730  -1.7130  -0.4349 C.3            1 S1                 0.0000
     19 ****         4.1035  -2.9526  -0.0557 C.3            1 S1                 0.0000
     20 ****         2.2702  -2.1915  -1.4908 C.3            1 S1                 0.0000
     21 ****        -2.5220   2.0950   0.1766 C.ar           1 S1                 0.0000
     22 ****        -3.8575   2.2889   0.1567 N.ar           1 S1                 0.0000
     23 ****        -6.1562   1.4383   2.2307 H              1 S1                 0.0000
     24 ****        -6.7983  -0.0075   1.4377 H              1 S1                 0.0000
     25 ****        -7.7086   1.5067   1.3960 H              1 S1                 0.0000
     26 ****        -6.1119   1.3800  -1.9758 H              1 S1                 0.0000
     27 ****        -7.6826   1.4436  -1.1758 H              1 S1                 0.0000
     28 ****        -6.7474  -0.0550  -1.1582 H              1 S1                 0.0000
     29 ****        -4.8252  -0.9668   0.1528 H              1 S1                 0.0000
     30 ****        -2.3781  -1.3183   0.1760 H              1 S1                 0.0000
     31 ****        -0.0289   1.6063  -0.0850 H              1 S1                 0.0000
     32 ****         1.8168   0.9550   0.0174 H              1 S1                 0.0000
     33 ****         2.5696  -1.3838   1.6771 H              1 S1                 0.0000
     34 ****         4.7890  -0.6992   1.2443 H              1 S1                 0.0000
     35 ****         3.7187   1.9944   0.3737 H              1 S1                 0.0000
     36 ****         4.9116   1.6323   1.6417 H              1 S1                 0.0000
     37 ****         5.4968   1.9229  -1.1780 H              1 S1                 0.0000
     38 ****         6.6110   1.2441   0.0116 H              1 S1                 0.0000
     39 ****         3.4501   0.2604  -1.3973 H              1 S1                 0.0000
     40 ****         4.6875  -3.3095  -0.9047 H              1 S1                 0.0000
     41 ****         3.4633  -3.7745   0.2665 H              1 S1                 0.0000
     42 ****         4.8073  -2.7749   0.7555 H              1 S1                 0.0000
     43 ****         2.7692  -2.6959  -2.3188 H              1 S1                 0.0000
     44 ****         1.7048  -1.3657  -1.9226 H              1 S1                 0.0000
     45 ****         1.5486  -2.8898  -1.0657 H              1 S1                 0.0000
     46 ****        -1.9165   2.9896   0.1751 H              1 S1                 0.0000
     47 ****        -6.1556   2.4525   0.1068 LP             1 S1                 0.0000
     48 ****        -1.0656  -1.4944   1.1780 LP             1 S1                 0.0000
     49 ****         0.5776  -2.0244   1.3153 LP             1 S1                 0.0000
     50 ****         5.9870  -0.8374  -0.4924 LP             1 S1                 0.0000
     51 ****         5.6664  -0.1683  -1.9471 LP             1 S1                 0.0000
     52 ****        -4.2414   3.2122   0.1459 LP             1 S1                 0.0000
@<TRIPOS>BOND
    1    1    2 1     
    2    1   23 1     
    3    1   24 1     
    4    1   25 1     
    5    2    3 1     
    6    2    4 1     
    7    3   26 1     
    8    3   27 1     
    9    3   28 1     
   10    4   22 ar    
   11    4    5 ar    
   12    5    6 ar    
   13    5   29 1     
   14    6    7 ar    
   15    6   30 1     
   16    7    8 1     
   17    7   21 ar    
   18    8    9 am    
   19    8   31 1     
   20    9   10 2     
   21    9   11 am    
   22   11   12 1     
   23   11   32 1     
   24   12   18 1     
   25   12   13 1     
   26   12   33 1     
   27   13   17 1     
   28   13   14 1     
   29   13   34 1     
   30   14   15 1     
   31   14   35 1     
   32   14   36 1     
   33   15   16 1     
   34   15   37 1     
   35   15   38 1     
   36   16   17 1     
   37   17   18 1     
   38   17   39 1     
   39   18   19 1     
   40   18   20 1     
   41   19   40 1     
   42   19   41 1     
   43   19   42 1     
   44   20   43 1     
   45   20   44 1     
   46   20   45 1     
   47   21   22 ar    
   48   21   46 1     
   49    2   47 1     
   50   10   48 1     
   51   10   49 1     
   52   16   50 1     
   53   16   51 1     
   54   22   52 1     
@<TRIPOS>SUBSTRUCTURE
      1 S1             1
@<TRIPOS>SET
LONE_PAIRS      STATIC     ATOMS    <user>   **** ""
6 47 48 49 50 51 52
DONOR_HYDROGENS      STATIC     ATOMS    <user>   **** ""
2 31 32
ATOM$BLUE        STATIC     ATOMS    COLORGROUP SYSTEM
6 47 48 49 50 51 52
ATOM$RED        STATIC     ATOMS    COLORGROUP SYSTEM
2 31 32
