AV-unprocessed.smi:1667|AV-procd|sdf|6676|dock1
  -GOLD-   22720 7393D 1   1.00000     0.00000
 Structure written by MMmdl.
 45 47  0  0  0  0  0  0  0  0  1 V2000
  150.3680  135.7672  157.0608 C   0  0  0  0  0  0  0  0  0  0  0  0
  151.2522  136.8569  156.4651 C   0  0  0  0  0  0  0  0  0  0  0  0
  152.3081  136.5548  155.9113 O   0  0  0  0  0  0  0  0  0  0  0  0
  150.7983  138.1151  156.5926 N   0  0  0  0  0  0  0  0  0  0  0  0
  151.4319  139.3546  156.1354 C   0  0  2  0  0  0  0  0  0  0  0  0
  152.4351  139.1454  154.9844 C   0  0  0  0  0  0  0  0  0  0  0  0
  151.9923  140.1095  157.3178 C   0  0  0  0  0  0  0  0  0  0  0  0
  153.0057  139.6310  158.0434 N   0  0  0  0  0  0  0  0  0  0  0  0
  153.1465  140.5716  159.0414 C   0  0  0  0  0  0  0  0  0  0  0  0
  154.0534  140.6303  160.1235 C   0  0  0  0  0  0  0  0  0  0  0  0
  154.0015  141.6999  161.0406 C   0  0  0  0  0  0  0  0  0  0  0  0
  153.0426  142.7221  160.8896 C   0  0  0  0  0  0  0  0  0  0  0  0
  152.1297  142.6810  159.8182 C   0  0  0  0  0  0  0  0  0  0  0  0
  152.1882  141.6134  158.9014 C   0  0  0  0  0  0  0  0  0  0  0  0
  151.4550  141.2776  157.7653 N   0  0  0  0  0  0  0  0  0  0  0  0
  150.3295  142.0350  157.2212 C   0  0  0  0  0  0  0  0  0  0  0  0
  148.9972  141.2494  157.1756 C   0  0  1  0  0  0  0  0  0  0  0  0
  148.3146  141.3618  158.4085 O   0  0  0  0  0  0  0  0  0  0  0  0
  148.1247  141.6217  155.9838 C   0  0  0  0  0  0  0  0  0  0  0  0
  148.5252  141.3140  154.6636 C   0  0  0  0  0  0  0  0  0  0  0  0
  147.6993  141.6506  153.5738 C   0  0  0  0  0  0  0  0  0  0  0  0
  146.4663  142.2928  153.7959 C   0  0  0  0  0  0  0  0  0  0  0  0
  146.0610  142.6012  155.1085 C   0  0  0  0  0  0  0  0  0  0  0  0
  144.8739  143.2154  155.3236 F   0  0  0  0  0  0  0  0  0  0  0  0
  146.8887  142.2689  156.1985 C   0  0  0  0  0  0  0  0  0  0  0  0
  150.6265  139.9427  155.7037 H   0  0  0  0  0  0  0  0  0  0  0  0
  149.4105  135.7285  156.5405 H   0  0  0  0  0  0  0  0  0  0  0  0
  150.1808  135.9623  158.1172 H   0  0  0  0  0  0  0  0  0  0  0  0
  150.8443  134.7901  156.9741 H   0  0  0  0  0  0  0  0  0  0  0  0
  149.9158  138.2295  157.0690 H   0  0  0  0  0  0  0  0  0  0  0  0
  152.7985  140.1021  154.6095 H   0  0  0  0  0  0  0  0  0  0  0  0
  151.9680  138.6223  154.1497 H   0  0  0  0  0  0  0  0  0  0  0  0
  153.3051  138.5662  155.2930 H   0  0  0  0  0  0  0  0  0  0  0  0
  154.7882  139.8487  160.2497 H   0  0  0  0  0  0  0  0  0  0  0  0
  154.6988  141.7345  161.8646 H   0  0  0  0  0  0  0  0  0  0  0  0
  153.0079  143.5378  161.5968 H   0  0  0  0  0  0  0  0  0  0  0  0
  151.3947  143.4632  159.7018 H   0  0  0  0  0  0  0  0  0  0  0  0
  150.2082  142.9621  157.7807 H   0  0  0  0  0  0  0  0  0  0  0  0
  150.5977  142.3469  156.2110 H   0  0  0  0  0  0  0  0  0  0  0  0
  149.2438  140.1916  157.0751 H   0  0  0  0  0  0  0  0  0  0  0  0
  147.7263  142.0998  158.3589 H   0  0  0  0  0  0  0  0  0  0  0  0
  149.4621  140.8086  154.4806 H   0  0  0  0  0  0  0  0  0  0  0  0
  148.0089  141.4099  152.5675 H   0  0  0  0  0  0  0  0  0  0  0  0
  145.8313  142.5471  152.9601 H   0  0  0  0  0  0  0  0  0  0  0  0
  146.5673  142.5051  157.2023 H   0  0  0  0  0  0  0  0  0  0  0  0
  1  2  1  0  0  0  0
  1 27  1  0  0  0  0
  1 28  1  0  0  0  0
  1 29  1  0  0  0  0
  2  3  2  0  0  0  0
  2  4  1  0  0  0  0
  4  5  1  0  0  0  0
  4 30  1  0  0  0  0
  5 26  1  0  0  0  0
  5  6  1  0  0  0  0
  5  7  1  0  0  0  0
  6 31  1  0  0  0  0
  6 32  1  0  0  0  0
  6 33  1  0  0  0  0
  7 15  1  0  0  0  0
  7  8  2  0  0  0  0
  8  9  1  0  0  0  0
  9 14  2  0  0  0  0
  9 10  1  0  0  0  0
 10 11  2  0  0  0  0
 10 34  1  0  0  0  0
 11 12  1  0  0  0  0
 11 35  1  0  0  0  0
 12 13  2  0  0  0  0
 12 36  1  0  0  0  0
 13 14  1  0  0  0  0
 13 37  1  0  0  0  0
 14 15  1  0  0  0  0
 15 16  1  0  0  0  0
 16 17  1  0  0  0  0
 16 38  1  0  0  0  0
 16 39  1  0  0  0  0
 17 18  1  0  0  0  0
 17 19  1  0  0  0  0
 17 40  1  0  0  0  0
 18 41  1  0  0  0  0
 19 25  1  0  0  0  0
 19 20  2  0  0  0  0
 20 21  1  0  0  0  0
 20 42  1  0  0  0  0
 21 22  2  0  0  0  0
 21 43  1  0  0  0  0
 22 23  1  0  0  0  0
 22 44  1  0  0  0  0
 23 24  1  0  0  0  0
 23 25  2  0  0  0  0
 25 45  1  0  0  0  0
M  END
> <s_m_source_file>
AV-unprocessed.smi

> <i_m_source_file_index>
1667

> <i_lp_mmshare_version>
43012

> <i_f3d_flags>
0

> <s_epik_input>
W0NIM11DKD1PKVtOSF1bQ0BASF0oW0NIM10pYyhuMSluKGMoYzEyKVtjSF1bY0hdW2NIXVtjSF0yKVtDSDJdW0NASF0oW09IXSljM1tjSF1bY0hdW2NIXWMoRilbY0hdMw==

> <s_epik_cmdline>
J2VwaWtfcHl0aG9uJywgJy1waCcsICc3LjAnLCAnLXRuJywgJzgnLCAnLW1hJywgJzIwMCcsICctbWV0YWxfYmluZGluZycsICctaW1hZScsICc8aW5maWxlLm1hZT4nLCAnLW9tYWUnLCAnPG91dGZpbGUubWFlPic=

> <r_epik_Ionization_Penalty>
0.133011

> <r_epik_Ionization_Penalty_Charging>
0

> <r_epik_Ionization_Penalty_Neutral>
0.133011

> <r_epik_State_Penalty>
0.122384

> <r_epik_Charging_Adjusted_Penalty>
0.122384

> <i_epik_Tot_Q>
0

> <i_epik_Tot_abs_Q>
0

> <r_epik_Metal_State_Penalty>
0.0997374

> <b_epik_Metal_Only>
0

> <s_lp_Force_Field>
OPLS_2005

> <r_lp_Energy>
8.29393

> <b_lp_Chiralities_Consistent>
1

> <s_lp_Variant>
AV-unprocessed.smi:1667-4

> <Gold.Version>
5.8.1

> <Gold.Id.Protein>
6NUR|6NUR_protein|mol2

> <Gold.PLP.Fitness>
52.4601

> <Gold.PLP.PLP>
-47.8643

> <Gold.PLP.part.hbond>
-3.0000

> <Gold.PLP.part.metal>
0.0000

> <Gold.PLP.part.buried>
-4.0746

> <Gold.PLP.part.nonpolar>
-40.1435

> <Gold.PLP.part.repulsive>
0.0282

> <Gold.PLP.ligand.clash>
0.0000

> <Gold.PLP.ligand.torsion>
0.8765

> <Gold.PLP.Chemscore.Hbond>
2.0000

> <Gold.PLP.Chemscore.CHOScore>
0.0000

> <Gold.PLP.Chemscore.Metal>
0.0000

> <Gold.Chemscore.Hbonds>
donor molecule, donor type, donor heavy atom, donor atom, acceptor molecule, acceptor atom, score
      P1  H  7997  8009       L1     8  1.00
      P1  H 10752 10764       L1     3  1.00

> <Gold.PLP.Chemscore.Internal.Correction>
0.3487

> <Gold.Rescore>
     Score         DG    S(hbond)    S(metal)    S(lipo)     H(rot)  DE(clash)    DE(int)     intcor
     15.76     -18.15       1.50        0.00     119.72       2.48       0.14       2.24       ----

> <Gold.Chemscore.Fitness>
15.7645

> <Gold.Chemscore.DG>
-18.1492

> <Gold.Chemscore.ZeroCoef>
-5.4800

> <Gold.Chemscore.Hbond>
1.4973

> <Gold.Chemscore.Metal>
0.0000

> <Gold.Chemscore.Lipo>
119.7169

> <Gold.Chemscore.Internal_Hbond>
0.0000

> <Gold.Chemscore.DEClash>
0.1424

> <Gold.Chemscore.DEInternal>
2.2423

> <Gold.Chemscore.Rot>
2.4760

> <Gold.Chemscore.Internal.Correction>
   9.000000E+99

> <Gold.Chemscore.Hbonds>
donor molecule, donor type, donor heavy atom, donor atom, acceptor molecule, acceptor atom, score
      P1  H  7997  8009       L1     8  0.09
      P1  H 10752 10764       L1     3  0.97

> <Gold.Chemscore.Hbond.Weighted>
-5.0008

> <Gold.Chemscore.Metal.Weighted>
-0.0000

> <Gold.Chemscore.Lipo.Weighted>
-14.0069

> <Gold.Chemscore.Internal_Hbond.Weighted>
0.0000

> <Gold.Chemscore.DEClash.Weighted>
0.1424

> <Gold.Chemscore.DEInternal.Weighted>
2.2423

> <Gold.Chemscore.Rot.Weighted>
6.3385

> <Gold.Chemscore.Internal.Correction.Weighted>
   9.000000E+99

> <Gold.Protein.RotatedTorsions>
[ 6907 6896 6895 6894 ] final   75.94 input  -60.11 | X-H torsion
[ 7974 7965 7964 7962 ] final -119.30 input  175.53 | X-H torsion
[ 8008 7997 7996 7995 ] final  160.14 input   59.86 | X-H torsion
[ 10167 10162 10161 10158 ] final   82.51 input  -65.29 | X-H torsion
[ 10718 10713 10712 10709 ] final  -29.16 input   66.30 | X-H torsion
[ 10763 10752 10751 10750 ] final  -28.79 input  -60.55 | X-H torsion
[ 11005 11000 10999 10996 ] final   -8.21 input  -57.11 | X-H torsion

> <Gold.Protein.ActiveResidues>
 VAL166  LYS551  ARG553  GLY616  TRP617  ASP618  TYR619  PRO620  LYS621  CYS622 
 ASP623  PHE694  ASN695  SER759  ASP760  ASP761  ALA762  ILE779  LEU786  VAL792 
 PHE793  MET794  SER795  GLU796  ALA797  LYS798  CYS799  TRP800  GLU811  SER814 

> <Gold.Protein.RotatedAtoms>
  152.5050  134.4044  159.9427 H   0  0  0  0  0  0  0  0  0  0  0  0  # atno 6907 bound_to 6896
  151.4009  133.3752  159.2740 H   0  0  0  0  0  0  0  0  0  0  0  0  # atno 6908 bound_to 6896
  150.9362  134.8796  159.7642 H   0  0  0  0  0  0  0  0  0  0  0  0  # atno 6909 bound_to 6896
  145.0640  140.8311  143.4135 H   0  0  0  0  0  0  0  0  0  0  0  0  # atno 7974 bound_to 7965
  156.2192  140.1812  156.7517 H   0  0  0  0  0  0  0  0  0  0  0  0  # atno 8008 bound_to 7997
  154.5838  140.0662  156.9171 H   0  0  0  0  0  0  0  0  0  0  0  0  # atno 8009 bound_to 7997
  155.2455  140.3325  155.4290 H   0  0  0  0  0  0  0  0  0  0  0  0  # atno 8010 bound_to 7997
  139.9280  144.6170  150.8373 H   0  0  0  0  0  0  0  0  0  0  0  0  # atno 10167 bound_to 10162
  156.4160  130.4417  149.7218 H   0  0  0  0  0  0  0  0  0  0  0  0  # atno 10718 bound_to 10713
  153.7541  135.6924  153.4939 H   0  0  0  0  0  0  0  0  0  0  0  0  # atno 10763 bound_to 10752
  153.1983  135.4446  155.0234 H   0  0  0  0  0  0  0  0  0  0  0  0  # atno 10764 bound_to 10752
  154.8177  135.3406  154.7060 H   0  0  0  0  0  0  0  0  0  0  0  0  # atno 10765 bound_to 10752
  140.7210  133.8828  155.8821 H   0  0  0  0  0  0  0  0  0  0  0  0  # atno 11005 bound_to 11000
  145.1373  139.2594  143.5508 LP  0  0  0  0  0  0  0  0  0  0  0  0  # atno 17320 bound_to 7965
  146.3526  140.1041  142.8606 LP  0  0  0  0  0  0  0  0  0  0  0  0  # atno 17321 bound_to 7965
  140.7645  143.3250  151.2536 LP  0  0  0  0  0  0  0  0  0  0  0  0  # atno 17342 bound_to 10162
  139.6806  143.9861  152.2806 LP  0  0  0  0  0  0  0  0  0  0  0  0  # atno 17343 bound_to 10162
  156.4178  130.7753  151.2769 LP  0  0  0  0  0  0  0  0  0  0  0  0  # atno 17370 bound_to 10713
  157.7508  131.0192  150.3657 LP  0  0  0  0  0  0  0  0  0  0  0  0  # atno 17371 bound_to 10713
  141.0003  134.1159  157.4323 LP  0  0  0  0  0  0  0  0  0  0  0  0  # atno 17394 bound_to 11000
  139.8848  135.0066  156.6393 LP  0  0  0  0  0  0  0  0  0  0  0  0  # atno 17395 bound_to 11000

$$$$
