AV-unprocessed.smi:176|AV-procd|sdf|1433|dock9
  -GOLD-   2262019213D 1   1.00000     0.00000
 Structure written by MMmdl.
 57 61  0  0  0  0  0  0  0  0  1 V2000
  147.3393  132.9004  156.5579 O   0  0  0  0  0  0  0  0  0  0  0  0
  147.7050  132.4842  155.2584 C   0  0  0  0  0  0  0  0  0  0  0  0
  148.7359  133.4324  154.6211 C   0  0  0  0  0  0  0  0  0  0  0  0
  149.0894  132.9239  153.2070 C   0  0  0  0  0  0  0  0  0  0  0  0
  147.9404  132.6909  152.4186 O   0  0  0  0  0  0  0  0  0  0  0  0
  148.3463  134.9275  154.6676 C   0  0  0  0  0  0  0  0  0  0  0  0
  149.7983  135.2869  154.9912 C   0  0  0  0  0  0  0  0  0  0  0  0
  150.1090  136.4211  155.8105 N   0  0  0  0  0  0  0  0  0  0  0  0
  149.4872  136.7968  156.9805 C   0  0  0  0  0  0  0  0  0  0  0  0
  149.9878  137.8525  157.5621 N   0  0  0  0  0  0  0  0  0  0  0  0
  151.0542  138.2155  156.7479 C   0  0  0  0  0  0  0  0  0  0  0  0
  152.0320  139.2488  156.7975 C   0  0  0  0  0  0  0  0  0  0  0  0
  152.0533  140.1896  157.7753 N   0  0  0  0  0  0  0  0  0  0  0  0
  152.8845  139.9294  158.9521 C   0  0  0  0  0  0  0  0  0  0  0  0
  152.5276  140.8848  160.1071 C   0  0  0  0  0  0  0  0  0  0  0  0
  152.5673  142.3637  159.6667 C   0  0  2  0  0  0  0  0  0  0  0  0
  153.9166  142.6836  159.3676 O   0  0  0  0  0  0  0  0  0  0  0  0
  152.1030  143.3102  160.7962 C   0  0  0  0  0  0  0  0  0  0  0  0
  152.0363  144.7799  160.3375 C   0  0  0  0  0  0  0  0  0  0  0  0
  151.1710  144.9429  159.0774 C   0  0  0  0  0  0  0  0  0  0  0  0
  151.6410  144.0151  157.9445 C   0  0  0  0  0  0  0  0  0  0  0  0
  151.6743  142.5470  158.4114 C   0  0  1  0  0  0  0  0  0  0  0  0
  152.0716  141.5690  157.2894 C   0  0  0  0  0  0  0  0  0  0  0  0
  152.9706  139.2692  155.8133 N   0  0  0  0  0  0  0  0  0  0  0  0
  152.9505  138.3514  154.8422 C   0  0  0  0  0  0  0  0  0  0  0  0
  152.0959  137.3421  154.6651 N   0  0  0  0  0  0  0  0  0  0  0  0
  151.1549  137.3128  155.6518 C   0  0  0  0  0  0  0  0  0  0  0  0
  149.9205  133.8563  155.5200 C   0  0  0  0  0  0  0  0  0  0  0  0
  146.4767  133.2840  156.5200 H   0  0  0  0  0  0  0  0  0  0  0  0
  148.0807  131.4616  155.3059 H   0  0  0  0  0  0  0  0  0  0  0  0
  146.7930  132.4467  154.6619 H   0  0  0  0  0  0  0  0  0  0  0  0
  149.7326  133.6321  152.6841 H   0  0  0  0  0  0  0  0  0  0  0  0
  149.6482  131.9890  153.2533 H   0  0  0  0  0  0  0  0  0  0  0  0
  148.1667  132.0868  151.7282 H   0  0  0  0  0  0  0  0  0  0  0  0
  147.9793  135.3383  153.7264 H   0  0  0  0  0  0  0  0  0  0  0  0
  147.6681  135.1725  155.4873 H   0  0  0  0  0  0  0  0  0  0  0  0
  150.3802  135.4093  154.0760 H   0  0  0  0  0  0  0  0  0  0  0  0
  148.6421  136.2646  157.3923 H   0  0  0  0  0  0  0  0  0  0  0  0
  152.7492  138.8989  159.2832 H   0  0  0  0  0  0  0  0  0  0  0  0
  153.9356  140.0435  158.6829 H   0  0  0  0  0  0  0  0  0  0  0  0
  151.5267  140.6408  160.4664 H   0  0  0  0  0  0  0  0  0  0  0  0
  153.2015  140.7176  160.9483 H   0  0  0  0  0  0  0  0  0  0  0  0
  153.9962  142.7961  158.4327 H   0  0  0  0  0  0  0  0  0  0  0  0
  151.1135  143.0053  161.1394 H   0  0  0  0  0  0  0  0  0  0  0  0
  152.7628  143.2222  161.6606 H   0  0  0  0  0  0  0  0  0  0  0  0
  151.6373  145.3989  161.1414 H   0  0  0  0  0  0  0  0  0  0  0  0
  153.0424  145.1509  160.1391 H   0  0  0  0  0  0  0  0  0  0  0  0
  150.1312  144.7206  159.3201 H   0  0  0  0  0  0  0  0  0  0  0  0
  151.1939  145.9803  158.7424 H   0  0  0  0  0  0  0  0  0  0  0  0
  150.9717  144.1178  157.0897 H   0  0  0  0  0  0  0  0  0  0  0  0
  152.6283  144.3233  157.5985 H   0  0  0  0  0  0  0  0  0  0  0  0
  150.6529  142.2885  158.6977 H   0  0  0  0  0  0  0  0  0  0  0  0
  153.0720  141.7996  156.9205 H   0  0  0  0  0  0  0  0  0  0  0  0
  151.3946  141.6966  156.4455 H   0  0  0  0  0  0  0  0  0  0  0  0
  153.7310  138.4391  154.1010 H   0  0  0  0  0  0  0  0  0  0  0  0
  149.6881  133.7794  156.5840 H   0  0  0  0  0  0  0  0  0  0  0  0
  150.8709  133.3721  155.2936 H   0  0  0  0  0  0  0  0  0  0  0  0
  1  2  1  0  0  0  0
  1 29  1  0  0  0  0
  2  3  1  0  0  0  0
  2 30  1  0  0  0  0
  2 31  1  0  0  0  0
  3 28  1  0  0  0  0
  3  4  1  0  0  0  0
  3  6  1  0  0  0  0
  4  5  1  0  0  0  0
  4 32  1  0  0  0  0
  4 33  1  0  0  0  0
  5 34  1  0  0  0  0
  6  7  1  0  0  0  0
  6 35  1  0  0  0  0
  6 36  1  0  0  0  0
  7  8  1  0  0  0  0
  7 28  1  0  0  0  0
  7 37  1  0  0  0  0
  8 27  1  0  0  0  0
  8  9  1  0  0  0  0
  9 10  2  0  0  0  0
  9 38  1  0  0  0  0
 10 11  1  0  0  0  0
 11 27  2  0  0  0  0
 11 12  1  0  0  0  0
 12 13  1  0  0  0  0
 12 24  2  0  0  0  0
 13 23  1  0  0  0  0
 13 14  1  0  0  0  0
 14 15  1  0  0  0  0
 14 39  1  0  0  0  0
 14 40  1  0  0  0  0
 15 16  1  0  0  0  0
 15 41  1  0  0  0  0
 15 42  1  0  0  0  0
 16 22  1  0  0  0  0
 16 17  1  0  0  0  0
 16 18  1  0  0  0  0
 17 43  1  0  0  0  0
 18 19  1  0  0  0  0
 18 44  1  0  0  0  0
 18 45  1  0  0  0  0
 19 20  1  0  0  0  0
 19 46  1  0  0  0  0
 19 47  1  0  0  0  0
 20 21  1  0  0  0  0
 20 48  1  0  0  0  0
 20 49  1  0  0  0  0
 21 22  1  0  0  0  0
 21 50  1  0  0  0  0
 21 51  1  0  0  0  0
 22 23  1  0  0  0  0
 22 52  1  0  0  0  0
 23 53  1  0  0  0  0
 23 54  1  0  0  0  0
 24 25  1  0  0  0  0
 25 26  2  0  0  0  0
 25 55  1  0  0  0  0
 26 27  1  0  0  0  0
 28 56  1  0  0  0  0
 28 57  1  0  0  0  0
M  END
> <s_m_source_file>
AV-unprocessed.smi

> <i_m_source_file_index>
176

> <i_lp_mmshare_version>
43012

> <i_f3d_flags>
0

> <s_epik_input>
W09IXVtDSDJdQzEoW0NIMl1bT0hdKVtDSDJdW0NIXShbQ0gyXTEpbihbY0hdbjIpYyhjMjMpbltjSF1uYzNOKFtDSDJdW0NIMl00KVtDSDJdW0NAQEhdKFtDQF00NVtPSF0pW0NIMl1bQ0gyXVtDSDJdW0NIMl01

> <s_epik_cmdline>
J2VwaWtfcHl0aG9uJywgJy1waCcsICc3LjAnLCAnLXRuJywgJzgnLCAnLW1hJywgJzIwMCcsICctbWV0YWxfYmluZGluZycsICctaW1hZScsICc8aW5maWxlLm1hZT4nLCAnLW9tYWUnLCAnPG91dGZpbGUubWFlPic=

> <r_lp_tautomer_probability>
1

> <r_epik_Ionization_Penalty>
0.00642876

> <r_epik_Ionization_Penalty_Charging>
0

> <r_epik_Ionization_Penalty_Neutral>
0.00642876

> <r_epik_State_Penalty>
0.00467813

> <r_epik_Charging_Adjusted_Penalty>
0.00467813

> <i_epik_Tot_Q>
0

> <i_epik_Tot_abs_Q>
0

> <r_epik_Metal_State_Penalty>
-0

> <b_epik_Metal_Only>
0

> <s_lp_Force_Field>
OPLS_2005

> <r_lp_Energy>
51.6301

> <b_lp_Chiralities_Consistent>
1

> <s_lp_Variant>
AV-unprocessed.smi:176-1

> <Gold.Version>
5.8.1

> <Gold.Id.Protein>
6NUR|6NUR_protein|mol2

> <Gold.PLP.Fitness>
52.4143

> <Gold.PLP.PLP>
-44.6604

> <Gold.PLP.part.hbond>
-3.0000

> <Gold.PLP.part.metal>
0.0000

> <Gold.PLP.part.buried>
-6.9121

> <Gold.PLP.part.nonpolar>
-35.4568

> <Gold.PLP.part.repulsive>
0.1254

> <Gold.PLP.ligand.clash>
0.0000

> <Gold.PLP.ligand.torsion>
0.8647

> <Gold.PLP.Chemscore.Hbond>
2.8640

> <Gold.PLP.Chemscore.CHOScore>
0.0000

> <Gold.PLP.Chemscore.Metal>
0.0000

> <Gold.Chemscore.Hbonds>
donor molecule, donor type, donor heavy atom, donor atom, acceptor molecule, acceptor atom, score
      L1  H     5    34       P1 10747  0.93
      P1  H  7997  8009       L1    24  1.00
      P1  H 10752 10764       L1    26  0.82

> <Gold.PLP.Chemscore.Internal.Correction>
0.8913

> <Gold.Rescore>
     Score         DG    S(hbond)    S(metal)    S(lipo)     H(rot)  DE(clash)    DE(int)     intcor
     17.32     -18.63       2.57        0.00     120.27       3.71       0.37       0.94       ----

> <Gold.Chemscore.Fitness>
17.3201

> <Gold.Chemscore.DG>
-18.6296

> <Gold.Chemscore.ZeroCoef>
-5.4800

> <Gold.Chemscore.Hbond>
2.5681

> <Gold.Chemscore.Metal>
0.0000

> <Gold.Chemscore.Lipo>
120.2730

> <Gold.Chemscore.Internal_Hbond>
0.0000

> <Gold.Chemscore.DEClash>
0.3703

> <Gold.Chemscore.DEInternal>
0.9391

> <Gold.Chemscore.Rot>
3.7109

> <Gold.Chemscore.Internal.Correction>
   9.000000E+99

> <Gold.Chemscore.Hbonds>
donor molecule, donor type, donor heavy atom, donor atom, acceptor molecule, acceptor atom, score
      L1  H     5    34       P1 10747  0.89
      P1  H  7997  8009       L1    24  0.85
      P1  H 10752 10764       L1    26  0.64

> <Gold.Chemscore.Hbond.Weighted>
-8.5776

> <Gold.Chemscore.Metal.Weighted>
-0.0000

> <Gold.Chemscore.Lipo.Weighted>
-14.0719

> <Gold.Chemscore.Internal_Hbond.Weighted>
0.0000

> <Gold.Chemscore.DEClash.Weighted>
0.3703

> <Gold.Chemscore.DEInternal.Weighted>
0.9391

> <Gold.Chemscore.Rot.Weighted>
9.5000

> <Gold.Chemscore.Internal.Correction.Weighted>
   9.000000E+99

> <Gold.Protein.RotatedTorsions>
[ 6907 6896 6895 6894 ] final  -51.96 input  -60.11 | X-H torsion
[ 7974 7965 7964 7962 ] final  -89.51 input  175.53 | X-H torsion
[ 8008 7997 7996 7995 ] final -156.98 input   59.86 | X-H torsion
[ 10167 10162 10161 10158 ] final -116.16 input  -65.29 | X-H torsion
[ 10718 10713 10712 10709 ] final -119.61 input   66.30 | X-H torsion
[ 10763 10752 10751 10750 ] final  -79.16 input  -60.55 | X-H torsion
[ 11005 11000 10999 10996 ] final -139.89 input  -57.11 | X-H torsion

> <Gold.Protein.ActiveResidues>
 VAL166  LYS551  ARG553  GLY616  TRP617  ASP618  TYR619  PRO620  LYS621  CYS622 
 ASP623  PHE694  ASN695  SER759  ASP760  ASP761  ALA762  ILE779  LEU786  VAL792 
 PHE793  MET794  SER795  GLU796  ALA797  LYS798  CYS799  TRP800  GLU811  SER814 

> <Gold.Protein.RotatedAtoms>
  150.8562  134.7902  159.7047 H   0  0  0  0  0  0  0  0  0  0  0  0  # atno 6907 bound_to 6896
  152.4613  134.5174  159.9782 H   0  0  0  0  0  0  0  0  0  0  0  0  # atno 6908 bound_to 6896
  151.5286  133.3415  159.2950 H   0  0  0  0  0  0  0  0  0  0  0  0  # atno 6909 bound_to 6896
  145.4388  140.9558  143.2086 H   0  0  0  0  0  0  0  0  0  0  0  0  # atno 7974 bound_to 7965
  155.7254  140.0795  157.2312 H   0  0  0  0  0  0  0  0  0  0  0  0  # atno 8008 bound_to 7997
  154.4039  140.1605  156.2504 H   0  0  0  0  0  0  0  0  0  0  0  0  # atno 8009 bound_to 7997
  155.9158  140.3401  155.6136 H   0  0  0  0  0  0  0  0  0  0  0  0  # atno 8010 bound_to 7997
  140.0822  143.4777  152.1919 H   0  0  0  0  0  0  0  0  0  0  0  0  # atno 10167 bound_to 10162
  156.1194  130.6312  150.9438 H   0  0  0  0  0  0  0  0  0  0  0  0  # atno 10718 bound_to 10713
  154.5351  135.5705  153.6791 H   0  0  0  0  0  0  0  0  0  0  0  0  # atno 10763 bound_to 10752
  152.9949  135.6214  154.2577 H   0  0  0  0  0  0  0  0  0  0  0  0  # atno 10764 bound_to 10752
  154.2505  135.2859  155.2798 H   0  0  0  0  0  0  0  0  0  0  0  0  # atno 10765 bound_to 10752
  140.8476  134.2325  157.4777 H   0  0  0  0  0  0  0  0  0  0  0  0  # atno 11005 bound_to 11000
  144.8135  139.5919  143.7019 LP  0  0  0  0  0  0  0  0  0  0  0  0  # atno 17320 bound_to 7965
  146.2567  139.6319  142.9390 LP  0  0  0  0  0  0  0  0  0  0  0  0  # atno 17321 bound_to 7965
  139.5773  144.7493  151.3732 LP  0  0  0  0  0  0  0  0  0  0  0  0  # atno 17342 bound_to 10162
  140.7072  143.7484  150.7502 LP  0  0  0  0  0  0  0  0  0  0  0  0  # atno 17343 bound_to 10162
  157.6378  131.0914  150.8313 LP  0  0  0  0  0  0  0  0  0  0  0  0  # atno 17370 bound_to 10713
  156.8412  130.5048  149.5321 LP  0  0  0  0  0  0  0  0  0  0  0  0  # atno 17371 bound_to 10713
  139.8703  134.9667  156.4571 LP  0  0  0  0  0  0  0  0  0  0  0  0  # atno 17394 bound_to 11000
  140.8826  133.7906  155.9483 LP  0  0  0  0  0  0  0  0  0  0  0  0  # atno 17395 bound_to 11000

$$$$
