AV-unprocessed.smi:2608|AV-procd|sdf|10204|dock9
  -GOLD-   2272014213D 1   1.00000     0.00000
 Structure written by MMmdl.
 40 41  0  0  0  0  0  0  0  0  1 V2000
  153.1159  143.2224  159.7325 C   0  0  0  0  0  0  0  0  0  0  0  0
  152.1960  144.0605  158.8316 C   0  0  0  0  0  0  0  0  0  0  0  0
  151.9190  145.4305  159.4771 C   0  0  0  0  0  0  0  0  0  0  0  0
  150.9091  143.2743  158.4904 C   0  0  0  0  0  0  0  0  0  0  0  0
  151.1719  141.9202  157.8236 C   0  0  0  0  0  0  0  0  0  0  0  0
  151.8419  141.0709  158.4105 O   0  0  0  0  0  0  0  0  0  0  0  0
  150.6337  141.7609  156.6013 N   0  0  0  0  0  0  0  0  0  0  0  0
  150.6862  140.6225  155.7479 C   0  0  0  0  0  0  0  0  0  0  0  0
  151.8468  139.8256  155.5960 C   0  0  0  0  0  0  0  0  0  0  0  0
  151.8158  138.7316  154.7119 C   0  0  0  0  0  0  0  0  0  0  0  0
  150.6284  138.4779  154.0020 C   0  0  0  0  0  0  0  0  0  0  0  0
  149.5197  139.2361  154.1228 N   0  0  0  0  0  0  0  0  0  0  0  0
  149.5452  140.2903  154.9737 C   0  0  0  0  0  0  0  0  0  0  0  0
  148.3759  141.0621  155.0791 N   0  0  0  0  0  0  0  0  0  0  0  0
  147.9266  141.6305  153.8148 C   0  0  0  0  0  0  0  0  0  0  0  0
  146.7373  142.5747  154.0602 C   0  0  0  0  0  0  0  0  0  0  0  0
  145.7005  141.8700  154.7379 O   0  0  0  0  0  0  0  0  0  0  0  0
  146.1267  141.3773  156.0055 C   0  0  0  0  0  0  0  0  0  0  0  0
  147.3024  140.4040  155.8129 C   0  0  0  0  0  0  0  0  0  0  0  0
  152.6405  143.0032  160.6890 H   0  0  0  0  0  0  0  0  0  0  0  0
  154.0505  143.7456  159.9368 H   0  0  0  0  0  0  0  0  0  0  0  0
  153.3700  142.2723  159.2617 H   0  0  0  0  0  0  0  0  0  0  0  0
  152.7384  144.2393  157.9018 H   0  0  0  0  0  0  0  0  0  0  0  0
  151.3260  145.3268  160.3861 H   0  0  0  0  0  0  0  0  0  0  0  0
  151.3820  146.0959  158.8017 H   0  0  0  0  0  0  0  0  0  0  0  0
  152.8492  145.9327  159.7442 H   0  0  0  0  0  0  0  0  0  0  0  0
  150.3287  143.1068  159.3992 H   0  0  0  0  0  0  0  0  0  0  0  0
  150.2709  143.8687  157.8352 H   0  0  0  0  0  0  0  0  0  0  0  0
  150.0378  142.5108  156.2813 H   0  0  0  0  0  0  0  0  0  0  0  0
  152.7611  140.0414  156.1268 H   0  0  0  0  0  0  0  0  0  0  0  0
  152.6847  138.1049  154.5774 H   0  0  0  0  0  0  0  0  0  0  0  0
  150.5689  137.6482  153.3133 H   0  0  0  0  0  0  0  0  0  0  0  0
  148.7455  142.1728  153.3408 H   0  0  0  0  0  0  0  0  0  0  0  0
  147.6300  140.8309  153.1345 H   0  0  0  0  0  0  0  0  0  0  0  0
  147.0441  143.4428  154.6462 H   0  0  0  0  0  0  0  0  0  0  0  0
  146.3520  142.9498  153.1119 H   0  0  0  0  0  0  0  0  0  0  0  0
  146.4116  142.2082  156.6529 H   0  0  0  0  0  0  0  0  0  0  0  0
  145.2923  140.8687  156.4884 H   0  0  0  0  0  0  0  0  0  0  0  0
  146.9666  139.5227  155.2646 H   0  0  0  0  0  0  0  0  0  0  0  0
  147.6705  140.0627  156.7813 H   0  0  0  0  0  0  0  0  0  0  0  0
  1  2  1  0  0  0  0
  1 20  1  0  0  0  0
  1 21  1  0  0  0  0
  1 22  1  0  0  0  0
  2  3  1  0  0  0  0
  2  4  1  0  0  0  0
  2 23  1  0  0  0  0
  3 24  1  0  0  0  0
  3 25  1  0  0  0  0
  3 26  1  0  0  0  0
  4  5  1  0  0  0  0
  4 27  1  0  0  0  0
  4 28  1  0  0  0  0
  5  6  2  0  0  0  0
  5  7  1  0  0  0  0
  7  8  1  0  0  0  0
  7 29  1  0  0  0  0
  8 13  1  0  0  0  0
  8  9  2  0  0  0  0
  9 10  1  0  0  0  0
  9 30  1  0  0  0  0
 10 11  2  0  0  0  0
 10 31  1  0  0  0  0
 11 12  1  0  0  0  0
 11 32  1  0  0  0  0
 12 13  2  0  0  0  0
 13 14  1  0  0  0  0
 14 19  1  0  0  0  0
 14 15  1  0  0  0  0
 15 16  1  0  0  0  0
 15 33  1  0  0  0  0
 15 34  1  0  0  0  0
 16 17  1  0  0  0  0
 16 35  1  0  0  0  0
 16 36  1  0  0  0  0
 17 18  1  0  0  0  0
 18 19  1  0  0  0  0
 18 37  1  0  0  0  0
 18 38  1  0  0  0  0
 19 39  1  0  0  0  0
 19 40  1  0  0  0  0
M  END
> <s_m_source_file>
AV-unprocessed.smi

> <i_m_source_file_index>
2608

> <i_lp_mmshare_version>
43012

> <i_f3d_flags>
0

> <s_epik_input>
W0NIM11bQ0hdKFtDSDNdKVtDSDJdQyg9TylbTkhdYzFbY0hdW2NIXVtjSF1uYzFOMltDSDJdW0NIMl1PW0NIMl1bQ0gyXTI=

> <s_epik_cmdline>
J2VwaWtfcHl0aG9uJywgJy1waCcsICc3LjAnLCAnLXRuJywgJzgnLCAnLW1hJywgJzIwMCcsICctbWV0YWxfYmluZGluZycsICctaW1hZScsICc8aW5maWxlLm1hZT4nLCAnLW9tYWUnLCAnPG91dGZpbGUubWFlPic=

> <r_lp_tautomer_probability>
1

> <r_epik_Ionization_Penalty>
0.0006373

> <r_epik_Ionization_Penalty_Charging>
0

> <r_epik_Ionization_Penalty_Neutral>
0.0006373

> <r_epik_State_Penalty>
0.000394234

> <r_epik_Charging_Adjusted_Penalty>
0.000394234

> <i_epik_Tot_Q>
0

> <i_epik_Tot_abs_Q>
0

> <r_epik_Metal_State_Penalty>
-0

> <b_epik_Metal_Only>
0

> <s_lp_Force_Field>
OPLS_2005

> <r_lp_Energy>
24.3939

> <b_lp_Chiralities_Consistent>
1

> <s_lp_Variant>
AV-unprocessed.smi:2608-1

> <Gold.Version>
5.8.1

> <Gold.Id.Protein>
6NUR|6NUR_protein|mol2

> <Gold.PLP.Fitness>
43.6932

> <Gold.PLP.PLP>
-40.9169

> <Gold.PLP.part.hbond>
0.0000

> <Gold.PLP.part.metal>
0.0000

> <Gold.PLP.part.buried>
-6.6002

> <Gold.PLP.part.nonpolar>
-35.0473

> <Gold.PLP.part.repulsive>
0.9046

> <Gold.PLP.ligand.clash>
0.0000

> <Gold.PLP.ligand.torsion>
0.4567

> <Gold.PLP.Chemscore.Hbond>
0.0000

> <Gold.PLP.Chemscore.CHOScore>
1.1845

> <Gold.PLP.Chemscore.Metal>
0.0000

> <Gold.Chemscore.Hbonds>
donor molecule, donor type, donor heavy atom, donor atom, acceptor molecule, acceptor atom, score
      L1  C    11    32       P1  7948  0.58
      L1  C    11    32       P1  7949  0.59

> <Gold.PLP.Chemscore.Internal.Correction>
0.1363

> <Gold.Rescore>
     Score         DG    S(hbond)    S(metal)    S(lipo)     H(rot)  DE(clash)    DE(int)     intcor
     12.64     -13.91       0.00        0.00     100.75       1.31       0.03       1.24       ----

> <Gold.Chemscore.Fitness>
12.6425

> <Gold.Chemscore.DG>
-13.9090

> <Gold.Chemscore.ZeroCoef>
-5.4800

> <Gold.Chemscore.Hbond>
0.0000

> <Gold.Chemscore.Metal>
0.0000

> <Gold.Chemscore.Lipo>
100.7543

> <Gold.Chemscore.Internal_Hbond>
0.0000

> <Gold.Chemscore.DEClash>
0.0309

> <Gold.Chemscore.DEInternal>
1.2357

> <Gold.Chemscore.Rot>
1.3122

> <Gold.Chemscore.Internal.Correction>
   9.000000E+99

> <Gold.Chemscore.Hbond.Weighted>
-0.0000

> <Gold.Chemscore.Metal.Weighted>
-0.0000

> <Gold.Chemscore.Lipo.Weighted>
-11.7883

> <Gold.Chemscore.Internal_Hbond.Weighted>
0.0000

> <Gold.Chemscore.DEClash.Weighted>
0.0309

> <Gold.Chemscore.DEInternal.Weighted>
1.2357

> <Gold.Chemscore.Rot.Weighted>
3.3592

> <Gold.Chemscore.Internal.Correction.Weighted>
   9.000000E+99

> <Gold.Protein.RotatedTorsions>
[ 6907 6896 6895 6894 ] final   58.11 input  -60.11 | X-H torsion
[ 7974 7965 7964 7962 ] final   59.16 input  175.53 | X-H torsion
[ 8008 7997 7996 7995 ] final  -35.13 input   59.86 | X-H torsion
[ 10167 10162 10161 10158 ] final   69.62 input  -65.29 | X-H torsion
[ 10718 10713 10712 10709 ] final -140.98 input   66.30 | X-H torsion
[ 10763 10752 10751 10750 ] final   44.55 input  -60.55 | X-H torsion
[ 11005 11000 10999 10996 ] final   88.43 input  -57.11 | X-H torsion

> <Gold.Protein.ActiveResidues>
 VAL166  LYS551  ARG553  GLY616  TRP617  ASP618  TYR619  PRO620  LYS621  CYS622 
 ASP623  PHE694  ASN695  SER759  ASP760  ASP761  ALA762  ILE779  LEU786  VAL792 
 PHE793  MET794  SER795  GLU796  ALA797  LYS798  CYS799  TRP800  GLU811  SER814 

> <Gold.Protein.RotatedAtoms>
  152.3793  134.6614  160.0148 H   0  0  0  0  0  0  0  0  0  0  0  0  # atno 6907 bound_to 6896
  151.6882  133.3306  159.3244 H   0  0  0  0  0  0  0  0  0  0  0  0  # atno 6908 bound_to 6896
  150.7735  134.6657  159.6408 H   0  0  0  0  0  0  0  0  0  0  0  0  # atno 6909 bound_to 6896
  145.9102  139.3648  143.0540 H   0  0  0  0  0  0  0  0  0  0  0  0  # atno 7974 bound_to 7965
  154.4103  140.1665  156.2162 H   0  0  0  0  0  0  0  0  0  0  0  0  # atno 8008 bound_to 7997
  155.9402  140.3408  155.6298 H   0  0  0  0  0  0  0  0  0  0  0  0  # atno 8009 bound_to 7997
  155.6998  140.0744  157.2405 H   0  0  0  0  0  0  0  0  0  0  0  0  # atno 8010 bound_to 7997
  140.0659  144.5194  150.7261 H   0  0  0  0  0  0  0  0  0  0  0  0  # atno 10167 bound_to 10162
  156.3287  130.7574  151.1687 H   0  0  0  0  0  0  0  0  0  0  0  0  # atno 10718 bound_to 10713
  152.9839  135.6067  154.3293 H   0  0  0  0  0  0  0  0  0  0  0  0  # atno 10763 bound_to 10752
  154.2997  135.2773  155.2618 H   0  0  0  0  0  0  0  0  0  0  0  0  # atno 10764 bound_to 10752
  154.4876  135.5900  153.6492 H   0  0  0  0  0  0  0  0  0  0  0  0  # atno 10765 bound_to 10752
  139.8896  134.8487  156.3000 H   0  0  0  0  0  0  0  0  0  0  0  0  # atno 11005 bound_to 11000
  145.8680  140.9436  143.0665 LP  0  0  0  0  0  0  0  0  0  0  0  0  # atno 17320 bound_to 7965
  144.6742  140.0618  143.7476 LP  0  0  0  0  0  0  0  0  0  0  0  0  # atno 17321 bound_to 7965
  140.7149  143.2536  151.4464 LP  0  0  0  0  0  0  0  0  0  0  0  0  # atno 17342 bound_to 10162
  139.5865  144.1592  152.2036 LP  0  0  0  0  0  0  0  0  0  0  0  0  # atno 17343 bound_to 10162
  157.7426  131.0487  150.5011 LP  0  0  0  0  0  0  0  0  0  0  0  0  # atno 17370 bound_to 10713
  156.5173  130.4153  149.6269 LP  0  0  0  0  0  0  0  0  0  0  0  0  # atno 17371 bound_to 10713
  140.9920  133.7203  156.0828 LP  0  0  0  0  0  0  0  0  0  0  0  0  # atno 17394 bound_to 11000
  140.7613  134.3936  157.5525 LP  0  0  0  0  0  0  0  0  0  0  0  0  # atno 17395 bound_to 11000

$$$$
