AV-unprocessed.smi:39|AV-procd|sdf|351|dock6
  -GOLD-   2262016193D 1   1.00000     0.00000
 Structure written by MMmdl.
 32 33  0  0  0  0  0  0  0  0  3 V2000
  152.9904  143.0197  160.4513 C   0  0  0  0  0  0  0  0  0  0  0  0
  152.2353  142.6572  159.1832 C   0  0  0  0  0  0  0  0  0  0  0  0
  152.2628  141.4081  158.6522 C   0  0  0  0  0  0  0  0  0  0  0  0
  151.5845  141.0468  157.4956 N   0  0  0  0  0  0  0  0  0  0  0  0
  151.6569  139.6403  156.9429 C   0  0  1  0  0  0  0  0  0  0  0  0
  152.7104  138.8229  157.6961 C   0  0  0  0  0  0  0  0  0  0  0  0
  151.8555  138.0076  158.6492 C   0  0  2  0  0  0  0  0  0  0  0  0
  152.4979  136.7580  159.0622 N   0  0  0  0  0  0  0  0  0  0  0  0
  152.8155  135.9762  158.1561 N   0  3  0  0  0  0  0  0  0  0  0  0
  153.0506  135.3371  157.2443 N   0  5  0  0  0  0  0  0  0  0  0  0
  150.6027  137.7711  157.8017 C   0  0  1  0  0  0  0  0  0  0  0  0
  149.3533  137.4375  158.6319 C   0  0  0  0  0  0  0  0  0  0  0  0
  149.5154  136.1902  159.2723 O   0  0  0  0  0  0  0  0  0  0  0  0
  150.4215  139.0148  157.1293 O   0  0  0  0  0  0  0  0  0  0  0  0
  150.8393  142.0216  156.7999 C   0  0  0  0  0  0  0  0  0  0  0  0
  150.2412  141.7856  155.7509 O   0  0  0  0  0  0  0  0  0  0  0  0
  150.8053  143.3025  157.3482 N   0  0  0  0  0  0  0  0  0  0  0  0
  151.4565  143.7046  158.5168 C   0  0  0  0  0  0  0  0  0  0  0  0
  151.3473  144.8670  158.9037 O   0  0  0  0  0  0  0  0  0  0  0  0
  151.8520  139.7250  155.8725 H   0  0  0  0  0  0  0  0  0  0  0  0
  151.5925  138.6192  159.5148 H   0  0  0  0  0  0  0  0  0  0  0  0
  150.8044  136.9929  157.0624 H   0  0  0  0  0  0  0  0  0  0  0  0
  150.2670  144.0009  156.8566 H   0  0  0  0  0  0  0  0  0  0  0  0
  153.5410  142.1681  160.8520 H   0  0  0  0  0  0  0  0  0  0  0  0
  152.2985  143.3626  161.2214 H   0  0  0  0  0  0  0  0  0  0  0  0
  153.7070  143.8175  160.2535 H   0  0  0  0  0  0  0  0  0  0  0  0
  152.8516  140.6602  159.1618 H   0  0  0  0  0  0  0  0  0  0  0  0
  153.2231  138.1787  156.9802 H   0  0  0  0  0  0  0  0  0  0  0  0
  153.4482  139.4539  158.1933 H   0  0  0  0  0  0  0  0  0  0  0  0
  149.2088  138.1866  159.4110 H   0  0  0  0  0  0  0  0  0  0  0  0
  148.4544  137.4350  158.0148 H   0  0  0  0  0  0  0  0  0  0  0  0
  148.7813  135.6389  159.0478 H   0  0  0  0  0  0  0  0  0  0  0  0
  1  2  1  0  0  0  0
  1 24  1  0  0  0  0
  1 25  1  0  0  0  0
  1 26  1  0  0  0  0
  2 18  1  0  0  0  0
  2  3  2  0  0  0  0
  3  4  1  0  0  0  0
  3 27  1  0  0  0  0
  4  5  1  0  0  0  0
  4 15  1  0  0  0  0
  5 20  1  0  0  0  0
  5 14  1  0  0  0  0
  5  6  1  0  0  0  0
  6  7  1  0  0  0  0
  6 28  1  0  0  0  0
  6 29  1  0  0  0  0
  7 21  1  0  0  0  0
  7  8  1  0  0  0  0
  7 11  1  0  0  0  0
  8  9  2  0  0  0  0
  9 10  2  0  0  0  0
 11 22  1  0  0  0  0
 11 12  1  0  0  0  0
 11 14  1  0  0  0  0
 12 13  1  0  0  0  0
 12 30  1  0  0  0  0
 12 31  1  0  0  0  0
 13 32  1  0  0  0  0
 15 16  2  0  0  0  0
 15 17  1  0  0  0  0
 17 23  1  0  0  0  0
 17 18  1  0  0  0  0
 18 19  2  0  0  0  0
M  CHG  1   9   1
M  CHG  1  10  -1
M  END
> <s_m_source_file>
AV-unprocessed.smi

> <i_m_source_file_index>
39

> <i_lp_mmshare_version>
43012

> <i_f3d_flags>
0

> <s_epik_input>
Tz1jMVtuSF1jKD1PKW4oW2NIXWMxW0NIM10pW0NASF0yW0NIMl1bQ0BIXShOPVtOK109W04tXSlbQ0BIXShPMilbQ0gyXVtPSF0=

> <s_epik_cmdline>
J2VwaWtfcHl0aG9uJywgJy1waCcsICc3LjAnLCAnLXRuJywgJzgnLCAnLW1hJywgJzIwMCcsICctbWV0YWxfYmluZGluZycsICctaW1hZScsICc8aW5maWxlLm1hZT4nLCAnLW9tYWUnLCAnPG91dGZpbGUubWFlPic=

> <r_lp_tautomer_probability>
0.999537

> <r_epik_Ionization_Penalty>
0.00127512

> <r_epik_Ionization_Penalty_Charging>
0.00127507

> <r_epik_Ionization_Penalty_Neutral>
5.43433e-08

> <r_epik_State_Penalty>
0.000844892

> <r_epik_Charging_Adjusted_Penalty>
0.00211996

> <i_epik_Tot_Q>
0

> <i_epik_Tot_abs_Q>
2

> <r_epik_Metal_State_Penalty>
0.680636

> <b_epik_Metal_Only>
0

> <s_epik_Chemistry_Notes>
This compound contains an acetal/aminal-like group ( X-CH(R)-Y where X, Y are N, S, or O) that may be acid/base labile, releasing an aldehyde.

> <s_lp_Force_Field>
OPLS_2005

> <r_lp_Energy>
24.0553

> <b_lp_Chiralities_Consistent>
1

> <s_lp_Variant>
AV-unprocessed.smi:39-1

> <Gold.Version>
5.8.1

> <Gold.Id.Protein>
6NUR|6NUR_protein|mol2

> <Gold.PLP.Fitness>
39.5298

> <Gold.PLP.PLP>
-30.9493

> <Gold.PLP.part.hbond>
-5.2871

> <Gold.PLP.part.metal>
0.0000

> <Gold.PLP.part.buried>
-6.1928

> <Gold.PLP.part.nonpolar>
-19.7547

> <Gold.PLP.part.repulsive>
0.2086

> <Gold.PLP.ligand.clash>
0.0000

> <Gold.PLP.ligand.torsion>
0.2258

> <Gold.PLP.Chemscore.Hbond>
3.0000

> <Gold.PLP.Chemscore.CHOScore>
0.0000

> <Gold.PLP.Chemscore.Metal>
0.0000

> <Gold.Chemscore.Hbonds>
donor molecule, donor type, donor heavy atom, donor atom, acceptor molecule, acceptor atom, score
      L1  H    17    23       P1  8028  1.00
      P1  H  6896  6908       L1    13  1.00
      P1  H 10752 10763       L1    10  1.00

> <Gold.PLP.Chemscore.Internal.Correction>
0.0321

> <Gold.Rescore>
     Score         DG    S(hbond)    S(metal)    S(lipo)     H(rot)  DE(clash)    DE(int)     intcor
     12.51     -13.49       2.89        0.00      46.16       2.75       0.11       0.87       ----

> <Gold.Chemscore.Fitness>
12.5058

> <Gold.Chemscore.DG>
-13.4914

> <Gold.Chemscore.ZeroCoef>
-5.4800

> <Gold.Chemscore.Hbond>
2.8912

> <Gold.Chemscore.Metal>
0.0000

> <Gold.Chemscore.Lipo>
46.1625

> <Gold.Chemscore.Internal_Hbond>
0.0000

> <Gold.Chemscore.DEClash>
0.1120

> <Gold.Chemscore.DEInternal>
0.8735

> <Gold.Chemscore.Rot>
2.7524

> <Gold.Chemscore.Internal.Correction>
   9.000000E+99

> <Gold.Chemscore.Hbonds>
donor molecule, donor type, donor heavy atom, donor atom, acceptor molecule, acceptor atom, score
      L1  H    17    23       P1  8028  0.97
      P1  H  6896  6908       L1    13  0.50
      P1  H 10752 10763       L1    10  0.98

> <Gold.Chemscore.Hbond.Weighted>
-9.6565

> <Gold.Chemscore.Metal.Weighted>
-0.0000

> <Gold.Chemscore.Lipo.Weighted>
-5.4010

> <Gold.Chemscore.Internal_Hbond.Weighted>
0.0000

> <Gold.Chemscore.DEClash.Weighted>
0.1120

> <Gold.Chemscore.DEInternal.Weighted>
0.8735

> <Gold.Chemscore.Rot.Weighted>
7.0461

> <Gold.Chemscore.Internal.Correction.Weighted>
   9.000000E+99

> <Gold.Protein.RotatedTorsions>
[ 6907 6896 6895 6894 ] final -161.42 input  -60.11 | X-H torsion
[ 7974 7965 7964 7962 ] final  -95.38 input  175.53 | X-H torsion
[ 8008 7997 7996 7995 ] final  -23.41 input   59.86 | X-H torsion
[ 10167 10162 10161 10158 ] final  -31.30 input  -65.29 | X-H torsion
[ 10718 10713 10712 10709 ] final   23.19 input   66.30 | X-H torsion
[ 10763 10752 10751 10750 ] final  112.14 input  -60.55 | X-H torsion
[ 11005 11000 10999 10996 ] final   60.43 input  -57.11 | X-H torsion

> <Gold.Protein.ActiveResidues>
 VAL166  LYS551  ARG553  GLY616  TRP617  ASP618  TYR619  PRO620  LYS621  CYS622 
 ASP623  PHE694  ASN695  SER759  ASP760  ASP761  ALA762  ILE779  LEU786  VAL792 
 PHE793  MET794  SER795  GLU796  ALA797  LYS798  CYS799  TRP800  GLU811  SER814 

> <Gold.Protein.RotatedAtoms>
  151.3643  133.3878  159.2692 H   0  0  0  0  0  0  0  0  0  0  0  0  # atno 6907 bound_to 6896
  150.9701  134.9076  159.7793 H   0  0  0  0  0  0  0  0  0  0  0  0  # atno 6908 bound_to 6896
  152.5181  134.3605  159.9335 H   0  0  0  0  0  0  0  0  0  0  0  0  # atno 6909 bound_to 6896
  145.3608  140.9491  143.2501 H   0  0  0  0  0  0  0  0  0  0  0  0  # atno 7974 bound_to 7965
  154.4587  140.1981  156.0307 H   0  0  0  0  0  0  0  0  0  0  0  0  # atno 8008 bound_to 7997
  156.0797  140.3273  155.7650 H   0  0  0  0  0  0  0  0  0  0  0  0  # atno 8009 bound_to 7997
  155.5132  140.0563  157.2910 H   0  0  0  0  0  0  0  0  0  0  0  0  # atno 8010 bound_to 7997
  140.7238  143.3781  151.1652 H   0  0  0  0  0  0  0  0  0  0  0  0  # atno 10167 bound_to 10162
  157.1627  130.6724  149.6050 H   0  0  0  0  0  0  0  0  0  0  0  0  # atno 10718 bound_to 10713
  153.4736  135.3695  155.2404 H   0  0  0  0  0  0  0  0  0  0  0  0  # atno 10763 bound_to 10752
  154.8756  135.3937  154.3783 H   0  0  0  0  0  0  0  0  0  0  0  0  # atno 10764 bound_to 10752
  153.4375  135.7083  153.6255 H   0  0  0  0  0  0  0  0  0  0  0  0  # atno 10765 bound_to 10752
  140.0232  134.6121  155.9609 H   0  0  0  0  0  0  0  0  0  0  0  0  # atno 11005 bound_to 11000
  144.8647  139.5125  143.6795 LP  0  0  0  0  0  0  0  0  0  0  0  0  # atno 17320 bound_to 7965
  146.2928  139.7188  142.9149 LP  0  0  0  0  0  0  0  0  0  0  0  0  # atno 17321 bound_to 7965
  139.7365  143.8991  152.3036 LP  0  0  0  0  0  0  0  0  0  0  0  0  # atno 17342 bound_to 10162
  139.8798  144.7024  150.8891 LP  0  0  0  0  0  0  0  0  0  0  0  0  # atno 17343 bound_to 10162
  155.9751  130.4706  150.6435 LP  0  0  0  0  0  0  0  0  0  0  0  0  # atno 17370 bound_to 10713
  157.4117  131.0824  151.1215 LP  0  0  0  0  0  0  0  0  0  0  0  0  # atno 17371 bound_to 10713
  141.1787  133.6543  156.4931 LP  0  0  0  0  0  0  0  0  0  0  0  0  # atno 17394 bound_to 11000
  140.4350  134.7067  157.4962 LP  0  0  0  0  0  0  0  0  0  0  0  0  # atno 17395 bound_to 11000

$$$$
