AV-unprocessed.smi:1199|AV-procd|sdf|5016|dock1
  -GOLD-   22720 4 33D 1   1.00000     0.00000
 Structure written by MMmdl.
 41 42  0  0  0  0  0  0  0  0  3 V2000
  149.5953  133.6659  154.1036 C   0  0  0  0  0  0  0  0  0  0  0  0
  148.1946  133.2653  154.5854 C   0  0  2  0  0  0  0  0  0  0  0  0
  147.1769  134.4171  154.4135 C   0  0  0  0  0  0  0  0  0  0  0  0
  146.8627  134.7214  152.9925 N   0  3  0  0  0  0  0  0  0  0  0  0
  146.4588  133.5224  152.2214 C   0  0  0  0  0  0  0  0  0  0  0  0
  146.2291  133.8899  150.7455 C   0  0  0  0  0  0  0  0  0  0  0  0
  145.2625  134.9297  150.6496 O   0  0  0  0  0  0  0  0  0  0  0  0
  145.6806  136.1106  151.3234 C   0  0  0  0  0  0  0  0  0  0  0  0
  145.8654  135.8043  152.8185 C   0  0  0  0  0  0  0  0  0  0  0  0
  148.2567  132.8468  155.9850 N   0  0  0  0  0  0  0  0  0  0  0  0
  148.7750  133.5639  156.9943 C   0  0  0  0  0  0  0  0  0  0  0  0
  149.1409  134.7341  156.8795 O   0  0  0  0  0  0  0  0  0  0  0  0
  148.9204  132.8339  158.3333 C   0  0  0  0  0  0  0  0  0  0  0  0
  148.2152  133.5466  159.4065 N   0  0  0  0  0  0  0  0  0  0  0  0
  148.6645  134.9269  159.5825 N   0  5  0  0  0  0  0  0  0  0  0  0
  148.0904  135.6899  160.5506 C   0  0  0  0  0  0  0  0  0  0  0  0
  148.4289  136.8500  160.7713 O   0  0  0  0  0  0  0  0  0  0  0  0
  147.0263  135.1013  161.3460 C   0  0  0  0  0  0  0  0  0  0  0  0
  146.6162  133.8337  161.1446 C   0  0  0  0  0  0  0  0  0  0  0  0
  147.2102  132.9739  160.1286 C   0  0  0  0  0  0  0  0  0  0  0  0
  146.8331  131.8184  159.9354 O   0  0  0  0  0  0  0  0  0  0  0  0
  149.5767  133.9664  153.0556 H   0  0  0  0  0  0  0  0  0  0  0  0
  150.2943  132.8339  154.1942 H   0  0  0  0  0  0  0  0  0  0  0  0
  149.9933  134.5003  154.6823 H   0  0  0  0  0  0  0  0  0  0  0  0
  147.8751  132.4286  153.9627 H   0  0  0  0  0  0  0  0  0  0  0  0
  146.2515  134.1247  154.9123 H   0  0  0  0  0  0  0  0  0  0  0  0
  147.5243  135.3189  154.9198 H   0  0  0  0  0  0  0  0  0  0  0  0
  147.2336  132.7580  152.2892 H   0  0  0  0  0  0  0  0  0  0  0  0
  145.5490  133.0995  152.6504 H   0  0  0  0  0  0  0  0  0  0  0  0
  147.1623  134.2006  150.2771 H   0  0  0  0  0  0  0  0  0  0  0  0
  145.8706  133.0220  150.1921 H   0  0  0  0  0  0  0  0  0  0  0  0
  146.6045  136.4922  150.8855 H   0  0  0  0  0  0  0  0  0  0  0  0
  144.9221  136.8816  151.1890 H   0  0  0  0  0  0  0  0  0  0  0  0
  144.9143  135.5042  153.2606 H   0  0  0  0  0  0  0  0  0  0  0  0
  146.1841  136.7078  153.3359 H   0  0  0  0  0  0  0  0  0  0  0  0
  147.9650  131.9015  156.1891 H   0  0  0  0  0  0  0  0  0  0  0  0
  148.5496  131.8141  158.2188 H   0  0  0  0  0  0  0  0  0  0  0  0
  149.9756  132.7319  158.5940 H   0  0  0  0  0  0  0  0  0  0  0  0
  146.5523  135.6939  162.1149 H   0  0  0  0  0  0  0  0  0  0  0  0
  145.8211  133.4382  161.7589 H   0  0  0  0  0  0  0  0  0  0  0  0
  147.7231  135.0478  152.5732 H   0  0  0  0  0  0  0  0  0  0  0  0
  1  2  1  0  0  0  0
  1 22  1  0  0  0  0
  1 23  1  0  0  0  0
  1 24  1  0  0  0  0
  2  3  1  0  0  0  0
  2 10  1  0  0  0  0
  2 25  1  0  0  0  0
  3  4  1  0  0  0  0
  3 26  1  0  0  0  0
  3 27  1  0  0  0  0
  4  9  1  0  0  0  0
  4  5  1  0  0  0  0
  4 41  1  0  0  0  0
  5  6  1  0  0  0  0
  5 28  1  0  0  0  0
  5 29  1  0  0  0  0
  6  7  1  0  0  0  0
  6 30  1  0  0  0  0
  6 31  1  0  0  0  0
  7  8  1  0  0  0  0
  8  9  1  0  0  0  0
  8 32  1  0  0  0  0
  8 33  1  0  0  0  0
  9 34  1  0  0  0  0
  9 35  1  0  0  0  0
 10 11  1  0  0  0  0
 10 36  1  0  0  0  0
 11 12  2  0  0  0  0
 11 13  1  0  0  0  0
 13 37  1  0  0  0  0
 13 38  1  0  0  0  0
 13 14  1  0  0  0  0
 14 15  1  0  0  0  0
 14 20  1  0  0  0  0
 15 16  1  0  0  0  0
 16 17  2  0  0  0  0
 16 18  1  0  0  0  0
 18 39  1  0  0  0  0
 18 19  2  0  0  0  0
 19 40  1  0  0  0  0
 19 20  1  0  0  0  0
 20 21  2  0  0  0  0
M  CHG  1   4   1
M  CHG  1  15  -1
M  END
> <s_m_source_file>
AV-unprocessed.smi

> <i_m_source_file_index>
1199

> <i_lp_mmshare_version>
43012

> <i_f3d_flags>
0

> <s_epik_input>
W0NIMl0xW0NIMl1PW0NIMl1bQ0gyXU4xW0NIMl1bQ0BASF0oW0NIM10pW05IXUMoPU8pW0NIMl1uMltuSF1jKD1PKVtjSF1bY0hdYzI9Tw==

> <s_epik_cmdline>
J2VwaWtfcHl0aG9uJywgJy1waCcsICc3LjAnLCAnLXRuJywgJzgnLCAnLW1hJywgJzIwMCcsICctbWV0YWxfYmluZGluZycsICctaW1hZScsICc8aW5maWxlLm1hZT4nLCAnLW9tYWUnLCAnPG91dGZpbGUubWFlPic=

> <r_lp_tautomer_probability>
1

> <r_epik_Ionization_Penalty>
0.741876

> <r_epik_Ionization_Penalty_Charging>
0.741876

> <r_epik_Ionization_Penalty_Neutral>
9.12373e-08

> <r_epik_State_Penalty>
0.692284

> <r_epik_Charging_Adjusted_Penalty>
1.43416

> <i_epik_Tot_Q>
0

> <i_epik_Tot_abs_Q>
2

> <r_epik_Metal_State_Penalty>
0.692284

> <b_epik_Metal_Only>
0

> <s_lp_Force_Field>
OPLS_2005

> <r_lp_Energy>
28.0654

> <b_lp_Chiralities_Consistent>
1

> <s_lp_Variant>
AV-unprocessed.smi:1199-3

> <Gold.Version>
5.8.1

> <Gold.Id.Protein>
6NUR|6NUR_protein|mol2

> <Gold.PLP.Fitness>
39.8382

> <Gold.PLP.PLP>
-25.1667

> <Gold.PLP.part.hbond>
-3.1983

> <Gold.PLP.part.metal>
0.0000

> <Gold.PLP.part.buried>
-4.0595

> <Gold.PLP.part.nonpolar>
-19.0139

> <Gold.PLP.part.repulsive>
0.2234

> <Gold.PLP.ligand.clash>
0.0000

> <Gold.PLP.ligand.torsion>
0.1452

> <Gold.PLP.Chemscore.Hbond>
4.9600

> <Gold.PLP.Chemscore.CHOScore>
0.0000

> <Gold.PLP.Chemscore.Metal>
0.0000

> <Gold.Chemscore.Hbonds>
donor molecule, donor type, donor heavy atom, donor atom, acceptor molecule, acceptor atom, score
      L1  H     4    41       P1  7948  2.00
      P1  H  6896  6908       L1    15  1.87
      P1  H  6931  6943       L1    17  0.99

> <Gold.PLP.Chemscore.Internal.Correction>
0.0819

> <Gold.Rescore>
     Score         DG    S(hbond)    S(metal)    S(lipo)     H(rot)  DE(clash)    DE(int)     intcor
     10.67     -13.34       2.49        0.00      47.89       2.37       0.11       2.55       ----

> <Gold.Chemscore.Fitness>
10.6728

> <Gold.Chemscore.DG>
-13.3357

> <Gold.Chemscore.ZeroCoef>
-5.4800

> <Gold.Chemscore.Hbond>
2.4947

> <Gold.Chemscore.Metal>
0.0000

> <Gold.Chemscore.Lipo>
47.8865

> <Gold.Chemscore.Internal_Hbond>
0.0000

> <Gold.Chemscore.DEClash>
0.1110

> <Gold.Chemscore.DEInternal>
2.5519

> <Gold.Chemscore.Rot>
2.3747

> <Gold.Chemscore.Internal.Correction>
   9.000000E+99

> <Gold.Chemscore.Hbonds>
donor molecule, donor type, donor heavy atom, donor atom, acceptor molecule, acceptor atom, score
      L1  H     4    41       P1  7948  0.97
      P1  H  6896  6908       L1    15  0.18
      P1  H  6931  6943       L1    17  0.93
      P1  H  6934  6947       L1    17  0.01

> <Gold.Chemscore.Hbond.Weighted>
-8.3321

> <Gold.Chemscore.Metal.Weighted>
-0.0000

> <Gold.Chemscore.Lipo.Weighted>
-5.6027

> <Gold.Chemscore.Internal_Hbond.Weighted>
0.0000

> <Gold.Chemscore.DEClash.Weighted>
0.1110

> <Gold.Chemscore.DEInternal.Weighted>
2.5519

> <Gold.Chemscore.Rot.Weighted>
6.0791

> <Gold.Chemscore.Internal.Correction.Weighted>
   9.000000E+99

> <Gold.Protein.RotatedTorsions>
[ 6907 6896 6895 6894 ] final  172.76 input  -60.11 | X-H torsion
[ 7974 7965 7964 7962 ] final   35.28 input  175.53 | X-H torsion
[ 8008 7997 7996 7995 ] final -164.41 input   59.86 | X-H torsion
[ 10167 10162 10161 10158 ] final -107.56 input  -65.29 | X-H torsion
[ 10718 10713 10712 10709 ] final   10.95 input   66.30 | X-H torsion
[ 10763 10752 10751 10750 ] final   32.74 input  -60.55 | X-H torsion
[ 11005 11000 10999 10996 ] final  136.00 input  -57.11 | X-H torsion

> <Gold.Protein.ActiveResidues>
 VAL166  LYS551  ARG553  GLY616  TRP617  ASP618  TYR619  PRO620  LYS621  CYS622 
 ASP623  PHE694  ASN695  SER759  ASP760  ASP761  ALA762  ILE779  LEU786  VAL792 
 PHE793  MET794  SER795  GLU796  ALA797  LYS798  CYS799  TRP800  GLU811  SER814 

> <Gold.Protein.RotatedAtoms>
  151.7792  133.3348  159.3466 H   0  0  0  0  0  0  0  0  0  0  0  0  # atno 6907 bound_to 6896
  150.7432  134.5947  159.6015 H   0  0  0  0  0  0  0  0  0  0  0  0  # atno 6908 bound_to 6896
  152.3288  134.7288  160.0346 H   0  0  0  0  0  0  0  0  0  0  0  0  # atno 6909 bound_to 6896
  146.1294  139.6163  142.9237 H   0  0  0  0  0  0  0  0  0  0  0  0  # atno 7974 bound_to 7965
  155.8353  140.0940  157.1768 H   0  0  0  0  0  0  0  0  0  0  0  0  # atno 8008 bound_to 7997
  154.3980  140.1411  156.3724 H   0  0  0  0  0  0  0  0  0  0  0  0  # atno 8009 bound_to 7997
  155.8123  140.3449  155.5467 H   0  0  0  0  0  0  0  0  0  0  0  0  # atno 8010 bound_to 7997
  140.1757  143.4007  152.1320 H   0  0  0  0  0  0  0  0  0  0  0  0  # atno 10167 bound_to 10162
  156.9884  130.6033  149.5683 H   0  0  0  0  0  0  0  0  0  0  0  0  # atno 10718 bound_to 10713
  153.0247  135.6405  154.1402 H   0  0  0  0  0  0  0  0  0  0  0  0  # atno 10763 bound_to 10752
  154.1133  135.2851  155.3227 H   0  0  0  0  0  0  0  0  0  0  0  0  # atno 10764 bound_to 10752
  154.6316  135.5490  153.7749 H   0  0  0  0  0  0  0  0  0  0  0  0  # atno 10765 bound_to 10752
  140.0017  134.9476  157.0085 H   0  0  0  0  0  0  0  0  0  0  0  0  # atno 11005 bound_to 11000
  145.5294  141.0428  143.2391 LP  0  0  0  0  0  0  0  0  0  0  0  0  # atno 17320 bound_to 7965
  144.7675  139.6811  143.7208 LP  0  0  0  0  0  0  0  0  0  0  0  0  # atno 17321 bound_to 7965
  139.5318  144.7167  151.5029 LP  0  0  0  0  0  0  0  0  0  0  0  0  # atno 17342 bound_to 10162
  140.6553  143.8612  150.6828 LP  0  0  0  0  0  0  0  0  0  0  0  0  # atno 17343 bound_to 10162
  156.0217  130.5311  150.8293 LP  0  0  0  0  0  0  0  0  0  0  0  0  # atno 17370 bound_to 10713
  157.5476  131.0943  150.9740 LP  0  0  0  0  0  0  0  0  0  0  0  0  # atno 17371 bound_to 10713
  140.4716  134.1380  155.7204 LP  0  0  0  0  0  0  0  0  0  0  0  0  # atno 17394 bound_to 11000
  141.1646  133.8727  157.1750 LP  0  0  0  0  0  0  0  0  0  0  0  0  # atno 17395 bound_to 11000

$$$$
