AV-unprocessed.smi:1066|AV-procd|sdf|4670|dock2
  -GOLD-   22720 3183D 1   1.00000     0.00000
 Structure written by MMmdl.
 38 40  0  0  0  0  0  0  0  0  2 V2000
  153.5846  137.7438  159.4230 C   0  0  0  0  0  0  0  0  0  0  0  0
  152.1201  137.9268  159.1451 C   0  0  0  0  0  0  0  0  0  0  0  0
  151.2525  137.0537  159.6400 N   0  0  0  0  0  0  0  0  0  0  0  0
  149.9857  137.4731  159.2182 O   0  0  0  0  0  0  0  0  0  0  0  0
  150.1646  138.5943  158.4836 C   0  0  0  0  0  0  0  0  0  0  0  0
  148.8546  139.4333  157.7513 Cl  0  0  0  0  0  0  0  0  0  0  0  0
  151.4792  138.9501  158.3865 C   0  0  0  0  0  0  0  0  0  0  0  0
  152.1073  140.1148  157.6621 C   0  0  0  0  0  0  0  0  0  0  0  0
  151.6442  140.1314  156.2050 C   0  0  0  0  0  0  0  0  0  0  0  0
  152.4444  139.8967  155.3003 O   0  0  0  0  0  0  0  0  0  0  0  0
  150.3483  140.4062  155.9913 N   0  0  0  0  0  0  0  0  0  0  0  0
  149.7032  140.4282  154.6846 C   0  0  2  0  0  0  0  0  0  0  0  0
  148.8966  141.6976  154.4021 C   0  0  0  0  0  0  0  0  0  0  0  0
  147.7590  141.2329  153.4753 C   0  0  0  0  0  0  0  0  0  0  0  0
  147.8335  139.7542  153.4128 N   0  3  2  0  0  0  0  0  0  0  0  0
  146.5219  139.0787  153.3264 C   0  0  0  0  0  0  0  0  0  0  0  0
  146.6171  137.5721  153.3608 C   0  0  0  0  0  0  0  0  0  0  0  0
  146.3342  138.2849  152.0559 C   0  0  0  0  0  0  0  0  0  0  0  0
  148.6563  139.3271  154.5570 C   0  0  0  0  0  0  0  0  0  0  0  0
  154.1967  138.2804  158.6979 H   0  0  0  0  0  0  0  0  0  0  0  0
  153.8692  136.6922  159.3764 H   0  0  0  0  0  0  0  0  0  0  0  0
  153.8424  138.1155  160.4147 H   0  0  0  0  0  0  0  0  0  0  0  0
  151.8448  141.0659  158.1264 H   0  0  0  0  0  0  0  0  0  0  0  0
  153.1959  140.0564  157.6917 H   0  0  0  0  0  0  0  0  0  0  0  0
  149.7663  140.5926  156.7956 H   0  0  0  0  0  0  0  0  0  0  0  0
  150.4469  140.2901  153.8967 H   0  0  0  0  0  0  0  0  0  0  0  0
  148.4745  142.0968  155.3259 H   0  0  0  0  0  0  0  0  0  0  0  0
  149.5078  142.4810  153.9524 H   0  0  0  0  0  0  0  0  0  0  0  0
  146.7967  141.5637  153.8696 H   0  0  0  0  0  0  0  0  0  0  0  0
  147.8642  141.6434  152.4706 H   0  0  0  0  0  0  0  0  0  0  0  0
  145.6796  139.5901  153.7894 H   0  0  0  0  0  0  0  0  0  0  0  0
  147.6000  137.1201  153.4840 H   0  0  0  0  0  0  0  0  0  0  0  0
  145.7944  137.0270  153.8190 H   0  0  0  0  0  0  0  0  0  0  0  0
  145.3252  138.2079  151.6556 H   0  0  0  0  0  0  0  0  0  0  0  0
  147.1287  138.3074  151.3123 H   0  0  0  0  0  0  0  0  0  0  0  0
  149.0993  138.3448  154.3894 H   0  0  0  0  0  0  0  0  0  0  0  0
  148.0399  139.2758  155.4570 H   0  0  0  0  0  0  0  0  0  0  0  0
  148.3573  139.5254  152.5799 H   0  0  0  0  0  0  0  0  0  0  0  0
  1  2  1  0  0  0  0
  1 20  1  0  0  0  0
  1 21  1  0  0  0  0
  1 22  1  0  0  0  0
  2  7  1  0  0  0  0
  2  3  2  0  0  0  0
  3  4  1  0  0  0  0
  4  5  1  0  0  0  0
  5  6  1  0  0  0  0
  5  7  2  0  0  0  0
  7  8  1  0  0  0  0
  8  9  1  0  0  0  0
  8 23  1  0  0  0  0
  8 24  1  0  0  0  0
  9 10  2  0  0  0  0
  9 11  1  0  0  0  0
 11 12  1  0  0  0  0
 11 25  1  0  0  0  0
 12 19  1  0  0  0  0
 12 13  1  0  0  0  0
 12 26  1  0  0  0  0
 13 14  1  0  0  0  0
 13 27  1  0  0  0  0
 13 28  1  0  0  0  0
 14 15  1  0  0  0  0
 14 29  1  0  0  0  0
 14 30  1  0  0  0  0
 15 16  1  0  0  0  0
 15 19  1  0  0  0  0
 15 38  1  0  0  0  0
 16 18  1  0  0  0  0
 16 17  1  0  0  0  0
 16 31  1  0  0  0  0
 17 18  1  0  0  0  0
 17 32  1  0  0  0  0
 17 33  1  0  0  0  0
 18 34  1  0  0  0  0
 18 35  1  0  0  0  0
 19 36  1  0  0  0  0
 19 37  1  0  0  0  0
M  CHG  1  15   1
M  END
> <s_m_source_file>
AV-unprocessed.smi

> <i_m_source_file_index>
1066

> <i_lp_mmshare_version>
43012

> <i_f3d_flags>
0

> <s_epik_input>
W0NIM11jMW5vYyhDbCljMVtDSDJdQyg9TylbTkhdW0NAQEhdMltDSDJdW0NIMl1OKFtDSDJdMilbQ0hdM1tDSDJdW0NIMl0z

> <s_epik_cmdline>
J2VwaWtfcHl0aG9uJywgJy1waCcsICc3LjAnLCAnLXRuJywgJzgnLCAnLW1hJywgJzIwMCcsICctbWV0YWxfYmluZGluZycsICctaW1hZScsICc8aW5maWxlLm1hZT4nLCAnLW9tYWUnLCAnPG91dGZpbGUubWFlPic=

> <r_epik_Ionization_Penalty>
0.00108138

> <r_epik_Ionization_Penalty_Charging>
0.00108128

> <r_epik_Ionization_Penalty_Neutral>
9.66632e-08

> <r_epik_State_Penalty>
0.000708577

> <r_epik_Charging_Adjusted_Penalty>
0.00178986

> <i_epik_Tot_Q>
1

> <i_epik_Tot_abs_Q>
1

> <r_epik_Metal_State_Penalty>
-0

> <b_epik_Metal_Only>
0

> <s_lp_Force_Field>
OPLS_2005

> <r_lp_Energy>
30.9378

> <b_lp_Chiralities_Consistent>
1

> <s_lp_Variant>
AV-unprocessed.smi:1066-3

> <Gold.Version>
5.8.1

> <Gold.Id.Protein>
6NUR|6NUR_protein|mol2

> <Gold.PLP.Fitness>
38.5057

> <Gold.PLP.PLP>
-29.1344

> <Gold.PLP.part.hbond>
-4.5075

> <Gold.PLP.part.metal>
0.0000

> <Gold.PLP.part.buried>
-0.5182

> <Gold.PLP.part.nonpolar>
-23.5718

> <Gold.PLP.part.repulsive>
0.1302

> <Gold.PLP.ligand.clash>
0.0000

> <Gold.PLP.ligand.torsion>
0.9277

> <Gold.PLP.Chemscore.Hbond>
3.3201

> <Gold.PLP.Chemscore.CHOScore>
0.0000

> <Gold.PLP.Chemscore.Metal>
0.0000

> <Gold.Chemscore.Hbonds>
donor molecule, donor type, donor heavy atom, donor atom, acceptor molecule, acceptor atom, score
      L1  H    15    38       P1  7957  1.00
      P1  H  6896  6909       L1     3  1.00
      P1  H  7989  7998       L1    10  0.42
      P1  H  7997  8010       L1    10  0.83

> <Gold.PLP.Chemscore.Internal.Correction>
1.2665

> <Gold.Rescore>
     Score         DG    S(hbond)    S(metal)    S(lipo)     H(rot)  DE(clash)    DE(int)     intcor
     16.85     -19.71       2.95        0.00      71.89       1.57       0.46       2.40       ----

> <Gold.Chemscore.Fitness>
16.8503

> <Gold.Chemscore.DG>
-19.7115

> <Gold.Chemscore.ZeroCoef>
-5.4800

> <Gold.Chemscore.Hbond>
2.9469

> <Gold.Chemscore.Metal>
0.0000

> <Gold.Chemscore.Lipo>
71.8883

> <Gold.Chemscore.Internal_Hbond>
0.0000

> <Gold.Chemscore.DEClash>
0.4611

> <Gold.Chemscore.DEInternal>
2.4001

> <Gold.Chemscore.Rot>
1.5711

> <Gold.Chemscore.Internal.Correction>
   9.000000E+99

> <Gold.Chemscore.Hbonds>
donor molecule, donor type, donor heavy atom, donor atom, acceptor molecule, acceptor atom, score
      L1  H    15    38       P1  7957  0.94
      P1  H  6896  6909       L1     3  0.92
      P1  H  7989  7998       L1    10  0.24
      P1  H  7997  8010       L1    10  0.61

> <Gold.Chemscore.Hbond.Weighted>
-9.8426

> <Gold.Chemscore.Metal.Weighted>
-0.0000

> <Gold.Chemscore.Lipo.Weighted>
-8.4109

> <Gold.Chemscore.Internal_Hbond.Weighted>
0.0000

> <Gold.Chemscore.DEClash.Weighted>
0.4611

> <Gold.Chemscore.DEInternal.Weighted>
2.4001

> <Gold.Chemscore.Rot.Weighted>
4.0221

> <Gold.Chemscore.Internal.Correction.Weighted>
   9.000000E+99

> <Gold.Protein.RotatedTorsions>
[ 6907 6896 6895 6894 ] final  113.37 input  -60.11 | X-H torsion
[ 7974 7965 7964 7962 ] final -176.01 input  175.53 | X-H torsion
[ 8008 7997 7996 7995 ] final   98.91 input   59.86 | X-H torsion
[ 10167 10162 10161 10158 ] final  117.57 input  -65.29 | X-H torsion
[ 10718 10713 10712 10709 ] final  100.58 input   66.30 | X-H torsion
[ 10763 10752 10751 10750 ] final   81.15 input  -60.55 | X-H torsion
[ 11005 11000 10999 10996 ] final -129.44 input  -57.11 | X-H torsion

> <Gold.Protein.ActiveResidues>
 VAL166  LYS551  ARG553  GLY616  TRP617  ASP618  TYR619  PRO620  LYS621  CYS622 
 ASP623  PHE694  ASN695  SER759  ASP760  ASP761  ALA762  ILE779  LEU786  VAL792 
 PHE793  MET794  SER795  GLU796  ALA797  LYS798  CYS799  TRP800  GLU811  SER814 

> <Gold.Protein.RotatedAtoms>
  152.4865  133.8385  159.7140 H   0  0  0  0  0  0  0  0  0  0  0  0  # atno 6907 bound_to 6896
  150.8955  133.7177  159.2899 H   0  0  0  0  0  0  0  0  0  0  0  0  # atno 6908 bound_to 6896
  151.4635  135.1044  159.9784 H   0  0  0  0  0  0  0  0  0  0  0  0  # atno 6909 bound_to 6896
  144.7127  140.1235  143.6403 H   0  0  0  0  0  0  0  0  0  0  0  0  # atno 7974 bound_to 7965
  156.1052  140.3236  155.7997 H   0  0  0  0  0  0  0  0  0  0  0  0  # atno 8008 bound_to 7997
  155.4768  140.0551  157.2989 H   0  0  0  0  0  0  0  0  0  0  0  0  # atno 8009 bound_to 7997
  154.4723  140.2017  155.9979 H   0  0  0  0  0  0  0  0  0  0  0  0  # atno 8010 bound_to 7997
  139.6170  144.7094  151.2718 H   0  0  0  0  0  0  0  0  0  0  0  0  # atno 10167 bound_to 10162
  157.6850  131.0702  150.5122 H   0  0  0  0  0  0  0  0  0  0  0  0  # atno 10718 bound_to 10713
  153.1092  135.4776  154.9006 H   0  0  0  0  0  0  0  0  0  0  0  0  # atno 10763 bound_to 10752
  154.7463  135.3094  154.8641 H   0  0  0  0  0  0  0  0  0  0  0  0  # atno 10764 bound_to 10752
  153.9235  135.6852  153.4800 H   0  0  0  0  0  0  0  0  0  0  0  0  # atno 10765 bound_to 10752
  140.9431  134.1166  157.4132 H   0  0  0  0  0  0  0  0  0  0  0  0  # atno 11005 bound_to 11000
  145.9350  139.2631  143.1302 LP  0  0  0  0  0  0  0  0  0  0  0  0  # atno 17320 bound_to 7965
  145.9483  140.8928  143.0272 LP  0  0  0  0  0  0  0  0  0  0  0  0  # atno 17321 bound_to 7965
  140.7357  143.6728  150.8067 LP  0  0  0  0  0  0  0  0  0  0  0  0  # atno 17342 bound_to 10162
  140.0333  143.5421  152.2750 LP  0  0  0  0  0  0  0  0  0  0  0  0  # atno 17343 bound_to 10162
  156.5438  130.4215  149.6141 LP  0  0  0  0  0  0  0  0  0  0  0  0  # atno 17370 bound_to 10713
  156.2962  130.7151  151.2012 LP  0  0  0  0  0  0  0  0  0  0  0  0  # atno 17371 bound_to 10713
  139.8826  135.0043  156.6239 LP  0  0  0  0  0  0  0  0  0  0  0  0  # atno 17394 bound_to 11000
  140.7706  133.8741  155.8489 LP  0  0  0  0  0  0  0  0  0  0  0  0  # atno 17395 bound_to 11000

$$$$
