AV-unprocessed.smi:2452|AV-procd|sdf|9685|dock7
  -GOLD-   2272013323D 1   1.00000     0.00000
 Structure written by MMmdl.
 34 35  0  0  0  0  0  0  0  0  1 V2000
  147.9774  141.6394  154.5914 C   0  0  0  0  0  0  0  0  0  0  0  0
  149.2172  140.7993  154.7252 C   0  0  0  0  0  0  0  0  0  0  0  0
  150.3068  141.3397  155.2509 N   0  0  0  0  0  0  0  0  0  0  0  0
  151.3129  140.3633  155.1862 O   0  0  0  0  0  0  0  0  0  0  0  0
  150.8006  139.2411  154.6168 C   0  0  0  0  0  0  0  0  0  0  0  0
  151.7272  138.0860  154.4424 C   0  0  0  0  0  0  0  0  0  0  0  0
  149.4831  139.4534  154.3366 C   0  0  0  0  0  0  0  0  0  0  0  0
  148.6287  138.5121  153.7102 N   0  0  0  0  0  0  0  0  0  0  0  0
  147.2921  138.4526  153.8076 C   0  0  0  0  0  0  0  0  0  0  0  0
  146.6068  139.1761  154.5303 O   0  0  0  0  0  0  0  0  0  0  0  0
  146.7856  137.4852  153.0312 N   0  0  0  0  0  0  0  0  0  0  0  0
  145.3656  137.1802  152.8975 C   0  0  0  0  0  0  0  0  0  0  0  0
  145.1399  135.7539  152.3680 C   0  0  2  0  0  0  0  0  0  0  0  0
  145.2572  135.6311  150.8521 C   0  0  0  0  0  0  0  0  0  0  0  0
  144.4777  134.3621  150.5562 C   0  0  0  0  0  0  0  0  0  0  0  0
  143.5424  134.2135  151.7609 C   0  0  0  0  0  0  0  0  0  0  0  0
  143.8038  135.3349  152.5968 O   0  0  0  0  0  0  0  0  0  0  0  0
  147.4152  141.3738  153.6961 H   0  0  0  0  0  0  0  0  0  0  0  0
  148.2203  142.7000  154.5181 H   0  0  0  0  0  0  0  0  0  0  0  0
  147.3212  141.5102  155.4520 H   0  0  0  0  0  0  0  0  0  0  0  0
  151.3110  137.3494  153.7553 H   0  0  0  0  0  0  0  0  0  0  0  0
  151.9105  137.5927  155.3969 H   0  0  0  0  0  0  0  0  0  0  0  0
  152.6861  138.4159  154.0423 H   0  0  0  0  0  0  0  0  0  0  0  0
  149.0828  137.7753  153.1910 H   0  0  0  0  0  0  0  0  0  0  0  0
  147.4230  136.9352  152.4743 H   0  0  0  0  0  0  0  0  0  0  0  0
  144.8942  137.2981  153.8734 H   0  0  0  0  0  0  0  0  0  0  0  0
  144.8940  137.9083  152.2351 H   0  0  0  0  0  0  0  0  0  0  0  0
  145.8222  135.0476  152.8451 H   0  0  0  0  0  0  0  0  0  0  0  0
  144.7743  136.4799  150.3656 H   0  0  0  0  0  0  0  0  0  0  0  0
  146.2911  135.5864  150.5087 H   0  0  0  0  0  0  0  0  0  0  0  0
  143.9334  134.4340  149.6142 H   0  0  0  0  0  0  0  0  0  0  0  0
  145.1477  133.5037  150.4934 H   0  0  0  0  0  0  0  0  0  0  0  0
  142.4917  134.1944  151.4699 H   0  0  0  0  0  0  0  0  0  0  0  0
  143.7608  133.2940  152.3054 H   0  0  0  0  0  0  0  0  0  0  0  0
  1  2  1  0  0  0  0
  1 18  1  0  0  0  0
  1 19  1  0  0  0  0
  1 20  1  0  0  0  0
  2  7  1  0  0  0  0
  2  3  2  0  0  0  0
  3  4  1  0  0  0  0
  4  5  1  0  0  0  0
  5  6  1  0  0  0  0
  5  7  2  0  0  0  0
  6 21  1  0  0  0  0
  6 22  1  0  0  0  0
  6 23  1  0  0  0  0
  7  8  1  0  0  0  0
  8  9  1  0  0  0  0
  8 24  1  0  0  0  0
  9 10  2  0  0  0  0
  9 11  1  0  0  0  0
 11 12  1  0  0  0  0
 11 25  1  0  0  0  0
 12 13  1  0  0  0  0
 12 26  1  0  0  0  0
 12 27  1  0  0  0  0
 13 17  1  0  0  0  0
 13 14  1  0  0  0  0
 13 28  1  0  0  0  0
 14 15  1  0  0  0  0
 14 29  1  0  0  0  0
 14 30  1  0  0  0  0
 15 16  1  0  0  0  0
 15 31  1  0  0  0  0
 15 32  1  0  0  0  0
 16 17  1  0  0  0  0
 16 33  1  0  0  0  0
 16 34  1  0  0  0  0
M  END
> <s_m_source_file>
AV-unprocessed.smi

> <i_m_source_file_index>
2452

> <i_lp_mmshare_version>
43012

> <i_f3d_flags>
0

> <s_epik_input>
W0NIM11jMW5vYyhbQ0gzXSljMVtOSF1DKD1PKVtOSF1bQ0gyXVtDQEBIXTJbQ0gyXVtDSDJdW0NIMl1PMg==

> <s_epik_cmdline>
J2VwaWtfcHl0aG9uJywgJy1waCcsICc3LjAnLCAnLXRuJywgJzgnLCAnLW1hJywgJzIwMCcsICctbWV0YWxfYmluZGluZycsICctaW1hZScsICc8aW5maWxlLm1hZT4nLCAnLW9tYWUnLCAnPG91dGZpbGUubWFlPic=

> <r_lp_tautomer_probability>
1

> <r_epik_Ionization_Penalty>
3.28451e-05

> <r_epik_Ionization_Penalty_Charging>
0

> <r_epik_Ionization_Penalty_Neutral>
3.28451e-05

> <r_epik_State_Penalty>
-0

> <r_epik_Charging_Adjusted_Penalty>
0

> <i_epik_Tot_Q>
0

> <i_epik_Tot_abs_Q>
0

> <r_epik_Metal_State_Penalty>
-0

> <b_epik_Metal_Only>
0

> <s_lp_Force_Field>
OPLS_2005

> <r_lp_Energy>
18.3338

> <b_lp_Chiralities_Consistent>
1

> <s_lp_Variant>
AV-unprocessed.smi:2452-1

> <Gold.Version>
5.8.1

> <Gold.Id.Protein>
6NUR|6NUR_protein|mol2

> <Gold.PLP.Fitness>
36.7306

> <Gold.PLP.PLP>
-31.0649

> <Gold.PLP.part.hbond>
-4.7588

> <Gold.PLP.part.metal>
0.0000

> <Gold.PLP.part.buried>
-3.6450

> <Gold.PLP.part.nonpolar>
-24.1541

> <Gold.PLP.part.repulsive>
0.4231

> <Gold.PLP.ligand.clash>
0.0000

> <Gold.PLP.ligand.torsion>
0.4747

> <Gold.PLP.Chemscore.Hbond>
2.1190

> <Gold.PLP.Chemscore.CHOScore>
0.0000

> <Gold.PLP.Chemscore.Metal>
0.0000

> <Gold.Chemscore.Hbonds>
donor molecule, donor type, donor heavy atom, donor atom, acceptor molecule, acceptor atom, score
      L1  H     8    24       P1  7948  1.00
      L1  H    11    25       P1  7948  1.00
      P1  H  7989  7998       L1     4  0.11

> <Gold.PLP.Chemscore.Internal.Correction>
0.2579

> <Gold.Rescore>
     Score         DG    S(hbond)    S(metal)    S(lipo)     H(rot)  DE(clash)    DE(int)     intcor
     14.72     -16.41       1.95        0.00      64.81       1.23       0.06       1.63       ----

> <Gold.Chemscore.Fitness>
14.7192

> <Gold.Chemscore.DG>
-16.4113

> <Gold.Chemscore.ZeroCoef>
-5.4800

> <Gold.Chemscore.Hbond>
1.9483

> <Gold.Chemscore.Metal>
0.0000

> <Gold.Chemscore.Lipo>
64.8051

> <Gold.Chemscore.Internal_Hbond>
0.0000

> <Gold.Chemscore.DEClash>
0.0611

> <Gold.Chemscore.DEInternal>
1.6310

> <Gold.Chemscore.Rot>
1.2337

> <Gold.Chemscore.Internal.Correction>
   9.000000E+99

> <Gold.Chemscore.Hbonds>
donor molecule, donor type, donor heavy atom, donor atom, acceptor molecule, acceptor atom, score
      L1  H     8    24       P1  7948  0.89
      L1  H    11    25       P1  7948  1.00

> <Gold.Chemscore.Hbond.Weighted>
-6.5073

> <Gold.Chemscore.Metal.Weighted>
-0.0000

> <Gold.Chemscore.Lipo.Weighted>
-7.5822

> <Gold.Chemscore.Internal_Hbond.Weighted>
0.0000

> <Gold.Chemscore.DEClash.Weighted>
0.0611

> <Gold.Chemscore.DEInternal.Weighted>
1.6310

> <Gold.Chemscore.Rot.Weighted>
3.1582

> <Gold.Chemscore.Internal.Correction.Weighted>
   9.000000E+99

> <Gold.Protein.RotatedTorsions>
[ 6907 6896 6895 6894 ] final  138.34 input  -60.11 | X-H torsion
[ 7974 7965 7964 7962 ] final -111.84 input  175.53 | X-H torsion
[ 8008 7997 7996 7995 ] final  123.02 input   59.86 | X-H torsion
[ 10167 10162 10161 10158 ] final  154.75 input  -65.29 | X-H torsion
[ 10718 10713 10712 10709 ] final    8.15 input   66.30 | X-H torsion
[ 10763 10752 10751 10750 ] final   48.24 input  -60.55 | X-H torsion
[ 11005 11000 10999 10996 ] final   17.67 input  -57.11 | X-H torsion

> <Gold.Protein.ActiveResidues>
 VAL166  LYS551  ARG553  GLY616  TRP617  ASP618  TYR619  PRO620  LYS621  CYS622 
 ASP623  PHE694  ASN695  SER759  ASP760  ASP761  ALA762  ILE779  LEU786  VAL792 
 PHE793  MET794  SER795  GLU796  ALA797  LYS798  CYS799  TRP800  GLU811  SER814 

> <Gold.Protein.RotatedAtoms>
  152.2677  133.5354  159.5419 H   0  0  0  0  0  0  0  0  0  0  0  0  # atno 6907 bound_to 6896
  150.7147  134.0742  159.3884 H   0  0  0  0  0  0  0  0  0  0  0  0  # atno 6908 bound_to 6896
  151.8657  135.0508  160.0525 H   0  0  0  0  0  0  0  0  0  0  0  0  # atno 6909 bound_to 6896
  145.1512  140.8830  143.3645 H   0  0  0  0  0  0  0  0  0  0  0  0  # atno 7974 bound_to 7965
  156.2750  140.2772  156.1561 H   0  0  0  0  0  0  0  0  0  0  0  0  # atno 8008 bound_to 7997
  155.0803  140.0387  157.2655 H   0  0  0  0  0  0  0  0  0  0  0  0  # atno 8009 bound_to 7997
  154.6969  140.2641  155.6763 H   0  0  0  0  0  0  0  0  0  0  0  0  # atno 8010 bound_to 7997
  139.4822  144.5159  151.7952 H   0  0  0  0  0  0  0  0  0  0  0  0  # atno 10167 bound_to 10162
  156.9474  130.5884  149.5655 H   0  0  0  0  0  0  0  0  0  0  0  0  # atno 10718 bound_to 10713
  152.9793  135.5950  154.3894 H   0  0  0  0  0  0  0  0  0  0  0  0  # atno 10763 bound_to 10752
  154.3551  135.2767  155.2352 H   0  0  0  0  0  0  0  0  0  0  0  0  # atno 10764 bound_to 10752
  154.4375  135.6021  153.6162 H   0  0  0  0  0  0  0  0  0  0  0  0  # atno 10765 bound_to 10752
  140.4334  134.1396  155.7683 H   0  0  0  0  0  0  0  0  0  0  0  0  # atno 11005 bound_to 11000
  145.0429  139.3245  143.5967 LP  0  0  0  0  0  0  0  0  0  0  0  0  # atno 17320 bound_to 7965
  146.3494  139.9809  142.8696 LP  0  0  0  0  0  0  0  0  0  0  0  0  # atno 17321 bound_to 7965
  140.4667  144.1645  150.5912 LP  0  0  0  0  0  0  0  0  0  0  0  0  # atno 17342 bound_to 10162
  140.4426  143.2520  151.9453 LP  0  0  0  0  0  0  0  0  0  0  0  0  # atno 17343 bound_to 10162
  156.0378  130.5463  150.8696 LP  0  0  0  0  0  0  0  0  0  0  0  0  # atno 17370 bound_to 10713
  157.5745  131.0946  150.9367 LP  0  0  0  0  0  0  0  0  0  0  0  0  # atno 17371 bound_to 10713
  141.1736  133.8559  157.1493 LP  0  0  0  0  0  0  0  0  0  0  0  0  # atno 17394 bound_to 11000
  140.0119  134.9984  157.0412 LP  0  0  0  0  0  0  0  0  0  0  0  0  # atno 17395 bound_to 11000

$$$$
