AV-unprocessed.smi:2729|AV-procd|sdf|10526|dock1
  -GOLD-   2272014573D 1   1.00000     0.00000
 Structure written by MMmdl.
 33 34  0  0  0  0  0  0  0  0  1 V2000
  148.7639  140.1252  154.2432 C   0  0  0  0  0  0  0  0  0  0  0  0
  147.9040  141.2263  154.8984 C   0  0  1  0  0  0  0  0  0  0  0  0
  148.7342  142.0962  155.7432 N   0  0  0  0  0  0  0  0  0  0  0  0
  149.5534  141.7479  156.7485 C   0  0  0  0  0  0  0  0  0  0  0  0
  149.7206  140.5904  157.1305 O   0  0  0  0  0  0  0  0  0  0  0  0
  150.1741  142.8274  157.2535 N   0  0  0  0  0  0  0  0  0  0  0  0
  151.1030  142.8931  158.3264 C   0  0  0  0  0  0  0  0  0  0  0  0
  151.5758  144.0989  158.8986 C   0  0  0  0  0  0  0  0  0  0  0  0
  152.5132  144.0315  159.9471 C   0  0  0  0  0  0  0  0  0  0  0  0
  152.9491  142.7641  160.3796 C   0  0  0  0  0  0  0  0  0  0  0  0
  152.5175  141.6073  159.8345 N   0  0  0  0  0  0  0  0  0  0  0  0
  151.6191  141.6799  158.8293 C   0  0  0  0  0  0  0  0  0  0  0  0
  147.1298  142.0551  153.8390 C   0  0  0  0  0  0  0  0  0  0  0  0
  146.0182  142.8547  154.5289 C   0  0  0  0  0  0  0  0  0  0  0  0
  145.4642  141.8158  155.9297 S   0  0  0  0  0  0  0  0  0  0  0  0
  145.6031  142.5838  157.1765 O   0  0  0  0  0  0  0  0  0  0  0  0
  144.1974  141.1532  155.5846 O   0  0  0  0  0  0  0  0  0  0  0  0
  146.8302  140.5968  155.8088 C   0  0  0  0  0  0  0  0  0  0  0  0
  148.1466  139.4237  153.6811 H   0  0  0  0  0  0  0  0  0  0  0  0
  149.3105  139.5523  154.9928 H   0  0  0  0  0  0  0  0  0  0  0  0
  149.4922  140.5369  153.5448 H   0  0  0  0  0  0  0  0  0  0  0  0
  148.6917  143.0799  155.5197 H   0  0  0  0  0  0  0  0  0  0  0  0
  150.0027  143.7008  156.7769 H   0  0  0  0  0  0  0  0  0  0  0  0
  151.2536  145.0670  158.5485 H   0  0  0  0  0  0  0  0  0  0  0  0
  152.8937  144.9322  160.4058 H   0  0  0  0  0  0  0  0  0  0  0  0
  153.6685  142.6776  161.1805 H   0  0  0  0  0  0  0  0  0  0  0  0
  151.2985  140.7349  158.4154 H   0  0  0  0  0  0  0  0  0  0  0  0
  147.7735  142.7016  153.2430 H   0  0  0  0  0  0  0  0  0  0  0  0
  146.6607  141.3672  153.1341 H   0  0  0  0  0  0  0  0  0  0  0  0
  146.4067  143.7901  154.9321 H   0  0  0  0  0  0  0  0  0  0  0  0
  145.1807  143.0790  153.8685 H   0  0  0  0  0  0  0  0  0  0  0  0
  146.4162  139.6949  155.3564 H   0  0  0  0  0  0  0  0  0  0  0  0
  147.1927  140.3351  156.8035 H   0  0  0  0  0  0  0  0  0  0  0  0
  1  2  1  0  0  0  0
  1 19  1  0  0  0  0
  1 20  1  0  0  0  0
  1 21  1  0  0  0  0
  2 18  1  0  0  0  0
  2  3  1  0  0  0  0
  2 13  1  0  0  0  0
  3  4  1  0  0  0  0
  3 22  1  0  0  0  0
  4  5  2  0  0  0  0
  4  6  1  0  0  0  0
  6  7  1  0  0  0  0
  6 23  1  0  0  0  0
  7 12  1  0  0  0  0
  7  8  2  0  0  0  0
  8  9  1  0  0  0  0
  8 24  1  0  0  0  0
  9 10  2  0  0  0  0
  9 25  1  0  0  0  0
 10 11  1  0  0  0  0
 10 26  1  0  0  0  0
 11 12  2  0  0  0  0
 12 27  1  0  0  0  0
 13 14  1  0  0  0  0
 13 28  1  0  0  0  0
 13 29  1  0  0  0  0
 14 15  1  0  0  0  0
 14 30  1  0  0  0  0
 14 31  1  0  0  0  0
 15 16  2  0  0  0  0
 15 17  2  0  0  0  0
 15 18  1  0  0  0  0
 18 32  1  0  0  0  0
 18 33  1  0  0  0  0
M  END
> <s_m_source_file>
AV-unprocessed.smi

> <i_m_source_file_index>
2729

> <i_lp_mmshare_version>
43012

> <i_f3d_flags>
0

> <s_epik_input>
Tz1TKD1PKShbQ0gyXTEpW0NIMl1bQ0gyXVtDQEBdMShbQ0gzXSlbTkhdQyg9TylbTkhdYzJbY0hdW2NIXVtjSF1uW2NIXTI=

> <s_epik_cmdline>
J2VwaWtfcHl0aG9uJywgJy1waCcsICc3LjAnLCAnLXRuJywgJzgnLCAnLW1hJywgJzIwMCcsICctbWV0YWxfYmluZGluZycsICctaW1hZScsICc8aW5maWxlLm1hZT4nLCAnLW9tYWUnLCAnPG91dGZpbGUubWFlPic=

> <r_epik_Ionization_Penalty>
0.00438887

> <r_epik_Ionization_Penalty_Charging>
0

> <r_epik_Ionization_Penalty_Neutral>
0.00438887

> <r_epik_State_Penalty>
0.00314315

> <r_epik_Charging_Adjusted_Penalty>
0.00314315

> <i_epik_Tot_Q>
0

> <i_epik_Tot_abs_Q>
0

> <r_epik_Metal_State_Penalty>
-0

> <b_epik_Metal_Only>
0

> <s_lp_Force_Field>
OPLS_2005

> <r_lp_Energy>
5.02931

> <b_lp_Chiralities_Consistent>
1

> <s_lp_Variant>
AV-unprocessed.smi:2729-1

> <Gold.Version>
5.8.1

> <Gold.Id.Protein>
6NUR|6NUR_protein|mol2

> <Gold.PLP.Fitness>
38.0615

> <Gold.PLP.PLP>
-32.1769

> <Gold.PLP.part.hbond>
-2.0000

> <Gold.PLP.part.metal>
0.0000

> <Gold.PLP.part.buried>
-5.7111

> <Gold.PLP.part.nonpolar>
-25.6972

> <Gold.PLP.part.repulsive>
0.3823

> <Gold.PLP.ligand.clash>
0.0000

> <Gold.PLP.ligand.torsion>
0.0534

> <Gold.PLP.Chemscore.Hbond>
1.9920

> <Gold.PLP.Chemscore.CHOScore>
0.0000

> <Gold.PLP.Chemscore.Metal>
0.0000

> <Gold.Chemscore.Hbonds>
donor molecule, donor type, donor heavy atom, donor atom, acceptor molecule, acceptor atom, score
      L1  H     3    22       P1  8028  1.00
      L1  H     6    23       P1  8028  0.99

> <Gold.PLP.Chemscore.Internal.Correction>
0.0153

> <Gold.Rescore>
     Score         DG    S(hbond)    S(metal)    S(lipo)     H(rot)  DE(clash)    DE(int)     intcor
     17.35     -18.80       1.96        0.00      79.71       1.00       0.00       1.45       ----

> <Gold.Chemscore.Fitness>
17.3456

> <Gold.Chemscore.DG>
-18.8024

> <Gold.Chemscore.ZeroCoef>
-5.4800

> <Gold.Chemscore.Hbond>
1.9630

> <Gold.Chemscore.Metal>
0.0000

> <Gold.Chemscore.Lipo>
79.7084

> <Gold.Chemscore.Internal_Hbond>
0.0000

> <Gold.Chemscore.DEClash>
0.0021

> <Gold.Chemscore.DEInternal>
1.4547

> <Gold.Chemscore.Rot>
1.0000

> <Gold.Chemscore.Internal.Correction>
   9.000000E+99

> <Gold.Chemscore.Hbonds>
donor molecule, donor type, donor heavy atom, donor atom, acceptor molecule, acceptor atom, score
      L1  H     3    22       P1  8028  0.99
      L1  H     6    23       P1  8028  0.93

> <Gold.Chemscore.Hbond.Weighted>
-6.5565

> <Gold.Chemscore.Metal.Weighted>
-0.0000

> <Gold.Chemscore.Lipo.Weighted>
-9.3259

> <Gold.Chemscore.Internal_Hbond.Weighted>
0.0000

> <Gold.Chemscore.DEClash.Weighted>
0.0021

> <Gold.Chemscore.DEInternal.Weighted>
1.4547

> <Gold.Chemscore.Rot.Weighted>
2.5600

> <Gold.Chemscore.Internal.Correction.Weighted>
   9.000000E+99

> <Gold.Protein.RotatedTorsions>
[ 6907 6896 6895 6894 ] final  -45.11 input  -60.11 | X-H torsion
[ 7974 7965 7964 7962 ] final  -33.88 input  175.53 | X-H torsion
[ 8008 7997 7996 7995 ] final   80.83 input   59.86 | X-H torsion
[ 10167 10162 10161 10158 ] final   66.26 input  -65.29 | X-H torsion
[ 10718 10713 10712 10709 ] final  -10.23 input   66.30 | X-H torsion
[ 10763 10752 10751 10750 ] final  -33.62 input  -60.55 | X-H torsion
[ 11005 11000 10999 10996 ] final   20.68 input  -57.11 | X-H torsion

> <Gold.Protein.ActiveResidues>
 VAL166  LYS551  ARG553  GLY616  TRP617  ASP618  TYR619  PRO620  LYS621  CYS622 
 ASP623  PHE694  ASN695  SER759  ASP760  ASP761  ALA762  ILE779  LEU786  VAL792 
 PHE793  MET794  SER795  GLU796  ALA797  LYS798  CYS799  TRP800  GLU811  SER814 

> <Gold.Protein.RotatedAtoms>
  150.9255  134.8672  159.7516 H   0  0  0  0  0  0  0  0  0  0  0  0  # atno 6907 bound_to 6896
  152.5013  134.4155  159.9473 H   0  0  0  0  0  0  0  0  0  0  0  0  # atno 6908 bound_to 6896
  151.4186  133.3665  159.2788 H   0  0  0  0  0  0  0  0  0  0  0  0  # atno 6909 bound_to 6896
  146.0874  140.5971  142.8880 H   0  0  0  0  0  0  0  0  0  0  0  0  # atno 7974 bound_to 7965
  155.8888  140.3440  155.5941 H   0  0  0  0  0  0  0  0  0  0  0  0  # atno 8008 bound_to 7997
  155.7634  140.0835  157.2163 H   0  0  0  0  0  0  0  0  0  0  0  0  # atno 8009 bound_to 7997
  154.4031  140.1531  156.2846 H   0  0  0  0  0  0  0  0  0  0  0  0  # atno 8010 bound_to 7997
  140.1024  144.4892  150.7029 H   0  0  0  0  0  0  0  0  0  0  0  0  # atno 10167 bound_to 10162
  156.6765  130.5024  149.5984 H   0  0  0  0  0  0  0  0  0  0  0  0  # atno 10718 bound_to 10713
  153.8332  135.6864  153.4812 H   0  0  0  0  0  0  0  0  0  0  0  0  # atno 10763 bound_to 10752
  153.1498  135.4622  154.9618 H   0  0  0  0  0  0  0  0  0  0  0  0  # atno 10764 bound_to 10752
  154.7877  135.3291  154.7793 H   0  0  0  0  0  0  0  0  0  0  0  0  # atno 10765 bound_to 10752
  140.3999  134.1729  155.7663 H   0  0  0  0  0  0  0  0  0  0  0  0  # atno 11005 bound_to 11000
  144.7336  140.4743  143.6920 LP  0  0  0  0  0  0  0  0  0  0  0  0  # atno 17320 bound_to 7965
  145.6103  139.1512  143.3079 LP  0  0  0  0  0  0  0  0  0  0  0  0  # atno 17321 bound_to 7965
  140.6971  143.2410  151.4971 LP  0  0  0  0  0  0  0  0  0  0  0  0  # atno 17342 bound_to 10162
  139.5664  144.2032  152.1771 LP  0  0  0  0  0  0  0  0  0  0  0  0  # atno 17343 bound_to 10162
  156.1900  130.6553  151.1050 LP  0  0  0  0  0  0  0  0  0  0  0  0  # atno 17370 bound_to 10713
  157.7059  131.0756  150.6668 LP  0  0  0  0  0  0  0  0  0  0  0  0  # atno 17371 bound_to 10713
  141.1860  133.8311  157.1083 LP  0  0  0  0  0  0  0  0  0  0  0  0  # atno 17394 bound_to 11000
  140.0344  134.9885  157.0842 LP  0  0  0  0  0  0  0  0  0  0  0  0  # atno 17395 bound_to 11000

$$$$
