AV-unprocessed.smi:54|AV-procd|sdf|534|dock8
  -GOLD-   2262016413D 1   1.00000     0.00000
 Structure written by MMmdl.
 44 46  0  0  0  0  0  0  0  0  1 V2000
  153.8140  136.5595  161.8597 C   0  0  0  0  0  0  0  0  0  0  0  0
  154.7019  137.7892  161.6087 C   0  0  0  0  0  0  0  0  0  0  0  0
  154.5248  138.8407  162.7162 C   0  0  0  0  0  0  0  0  0  0  0  0
  154.4059  138.3960  160.2322 C   0  0  0  0  0  0  0  0  0  0  0  0
  155.2899  138.5697  159.3923 O   0  0  0  0  0  0  0  0  0  0  0  0
  153.0185  138.7554  159.9955 N   0  0  0  0  0  0  0  0  0  0  0  0
  152.4903  139.3147  158.8818 C   0  0  0  0  0  0  0  0  0  0  0  0
  151.9103  140.5068  158.8719 N   0  0  0  0  0  0  0  0  0  0  0  0
  151.4341  140.8972  157.6514 C   0  0  0  0  0  0  0  0  0  0  0  0
  151.5063  140.1851  156.4731 C   0  0  0  0  0  0  0  0  0  0  0  0
  150.9104  140.9039  155.4429 N   0  0  0  0  0  0  0  0  0  0  0  0
  150.5026  142.0020  156.0167 C   0  0  0  0  0  0  0  0  0  0  0  0
  150.7758  142.0730  157.3635 N   0  0  0  0  0  0  0  0  0  0  0  0
  150.4730  143.1634  158.3478 C   0  0  1  0  0  0  0  0  0  0  0  0
  150.7933  142.7067  159.6273 O   0  0  0  0  0  0  0  0  0  0  0  0
  152.0482  143.2448  160.0278 C   0  0  2  0  0  0  0  0  0  0  0  0
  152.2300  143.1659  161.5531 C   0  0  0  0  0  0  0  0  0  0  0  0
  151.0865  143.6785  162.2026 O   0  0  0  0  0  0  0  0  0  0  0  0
  151.9972  144.6599  159.4393 C   0  0  2  0  0  0  0  0  0  0  0  0
  151.2308  145.5222  160.2606 O   0  0  0  0  0  0  0  0  0  0  0  0
  151.3076  144.4447  158.0969 C   0  0  1  0  0  0  0  0  0  0  0  0
  152.2821  144.3125  157.0760 O   0  0  0  0  0  0  0  0  0  0  0  0
  152.1372  138.8969  156.4653 C   0  0  0  0  0  0  0  0  0  0  0  0
  152.2936  138.1307  155.5172 O   0  0  0  0  0  0  0  0  0  0  0  0
  152.6087  138.5316  157.7333 N   0  0  0  0  0  0  0  0  0  0  0  0
  149.3964  143.3173  158.2627 H   0  0  0  0  0  0  0  0  0  0  0  0
  152.8499  142.6983  159.5273 H   0  0  0  0  0  0  0  0  0  0  0  0
  152.9940  145.0919  159.3366 H   0  0  0  0  0  0  0  0  0  0  0  0
  150.6439  145.2699  157.8348 H   0  0  0  0  0  0  0  0  0  0  0  0
  153.9295  135.8185  161.0677 H   0  0  0  0  0  0  0  0  0  0  0  0
  152.7585  136.8301  161.9116 H   0  0  0  0  0  0  0  0  0  0  0  0
  154.0768  136.0750  162.8004 H   0  0  0  0  0  0  0  0  0  0  0  0
  155.7419  137.4600  161.6191 H   0  0  0  0  0  0  0  0  0  0  0  0
  155.1561  139.7125  162.5407 H   0  0  0  0  0  0  0  0  0  0  0  0
  154.7977  138.4310  163.6892 H   0  0  0  0  0  0  0  0  0  0  0  0
  153.4916  139.1847  162.7823 H   0  0  0  0  0  0  0  0  0  0  0  0
  152.3810  138.5767  160.7574 H   0  0  0  0  0  0  0  0  0  0  0  0
  149.9958  142.7832  155.4690 H   0  0  0  0  0  0  0  0  0  0  0  0
  152.3452  142.1271  161.8640 H   0  0  0  0  0  0  0  0  0  0  0  0
  153.1211  143.7044  161.8772 H   0  0  0  0  0  0  0  0  0  0  0  0
  150.4307  142.9989  162.2367 H   0  0  0  0  0  0  0  0  0  0  0  0
  150.8806  146.2158  159.7227 H   0  0  0  0  0  0  0  0  0  0  0  0
  151.9444  144.7133  156.2896 H   0  0  0  0  0  0  0  0  0  0  0  0
  153.0613  137.6320  157.8029 H   0  0  0  0  0  0  0  0  0  0  0  0
  1  2  1  0  0  0  0
  1 30  1  0  0  0  0
  1 31  1  0  0  0  0
  1 32  1  0  0  0  0
  2  3  1  0  0  0  0
  2  4  1  0  0  0  0
  2 33  1  0  0  0  0
  3 34  1  0  0  0  0
  3 35  1  0  0  0  0
  3 36  1  0  0  0  0
  4  5  2  0  0  0  0
  4  6  1  0  0  0  0
  6 37  1  0  0  0  0
  6  7  1  0  0  0  0
  7 25  1  0  0  0  0
  7  8  2  0  0  0  0
  8  9  1  0  0  0  0
  9 13  1  0  0  0  0
  9 10  2  0  0  0  0
 10 11  1  0  0  0  0
 10 23  1  0  0  0  0
 11 12  2  0  0  0  0
 12 13  1  0  0  0  0
 12 38  1  0  0  0  0
 13 14  1  0  0  0  0
 14 26  1  0  0  0  0
 14 21  1  0  0  0  0
 14 15  1  0  0  0  0
 15 16  1  0  0  0  0
 16 27  1  0  0  0  0
 16 17  1  0  0  0  0
 16 19  1  0  0  0  0
 17 18  1  0  0  0  0
 17 39  1  0  0  0  0
 17 40  1  0  0  0  0
 18 41  1  0  0  0  0
 19 28  1  0  0  0  0
 19 20  1  0  0  0  0
 19 21  1  0  0  0  0
 20 42  1  0  0  0  0
 21 29  1  0  0  0  0
 21 22  1  0  0  0  0
 22 43  1  0  0  0  0
 23 24  2  0  0  0  0
 23 25  1  0  0  0  0
 25 44  1  0  0  0  0
M  END
> <s_m_source_file>
AV-unprocessed.smi

> <i_m_source_file_index>
54

> <i_lp_mmshare_version>
43012

> <i_f3d_flags>
0

> <s_epik_input>
W0NIM11bQ0hdKFtDSDNdKUMoPU8pW05IXWMobjEpW25IXWMoPU8pYyhjMTIpbltjSF1uMltDQEBIXTNPW0NASF0oW0NIMl1bT0hdKVtDQEBIXShbT0hdKVtDQEhdM1tPSF0=

> <s_epik_cmdline>
J2VwaWtfcHl0aG9uJywgJy1waCcsICc3LjAnLCAnLXRuJywgJzgnLCAnLW1hJywgJzIwMCcsICctbWV0YWxfYmluZGluZycsICctaW1hZScsICc8aW5maWxlLm1hZT4nLCAnLW9tYWUnLCAnPG91dGZpbGUubWFlPic=

> <r_lp_tautomer_probability>
0.85571

> <r_epik_Ionization_Penalty>
0.0316551

> <r_epik_Ionization_Penalty_Charging>
0.0316043

> <r_epik_Ionization_Penalty_Neutral>
5.07097e-05

> <r_epik_State_Penalty>
3.15494e-07

> <r_epik_Charging_Adjusted_Penalty>
0.0316047

> <i_epik_Tot_Q>
0

> <i_epik_Tot_abs_Q>
0

> <r_epik_Metal_State_Penalty>
0.421206

> <b_epik_Metal_Only>
0

> <s_epik_Chemistry_Notes>
This compound contains an acetal/aminal-like group ( X-CH(R)-Y where X, Y are N, S, or O) that may be acid/base labile, releasing an aldehyde.

> <s_lp_Force_Field>
OPLS_2005

> <r_lp_Energy>
41.1485

> <b_lp_Chiralities_Consistent>
1

> <s_lp_Variant>
AV-unprocessed.smi:54-6

> <Gold.Version>
5.8.1

> <Gold.Id.Protein>
6NUR|6NUR_protein|mol2

> <Gold.PLP.Fitness>
48.0389

> <Gold.PLP.PLP>
-41.4851

> <Gold.PLP.part.hbond>
-6.1040

> <Gold.PLP.part.metal>
0.0000

> <Gold.PLP.part.buried>
-2.7142

> <Gold.PLP.part.nonpolar>
-32.2649

> <Gold.PLP.part.repulsive>
0.2631

> <Gold.PLP.ligand.clash>
0.0000

> <Gold.PLP.ligand.torsion>
0.8621

> <Gold.PLP.Chemscore.Hbond>
1.7454

> <Gold.PLP.Chemscore.CHOScore>
1.0000

> <Gold.PLP.Chemscore.Metal>
0.0000

> <Gold.Chemscore.Hbonds>
donor molecule, donor type, donor heavy atom, donor atom, acceptor molecule, acceptor atom, score
      P1  H  7989  7998       L1    11  0.68
      L1  C    12    38       P1  8028  1.00

> <Gold.PLP.Chemscore.Internal.Correction>
0.0417

> <Gold.Rescore>
     Score         DG    S(hbond)    S(metal)    S(lipo)     H(rot)  DE(clash)    DE(int)     intcor
      3.04      -8.87       1.57        0.00      72.74       4.05       1.99       3.83       ----

> <Gold.Chemscore.Fitness>
3.0448

> <Gold.Chemscore.DG>
-8.8658

> <Gold.Chemscore.ZeroCoef>
-5.4800

> <Gold.Chemscore.Hbond>
1.5693

> <Gold.Chemscore.Metal>
0.0000

> <Gold.Chemscore.Lipo>
72.7407

> <Gold.Chemscore.Internal_Hbond>
0.0000

> <Gold.Chemscore.DEClash>
1.9882

> <Gold.Chemscore.DEInternal>
3.8328

> <Gold.Chemscore.Rot>
4.0493

> <Gold.Chemscore.Internal.Correction>
   9.000000E+99

> <Gold.Chemscore.Hbonds>
donor molecule, donor type, donor heavy atom, donor atom, acceptor molecule, acceptor atom, score
      P1  H  7989  7998       L1    11  0.64

> <Gold.Chemscore.Hbond.Weighted>
-5.2413

> <Gold.Chemscore.Metal.Weighted>
-0.0000

> <Gold.Chemscore.Lipo.Weighted>
-8.5107

> <Gold.Chemscore.Internal_Hbond.Weighted>
0.0000

> <Gold.Chemscore.DEClash.Weighted>
1.9882

> <Gold.Chemscore.DEInternal.Weighted>
3.8328

> <Gold.Chemscore.Rot.Weighted>
10.3662

> <Gold.Chemscore.Internal.Correction.Weighted>
   9.000000E+99

> <Gold.Protein.RotatedTorsions>
[ 6907 6896 6895 6894 ] final  161.59 input  -60.11 | X-H torsion
[ 7974 7965 7964 7962 ] final  -11.07 input  175.53 | X-H torsion
[ 8008 7997 7996 7995 ] final -148.19 input   59.86 | X-H torsion
[ 10167 10162 10161 10158 ] final -137.87 input  -65.29 | X-H torsion
[ 10718 10713 10712 10709 ] final  165.48 input   66.30 | X-H torsion
[ 10763 10752 10751 10750 ] final  -11.30 input  -60.55 | X-H torsion
[ 11005 11000 10999 10996 ] final   25.20 input  -57.11 | X-H torsion

> <Gold.Protein.ActiveResidues>
 VAL166  LYS551  ARG553  GLY616  TRP617  ASP618  TYR619  PRO620  LYS621  CYS622 
 ASP623  PHE694  ASN695  SER759  ASP760  ASP761  ALA762  ILE779  LEU786  VAL792 
 PHE793  MET794  SER795  GLU796  ALA797  LYS798  CYS799  TRP800  GLU811  SER814 

> <Gold.Protein.RotatedAtoms>
  151.9532  133.3672  159.4007 H   0  0  0  0  0  0  0  0  0  0  0  0  # atno 6907 bound_to 6896
  150.6977  134.4318  159.5261 H   0  0  0  0  0  0  0  0  0  0  0  0  # atno 6908 bound_to 6896
  152.1994  134.8601  160.0560 H   0  0  0  0  0  0  0  0  0  0  0  0  # atno 6909 bound_to 6896
  146.2200  140.2857  142.8365 H   0  0  0  0  0  0  0  0  0  0  0  0  # atno 7974 bound_to 7965
  155.5876  140.0649  157.2767 H   0  0  0  0  0  0  0  0  0  0  0  0  # atno 8008 bound_to 7997
  154.4314  140.1841  156.1088 H   0  0  0  0  0  0  0  0  0  0  0  0  # atno 8009 bound_to 7997
  156.0257  140.3312  155.7090 H   0  0  0  0  0  0  0  0  0  0  0  0  # atno 8010 bound_to 7997
  139.8534  143.7169  152.2656 H   0  0  0  0  0  0  0  0  0  0  0  0  # atno 10167 bound_to 10162
  157.0795  131.0388  151.2580 H   0  0  0  0  0  0  0  0  0  0  0  0  # atno 10718 bound_to 10713
  153.4818  135.7017  153.5934 H   0  0  0  0  0  0  0  0  0  0  0  0  # atno 10763 bound_to 10752
  153.4143  135.3841  155.2071 H   0  0  0  0  0  0  0  0  0  0  0  0  # atno 10764 bound_to 10752
  154.8721  135.3912  154.4269 H   0  0  0  0  0  0  0  0  0  0  0  0  # atno 10765 bound_to 10752
  140.3504  134.2235  155.7680 H   0  0  0  0  0  0  0  0  0  0  0  0  # atno 11005 bound_to 11000
  144.9164  140.7817  143.5775 LP  0  0  0  0  0  0  0  0  0  0  0  0  # atno 17320 bound_to 7965
  145.2791  139.1925  143.4801 LP  0  0  0  0  0  0  0  0  0  0  0  0  # atno 17321 bound_to 7965
  139.7443  144.7551  151.0604 LP  0  0  0  0  0  0  0  0  0  0  0  0  # atno 17342 bound_to 10162
  140.7784  143.4935  150.9862 LP  0  0  0  0  0  0  0  0  0  0  0  0  # atno 17343 bound_to 10162
  157.4812  130.7766  149.7415 LP  0  0  0  0  0  0  0  0  0  0  0  0  # atno 17370 bound_to 10713
  155.9927  130.3929  150.2929 LP  0  0  0  0  0  0  0  0  0  0  0  0  # atno 17371 bound_to 10713
  141.2013  133.7964  157.0444 LP  0  0  0  0  0  0  0  0  0  0  0  0  # atno 17394 bound_to 11000
  140.0708  134.9703  157.1463 LP  0  0  0  0  0  0  0  0  0  0  0  0  # atno 17395 bound_to 11000

$$$$
