AV-unprocessed.smi:1179|AV-procd|sdf|4959|dock5
  -GOLD-   22720 3553D 1   1.00000     0.00000
 Structure written by MMmdl.
 47 48  0  0  0  0  0  0  0  0  2 V2000
  152.7150  138.5262  155.7552 C   0  0  0  0  0  0  0  0  0  0  0  0
  151.5007  139.4065  155.7947 C   0  0  0  0  0  0  0  0  0  0  0  0
  150.7885  139.8764  156.9335 C   0  0  0  0  0  0  0  0  0  0  0  0
  149.7767  140.6322  156.4114 C   0  0  0  0  0  0  0  0  0  0  0  0
  148.6898  141.3933  157.0966 C   0  0  0  0  0  0  0  0  0  0  0  0
  149.9132  140.5892  155.0352 N   0  0  0  0  0  0  0  0  0  0  0  0
  149.0998  141.2271  154.0112 C   0  0  0  0  0  0  0  0  0  0  0  0
  147.7384  140.5432  153.8732 C   0  0  0  0  0  0  0  0  0  0  0  0
  146.8062  140.8712  154.6071 O   0  0  0  0  0  0  0  0  0  0  0  0
  147.6359  139.5922  152.9313 N   0  0  0  0  0  0  0  0  0  0  0  0
  146.4310  138.8232  152.6472 C   0  0  0  0  0  0  0  0  0  0  0  0
  146.3493  137.5544  153.5185 C   0  0  0  0  0  0  0  0  0  0  0  0
  146.3439  136.3108  152.7073 N   0  3  2  0  0  0  0  0  0  0  0  0
  145.4624  136.4201  151.5164 C   0  0  0  0  0  0  0  0  0  0  0  0
  145.5852  135.1779  150.6154 C   0  0  0  0  0  0  0  0  0  0  0  0
  145.3013  133.8717  151.3791 C   0  0  2  0  0  0  0  0  0  0  0  0
  143.8055  133.6682  151.6772 C   0  0  0  0  0  0  0  0  0  0  0  0
  146.1730  133.8201  152.6470 C   0  0  0  0  0  0  0  0  0  0  0  0
  146.0347  135.0924  153.5024 C   0  0  0  0  0  0  0  0  0  0  0  0
  150.9731  139.8389  154.6614 N   0  0  0  0  0  0  0  0  0  0  0  0
  152.9694  138.1602  156.7500 H   0  0  0  0  0  0  0  0  0  0  0  0
  153.5792  139.0675  155.3698 H   0  0  0  0  0  0  0  0  0  0  0  0
  152.5518  137.6584  155.1155 H   0  0  0  0  0  0  0  0  0  0  0  0
  150.9899  139.6861  157.9774 H   0  0  0  0  0  0  0  0  0  0  0  0
  148.7700  141.2974  158.1796 H   0  0  0  0  0  0  0  0  0  0  0  0
  147.7087  141.0222  156.7996 H   0  0  0  0  0  0  0  0  0  0  0  0
  148.7416  142.4538  156.8497 H   0  0  0  0  0  0  0  0  0  0  0  0
  148.9603  142.2806  154.2600 H   0  0  0  0  0  0  0  0  0  0  0  0
  149.6344  141.1953  153.0613 H   0  0  0  0  0  0  0  0  0  0  0  0
  148.4540  139.3903  152.3734 H   0  0  0  0  0  0  0  0  0  0  0  0
  145.5691  139.4623  152.8404 H   0  0  0  0  0  0  0  0  0  0  0  0
  146.4076  138.5838  151.5838 H   0  0  0  0  0  0  0  0  0  0  0  0
  147.1680  137.5155  154.2387 H   0  0  0  0  0  0  0  0  0  0  0  0
  145.4295  137.6079  154.1031 H   0  0  0  0  0  0  0  0  0  0  0  0
  144.4290  136.5629  151.8353 H   0  0  0  0  0  0  0  0  0  0  0  0
  145.7361  137.3030  150.9374 H   0  0  0  0  0  0  0  0  0  0  0  0
  144.9161  135.2678  149.7588 H   0  0  0  0  0  0  0  0  0  0  0  0
  146.5956  135.1387  150.2057 H   0  0  0  0  0  0  0  0  0  0  0  0
  145.6025  133.0420  150.7379 H   0  0  0  0  0  0  0  0  0  0  0  0
  143.4016  134.4536  152.3152 H   0  0  0  0  0  0  0  0  0  0  0  0
  143.6344  132.7155  152.1793 H   0  0  0  0  0  0  0  0  0  0  0  0
  143.2223  133.6597  150.7561 H   0  0  0  0  0  0  0  0  0  0  0  0
  145.9237  132.9401  153.2414 H   0  0  0  0  0  0  0  0  0  0  0  0
  147.2179  133.7010  152.3570 H   0  0  0  0  0  0  0  0  0  0  0  0
  146.7105  135.0128  154.3527 H   0  0  0  0  0  0  0  0  0  0  0  0
  145.0273  135.1683  153.9141 H   0  0  0  0  0  0  0  0  0  0  0  0
  147.2820  136.1998  152.3504 H   0  0  0  0  0  0  0  0  0  0  0  0
  1  2  1  0  0  0  0
  1 21  1  0  0  0  0
  1 22  1  0  0  0  0
  1 23  1  0  0  0  0
  2 20  2  0  0  0  0
  2  3  1  0  0  0  0
  3  4  2  0  0  0  0
  3 24  1  0  0  0  0
  4  5  1  0  0  0  0
  4  6  1  0  0  0  0
  5 25  1  0  0  0  0
  5 26  1  0  0  0  0
  5 27  1  0  0  0  0
  6  7  1  0  0  0  0
  6 20  1  0  0  0  0
  7  8  1  0  0  0  0
  7 28  1  0  0  0  0
  7 29  1  0  0  0  0
  8  9  2  0  0  0  0
  8 10  1  0  0  0  0
 10 11  1  0  0  0  0
 10 30  1  0  0  0  0
 11 12  1  0  0  0  0
 11 31  1  0  0  0  0
 11 32  1  0  0  0  0
 12 13  1  0  0  0  0
 12 33  1  0  0  0  0
 12 34  1  0  0  0  0
 13 19  1  0  0  0  0
 13 14  1  0  0  0  0
 13 47  1  0  0  0  0
 14 15  1  0  0  0  0
 14 35  1  0  0  0  0
 14 36  1  0  0  0  0
 15 16  1  0  0  0  0
 15 37  1  0  0  0  0
 15 38  1  0  0  0  0
 16 17  1  0  0  0  0
 16 18  1  0  0  0  0
 16 39  1  0  0  0  0
 17 40  1  0  0  0  0
 17 41  1  0  0  0  0
 17 42  1  0  0  0  0
 18 19  1  0  0  0  0
 18 43  1  0  0  0  0
 18 44  1  0  0  0  0
 19 45  1  0  0  0  0
 19 46  1  0  0  0  0
M  CHG  1  13   1
M  END
> <s_m_source_file>
AV-unprocessed.smi

> <i_m_source_file_index>
1179

> <i_lp_mmshare_version>
43012

> <i_f3d_flags>
0

> <s_epik_input>
W0NIM11jMVtjSF1jKFtDSDNdKW4objEpW0NIMl1DKD1PKVtOSF1bQ0gyXVtDSDJdTjJbQ0gyXVtDSDJdW0NIXShbQ0gzXSlbQ0gyXVtDSDJdMg==

> <s_epik_cmdline>
J2VwaWtfcHl0aG9uJywgJy1waCcsICc3LjAnLCAnLXRuJywgJzgnLCAnLW1hJywgJzIwMCcsICctbWV0YWxfYmluZGluZycsICctaW1hZScsICc8aW5maWxlLm1hZT4nLCAnLW9tYWUnLCAnPG91dGZpbGUubWFlPic=

> <r_lp_tautomer_probability>
1

> <r_epik_Ionization_Penalty>
0.00206343

> <r_epik_Ionization_Penalty_Charging>
0.00187095

> <r_epik_Ionization_Penalty_Neutral>
0.000192474

> <r_epik_State_Penalty>
-0

> <r_epik_Charging_Adjusted_Penalty>
0.00187095

> <i_epik_Tot_Q>
1

> <i_epik_Tot_abs_Q>
1

> <r_epik_Metal_State_Penalty>
-0

> <b_epik_Metal_Only>
0

> <s_lp_Force_Field>
OPLS_2005

> <r_lp_Energy>
16.047

> <b_lp_Chiralities_Consistent>
1

> <s_lp_Variant>
AV-unprocessed.smi:1179-2

> <Gold.Version>
5.8.1

> <Gold.Id.Protein>
6NUR|6NUR_protein|mol2

> <Gold.PLP.Fitness>
42.8101

> <Gold.PLP.PLP>
-33.0736

> <Gold.PLP.part.hbond>
-3.0000

> <Gold.PLP.part.metal>
0.0000

> <Gold.PLP.part.buried>
-0.4175

> <Gold.PLP.part.nonpolar>
-29.0965

> <Gold.PLP.part.repulsive>
0.2484

> <Gold.PLP.ligand.clash>
0.0000

> <Gold.PLP.ligand.torsion>
1.1490

> <Gold.PLP.Chemscore.Hbond>
4.0000

> <Gold.PLP.Chemscore.CHOScore>
0.0000

> <Gold.PLP.Chemscore.Metal>
0.0000

> <Gold.Chemscore.Hbonds>
donor molecule, donor type, donor heavy atom, donor atom, acceptor molecule, acceptor atom, score
      L1  H    10    30       P1  7957  0.91
      L1  H    13    47       P1  7948  2.00
      P1  H  7989  7998       L1    20  0.95

> <Gold.PLP.Chemscore.Internal.Correction>
0.0344

> <Gold.Rescore>
     Score         DG    S(hbond)    S(metal)    S(lipo)     H(rot)  DE(clash)    DE(int)     intcor
     17.45     -19.04       2.69        0.00      75.45       1.67       0.41       1.18       ----

> <Gold.Chemscore.Fitness>
17.4489

> <Gold.Chemscore.DG>
-19.0392

> <Gold.Chemscore.ZeroCoef>
-5.4800

> <Gold.Chemscore.Hbond>
2.6933

> <Gold.Chemscore.Metal>
0.0000

> <Gold.Chemscore.Lipo>
75.4489

> <Gold.Chemscore.Internal_Hbond>
0.0000

> <Gold.Chemscore.DEClash>
0.4062

> <Gold.Chemscore.DEInternal>
1.1841

> <Gold.Chemscore.Rot>
1.6657

> <Gold.Chemscore.Internal.Correction>
   9.000000E+99

> <Gold.Chemscore.Hbonds>
donor molecule, donor type, donor heavy atom, donor atom, acceptor molecule, acceptor atom, score
      L1  H    10    30       P1  7957  0.88
      L1  H    13    47       P1  7948  1.00
      P1  H  7989  7998       L1    20  0.22

> <Gold.Chemscore.Hbond.Weighted>
-8.9957

> <Gold.Chemscore.Metal.Weighted>
-0.0000

> <Gold.Chemscore.Lipo.Weighted>
-8.8275

> <Gold.Chemscore.Internal_Hbond.Weighted>
0.0000

> <Gold.Chemscore.DEClash.Weighted>
0.4062

> <Gold.Chemscore.DEInternal.Weighted>
1.1841

> <Gold.Chemscore.Rot.Weighted>
4.2641

> <Gold.Chemscore.Internal.Correction.Weighted>
   9.000000E+99

> <Gold.Protein.RotatedTorsions>
[ 6907 6896 6895 6894 ] final  155.60 input  -60.11 | X-H torsion
[ 7974 7965 7964 7962 ] final   45.10 input  175.53 | X-H torsion
[ 8008 7997 7996 7995 ] final   68.32 input   59.86 | X-H torsion
[ 10167 10162 10161 10158 ] final -115.20 input  -65.29 | X-H torsion
[ 10718 10713 10712 10709 ] final  -51.99 input   66.30 | X-H torsion
[ 10763 10752 10751 10750 ] final  -59.08 input  -60.55 | X-H torsion
[ 11005 11000 10999 10996 ] final   62.25 input  -57.11 | X-H torsion

> <Gold.Protein.ActiveResidues>
 VAL166  LYS551  ARG553  GLY616  TRP617  ASP618  TYR619  PRO620  LYS621  CYS622 
 ASP623  PHE694  ASN695  SER759  ASP760  ASP761  ALA762  ILE779  LEU786  VAL792 
 PHE793  MET794  SER795  GLU796  ALA797  LYS798  CYS799  TRP800  GLU811  SER814 

> <Gold.Protein.RotatedAtoms>
  152.0417  133.3980  159.4339 H   0  0  0  0  0  0  0  0  0  0  0  0  # atno 6907 bound_to 6896
  150.6875  134.3407  159.4876 H   0  0  0  0  0  0  0  0  0  0  0  0  # atno 6908 bound_to 6896
  152.1206  134.9208  160.0614 H   0  0  0  0  0  0  0  0  0  0  0  0  # atno 6909 bound_to 6896
  146.0510  139.5001  142.9718 H   0  0  0  0  0  0  0  0  0  0  0  0  # atno 7974 bound_to 7965
  155.7065  140.3495  155.4955 H   0  0  0  0  0  0  0  0  0  0  0  0  # atno 8008 bound_to 7997
  155.9394  140.1098  157.1090 H   0  0  0  0  0  0  0  0  0  0  0  0  # atno 8009 bound_to 7997
  154.4100  140.1216  156.4893 H   0  0  0  0  0  0  0  0  0  0  0  0  # atno 8010 bound_to 7997
  140.0927  143.4685  152.1860 H   0  0  0  0  0  0  0  0  0  0  0  0  # atno 10167 bound_to 10162
  156.1660  130.4149  149.9719 H   0  0  0  0  0  0  0  0  0  0  0  0  # atno 10718 bound_to 10713
  154.2481  135.6331  153.5230 H   0  0  0  0  0  0  0  0  0  0  0  0  # atno 10763 bound_to 10752
  152.9917  135.5558  154.5837 H   0  0  0  0  0  0  0  0  0  0  0  0  # atno 10764 bound_to 10752
  154.5358  135.2891  155.1114 H   0  0  0  0  0  0  0  0  0  0  0  0  # atno 10765 bound_to 10752
  140.0105  134.6303  155.9788 H   0  0  0  0  0  0  0  0  0  0  0  0  # atno 11005 bound_to 11000
  145.6724  141.0213  143.1650 LP  0  0  0  0  0  0  0  0  0  0  0  0  # atno 17320 bound_to 7965
  144.7122  139.8326  143.7410 LP  0  0  0  0  0  0  0  0  0  0  0  0  # atno 17321 bound_to 7965
  139.5716  144.7465  151.3877 LP  0  0  0  0  0  0  0  0  0  0  0  0  # atno 17342 bound_to 10162
  140.7020  143.7608  150.7419 LP  0  0  0  0  0  0  0  0  0  0  0  0  # atno 17343 bound_to 10162
  156.7533  130.9123  151.3638 LP  0  0  0  0  0  0  0  0  0  0  0  0  # atno 17370 bound_to 10713
  157.6768  130.9102  150.0170 LP  0  0  0  0  0  0  0  0  0  0  0  0  # atno 17371 bound_to 10713
  141.1707  133.6537  156.4643 LP  0  0  0  0  0  0  0  0  0  0  0  0  # atno 17394 bound_to 11000
  140.4563  134.6882  157.5064 LP  0  0  0  0  0  0  0  0  0  0  0  0  # atno 17395 bound_to 11000

$$$$
