AV-unprocessed.smi:2471|AV-procd|sdf|9739|dock6
  -GOLD-   2272013383D 1   1.00000     0.00000
 Structure written by MMmdl.
 40 41  0  0  0  0  0  0  0  0  1 V2000
  153.7218  141.1472  159.9805 C   0  0  0  0  0  0  0  0  0  0  0  0
  152.8589  142.3023  159.5172 C   0  0  0  0  0  0  0  0  0  0  0  0
  152.8871  143.5421  160.1859 C   0  0  0  0  0  0  0  0  0  0  0  0
  152.0658  144.5755  159.7009 C   0  0  0  0  0  0  0  0  0  0  0  0
  151.2557  144.3284  158.5759 C   0  0  0  0  0  0  0  0  0  0  0  0
  151.2844  143.0548  157.9645 C   0  0  0  0  0  0  0  0  0  0  0  0
  150.4296  142.9091  156.8400 N   0  0  0  0  0  0  0  0  0  0  0  0
  150.2487  141.8240  156.0668 C   0  0  0  0  0  0  0  0  0  0  0  0
  150.8128  140.7395  156.2153 O   0  0  0  0  0  0  0  0  0  0  0  0
  149.3613  142.0681  155.0919 N   0  0  0  0  0  0  0  0  0  0  0  0
  148.9373  141.1054  154.0799 C   0  0  0  0  0  0  0  0  0  0  0  0
  147.7598  140.2201  154.5497 C   0  0  2  0  0  0  0  0  0  0  0  0
  148.0922  139.3809  155.8048 C   0  0  0  0  0  0  0  0  0  0  0  0
  146.8828  138.5515  156.2660 C   0  0  0  0  0  0  0  0  0  0  0  0
  146.3542  137.6522  155.1388 C   0  0  0  0  0  0  0  0  0  0  0  0
  146.0211  138.4721  153.8802 C   0  0  0  0  0  0  0  0  0  0  0  0
  147.2159  139.3243  153.4099 C   0  0  2  0  0  0  0  0  0  0  0  0
  148.2255  138.4696  152.9061 O   0  0  0  0  0  0  0  0  0  0  0  0
  152.0814  142.0651  158.4388 N   0  0  0  0  0  0  0  0  0  0  0  0
  154.2125  141.3754  160.9270 H   0  0  0  0  0  0  0  0  0  0  0  0
  154.4927  140.9315  159.2402 H   0  0  0  0  0  0  0  0  0  0  0  0
  153.1174  140.2503  160.1193 H   0  0  0  0  0  0  0  0  0  0  0  0
  153.5203  143.6998  161.0467 H   0  0  0  0  0  0  0  0  0  0  0  0
  152.0561  145.5420  160.1825 H   0  0  0  0  0  0  0  0  0  0  0  0
  150.6190  145.1117  158.1908 H   0  0  0  0  0  0  0  0  0  0  0  0
  149.8896  143.7266  156.5979 H   0  0  0  0  0  0  0  0  0  0  0  0
  148.9468  142.9873  155.0444 H   0  0  0  0  0  0  0  0  0  0  0  0
  148.6704  141.6350  153.1637 H   0  0  0  0  0  0  0  0  0  0  0  0
  149.7999  140.4858  153.8341 H   0  0  0  0  0  0  0  0  0  0  0  0
  146.9461  140.8928  154.8257 H   0  0  0  0  0  0  0  0  0  0  0  0
  148.9347  138.7197  155.5982 H   0  0  0  0  0  0  0  0  0  0  0  0
  148.4060  140.0293  156.6232 H   0  0  0  0  0  0  0  0  0  0  0  0
  147.1577  137.9432  157.1283 H   0  0  0  0  0  0  0  0  0  0  0  0
  146.0890  139.2204  156.6010 H   0  0  0  0  0  0  0  0  0  0  0  0
  147.0979  136.8915  154.8987 H   0  0  0  0  0  0  0  0  0  0  0  0
  145.4667  137.1167  155.4771 H   0  0  0  0  0  0  0  0  0  0  0  0
  145.6887  137.8110  153.0789 H   0  0  0  0  0  0  0  0  0  0  0  0
  145.1790  139.1300  154.0988 H   0  0  0  0  0  0  0  0  0  0  0  0
  146.8906  139.9562  152.5825 H   0  0  0  0  0  0  0  0  0  0  0  0
  148.8050  138.9808  152.3620 H   0  0  0  0  0  0  0  0  0  0  0  0
  1  2  1  0  0  0  0
  1 20  1  0  0  0  0
  1 21  1  0  0  0  0
  1 22  1  0  0  0  0
  2 19  1  0  0  0  0
  2  3  2  0  0  0  0
  3  4  1  0  0  0  0
  3 23  1  0  0  0  0
  4  5  2  0  0  0  0
  4 24  1  0  0  0  0
  5  6  1  0  0  0  0
  5 25  1  0  0  0  0
  6  7  1  0  0  0  0
  6 19  2  0  0  0  0
  7  8  1  0  0  0  0
  7 26  1  0  0  0  0
  8  9  2  0  0  0  0
  8 10  1  0  0  0  0
 10 11  1  0  0  0  0
 10 27  1  0  0  0  0
 11 12  1  0  0  0  0
 11 28  1  0  0  0  0
 11 29  1  0  0  0  0
 12 17  1  0  0  0  0
 12 13  1  0  0  0  0
 12 30  1  0  0  0  0
 13 14  1  0  0  0  0
 13 31  1  0  0  0  0
 13 32  1  0  0  0  0
 14 15  1  0  0  0  0
 14 33  1  0  0  0  0
 14 34  1  0  0  0  0
 15 16  1  0  0  0  0
 15 35  1  0  0  0  0
 15 36  1  0  0  0  0
 16 17  1  0  0  0  0
 16 37  1  0  0  0  0
 16 38  1  0  0  0  0
 17 18  1  0  0  0  0
 17 39  1  0  0  0  0
 18 40  1  0  0  0  0
M  END
> <s_m_source_file>
AV-unprocessed.smi

> <i_m_source_file_index>
2471

> <i_lp_mmshare_version>
43012

> <i_f3d_flags>
0

> <s_epik_input>
W0NIM11jMVtjSF1bY0hdW2NIXWMobjEpW05IXUMoPU8pW05IXVtDSDJdW0NAQEhdMltDSDJdW0NIMl1bQ0gyXVtDSDJdW0NASF0yW09IXQ==

> <s_epik_cmdline>
J2VwaWtfcHl0aG9uJywgJy1waCcsICc3LjAnLCAnLXRuJywgJzgnLCAnLW1hJywgJzIwMCcsICctbWV0YWxfYmluZGluZycsICctaW1hZScsICc8aW5maWxlLm1hZT4nLCAnLW9tYWUnLCAnPG91dGZpbGUubWFlPic=

> <r_lp_tautomer_probability>
1

> <r_epik_Ionization_Penalty>
8.52237e-05

> <r_epik_Ionization_Penalty_Charging>
0

> <r_epik_Ionization_Penalty_Neutral>
8.52237e-05

> <r_epik_State_Penalty>
-0

> <r_epik_Charging_Adjusted_Penalty>
0

> <i_epik_Tot_Q>
0

> <i_epik_Tot_abs_Q>
0

> <r_epik_Metal_State_Penalty>
-0

> <b_epik_Metal_Only>
0

> <s_lp_Force_Field>
OPLS_2005

> <r_lp_Energy>
16.1084

> <b_lp_Chiralities_Consistent>
1

> <s_lp_Variant>
AV-unprocessed.smi:2471-3

> <Gold.Version>
5.8.1

> <Gold.Id.Protein>
6NUR|6NUR_protein|mol2

> <Gold.PLP.Fitness>
44.7782

> <Gold.PLP.PLP>
-36.1535

> <Gold.PLP.part.hbond>
-4.0000

> <Gold.PLP.part.metal>
0.0000

> <Gold.PLP.part.buried>
-5.3642

> <Gold.PLP.part.nonpolar>
-28.1497

> <Gold.PLP.part.repulsive>
0.2683

> <Gold.PLP.ligand.clash>
0.0000

> <Gold.PLP.ligand.torsion>
0.1933

> <Gold.PLP.Chemscore.Hbond>
3.0000

> <Gold.PLP.Chemscore.CHOScore>
0.0000

> <Gold.PLP.Chemscore.Metal>
0.0000

> <Gold.Chemscore.Hbonds>
donor molecule, donor type, donor heavy atom, donor atom, acceptor molecule, acceptor atom, score
      L1  H     7    26       P1  8028  1.00
      L1  H    10    27       P1  8028  1.00
      L1  H    18    40       P1  7957  1.00

> <Gold.PLP.Chemscore.Internal.Correction>
0.0114

> <Gold.Rescore>
     Score         DG    S(hbond)    S(metal)    S(lipo)     H(rot)  DE(clash)    DE(int)     intcor
     19.16     -20.65       2.95        0.00      83.46       1.73       0.04       1.45       ----

> <Gold.Chemscore.Fitness>
19.1568

> <Gold.Chemscore.DG>
-20.6478

> <Gold.Chemscore.ZeroCoef>
-5.4800

> <Gold.Chemscore.Hbond>
2.9467

> <Gold.Chemscore.Metal>
0.0000

> <Gold.Chemscore.Lipo>
83.4560

> <Gold.Chemscore.Internal_Hbond>
0.0000

> <Gold.Chemscore.DEClash>
0.0368

> <Gold.Chemscore.DEInternal>
1.4542

> <Gold.Chemscore.Rot>
1.7339

> <Gold.Chemscore.Internal.Correction>
   9.000000E+99

> <Gold.Chemscore.Hbonds>
donor molecule, donor type, donor heavy atom, donor atom, acceptor molecule, acceptor atom, score
      L1  H     7    26       P1  8028  0.99
      L1  H    10    27       P1  8028  0.94
      L1  H    18    40       P1  7957  0.99

> <Gold.Chemscore.Hbond.Weighted>
-9.8421

> <Gold.Chemscore.Metal.Weighted>
-0.0000

> <Gold.Chemscore.Lipo.Weighted>
-9.7643

> <Gold.Chemscore.Internal_Hbond.Weighted>
0.0000

> <Gold.Chemscore.DEClash.Weighted>
0.0368

> <Gold.Chemscore.DEInternal.Weighted>
1.4542

> <Gold.Chemscore.Rot.Weighted>
4.4387

> <Gold.Chemscore.Internal.Correction.Weighted>
   9.000000E+99

> <Gold.Protein.RotatedTorsions>
[ 6907 6896 6895 6894 ] final    7.00 input  -60.11 | X-H torsion
[ 7974 7965 7964 7962 ] final -174.44 input  175.53 | X-H torsion
[ 8008 7997 7996 7995 ] final  108.73 input   59.86 | X-H torsion
[ 10167 10162 10161 10158 ] final -173.83 input  -65.29 | X-H torsion
[ 10718 10713 10712 10709 ] final  154.62 input   66.30 | X-H torsion
[ 10763 10752 10751 10750 ] final  -21.28 input  -60.55 | X-H torsion
[ 11005 11000 10999 10996 ] final -108.28 input  -57.11 | X-H torsion

> <Gold.Protein.ActiveResidues>
 VAL166  LYS551  ARG553  GLY616  TRP617  ASP618  TYR619  PRO620  LYS621  CYS622 
 ASP623  PHE694  ASN695  SER759  ASP760  ASP761  ALA762  ILE779  LEU786  VAL792 
 PHE793  MET794  SER795  GLU796  ALA797  LYS798  CYS799  TRP800  GLU811  SER814 

> <Gold.Protein.RotatedAtoms>
  151.6828  135.0959  160.0218 H   0  0  0  0  0  0  0  0  0  0  0  0  # atno 6907 bound_to 6896
  152.3825  133.6561  159.6181 H   0  0  0  0  0  0  0  0  0  0  0  0  # atno 6908 bound_to 6896
  150.7758  133.9007  159.3381 H   0  0  0  0  0  0  0  0  0  0  0  0  # atno 6909 bound_to 6896
  144.7132  140.1470  143.6387 H   0  0  0  0  0  0  0  0  0  0  0  0  # atno 7974 bound_to 7965
  156.1926  140.3071  155.9362 H   0  0  0  0  0  0  0  0  0  0  0  0  # atno 8008 bound_to 7997
  155.3139  140.0452  157.3053 H   0  0  0  0  0  0  0  0  0  0  0  0  # atno 8009 bound_to 7997
  154.5470  140.2279  155.8556 H   0  0  0  0  0  0  0  0  0  0  0  0  # atno 8010 bound_to 7997
  139.5667  144.1740  152.1322 H   0  0  0  0  0  0  0  0  0  0  0  0  # atno 10167 bound_to 10162
  157.2292  131.0735  151.1863 H   0  0  0  0  0  0  0  0  0  0  0  0  # atno 10718 bound_to 10713
  153.6337  135.6988  153.5266 H   0  0  0  0  0  0  0  0  0  0  0  0  # atno 10763 bound_to 10752
  153.2838  135.4177  155.1103 H   0  0  0  0  0  0  0  0  0  0  0  0  # atno 10764 bound_to 10752
  154.8516  135.3608  154.5880 H   0  0  0  0  0  0  0  0  0  0  0  0  # atno 10765 bound_to 10752
  141.0910  133.9055  157.2076 H   0  0  0  0  0  0  0  0  0  0  0  0  # atno 11005 bound_to 11000
  145.9150  139.2510  143.1415 LP  0  0  0  0  0  0  0  0  0  0  0  0  # atno 17320 bound_to 7965
  145.9678  140.8785  143.0178 LP  0  0  0  0  0  0  0  0  0  0  0  0  # atno 17321 bound_to 7965
  140.1264  144.5328  150.6830 LP  0  0  0  0  0  0  0  0  0  0  0  0  # atno 17342 bound_to 10162
  140.6950  143.2398  151.5025 LP  0  0  0  0  0  0  0  0  0  0  0  0  # atno 17343 bound_to 10162
  157.3495  130.7075  149.6432 LP  0  0  0  0  0  0  0  0  0  0  0  0  # atno 17370 bound_to 10713
  155.9676  130.4256  150.4663 LP  0  0  0  0  0  0  0  0  0  0  0  0  # atno 17371 bound_to 10713
  139.9736  135.0121  156.9574 LP  0  0  0  0  0  0  0  0  0  0  0  0  # atno 17394 bound_to 11000
  140.5252  134.0868  155.7302 LP  0  0  0  0  0  0  0  0  0  0  0  0  # atno 17395 bound_to 11000

$$$$
