AV-unprocessed.smi:72|AV-procd|sdf|733|dock5
  -GOLD-   2262017 63D 1   1.00000     0.00000
 Structure written by MMmdl.
 28 29  0  0  0  0  0  0  0  0  2 V2000
  152.5897  140.9808  158.9486 N   0  0  0  0  0  0  0  0  0  0  0  0
  151.9065  140.9775  157.8888 C   0  0  0  0  0  0  0  0  0  0  0  0
  150.7242  141.8042  157.7877 N   0  0  0  0  0  0  0  0  0  0  0  0
  150.0301  141.7373  156.6933 C   0  0  0  0  0  0  0  0  0  0  0  0
  150.3989  140.8458  155.5985 N   0  0  0  0  0  0  0  0  0  0  0  0
  149.6010  140.7604  154.3049 C   0  0  2  0  0  0  0  0  0  0  0  0
  148.8145  141.9034  154.1380 O   0  0  0  0  0  0  0  0  0  0  0  0
  147.5041  141.6601  154.6345 C   0  0  1  0  0  0  0  0  0  0  0  0
  146.5195  142.6729  154.0315 C   0  0  0  0  0  0  0  0  0  0  0  0
  145.1918  142.2892  154.3199 O   0  0  0  0  0  0  0  0  0  0  0  0
  147.2563  140.2200  154.1837 C   0  0  2  0  0  0  0  0  0  0  0  0
  146.3103  139.5949  155.0277 O   0  0  0  0  0  0  0  0  0  0  0  0
  148.6263  139.5615  154.3275 C   0  0  1  0  0  0  0  0  0  0  0  0
  148.8589  138.6806  153.2474 O   0  0  0  0  0  0  0  0  0  0  0  0
  151.6005  140.0931  155.7050 C   0  0  0  0  0  0  0  0  0  0  0  0
  151.9364  139.3985  154.7452 O   0  0  0  0  0  0  0  0  0  0  0  0
  152.3275  140.1728  156.8540 N   0  5  0  0  0  0  0  0  0  0  0  0
  150.3551  140.7182  153.5168 H   0  0  0  0  0  0  0  0  0  0  0  0
  147.5009  141.7107  155.7252 H   0  0  0  0  0  0  0  0  0  0  0  0
  146.9177  140.2016  153.1461 H   0  0  0  0  0  0  0  0  0  0  0  0
  148.7122  139.0247  155.2740 H   0  0  0  0  0  0  0  0  0  0  0  0
  152.2122  141.5961  159.6543 H   0  0  0  0  0  0  0  0  0  0  0  0
  149.1384  142.3434  156.5341 H   0  0  0  0  0  0  0  0  0  0  0  0
  146.7131  143.6816  154.3978 H   0  0  0  0  0  0  0  0  0  0  0  0
  146.6242  142.6963  152.9465 H   0  0  0  0  0  0  0  0  0  0  0  0
  144.9941  141.5030  153.8348 H   0  0  0  0  0  0  0  0  0  0  0  0
  146.5262  139.8071  155.9229 H   0  0  0  0  0  0  0  0  0  0  0  0
  149.1565  139.1924  152.5098 H   0  0  0  0  0  0  0  0  0  0  0  0
  1  2  2  0  0  0  0
  1 22  1  0  0  0  0
  2 17  1  0  0  0  0
  2  3  1  0  0  0  0
  3  4  2  0  0  0  0
  4  5  1  0  0  0  0
  4 23  1  0  0  0  0
  5  6  1  0  0  0  0
  5 15  1  0  0  0  0
  6 18  1  0  0  0  0
  6 13  1  0  0  0  0
  6  7  1  0  0  0  0
  7  8  1  0  0  0  0
  8 19  1  0  0  0  0
  8  9  1  0  0  0  0
  8 11  1  0  0  0  0
  9 10  1  0  0  0  0
  9 24  1  0  0  0  0
  9 25  1  0  0  0  0
 10 26  1  0  0  0  0
 11 20  1  0  0  0  0
 11 12  1  0  0  0  0
 11 13  1  0  0  0  0
 12 27  1  0  0  0  0
 13 21  1  0  0  0  0
 13 14  1  0  0  0  0
 14 28  1  0  0  0  0
 15 16  2  0  0  0  0
 15 17  1  0  0  0  0
M  CHG  1  17  -1
M  END
> <s_m_source_file>
AV-unprocessed.smi

> <i_m_source_file_index>
72

> <i_lp_mmshare_version>
43012

> <i_f3d_flags>
0

> <s_epik_input>
W05IMl1jMW5bY0hdbihjKD1PKW4xKVtDQEBIXTJPW0NASF0oW0NIMl1bT0hdKVtDQEBIXShbT0hdKVtDQEhdMltPSF0=

> <s_epik_cmdline>
J2VwaWtfcHl0aG9uJywgJy1waCcsICc3LjAnLCAnLXRuJywgJzgnLCAnLW1hJywgJzIwMCcsICctbWV0YWxfYmluZGluZycsICctaW1hZScsICc8aW5maWxlLm1hZT4nLCAnLW9tYWUnLCAnPG91dGZpbGUubWFlPic=

> <r_lp_tautomer_probability>
7.17554e-07

> <r_epik_Ionization_Penalty>
12.8705

> <r_epik_Ionization_Penalty_Charging>
5.64144

> <r_epik_Ionization_Penalty_Neutral>
7.22905

> <r_epik_State_Penalty>
3.30104

> <r_epik_Charging_Adjusted_Penalty>
8.94249

> <i_epik_Tot_Q>
-1

> <i_epik_Tot_abs_Q>
1

> <r_epik_Metal_State_Penalty>
0.529074

> <b_epik_Metal_Only>
1

> <s_epik_Chemistry_Notes>
This compound contains an acetal/aminal-like group ( X-CH(R)-Y where X, Y are N, S, or O) that may be acid/base labile, releasing an aldehyde.

> <s_lp_Force_Field>
OPLS_2005

> <r_lp_Energy>
30.1413

> <b_lp_Chiralities_Consistent>
1

> <s_lp_Variant>
AV-unprocessed.smi:72-71

> <Gold.Version>
5.8.1

> <Gold.Id.Protein>
6NUR|6NUR_protein|mol2

> <Gold.PLP.Fitness>
44.2599

> <Gold.PLP.PLP>
-28.8394

> <Gold.PLP.part.hbond>
-6.0041

> <Gold.PLP.part.metal>
0.0000

> <Gold.PLP.part.buried>
-1.4596

> <Gold.PLP.part.nonpolar>
-20.9426

> <Gold.PLP.part.repulsive>
0.3015

> <Gold.PLP.ligand.clash>
0.0000

> <Gold.PLP.ligand.torsion>
0.6837

> <Gold.PLP.Chemscore.Hbond>
4.5844

> <Gold.PLP.Chemscore.CHOScore>
1.0000

> <Gold.PLP.Chemscore.Metal>
0.0000

> <Gold.Chemscore.Hbonds>
donor molecule, donor type, donor heavy atom, donor atom, acceptor molecule, acceptor atom, score
      L1  H    10    26       P1 10175  0.67
      L1  H    14    28       P1  7957  1.00
      P1  H  7989  7998       L1    16  0.62
      P1  H  7997  8009       L1    17  1.92
      P1  H  8011  8017       L1     7  0.23
      L1  C     4    23       P1  8028  0.97

> <Gold.PLP.Chemscore.Internal.Correction>
0.0347

> <Gold.Rescore>
     Score         DG    S(hbond)    S(metal)    S(lipo)     H(rot)  DE(clash)    DE(int)     intcor
      3.90      -5.08       2.18        0.00      22.67       4.04       0.55       0.64       ----

> <Gold.Chemscore.Fitness>
3.8984

> <Gold.Chemscore.DG>
-5.0817

> <Gold.Chemscore.ZeroCoef>
-5.4800

> <Gold.Chemscore.Hbond>
2.1834

> <Gold.Chemscore.Metal>
0.0000

> <Gold.Chemscore.Lipo>
22.6692

> <Gold.Chemscore.Internal_Hbond>
0.0000

> <Gold.Chemscore.DEClash>
0.5479

> <Gold.Chemscore.DEInternal>
0.6354

> <Gold.Chemscore.Rot>
4.0403

> <Gold.Chemscore.Internal.Correction>
   9.000000E+99

> <Gold.Chemscore.Hbonds>
donor molecule, donor type, donor heavy atom, donor atom, acceptor molecule, acceptor atom, score
      L1  H    10    26       P1 10175  0.15
      L1  H    14    28       P1  7957  1.00
      P1  H  7989  7998       L1    16  0.05
      P1  H  7997  8009       L1    17  0.69
      P1  H  8011  8017       L1     7  0.02

> <Gold.Chemscore.Hbond.Weighted>
-7.2925

> <Gold.Chemscore.Metal.Weighted>
-0.0000

> <Gold.Chemscore.Lipo.Weighted>
-2.6523

> <Gold.Chemscore.Internal_Hbond.Weighted>
0.0000

> <Gold.Chemscore.DEClash.Weighted>
0.5479

> <Gold.Chemscore.DEInternal.Weighted>
0.6354

> <Gold.Chemscore.Rot.Weighted>
10.3431

> <Gold.Chemscore.Internal.Correction.Weighted>
   9.000000E+99

> <Gold.Protein.RotatedTorsions>
[ 6907 6896 6895 6894 ] final   69.72 input  -60.11 | X-H torsion
[ 7974 7965 7964 7962 ] final   32.53 input  175.53 | X-H torsion
[ 8008 7997 7996 7995 ] final -169.97 input   59.86 | X-H torsion
[ 10167 10162 10161 10158 ] final   81.35 input  -65.29 | X-H torsion
[ 10718 10713 10712 10709 ] final -129.66 input   66.30 | X-H torsion
[ 10763 10752 10751 10750 ] final -141.14 input  -60.55 | X-H torsion
[ 11005 11000 10999 10996 ] final   14.27 input  -57.11 | X-H torsion

> <Gold.Protein.ActiveResidues>
 VAL166  LYS551  ARG553  GLY616  TRP617  ASP618  TYR619  PRO620  LYS621  CYS622 
 ASP623  PHE694  ASN695  SER759  ASP760  ASP761  ALA762  ILE779  LEU786  VAL792 
 PHE793  MET794  SER795  GLU796  ALA797  LYS798  CYS799  TRP800  GLU811  SER814 

> <Gold.Protein.RotatedAtoms>
  152.4704  134.4974  159.9713 H   0  0  0  0  0  0  0  0  0  0  0  0  # atno 6907 bound_to 6896
  151.5002  133.3500  159.2875 H   0  0  0  0  0  0  0  0  0  0  0  0  # atno 6908 bound_to 6896
  150.8711  134.8113  159.7217 H   0  0  0  0  0  0  0  0  0  0  0  0  # atno 6909 bound_to 6896
  146.1480  139.6515  142.9118 H   0  0  0  0  0  0  0  0  0  0  0  0  # atno 7974 bound_to 7965
  155.9120  140.1059  157.1272 H   0  0  0  0  0  0  0  0  0  0  0  0  # atno 8008 bound_to 7997
  154.4041  140.1272  156.4635 H   0  0  0  0  0  0  0  0  0  0  0  0  # atno 8009 bound_to 7997
  155.7298  140.3468  155.5056 H   0  0  0  0  0  0  0  0  0  0  0  0  # atno 8010 bound_to 7997
  139.9402  144.6095  150.8259 H   0  0  0  0  0  0  0  0  0  0  0  0  # atno 10167 bound_to 10162
  156.2069  130.6893  151.0604 H   0  0  0  0  0  0  0  0  0  0  0  0  # atno 10718 bound_to 10713
  154.8555  135.3533  154.5821 H   0  0  0  0  0  0  0  0  0  0  0  0  # atno 10763 bound_to 10752
  153.6432  135.6997  153.5239 H   0  0  0  0  0  0  0  0  0  0  0  0  # atno 10764 bound_to 10752
  153.2954  135.4222  155.1164 H   0  0  0  0  0  0  0  0  0  0  0  0  # atno 10765 bound_to 10752
  140.4714  134.1027  155.7733 H   0  0  0  0  0  0  0  0  0  0  0  0  # atno 11005 bound_to 11000
  145.4890  141.0438  143.2603 LP  0  0  0  0  0  0  0  0  0  0  0  0  # atno 17320 bound_to 7965
  144.7870  139.6406  143.7130 LP  0  0  0  0  0  0  0  0  0  0  0  0  # atno 17321 bound_to 7965
  140.7613  143.3171  151.2708 LP  0  0  0  0  0  0  0  0  0  0  0  0  # atno 17342 bound_to 10162
  139.6711  144.0019  152.2753 LP  0  0  0  0  0  0  0  0  0  0  0  0  # atno 17343 bound_to 10162
  157.7017  131.0773  150.6799 LP  0  0  0  0  0  0  0  0  0  0  0  0  # atno 17370 bound_to 10713
  156.6858  130.4580  149.5614 LP  0  0  0  0  0  0  0  0  0  0  0  0  # atno 17371 bound_to 10713
  141.1575  133.8856  157.1938 LP  0  0  0  0  0  0  0  0  0  0  0  0  # atno 17394 bound_to 11000
  139.9882  135.0074  156.9914 LP  0  0  0  0  0  0  0  0  0  0  0  0  # atno 17395 bound_to 11000

$$$$
