AV-unprocessed.smi:3337|AV-procd|sdf|12867|dock6
  -GOLD-   2272019263D 1   1.00000     0.00000
 Structure written by MMmdl.
 46 47  0  0  0  0  0  0  0  0  2 V2000
  153.8969  141.4279  161.7494 C   0  0  0  0  0  0  0  0  0  0  0  0
  153.4581  142.0951  160.4382 C   0  0  2  0  0  0  0  0  0  0  0  0
  152.7635  143.4417  160.6990 C   0  0  0  0  0  0  0  0  0  0  0  0
  152.3165  144.0851  159.3760 C   0  0  2  0  0  0  0  0  0  0  0  0
  151.5992  145.4210  159.6175 C   0  0  0  0  0  0  0  0  0  0  0  0
  151.4315  143.1066  158.5802 C   0  0  0  0  0  0  0  0  0  0  0  0
  152.1254  141.8146  158.3390 N   0  3  2  0  0  0  0  0  0  0  0  0
  151.3354  140.9198  157.4553 C   0  0  0  0  0  0  0  0  0  0  0  0
  150.7875  141.6420  156.2089 C   0  0  0  0  0  0  0  0  0  0  0  0
  149.4433  141.1829  155.8797 N   0  0  0  0  0  0  0  0  0  0  0  0
  149.0349  140.8166  154.6536 C   0  0  0  0  0  0  0  0  0  0  0  0
  149.7768  140.8394  153.6708 O   0  0  0  0  0  0  0  0  0  0  0  0
  147.5661  140.3758  154.5238 C   0  0  1  0  0  0  0  0  0  0  0  0
  147.1891  139.2381  155.4944 C   0  0  0  0  0  0  0  0  0  0  0  0
  146.6705  141.5188  154.6557 N   0  0  0  0  0  0  0  0  0  0  0  0
  146.5636  142.6171  153.9047 C   0  0  0  0  0  0  0  0  0  0  0  0
  145.6554  143.4797  154.3383 N   0  0  0  0  0  0  0  0  0  0  0  0
  145.2101  142.8072  155.4410 C   0  0  0  0  0  0  0  0  0  0  0  0
  145.7920  141.6326  155.6829 N   0  0  0  0  0  0  0  0  0  0  0  0
  152.5396  141.1712  159.6145 C   0  0  0  0  0  0  0  0  0  0  0  0
  153.0412  141.2081  162.3887 H   0  0  0  0  0  0  0  0  0  0  0  0
  154.5737  142.0727  162.3108 H   0  0  0  0  0  0  0  0  0  0  0  0
  154.4196  140.4903  161.5586 H   0  0  0  0  0  0  0  0  0  0  0  0
  154.3580  142.2867  159.8515 H   0  0  0  0  0  0  0  0  0  0  0  0
  151.8998  143.2930  161.3492 H   0  0  0  0  0  0  0  0  0  0  0  0
  153.4400  144.1132  161.2293 H   0  0  0  0  0  0  0  0  0  0  0  0
  153.2079  144.2936  158.7822 H   0  0  0  0  0  0  0  0  0  0  0  0
  150.6949  145.2846  160.2115 H   0  0  0  0  0  0  0  0  0  0  0  0
  151.3112  145.8891  158.6761 H   0  0  0  0  0  0  0  0  0  0  0  0
  152.2431  146.1220  160.1494 H   0  0  0  0  0  0  0  0  0  0  0  0
  150.4962  142.9218  159.1114 H   0  0  0  0  0  0  0  0  0  0  0  0
  151.1683  143.5615  157.6242 H   0  0  0  0  0  0  0  0  0  0  0  0
  151.9386  140.0568  157.1688 H   0  0  0  0  0  0  0  0  0  0  0  0
  150.4892  140.5278  158.0213 H   0  0  0  0  0  0  0  0  0  0  0  0
  150.7887  142.7231  156.3592 H   0  0  0  0  0  0  0  0  0  0  0  0
  151.4135  141.4484  155.3387 H   0  0  0  0  0  0  0  0  0  0  0  0
  148.7772  141.1320  156.6372 H   0  0  0  0  0  0  0  0  0  0  0  0
  147.4429  139.9885  153.5112 H   0  0  0  0  0  0  0  0  0  0  0  0
  147.8223  138.3632  155.3427 H   0  0  0  0  0  0  0  0  0  0  0  0
  146.1571  138.9225  155.3398 H   0  0  0  0  0  0  0  0  0  0  0  0
  147.2877  139.5411  156.5375 H   0  0  0  0  0  0  0  0  0  0  0  0
  147.1649  142.7910  153.0243 H   0  0  0  0  0  0  0  0  0  0  0  0
  144.4381  143.1979  156.0876 H   0  0  0  0  0  0  0  0  0  0  0  0
  153.0720  140.2431  159.4108 H   0  0  0  0  0  0  0  0  0  0  0  0
  151.6529  140.9049  160.1924 H   0  0  0  0  0  0  0  0  0  0  0  0
  152.9704  142.0404  157.8340 H   0  0  0  0  0  0  0  0  0  0  0  0
  1  2  1  0  0  0  0
  1 21  1  0  0  0  0
  1 22  1  0  0  0  0
  1 23  1  0  0  0  0
  2 20  1  0  0  0  0
  2  3  1  0  0  0  0
  2 24  1  0  0  0  0
  3  4  1  0  0  0  0
  3 25  1  0  0  0  0
  3 26  1  0  0  0  0
  4  5  1  0  0  0  0
  4  6  1  0  0  0  0
  4 27  1  0  0  0  0
  5 28  1  0  0  0  0
  5 29  1  0  0  0  0
  5 30  1  0  0  0  0
  6  7  1  0  0  0  0
  6 31  1  0  0  0  0
  6 32  1  0  0  0  0
  7  8  1  0  0  0  0
  7 20  1  0  0  0  0
  7 46  1  0  0  0  0
  8  9  1  0  0  0  0
  8 33  1  0  0  0  0
  8 34  1  0  0  0  0
  9 10  1  0  0  0  0
  9 35  1  0  0  0  0
  9 36  1  0  0  0  0
 10 11  1  0  0  0  0
 10 37  1  0  0  0  0
 11 12  2  0  0  0  0
 11 13  1  0  0  0  0
 13 14  1  0  0  0  0
 13 15  1  0  0  0  0
 13 38  1  0  0  0  0
 14 39  1  0  0  0  0
 14 40  1  0  0  0  0
 14 41  1  0  0  0  0
 15 19  1  0  0  0  0
 15 16  1  0  0  0  0
 16 17  2  0  0  0  0
 16 42  1  0  0  0  0
 17 18  1  0  0  0  0
 18 19  2  0  0  0  0
 18 43  1  0  0  0  0
 20 44  1  0  0  0  0
 20 45  1  0  0  0  0
M  CHG  1   7   1
M  END
> <s_m_source_file>
AV-unprocessed.smi

> <i_m_source_file_index>
3337

> <i_lp_mmshare_version>
43012

> <i_f3d_flags>
0

> <s_epik_input>
W0NIM11bQ0BASF0xW0NIMl1bQ0BASF0oW0NIM10pW0NIMl1OKFtDSDJdMSlbQ0gyXVtDSDJdW05IXUMoPU8pW0NASF0oW0NIM10pbjJbY0hdbltjSF1uMg==

> <s_epik_cmdline>
J2VwaWtfcHl0aG9uJywgJy1waCcsICc3LjAnLCAnLXRuJywgJzgnLCAnLW1hJywgJzIwMCcsICctbWV0YWxfYmluZGluZycsICctaW1hZScsICc8aW5maWxlLm1hZT4nLCAnLW9tYWUnLCAnPG91dGZpbGUubWFlPic=

> <r_lp_tautomer_probability>
1

> <r_epik_Ionization_Penalty>
0.00175613

> <r_epik_Ionization_Penalty_Charging>
0.00174812

> <r_epik_Ionization_Penalty_Neutral>
8.01354e-06

> <r_epik_State_Penalty>
0.00118332

> <r_epik_Charging_Adjusted_Penalty>
0.00293143

> <i_epik_Tot_Q>
1

> <i_epik_Tot_abs_Q>
1

> <r_epik_Metal_State_Penalty>
-0

> <b_epik_Metal_Only>
0

> <s_lp_Force_Field>
OPLS_2005

> <r_lp_Energy>
22.1533

> <b_lp_Chiralities_Consistent>
1

> <s_lp_Variant>
AV-unprocessed.smi:3337-7

> <Gold.Version>
5.8.1

> <Gold.Id.Protein>
6NUR|6NUR_protein|mol2

> <Gold.PLP.Fitness>
43.6577

> <Gold.PLP.PLP>
-40.6414

> <Gold.PLP.part.hbond>
-1.8463

> <Gold.PLP.part.metal>
0.0000

> <Gold.PLP.part.buried>
-6.7022

> <Gold.PLP.part.nonpolar>
-35.6635

> <Gold.PLP.part.repulsive>
3.7232

> <Gold.PLP.ligand.clash>
0.0000

> <Gold.PLP.ligand.torsion>
0.6431

> <Gold.PLP.Chemscore.Hbond>
1.3840

> <Gold.PLP.Chemscore.CHOScore>
0.0000

> <Gold.PLP.Chemscore.Metal>
0.0000

> <Gold.Chemscore.Hbonds>
donor molecule, donor type, donor heavy atom, donor atom, acceptor molecule, acceptor atom, score
      P1  H  7989  7998       L1    12  0.40
      P1  H  8011  8017       L1    12  0.93

> <Gold.PLP.Chemscore.Internal.Correction>
0.1504

> <Gold.Rescore>
     Score         DG    S(hbond)    S(metal)    S(lipo)     H(rot)  DE(clash)    DE(int)     intcor
     12.62     -14.87       1.29        0.00      98.37       2.51       1.69       0.56       ----

> <Gold.Chemscore.Fitness>
12.6206

> <Gold.Chemscore.DG>
-14.8682

> <Gold.Chemscore.ZeroCoef>
-5.4800

> <Gold.Chemscore.Hbond>
1.2909

> <Gold.Chemscore.Metal>
0.0000

> <Gold.Chemscore.Lipo>
98.3734

> <Gold.Chemscore.Internal_Hbond>
0.0000

> <Gold.Chemscore.DEClash>
1.6896

> <Gold.Chemscore.DEInternal>
0.5581

> <Gold.Chemscore.Rot>
2.5129

> <Gold.Chemscore.Internal.Correction>
   9.000000E+99

> <Gold.Chemscore.Hbonds>
donor molecule, donor type, donor heavy atom, donor atom, acceptor molecule, acceptor atom, score
      P1  H  7989  7998       L1    12  0.40
      P1  H  8011  8017       L1    12  0.84

> <Gold.Chemscore.Hbond.Weighted>
-4.3116

> <Gold.Chemscore.Metal.Weighted>
-0.0000

> <Gold.Chemscore.Lipo.Weighted>
-11.5097

> <Gold.Chemscore.Internal_Hbond.Weighted>
0.0000

> <Gold.Chemscore.DEClash.Weighted>
1.6896

> <Gold.Chemscore.DEInternal.Weighted>
0.5581

> <Gold.Chemscore.Rot.Weighted>
6.4331

> <Gold.Chemscore.Internal.Correction.Weighted>
   9.000000E+99

> <Gold.Protein.RotatedTorsions>
[ 6907 6896 6895 6894 ] final  -15.28 input  -60.11 | X-H torsion
[ 7974 7965 7964 7962 ] final   48.43 input  175.53 | X-H torsion
[ 8008 7997 7996 7995 ] final  175.08 input   59.86 | X-H torsion
[ 10167 10162 10161 10158 ] final   80.14 input  -65.29 | X-H torsion
[ 10718 10713 10712 10709 ] final -130.02 input   66.30 | X-H torsion
[ 10763 10752 10751 10750 ] final  -25.97 input  -60.55 | X-H torsion
[ 11005 11000 10999 10996 ] final -140.23 input  -57.11 | X-H torsion

> <Gold.Protein.ActiveResidues>
 VAL166  LYS551  ARG553  GLY616  TRP617  ASP618  TYR619  PRO620  LYS621  CYS622 
 ASP623  PHE694  ASN695  SER759  ASP760  ASP761  ALA762  ILE779  LEU786  VAL792 
 PHE793  MET794  SER795  GLU796  ALA797  LYS798  CYS799  TRP800  GLU811  SER814 

> <Gold.Protein.RotatedAtoms>
  151.3264  135.0831  159.9323 H   0  0  0  0  0  0  0  0  0  0  0  0  # atno 6907 bound_to 6896
  152.5245  133.9587  159.7717 H   0  0  0  0  0  0  0  0  0  0  0  0  # atno 6908 bound_to 6896
  150.9918  133.6090  159.2737 H   0  0  0  0  0  0  0  0  0  0  0  0  # atno 6909 bound_to 6896
  146.0204  139.4645  142.9900 H   0  0  0  0  0  0  0  0  0  0  0  0  # atno 7974 bound_to 7965
  156.0907  140.1418  156.9595 H   0  0  0  0  0  0  0  0  0  0  0  0  # atno 8008 bound_to 7997
  154.4640  140.0933  156.7018 H   0  0  0  0  0  0  0  0  0  0  0  0  # atno 8009 bound_to 7997
  155.4923  140.3448  155.4359 H   0  0  0  0  0  0  0  0  0  0  0  0  # atno 8010 bound_to 7997
  139.9529  144.6013  150.8144 H   0  0  0  0  0  0  0  0  0  0  0  0  # atno 10167 bound_to 10162
  156.2103  130.6914  151.0642 H   0  0  0  0  0  0  0  0  0  0  0  0  # atno 10718 bound_to 10713
  153.7084  135.6952  153.5044 H   0  0  0  0  0  0  0  0  0  0  0  0  # atno 10763 bound_to 10752
  153.2291  135.4344  155.0574 H   0  0  0  0  0  0  0  0  0  0  0  0  # atno 10764 bound_to 10752
  154.8322  135.3479  154.6621 H   0  0  0  0  0  0  0  0  0  0  0  0  # atno 10765 bound_to 10752
  140.8443  134.2364  157.4794 H   0  0  0  0  0  0  0  0  0  0  0  0  # atno 11005 bound_to 11000
  145.7201  141.0078  143.1407 LP  0  0  0  0  0  0  0  0  0  0  0  0  # atno 17320 bound_to 7965
  144.6988  139.8860  143.7450 LP  0  0  0  0  0  0  0  0  0  0  0  0  # atno 17321 bound_to 7965
  140.7577  143.3092  151.2887 LP  0  0  0  0  0  0  0  0  0  0  0  0  # atno 17342 bound_to 10162
  139.6614  144.0183  152.2695 LP  0  0  0  0  0  0  0  0  0  0  0  0  # atno 17343 bound_to 10162
  157.7035  131.0766  150.6744 LP  0  0  0  0  0  0  0  0  0  0  0  0  # atno 17370 bound_to 10713
  156.6804  130.4565  149.5629 LP  0  0  0  0  0  0  0  0  0  0  0  0  # atno 17371 bound_to 10713
  139.8703  134.9651  156.4517 LP  0  0  0  0  0  0  0  0  0  0  0  0  # atno 17394 bound_to 11000
  140.8861  133.7882  155.9520 LP  0  0  0  0  0  0  0  0  0  0  0  0  # atno 17395 bound_to 11000

$$$$
