#       Name:                AV-unprocessed.smi:3138
#       Creating user name   scv26
#       Creation time:       Fri Mar 27 17:35:26 2020


#       File generated by GOLD software.
#

@<TRIPOS>MOLECULE
AV-unprocessed.smi:3138
    41    42     1
SMALL
NO_CHARGES


@<TRIPOS>ATOM
      1 ****        -2.4769  -0.9698  -0.4912 O.2            1 S1                 0.0000
      2 ****        -1.8123   0.0685  -0.4941 C.2            1 S1                 0.0000
      3 ****        -0.2766  -0.0279  -0.5134 C.3            1 S1                 0.0000
      4 ****         0.2194  -1.4099  -0.4779 N.3            1 S1                 0.0000
      5 ****         1.6740  -1.4338  -0.4963 C.3            1 S1                 0.0000
      6 ****         2.1626  -2.8879  -0.4362 C.3            1 S1                 0.0000
      7 ****         3.6106  -2.9633  -0.4079 N.pl3          1 S1                 0.0000
      8 ****         4.4415  -3.0503   0.6889 C.2            1 S1                 0.0000
      9 ****         5.7247  -3.0920   0.2239 C.2            1 S1                 0.0000
     10 ****         5.5743  -3.0210  -1.1893 C.2            1 S1                 0.0000
     11 ****         4.3077  -2.9423  -1.5644 N.2            1 S1                 0.0000
     12 ****        -2.3913   1.2944  -0.4706 N.am           1 S1                 0.0000
     13 ****        -3.8444   1.4830  -0.3662 C.3            1 S1                 0.0000
     14 ****        -4.1716   2.0571   1.0249 C.3            1 S1                 0.0000
     15 ****        -3.3947   3.3625   1.2816 C.3            1 S1                 0.0000
     16 ****        -1.8926   3.1993   0.9813 C.3            1 S1                 0.0000
     17 ****        -1.6756   2.5767  -0.4099 C.3            1 S1                 0.0000
     18 ****         0.0928   0.4595  -1.4168 H              1 S1                 0.0000
     19 ****         0.1194   0.5135   0.3472 H              1 S1                 0.0000
     20 ****        -0.1132  -1.8974   0.3419 H              1 S1                 0.0000
     21 ****         2.0420  -0.9495  -1.4022 H              1 S1                 0.0000
     22 ****         2.0636  -0.8759   0.3568 H              1 S1                 0.0000
     23 ****         1.7764  -3.3837   0.4556 H              1 S1                 0.0000
     24 ****         1.7974  -3.4528  -1.2955 H              1 S1                 0.0000
     25 ****         4.0548  -3.0741   1.6973 H              1 S1                 0.0000
     26 ****         6.6326  -3.1613   0.8043 H              1 S1                 0.0000
     27 ****         6.3429  -3.0237  -1.9481 H              1 S1                 0.0000
     28 ****        -4.1772   2.1708  -1.1448 H              1 S1                 0.0000
     29 ****        -4.4054   0.5614  -0.5261 H              1 S1                 0.0000
     30 ****        -5.2432   2.2360   1.1155 H              1 S1                 0.0000
     31 ****        -3.9141   1.3230   1.7896 H              1 S1                 0.0000
     32 ****        -3.8013   4.1492   0.6451 H              1 S1                 0.0000
     33 ****        -3.5408   3.6927   2.3104 H              1 S1                 0.0000
     34 ****        -1.3930   4.1662   1.0432 H              1 S1                 0.0000
     35 ****        -1.4340   2.5638   1.7401 H              1 S1                 0.0000
     36 ****        -0.6100   2.4966  -0.6175 H              1 S1                 0.0000
     37 ****        -2.0694   3.2420  -1.1798 H              1 S1                 0.0000
     38 ****        -2.0171  -1.8578  -0.5013 LP             1 S1                 0.0000
     39 ****        -3.4758  -0.9240  -0.4787 LP             1 S1                 0.0000
     40 ****        -0.1302  -1.8741  -1.2917 LP             1 S1                 0.0000
     41 ****         3.9476  -2.8810  -2.4953 LP             1 S1                 0.0000
@<TRIPOS>BOND
    1    1    2 2     
    2    2    3 1     
    3    2   12 am    
    4    3    4 1     
    5    3   18 1     
    6    3   19 1     
    7    4    5 1     
    8    4   20 1     
    9    5    6 1     
   10    5   21 1     
   11    5   22 1     
   12    6    7 1     
   13    6   23 1     
   14    6   24 1     
   15    7   11 1     
   16    7    8 1     
   17    8    9 2     
   18    8   25 1     
   19    9   10 1     
   20    9   26 1     
   21   10   11 2     
   22   10   27 1     
   23   12   17 1     
   24   12   13 1     
   25   13   14 1     
   26   13   28 1     
   27   13   29 1     
   28   14   15 1     
   29   14   30 1     
   30   14   31 1     
   31   15   16 1     
   32   15   32 1     
   33   15   33 1     
   34   16   17 1     
   35   16   34 1     
   36   16   35 1     
   37   17   36 1     
   38   17   37 1     
   39    1   38 1     
   40    1   39 1     
   41    4   40 1     
   42   11   41 1     
@<TRIPOS>SUBSTRUCTURE
      1 S1             1
@<TRIPOS>SET
LONE_PAIRS      STATIC     ATOMS    <user>   **** ""
4 38 39 40 41
DONOR_HYDROGENS      STATIC     ATOMS    <user>   **** ""
1 20
ATOM$BLUE        STATIC     ATOMS    COLORGROUP SYSTEM
4 38 39 40 41
ATOM$RED        STATIC     ATOMS    COLORGROUP SYSTEM
1 20
