AV-unprocessed.smi:1202|AV-procd|sdf|5029|dock1
  -GOLD-   22720 4 53D 1   1.00000     0.00000
 Structure written by MMmdl.
 45 46  0  0  0  0  0  0  0  0  2 V2000
  145.6896  134.2789  151.6933 C   0  0  0  0  0  0  0  0  0  0  0  0
  146.9282  134.2350  152.4555 N   0  0  0  0  0  0  0  0  0  0  0  0
  147.0702  133.5972  153.6258 C   0  0  0  0  0  0  0  0  0  0  0  0
  146.1577  132.9746  154.1703 O   0  0  0  0  0  0  0  0  0  0  0  0
  148.4606  133.6608  154.2666 C   0  0  0  0  0  0  0  0  0  0  0  0
  148.9601  135.0495  154.4393 N   0  3  2  0  0  0  0  0  0  0  0  0
  150.2971  135.1139  155.0888 C   0  0  0  0  0  0  0  0  0  0  0  0
  150.8317  136.5554  155.1142 C   0  0  0  0  0  0  0  0  0  0  0  0
  149.8424  137.5022  155.8186 C   0  0  1  0  0  0  0  0  0  0  0  0
  150.3049  138.8850  155.7528 N   0  0  0  0  0  0  0  0  0  0  0  0
  150.7836  139.5911  156.7885 C   0  0  0  0  0  0  0  0  0  0  0  0
  150.9085  139.1242  157.9215 O   0  0  0  0  0  0  0  0  0  0  0  0
  151.1988  141.0370  156.4812 C   0  0  0  0  0  0  0  0  0  0  0  0
  151.6664  141.7751  157.6666 N   0  0  0  0  0  0  0  0  0  0  0  0
  151.0583  143.0188  157.9301 C   0  0  0  0  0  0  0  0  0  0  0  0
  151.4090  143.7710  158.9851 C   0  0  0  0  0  0  0  0  0  0  0  0
  152.4408  143.2750  159.8647 C   0  0  0  0  0  0  0  0  0  0  0  0
  153.0317  142.0885  159.6199 C   0  0  0  0  0  0  0  0  0  0  0  0
  152.6534  141.2643  158.4661 C   0  0  0  0  0  0  0  0  0  0  0  0
  153.1903  140.1810  158.2322 O   0  0  0  0  0  0  0  0  0  0  0  0
  148.4594  137.3844  155.1584 C   0  0  0  0  0  0  0  0  0  0  0  0
  147.9777  135.9243  155.1288 C   0  0  0  0  0  0  0  0  0  0  0  0
  145.8404  134.8399  150.7711 H   0  0  0  0  0  0  0  0  0  0  0  0
  144.8995  134.7679  152.2645 H   0  0  0  0  0  0  0  0  0  0  0  0
  145.3582  133.2737  151.4302 H   0  0  0  0  0  0  0  0  0  0  0  0
  147.7253  134.7183  152.0665 H   0  0  0  0  0  0  0  0  0  0  0  0
  148.3748  133.1774  155.2407 H   0  0  0  0  0  0  0  0  0  0  0  0
  149.1762  133.0741  153.6880 H   0  0  0  0  0  0  0  0  0  0  0  0
  150.2284  134.7230  156.1053 H   0  0  0  0  0  0  0  0  0  0  0  0
  151.0062  134.4798  154.5559 H   0  0  0  0  0  0  0  0  0  0  0  0
  151.7990  136.5764  155.6175 H   0  0  0  0  0  0  0  0  0  0  0  0
  151.0080  136.8945  154.0922 H   0  0  0  0  0  0  0  0  0  0  0  0
  149.7479  137.2064  156.8655 H   0  0  0  0  0  0  0  0  0  0  0  0
  150.2423  139.3463  154.8565 H   0  0  0  0  0  0  0  0  0  0  0  0
  151.9744  141.0110  155.7146 H   0  0  0  0  0  0  0  0  0  0  0  0
  150.3615  141.5656  156.0214 H   0  0  0  0  0  0  0  0  0  0  0  0
  150.3006  143.3209  157.2216 H   0  0  0  0  0  0  0  0  0  0  0  0
  150.9343  144.7238  159.1690 H   0  0  0  0  0  0  0  0  0  0  0  0
  152.7413  143.8584  160.7227 H   0  0  0  0  0  0  0  0  0  0  0  0
  153.8024  141.7337  160.2882 H   0  0  0  0  0  0  0  0  0  0  0  0
  147.7358  138.0000  155.6943 H   0  0  0  0  0  0  0  0  0  0  0  0
  148.4993  137.7714  154.1389 H   0  0  0  0  0  0  0  0  0  0  0  0
  147.0170  135.8769  154.6146 H   0  0  0  0  0  0  0  0  0  0  0  0
  147.8136  135.5596  156.1441 H   0  0  0  0  0  0  0  0  0  0  0  0
  149.0680  135.4240  153.5070 H   0  0  0  0  0  0  0  0  0  0  0  0
  1  2  1  0  0  0  0
  1 23  1  0  0  0  0
  1 24  1  0  0  0  0
  1 25  1  0  0  0  0
  2  3  1  0  0  0  0
  2 26  1  0  0  0  0
  3  4  2  0  0  0  0
  3  5  1  0  0  0  0
  5  6  1  0  0  0  0
  5 27  1  0  0  0  0
  5 28  1  0  0  0  0
  6 22  1  0  0  0  0
  6  7  1  0  0  0  0
  6 45  1  0  0  0  0
  7  8  1  0  0  0  0
  7 29  1  0  0  0  0
  7 30  1  0  0  0  0
  8  9  1  0  0  0  0
  8 31  1  0  0  0  0
  8 32  1  0  0  0  0
  9 10  1  0  0  0  0
  9 21  1  0  0  0  0
  9 33  1  0  0  0  0
 10 11  1  0  0  0  0
 10 34  1  0  0  0  0
 11 12  2  0  0  0  0
 11 13  1  0  0  0  0
 13 14  1  0  0  0  0
 13 35  1  0  0  0  0
 13 36  1  0  0  0  0
 14 19  1  0  0  0  0
 14 15  1  0  0  0  0
 15 16  2  0  0  0  0
 15 37  1  0  0  0  0
 16 17  1  0  0  0  0
 16 38  1  0  0  0  0
 17 18  2  0  0  0  0
 17 39  1  0  0  0  0
 18 19  1  0  0  0  0
 18 40  1  0  0  0  0
 19 20  2  0  0  0  0
 21 22  1  0  0  0  0
 21 41  1  0  0  0  0
 21 42  1  0  0  0  0
 22 43  1  0  0  0  0
 22 44  1  0  0  0  0
M  CHG  1   6   1
M  END
> <s_m_source_file>
AV-unprocessed.smi

> <i_m_source_file_index>
1202

> <i_lp_mmshare_version>
43012

> <i_f3d_flags>
0

> <s_epik_input>
W0NIM11bTkhdQyg9TylbQ0gyXU4xW0NIMl1bQ0gyXVtDSF0oW0NIMl1bQ0gyXTEpW05IXUMoPU8pW0NIMl1uMltjSF1bY0hdW2NIXVtjSF1jMj1P

> <s_epik_cmdline>
J2VwaWtfcHl0aG9uJywgJy1waCcsICc3LjAnLCAnLXRuJywgJzgnLCAnLW1hJywgJzIwMCcsICctbWV0YWxfYmluZGluZycsICctaW1hZScsICc8aW5maWxlLm1hZT4nLCAnLW9tYWUnLCAnPG91dGZpbGUubWFlPic=

> <r_lp_tautomer_probability>
1

> <r_epik_Ionization_Penalty>
0.983979

> <r_epik_Ionization_Penalty_Charging>
0.983957

> <r_epik_Ionization_Penalty_Neutral>
2.18432e-05

> <r_epik_State_Penalty>
1.03106

> <r_epik_Charging_Adjusted_Penalty>
2.01502

> <i_epik_Tot_Q>
1

> <i_epik_Tot_abs_Q>
1

> <r_epik_Metal_State_Penalty>
1.03477

> <b_epik_Metal_Only>
0

> <s_lp_Force_Field>
OPLS_2005

> <r_lp_Energy>
22.8296

> <b_lp_Chiralities_Consistent>
1

> <s_lp_Variant>
AV-unprocessed.smi:1202-2

> <Gold.Version>
5.8.1

> <Gold.Id.Protein>
6NUR|6NUR_protein|mol2

> <Gold.PLP.Fitness>
48.4331

> <Gold.PLP.PLP>
-33.8425

> <Gold.PLP.part.hbond>
-3.0000

> <Gold.PLP.part.metal>
0.0000

> <Gold.PLP.part.buried>
-4.6760

> <Gold.PLP.part.nonpolar>
-26.2716

> <Gold.PLP.part.repulsive>
0.1611

> <Gold.PLP.ligand.clash>
0.0000

> <Gold.PLP.ligand.torsion>
0.2256

> <Gold.PLP.Chemscore.Hbond>
3.9760

> <Gold.PLP.Chemscore.CHOScore>
1.0000

> <Gold.PLP.Chemscore.Metal>
0.0000

> <Gold.Chemscore.Hbonds>
donor molecule, donor type, donor heavy atom, donor atom, acceptor molecule, acceptor atom, score
      L1  H     2    26       P1  7948  1.00
      L1  H     6    45       P1  7948  2.00
      P1  H  7997  8008       L1    20  0.98
      L1  C    15    37       P1  8028  1.00

> <Gold.PLP.Chemscore.Internal.Correction>
0.1138

> <Gold.Rescore>
     Score         DG    S(hbond)    S(metal)    S(lipo)     H(rot)  DE(clash)    DE(int)     intcor
     13.45     -17.92       2.87        0.00      73.39       2.23       0.00       4.47       ----

> <Gold.Chemscore.Fitness>
13.4541

> <Gold.Chemscore.DG>
-17.9240

> <Gold.Chemscore.ZeroCoef>
-5.4800

> <Gold.Chemscore.Hbond>
2.8676

> <Gold.Chemscore.Metal>
0.0000

> <Gold.Chemscore.Lipo>
73.3919

> <Gold.Chemscore.Internal_Hbond>
0.0000

> <Gold.Chemscore.DEClash>
0.0000

> <Gold.Chemscore.DEInternal>
4.4699

> <Gold.Chemscore.Rot>
2.2346

> <Gold.Chemscore.Internal.Correction>
   9.000000E+99

> <Gold.Chemscore.Hbonds>
donor molecule, donor type, donor heavy atom, donor atom, acceptor molecule, acceptor atom, score
      L1  H     2    26       P1  7948  0.60
      L1  H     6    45       P1  7948  0.60
      P1  H  7997  8008       L1    20  0.92

> <Gold.Chemscore.Hbond.Weighted>
-9.5777

> <Gold.Chemscore.Metal.Weighted>
-0.0000

> <Gold.Chemscore.Lipo.Weighted>
-8.5868

> <Gold.Chemscore.Internal_Hbond.Weighted>
0.0000

> <Gold.Chemscore.DEClash.Weighted>
0.0000

> <Gold.Chemscore.DEInternal.Weighted>
4.4699

> <Gold.Chemscore.Rot.Weighted>
5.7205

> <Gold.Chemscore.Internal.Correction.Weighted>
   9.000000E+99

> <Gold.Protein.RotatedTorsions>
[ 6907 6896 6895 6894 ] final   21.30 input  -60.11 | X-H torsion
[ 7974 7965 7964 7962 ] final   11.77 input  175.53 | X-H torsion
[ 8008 7997 7996 7995 ] final  -86.88 input   59.86 | X-H torsion
[ 10167 10162 10161 10158 ] final -102.98 input  -65.29 | X-H torsion
[ 10718 10713 10712 10709 ] final   62.87 input   66.30 | X-H torsion
[ 10763 10752 10751 10750 ] final  -64.10 input  -60.55 | X-H torsion
[ 11005 11000 10999 10996 ] final   64.59 input  -57.11 | X-H torsion

> <Gold.Protein.ActiveResidues>
 VAL166  LYS551  ARG553  GLY616  TRP617  ASP618  TYR619  PRO620  LYS621  CYS622 
 ASP623  PHE694  ASN695  SER759  ASP760  ASP761  ALA762  ILE779  LEU786  VAL792 
 PHE793  MET794  SER795  GLU796  ALA797  LYS798  CYS799  TRP800  GLU811  SER814 

> <Gold.Protein.RotatedAtoms>
  151.9096  135.0344  160.0513 H   0  0  0  0  0  0  0  0  0  0  0  0  # atno 6907 bound_to 6896
  152.2290  133.5038  159.5213 H   0  0  0  0  0  0  0  0  0  0  0  0  # atno 6908 bound_to 6896
  150.7020  134.1158  159.4059 H   0  0  0  0  0  0  0  0  0  0  0  0  # atno 6909 bound_to 6896
  146.2364  139.9436  142.8480 H   0  0  0  0  0  0  0  0  0  0  0  0  # atno 7974 bound_to 7965
  154.6569  140.0573  157.0019 H   0  0  0  0  0  0  0  0  0  0  0  0  # atno 8008 bound_to 7997
  155.1286  140.3254  155.4461 H   0  0  0  0  0  0  0  0  0  0  0  0  # atno 8009 bound_to 7997
  156.2601  140.1985  156.6406 H   0  0  0  0  0  0  0  0  0  0  0  0  # atno 8010 bound_to 7997
  140.2249  143.3649  152.0938 H   0  0  0  0  0  0  0  0  0  0  0  0  # atno 10167 bound_to 10162
  157.5931  130.9074  149.9642 H   0  0  0  0  0  0  0  0  0  0  0  0  # atno 10718 bound_to 10713
  154.3250  135.6188  153.5525 H   0  0  0  0  0  0  0  0  0  0  0  0  # atno 10763 bound_to 10752
  152.9816  135.5733  154.5026 H   0  0  0  0  0  0  0  0  0  0  0  0  # atno 10764 bound_to 10752
  154.4702  135.2859  155.1625 H   0  0  0  0  0  0  0  0  0  0  0  0  # atno 10765 bound_to 10752
  139.9949  134.6533  156.0027 H   0  0  0  0  0  0  0  0  0  0  0  0  # atno 11005 bound_to 11000
  145.1929  140.9820  143.4200 LP  0  0  0  0  0  0  0  0  0  0  0  0  # atno 17320 bound_to 7965
  144.9841  139.3754  143.6247 LP  0  0  0  0  0  0  0  0  0  0  0  0  # atno 17321 bound_to 7965
  139.5131  144.6927  151.5716 LP  0  0  0  0  0  0  0  0  0  0  0  0  # atno 17342 bound_to 10162
  140.6228  143.9226  150.6540 LP  0  0  0  0  0  0  0  0  0  0  0  0  # atno 17343 bound_to 10162
  156.0989  130.3657  150.0255 LP  0  0  0  0  0  0  0  0  0  0  0  0  # atno 17370 bound_to 10713
  156.8374  130.9413  151.3634 LP  0  0  0  0  0  0  0  0  0  0  0  0  # atno 17371 bound_to 10713
  141.1596  133.6540  156.4275 LP  0  0  0  0  0  0  0  0  0  0  0  0  # atno 17394 bound_to 11000
  140.4837  134.6640  157.5182 LP  0  0  0  0  0  0  0  0  0  0  0  0  # atno 17395 bound_to 11000

$$$$
