AV-unprocessed.smi:102|AV-procd|sdf|949|dock5
  -GOLD-   2262017473D 1   1.00000     0.00000
 Structure written by MMmdl.
 44 45  0  0  0  0  0  0  0  0  1 V2000
  151.5523  131.7316  155.8056 C   0  0  0  0  0  0  0  0  0  0  0  0
  150.2960  132.1889  156.5360 C   0  0  0  0  0  0  0  0  0  0  0  0
  150.2579  132.2606  157.7645 O   0  0  0  0  0  0  0  0  0  0  0  0
  149.2925  132.4880  155.6973 O   0  0  0  0  0  0  0  0  0  0  0  0
  148.0580  132.9510  156.2191 C   0  0  0  0  0  0  0  0  0  0  0  0
  148.2112  134.4104  156.6580 C   0  0  2  0  0  0  0  0  0  0  0  0
  149.1485  134.5075  157.7211 O   0  0  0  0  0  0  0  0  0  0  0  0
  148.9351  135.7066  158.3925 C   0  0  1  0  0  0  0  0  0  0  0  0
  149.8285  136.7662  157.7635 N   0  0  0  0  0  0  0  0  0  0  0  0
  149.8276  137.0399  156.3980 C   0  0  0  0  0  0  0  0  0  0  0  0
  150.6740  137.9227  155.8173 C   0  0  0  0  0  0  0  0  0  0  0  0
  150.6097  138.1285  154.4908 F   0  0  0  0  0  0  0  0  0  0  0  0
  151.6723  138.6306  156.6110 C   0  0  0  0  0  0  0  0  0  0  0  0
  152.4721  139.4578  156.1787 O   0  0  0  0  0  0  0  0  0  0  0  0
  151.6800  138.2844  157.9639 N   0  0  0  0  0  0  0  0  0  0  0  0
  150.8220  137.3670  158.5723 C   0  0  0  0  0  0  0  0  0  0  0  0
  150.9528  137.1155  159.7696 O   0  0  0  0  0  0  0  0  0  0  0  0
  147.4293  136.0199  158.2882 C   0  0  2  0  0  0  0  0  0  0  0  0
  146.7773  135.8029  159.5332 O   0  0  0  0  0  0  0  0  0  0  0  0
  147.2702  136.3488  160.6586 C   0  0  0  0  0  0  0  0  0  0  0  0
  146.6964  135.7095  161.9159 C   0  0  0  0  0  0  0  0  0  0  0  0
  148.0972  137.2585  160.7196 O   0  0  0  0  0  0  0  0  0  0  0  0
  146.9316  134.9969  157.2660 C   0  0  1  0  0  0  0  0  0  0  0  0
  146.1479  135.6272  156.2612 O   0  0  0  0  0  0  0  0  0  0  0  0
  145.5207  134.8869  155.3296 C   0  0  0  0  0  0  0  0  0  0  0  0
  144.7721  135.7399  154.3140 C   0  0  0  0  0  0  0  0  0  0  0  0
  145.5144  133.6576  155.2643 O   0  0  0  0  0  0  0  0  0  0  0  0
  152.3737  138.7269  158.5493 H   0  0  0  0  0  0  0  0  0  0  0  0
  151.3132  131.3946  154.7967 H   0  0  0  0  0  0  0  0  0  0  0  0
  152.0223  130.9064  156.3411 H   0  0  0  0  0  0  0  0  0  0  0  0
  152.2672  132.5514  155.7366 H   0  0  0  0  0  0  0  0  0  0  0  0
  147.2979  132.8787  155.4399 H   0  0  0  0  0  0  0  0  0  0  0  0
  147.7327  132.3305  157.0555 H   0  0  0  0  0  0  0  0  0  0  0  0
  148.5480  135.0239  155.8209 H   0  0  0  0  0  0  0  0  0  0  0  0
  149.2557  135.6230  159.4325 H   0  0  0  0  0  0  0  0  0  0  0  0
  149.1456  136.5273  155.7379 H   0  0  0  0  0  0  0  0  0  0  0  0
  147.2608  137.0445  157.9582 H   0  0  0  0  0  0  0  0  0  0  0  0
  145.6478  135.4489  161.7694 H   0  0  0  0  0  0  0  0  0  0  0  0
  146.7647  136.3981  162.7584 H   0  0  0  0  0  0  0  0  0  0  0  0
  147.2486  134.8031  162.1642 H   0  0  0  0  0  0  0  0  0  0  0  0
  146.3764  134.2008  157.7657 H   0  0  0  0  0  0  0  0  0  0  0  0
  145.2775  136.6944  154.1658 H   0  0  0  0  0  0  0  0  0  0  0  0
  143.7575  135.9349  154.6613 H   0  0  0  0  0  0  0  0  0  0  0  0
  144.7169  135.2269  153.3535 H   0  0  0  0  0  0  0  0  0  0  0  0
  1  2  1  0  0  0  0
  1 29  1  0  0  0  0
  1 30  1  0  0  0  0
  1 31  1  0  0  0  0
  2  3  2  0  0  0  0
  2  4  1  0  0  0  0
  4  5  1  0  0  0  0
  5  6  1  0  0  0  0
  5 32  1  0  0  0  0
  5 33  1  0  0  0  0
  6 23  1  0  0  0  0
  6  7  1  0  0  0  0
  6 34  1  0  0  0  0
  7  8  1  0  0  0  0
  8  9  1  0  0  0  0
  8 18  1  0  0  0  0
  8 35  1  0  0  0  0
  9 16  1  0  0  0  0
  9 10  1  0  0  0  0
 10 11  2  0  0  0  0
 10 36  1  0  0  0  0
 11 12  1  0  0  0  0
 11 13  1  0  0  0  0
 13 14  2  0  0  0  0
 13 15  1  0  0  0  0
 15 28  1  0  0  0  0
 15 16  1  0  0  0  0
 16 17  2  0  0  0  0
 18 19  1  0  0  0  0
 18 23  1  0  0  0  0
 18 37  1  0  0  0  0
 19 20  1  0  0  0  0
 20 21  1  0  0  0  0
 20 22  2  0  0  0  0
 21 38  1  0  0  0  0
 21 39  1  0  0  0  0
 21 40  1  0  0  0  0
 23 24  1  0  0  0  0
 23 41  1  0  0  0  0
 24 25  1  0  0  0  0
 25 26  1  0  0  0  0
 25 27  2  0  0  0  0
 26 42  1  0  0  0  0
 26 43  1  0  0  0  0
 26 44  1  0  0  0  0
M  END
> <s_m_source_file>
AV-unprocessed.smi

> <i_m_source_file_index>
102

> <i_lp_mmshare_version>
43012

> <i_f3d_flags>
0

> <s_epik_input>
W0NIM11DKD1PKU9bQ0gyXVtDQEBIXTFPW0NASF0oW0NAQEhdKE9DKD1PKVtDSDNdKVtDQEhdMU9DKD1PKVtDSDNdKW4yW2NIXWMoRiljKD1PKVtuSF1jMj1P

> <s_epik_cmdline>
J2VwaWtfcHl0aG9uJywgJy1waCcsICc3LjAnLCAnLXRuJywgJzgnLCAnLW1hJywgJzIwMCcsICctbWV0YWxfYmluZGluZycsICctaW1hZScsICc8aW5maWxlLm1hZT4nLCAnLW9tYWUnLCAnPG91dGZpbGUubWFlPic=

> <r_lp_tautomer_probability>
0.999537

> <r_epik_Ionization_Penalty>
0.058267

> <r_epik_Ionization_Penalty_Charging>
0.058267

> <r_epik_Ionization_Penalty_Neutral>
6.57791e-16

> <r_epik_State_Penalty>
0.0503774

> <r_epik_Charging_Adjusted_Penalty>
0.108644

> <i_epik_Tot_Q>
0

> <i_epik_Tot_abs_Q>
0

> <r_epik_Metal_State_Penalty>
2.6644

> <b_epik_Metal_Only>
0

> <s_epik_Chemistry_Notes>
This compound has an ester and may undergo hydrolysis at high or low pH. This compound contains an acetal/aminal-like group ( X-CH(R)-Y where X, Y are N, S, or O) that may be acid/base labile, releasing an aldehyde.

> <s_lp_Force_Field>
OPLS_2005

> <r_lp_Energy>
9.37948

> <b_lp_Chiralities_Consistent>
1

> <s_lp_Variant>
AV-unprocessed.smi:102-5

> <Gold.Version>
5.8.1

> <Gold.Id.Protein>
6NUR|6NUR_protein|mol2

> <Gold.PLP.Fitness>
35.5576

> <Gold.PLP.PLP>
-22.7367

> <Gold.PLP.part.hbond>
-5.9492

> <Gold.PLP.part.metal>
0.0000

> <Gold.PLP.part.buried>
-4.3278

> <Gold.PLP.part.nonpolar>
-12.9089

> <Gold.PLP.part.repulsive>
0.1594

> <Gold.PLP.ligand.clash>
0.0000

> <Gold.PLP.ligand.torsion>
0.4367

> <Gold.PLP.Chemscore.Hbond>
4.4717

> <Gold.PLP.Chemscore.CHOScore>
0.0000

> <Gold.PLP.Chemscore.Metal>
0.0000

> <Gold.Chemscore.Hbonds>
donor molecule, donor type, donor heavy atom, donor atom, acceptor molecule, acceptor atom, score
      P1  H  6896  6907       L1    17  1.00
      P1  H  6896  6909       L1     3  0.81
      P1  H  6931  6943       L1    22  0.82
      P1  H  6934  6947       L1    22  0.69
      P1  H  7997  8008       L1    14  1.00

> <Gold.PLP.Chemscore.Internal.Correction>
0.2793

> <Gold.Rescore>
     Score         DG    S(hbond)    S(metal)    S(lipo)     H(rot)  DE(clash)    DE(int)     intcor
      9.11     -13.23       4.44        0.00      28.00       4.05       0.12       4.00       ----

> <Gold.Chemscore.Fitness>
9.1099

> <Gold.Chemscore.DG>
-13.2285

> <Gold.Chemscore.ZeroCoef>
-5.4800

> <Gold.Chemscore.Hbond>
4.4448

> <Gold.Chemscore.Metal>
0.0000

> <Gold.Chemscore.Lipo>
28.0011

> <Gold.Chemscore.Internal_Hbond>
0.0000

> <Gold.Chemscore.DEClash>
0.1223

> <Gold.Chemscore.DEInternal>
3.9963

> <Gold.Chemscore.Rot>
4.0520

> <Gold.Chemscore.Internal.Correction>
   9.000000E+99

> <Gold.Chemscore.Hbonds>
donor molecule, donor type, donor heavy atom, donor atom, acceptor molecule, acceptor atom, score
      P1  H  6896  6907       L1    17  0.63
      P1  H  6896  6909       L1     3  0.80
      P1  H  6931  6943       L1    22  0.80
      P1  H  6934  6947       L1    22  0.53
      P1  H  7997  8008       L1    14  0.97

> <Gold.Chemscore.Hbond.Weighted>
-14.8455

> <Gold.Chemscore.Metal.Weighted>
-0.0000

> <Gold.Chemscore.Lipo.Weighted>
-3.2761

> <Gold.Chemscore.Internal_Hbond.Weighted>
0.0000

> <Gold.Chemscore.DEClash.Weighted>
0.1223

> <Gold.Chemscore.DEInternal.Weighted>
3.9963

> <Gold.Chemscore.Rot.Weighted>
10.3732

> <Gold.Chemscore.Internal.Correction.Weighted>
   9.000000E+99

> <Gold.Protein.RotatedTorsions>
[ 6907 6896 6895 6894 ] final  -11.28 input  -60.11 | X-H torsion
[ 7974 7965 7964 7962 ] final  178.22 input  175.53 | X-H torsion
[ 8008 7997 7996 7995 ] final  -38.07 input   59.86 | X-H torsion
[ 10167 10162 10161 10158 ] final -124.69 input  -65.29 | X-H torsion
[ 10718 10713 10712 10709 ] final  118.86 input   66.30 | X-H torsion
[ 10763 10752 10751 10750 ] final -158.13 input  -60.55 | X-H torsion
[ 11005 11000 10999 10996 ] final  -89.71 input  -57.11 | X-H torsion

> <Gold.Protein.ActiveResidues>
 VAL166  LYS551  ARG553  GLY616  TRP617  ASP618  TYR619  PRO620  LYS621  CYS622 
 ASP623  PHE694  ASN695  SER759  ASP760  ASP761  ALA762  ILE779  LEU786  VAL792 
 PHE793  MET794  SER795  GLU796  ALA797  LYS798  CYS799  TRP800  GLU811  SER814 

> <Gold.Protein.RotatedAtoms>
  151.3887  135.0952  159.9518 H   0  0  0  0  0  0  0  0  0  0  0  0  # atno 6907 bound_to 6896
  152.5086  133.9001  159.7447 H   0  0  0  0  0  0  0  0  0  0  0  0  # atno 6908 bound_to 6896
  150.9450  133.6558  159.2812 H   0  0  0  0  0  0  0  0  0  0  0  0  # atno 6909 bound_to 6896
  144.7159  140.0364  143.6438 H   0  0  0  0  0  0  0  0  0  0  0  0  # atno 7974 bound_to 7965
  154.4043  140.1587  156.2640 H   0  0  0  0  0  0  0  0  0  0  0  0  # atno 8008 bound_to 7997
  155.9012  140.3433  155.6005 H   0  0  0  0  0  0  0  0  0  0  0  0  # atno 8009 bound_to 7997
  155.7446  140.0797  157.2220 H   0  0  0  0  0  0  0  0  0  0  0  0  # atno 8010 bound_to 7997
  139.9901  143.5650  152.2345 H   0  0  0  0  0  0  0  0  0  0  0  0  # atno 10167 bound_to 10162
  157.6002  131.1052  150.7815 H   0  0  0  0  0  0  0  0  0  0  0  0  # atno 10718 bound_to 10713
  154.7581  135.3110  154.8431 H   0  0  0  0  0  0  0  0  0  0  0  0  # atno 10763 bound_to 10752
  153.9200  135.6796  153.4752 H   0  0  0  0  0  0  0  0  0  0  0  0  # atno 10764 bound_to 10752
  153.1179  135.4836  154.9077 H   0  0  0  0  0  0  0  0  0  0  0  0  # atno 10765 bound_to 10752
  141.1579  133.7647  156.9634 H   0  0  0  0  0  0  0  0  0  0  0  0  # atno 11005 bound_to 11000
  146.0060  139.3130  143.0899 LP  0  0  0  0  0  0  0  0  0  0  0  0  # atno 17320 bound_to 7965
  145.8738  140.9404  143.0637 LP  0  0  0  0  0  0  0  0  0  0  0  0  # atno 17321 bound_to 7965
  139.6346  144.7648  151.2464 LP  0  0  0  0  0  0  0  0  0  0  0  0  # atno 17342 bound_to 10162
  140.7458  143.6420  150.8326 LP  0  0  0  0  0  0  0  0  0  0  0  0  # atno 17343 bound_to 10162
  156.8216  130.4986  149.5342 LP  0  0  0  0  0  0  0  0  0  0  0  0  # atno 17370 bound_to 10713
  156.1073  130.6014  150.9991 LP  0  0  0  0  0  0  0  0  0  0  0  0  # atno 17371 bound_to 10713
  140.1178  134.9436  157.2159 LP  0  0  0  0  0  0  0  0  0  0  0  0  # atno 17394 bound_to 11000
  140.3111  134.3023  155.7266 LP  0  0  0  0  0  0  0  0  0  0  0  0  # atno 17395 bound_to 11000

$$$$
