AV-unprocessed.smi:72|AV-procd|sdf|712|dock8
  -GOLD-   2262017 33D 1   1.00000     0.00000
 Structure written by MMmdl.
 28 29  0  0  0  0  0  0  0  0  2 V2000
  151.6132  134.5520  157.2653 N   0  0  0  0  0  0  0  0  0  0  0  0
  151.5919  135.7518  156.8797 C   0  0  0  0  0  0  0  0  0  0  0  0
  150.3503  136.4941  156.8836 N   0  0  0  0  0  0  0  0  0  0  0  0
  150.3791  137.7238  156.4700 C   0  0  0  0  0  0  0  0  0  0  0  0
  151.6114  138.3509  156.0092 N   0  0  0  0  0  0  0  0  0  0  0  0
  151.6525  139.7909  155.5269 C   0  0  1  0  0  0  0  0  0  0  0  0
  150.5760  140.0356  154.6638 O   0  0  0  0  0  0  0  0  0  0  0  0
  149.6781  140.9591  155.2673 C   0  0  2  0  0  0  0  0  0  0  0  0
  148.8169  141.6631  154.2031 C   0  0  0  0  0  0  0  0  0  0  0  0
  148.0720  140.7477  153.4260 O   0  0  0  0  0  0  0  0  0  0  0  0
  150.5820  141.8398  156.1302 C   0  0  1  0  0  0  0  0  0  0  0  0
  149.8741  142.5455  157.1326 O   0  0  0  0  0  0  0  0  0  0  0  0
  151.5763  140.8222  156.6823 C   0  0  1  0  0  0  0  0  0  0  0  0
  151.1424  140.2642  157.9142 O   0  0  0  0  0  0  0  0  0  0  0  0
  152.8176  137.6019  156.0300 C   0  0  0  0  0  0  0  0  0  0  0  0
  153.8518  138.1592  155.6617 O   0  0  0  0  0  0  0  0  0  0  0  0
  152.7802  136.3112  156.4647 N   0  5  0  0  0  0  0  0  0  0  0  0
  152.5636  139.8782  154.9327 H   0  0  0  0  0  0  0  0  0  0  0  0
  149.0190  140.3812  155.9176 H   0  0  0  0  0  0  0  0  0  0  0  0
  151.1256  142.5532  155.5101 H   0  0  0  0  0  0  0  0  0  0  0  0
  152.5600  141.2663  156.8376 H   0  0  0  0  0  0  0  0  0  0  0  0
  152.5376  134.1490  157.2148 H   0  0  0  0  0  0  0  0  0  0  0  0
  149.4912  138.3550  156.4463 H   0  0  0  0  0  0  0  0  0  0  0  0
  148.1420  142.3804  154.6706 H   0  0  0  0  0  0  0  0  0  0  0  0
  149.4604  142.2258  153.5265 H   0  0  0  0  0  0  0  0  0  0  0  0
  148.5672  140.5422  152.6479 H   0  0  0  0  0  0  0  0  0  0  0  0
  149.3046  143.1703  156.7107 H   0  0  0  0  0  0  0  0  0  0  0  0
  151.9004  139.9397  158.3770 H   0  0  0  0  0  0  0  0  0  0  0  0
  1  2  2  0  0  0  0
  1 22  1  0  0  0  0
  2 17  1  0  0  0  0
  2  3  1  0  0  0  0
  3  4  2  0  0  0  0
  4  5  1  0  0  0  0
  4 23  1  0  0  0  0
  5  6  1  0  0  0  0
  5 15  1  0  0  0  0
  6 18  1  0  0  0  0
  6 13  1  0  0  0  0
  6  7  1  0  0  0  0
  7  8  1  0  0  0  0
  8 19  1  0  0  0  0
  8  9  1  0  0  0  0
  8 11  1  0  0  0  0
  9 10  1  0  0  0  0
  9 24  1  0  0  0  0
  9 25  1  0  0  0  0
 10 26  1  0  0  0  0
 11 20  1  0  0  0  0
 11 12  1  0  0  0  0
 11 13  1  0  0  0  0
 12 27  1  0  0  0  0
 13 21  1  0  0  0  0
 13 14  1  0  0  0  0
 14 28  1  0  0  0  0
 15 16  2  0  0  0  0
 15 17  1  0  0  0  0
M  CHG  1  17  -1
M  END
> <s_m_source_file>
AV-unprocessed.smi

> <i_m_source_file_index>
72

> <i_lp_mmshare_version>
43012

> <i_f3d_flags>
0

> <s_epik_input>
W05IMl1jMW5bY0hdbihjKD1PKW4xKVtDQEBIXTJPW0NASF0oW0NIMl1bT0hdKVtDQEBIXShbT0hdKVtDQEhdMltPSF0=

> <s_epik_cmdline>
J2VwaWtfcHl0aG9uJywgJy1waCcsICc3LjAnLCAnLXRuJywgJzgnLCAnLW1hJywgJzIwMCcsICctbWV0YWxfYmluZGluZycsICctaW1hZScsICc8aW5maWxlLm1hZT4nLCAnLW9tYWUnLCAnPG91dGZpbGUubWFlPic=

> <r_lp_tautomer_probability>
7.17554e-07

> <r_epik_Ionization_Penalty>
12.8705

> <r_epik_Ionization_Penalty_Charging>
5.64144

> <r_epik_Ionization_Penalty_Neutral>
7.22905

> <r_epik_State_Penalty>
3.30104

> <r_epik_Charging_Adjusted_Penalty>
8.94249

> <i_epik_Tot_Q>
-1

> <i_epik_Tot_abs_Q>
1

> <r_epik_Metal_State_Penalty>
0.529074

> <b_epik_Metal_Only>
1

> <s_epik_Chemistry_Notes>
This compound contains an acetal/aminal-like group ( X-CH(R)-Y where X, Y are N, S, or O) that may be acid/base labile, releasing an aldehyde.

> <s_lp_Force_Field>
OPLS_2005

> <r_lp_Energy>
42.9938

> <b_lp_Chiralities_Consistent>
1

> <s_lp_Variant>
AV-unprocessed.smi:72-50

> <Gold.Version>
5.8.1

> <Gold.Id.Protein>
6NUR|6NUR_protein|mol2

> <Gold.PLP.Fitness>
39.5981

> <Gold.PLP.PLP>
-23.9188

> <Gold.PLP.part.hbond>
-6.0635

> <Gold.PLP.part.metal>
0.0000

> <Gold.PLP.part.buried>
-1.5566

> <Gold.PLP.part.nonpolar>
-16.4825

> <Gold.PLP.part.repulsive>
0.0761

> <Gold.PLP.ligand.clash>
0.0000

> <Gold.PLP.ligand.torsion>
0.3959

> <Gold.PLP.Chemscore.Hbond>
5.4780

> <Gold.PLP.Chemscore.CHOScore>
0.0000

> <Gold.PLP.Chemscore.Metal>
0.0000

> <Gold.Chemscore.Hbonds>
donor molecule, donor type, donor heavy atom, donor atom, acceptor molecule, acceptor atom, score
      L1  H    10    26       P1  7957  1.00
      L1  H    12    27       P1  8028  1.00
      P1  H  6896  6908       L1     1  0.05
      P1  H  7989  7998       L1     7  0.60
      P1  H  7997  8010       L1    16  0.48
      P1  H 10752 10764       L1    17  2.00

> <Gold.PLP.Chemscore.Internal.Correction>
0.0369

> <Gold.Rescore>
     Score         DG    S(hbond)    S(metal)    S(lipo)     H(rot)  DE(clash)    DE(int)     intcor
      7.42      -9.75       3.35        0.00      29.35       4.04       0.93       1.40       ----

> <Gold.Chemscore.Fitness>
7.4191

> <Gold.Chemscore.DG>
-9.7537

> <Gold.Chemscore.ZeroCoef>
-5.4800

> <Gold.Chemscore.Hbond>
3.3482

> <Gold.Chemscore.Metal>
0.0000

> <Gold.Chemscore.Lipo>
29.3490

> <Gold.Chemscore.Internal_Hbond>
0.0000

> <Gold.Chemscore.DEClash>
0.9313

> <Gold.Chemscore.DEInternal>
1.4033

> <Gold.Chemscore.Rot>
4.0403

> <Gold.Chemscore.Internal.Correction>
   9.000000E+99

> <Gold.Chemscore.Hbonds>
donor molecule, donor type, donor heavy atom, donor atom, acceptor molecule, acceptor atom, score
      L1  H    10    26       P1  7957  1.00
      L1  H    12    27       P1  8028  0.97
      P1  H  6896  6908       L1     1  0.01
      P1  H  7989  7998       L1     7  0.03
      P1  H  7997  8010       L1    16  0.47
      P1  H 10752 10764       L1    17  0.32

> <Gold.Chemscore.Hbond.Weighted>
-11.1830

> <Gold.Chemscore.Metal.Weighted>
-0.0000

> <Gold.Chemscore.Lipo.Weighted>
-3.4338

> <Gold.Chemscore.Internal_Hbond.Weighted>
0.0000

> <Gold.Chemscore.DEClash.Weighted>
0.9313

> <Gold.Chemscore.DEInternal.Weighted>
1.4033

> <Gold.Chemscore.Rot.Weighted>
10.3431

> <Gold.Chemscore.Internal.Correction.Weighted>
   9.000000E+99

> <Gold.Protein.RotatedTorsions>
[ 6907 6896 6895 6894 ] final  108.03 input  -60.11 | X-H torsion
[ 7974 7965 7964 7962 ] final -111.37 input  175.53 | X-H torsion
[ 8008 7997 7996 7995 ] final   84.00 input   59.86 | X-H torsion
[ 10167 10162 10161 10158 ] final  156.94 input  -65.29 | X-H torsion
[ 10718 10713 10712 10709 ] final  -82.69 input   66.30 | X-H torsion
[ 10763 10752 10751 10750 ] final  -16.34 input  -60.55 | X-H torsion
[ 11005 11000 10999 10996 ] final -108.12 input  -57.11 | X-H torsion

> <Gold.Protein.ActiveResidues>
 VAL166  LYS551  ARG553  GLY616  TRP617  ASP618  TYR619  PRO620  LYS621  CYS622 
 ASP623  PHE694  ASN695  SER759  ASP760  ASP761  ALA762  ILE779  LEU786  VAL792 
 PHE793  MET794  SER795  GLU796  ALA797  LYS798  CYS799  TRP800  GLU811  SER814 

> <Gold.Protein.RotatedAtoms>
  152.5129  133.9148  159.7505 H   0  0  0  0  0  0  0  0  0  0  0  0  # atno 6907 bound_to 6896
  150.9533  133.6517  159.2775 H   0  0  0  0  0  0  0  0  0  0  0  0  # atno 6908 bound_to 6896
  151.3788  135.0941  159.9542 H   0  0  0  0  0  0  0  0  0  0  0  0  # atno 6909 bound_to 6896
  145.1569  140.8858  143.3614 H   0  0  0  0  0  0  0  0  0  0  0  0  # atno 7974 bound_to 7965
  155.9313  140.3414  155.6251 H   0  0  0  0  0  0  0  0  0  0  0  0  # atno 8008 bound_to 7997
  155.7153  140.0777  157.2372 H   0  0  0  0  0  0  0  0  0  0  0  0  # atno 8009 bound_to 7997
  154.4086  140.1615  156.2329 H   0  0  0  0  0  0  0  0  0  0  0  0  # atno 8010 bound_to 7997
  139.4822  144.4963  151.8234 H   0  0  0  0  0  0  0  0  0  0  0  0  # atno 10167 bound_to 10162
  156.0029  130.4642  150.4143 H   0  0  0  0  0  0  0  0  0  0  0  0  # atno 10718 bound_to 10713
  153.5570  135.7010  153.5565 H   0  0  0  0  0  0  0  0  0  0  0  0  # atno 10763 bound_to 10752
  153.3463  135.4007  155.1611 H   0  0  0  0  0  0  0  0  0  0  0  0  # atno 10764 bound_to 10752
  154.8653  135.3754  154.5085 H   0  0  0  0  0  0  0  0  0  0  0  0  # atno 10765 bound_to 10752
  141.0918  133.9041  157.2056 H   0  0  0  0  0  0  0  0  0  0  0  0  # atno 11005 bound_to 11000
  145.0372  139.3291  143.5995 LP  0  0  0  0  0  0  0  0  0  0  0  0  # atno 17320 bound_to 7965
  146.3487  139.9732  142.8704 LP  0  0  0  0  0  0  0  0  0  0  0  0  # atno 17321 bound_to 7965
  140.4452  144.1931  150.5893 LP  0  0  0  0  0  0  0  0  0  0  0  0  # atno 17342 bound_to 10162
  140.4642  143.2437  151.9178 LP  0  0  0  0  0  0  0  0  0  0  0  0  # atno 17343 bound_to 10162
  157.2203  131.0481  151.2550 LP  0  0  0  0  0  0  0  0  0  0  0  0  # atno 17370 bound_to 10713
  157.3806  130.7229  149.6628 LP  0  0  0  0  0  0  0  0  0  0  0  0  # atno 17371 bound_to 10713
  139.9746  135.0118  156.9599 LP  0  0  0  0  0  0  0  0  0  0  0  0  # atno 17394 bound_to 11000
  140.5233  134.0886  155.7297 LP  0  0  0  0  0  0  0  0  0  0  0  0  # atno 17395 bound_to 11000

$$$$
