AV-unprocessed.smi:1550|AV-procd|sdf|6225|dock4
  -GOLD-   22720 6403D 1   1.00000     0.00000
 Structure written by MMmdl.
 43 44  0  0  0  0  0  0  0  0  1 V2000
  151.0259  139.9668  156.0810 C   0  0  0  0  0  0  0  0  0  0  0  0
  151.3441  139.1979  157.3720 C   0  0  1  0  0  0  0  0  0  0  0  0
  152.0501  140.0843  158.2360 O   0  0  0  0  0  0  0  0  0  0  0  0
  151.4003  141.3207  158.5095 C   0  0  0  0  0  0  0  0  0  0  0  0
  152.2589  142.1166  159.5007 C   0  0  2  0  0  0  0  0  0  0  0  0
  152.8911  141.2098  160.5749 C   0  0  0  0  0  0  0  0  0  0  0  0
  153.6688  142.0468  161.5972 C   0  0  0  0  0  0  0  0  0  0  0  0
  152.7632  143.1472  162.1603 C   0  0  0  0  0  0  0  0  0  0  0  0
  152.1245  143.9504  161.0165 C   0  0  0  0  0  0  0  0  0  0  0  0
  151.4190  143.0735  160.1438 O   0  0  0  0  0  0  0  0  0  0  0  0
  150.0615  138.6961  158.0552 C   0  0  0  0  0  0  0  0  0  0  0  0
  149.1951  139.5053  158.3862 O   0  0  0  0  0  0  0  0  0  0  0  0
  149.9859  137.3627  158.2357 N   0  0  0  0  0  0  0  0  0  0  0  0
  148.9772  136.6064  158.8550 C   0  0  0  0  0  0  0  0  0  0  0  0
  148.5419  136.7926  160.1284 C   0  0  0  0  0  0  0  0  0  0  0  0
  147.5013  135.9662  160.7166 C   0  0  0  0  0  0  0  0  0  0  0  0
  146.9650  136.2383  162.1134 C   0  0  0  0  0  0  0  0  0  0  0  0
  145.7014  136.6637  162.0735 F   0  0  0  0  0  0  0  0  0  0  0  0
  147.0045  135.1213  162.8384 F   0  0  0  0  0  0  0  0  0  0  0  0
  147.6983  137.1620  162.7349 F   0  0  0  0  0  0  0  0  0  0  0  0
  146.9816  135.0055  159.9299 C   0  0  0  0  0  0  0  0  0  0  0  0
  147.4409  134.7914  158.6284 N   0  0  0  0  0  0  0  0  0  0  0  0
  148.4087  135.5244  158.0340 C   0  0  0  0  0  0  0  0  0  0  0  0
  148.7605  135.2713  156.8822 O   0  0  0  0  0  0  0  0  0  0  0  0
  147.0134  134.0382  158.1088 H   0  0  0  0  0  0  0  0  0  0  0  0
  150.4654  139.3482  155.3793 H   0  0  0  0  0  0  0  0  0  0  0  0
  151.9435  140.2802  155.5827 H   0  0  0  0  0  0  0  0  0  0  0  0
  150.4389  140.8641  156.2812 H   0  0  0  0  0  0  0  0  0  0  0  0
  151.9864  138.3526  157.1170 H   0  0  0  0  0  0  0  0  0  0  0  0
  151.2342  141.9056  157.6040 H   0  0  0  0  0  0  0  0  0  0  0  0
  150.4233  141.1148  158.9495 H   0  0  0  0  0  0  0  0  0  0  0  0
  153.0499  142.6305  158.9511 H   0  0  0  0  0  0  0  0  0  0  0  0
  152.1105  140.6436  161.0849 H   0  0  0  0  0  0  0  0  0  0  0  0
  153.5554  140.4797  160.1113 H   0  0  0  0  0  0  0  0  0  0  0  0
  154.0454  141.4143  162.4014 H   0  0  0  0  0  0  0  0  0  0  0  0
  154.5389  142.4970  161.1178 H   0  0  0  0  0  0  0  0  0  0  0  0
  151.9789  142.6995  162.7720 H   0  0  0  0  0  0  0  0  0  0  0  0
  153.3330  143.8079  162.8142 H   0  0  0  0  0  0  0  0  0  0  0  0
  151.4260  144.6842  161.4191 H   0  0  0  0  0  0  0  0  0  0  0  0
  152.8813  144.5043  160.4588 H   0  0  0  0  0  0  0  0  0  0  0  0
  150.7383  136.8163  157.8415 H   0  0  0  0  0  0  0  0  0  0  0  0
  148.9760  137.5531  160.7570 H   0  0  0  0  0  0  0  0  0  0  0  0
  146.1844  134.3403  160.2275 H   0  0  0  0  0  0  0  0  0  0  0  0
  1  2  1  0  0  0  0
  1 26  1  0  0  0  0
  1 27  1  0  0  0  0
  1 28  1  0  0  0  0
  2  3  1  0  0  0  0
  2 11  1  0  0  0  0
  2 29  1  0  0  0  0
  3  4  1  0  0  0  0
  4  5  1  0  0  0  0
  4 30  1  0  0  0  0
  4 31  1  0  0  0  0
  5 10  1  0  0  0  0
  5  6  1  0  0  0  0
  5 32  1  0  0  0  0
  6  7  1  0  0  0  0
  6 33  1  0  0  0  0
  6 34  1  0  0  0  0
  7  8  1  0  0  0  0
  7 35  1  0  0  0  0
  7 36  1  0  0  0  0
  8  9  1  0  0  0  0
  8 37  1  0  0  0  0
  8 38  1  0  0  0  0
  9 10  1  0  0  0  0
  9 39  1  0  0  0  0
  9 40  1  0  0  0  0
 11 12  2  0  0  0  0
 11 13  1  0  0  0  0
 13 14  1  0  0  0  0
 13 41  1  0  0  0  0
 14 23  1  0  0  0  0
 14 15  2  0  0  0  0
 15 16  1  0  0  0  0
 15 42  1  0  0  0  0
 16 17  1  0  0  0  0
 16 21  2  0  0  0  0
 17 18  1  0  0  0  0
 17 19  1  0  0  0  0
 17 20  1  0  0  0  0
 21 22  1  0  0  0  0
 21 43  1  0  0  0  0
 22 25  1  0  0  0  0
 22 23  1  0  0  0  0
 23 24  2  0  0  0  0
M  END
> <s_m_source_file>
AV-unprocessed.smi

> <i_m_source_file_index>
1550

> <i_lp_mmshare_version>
43012

> <i_f3d_flags>
0

> <s_epik_input>
TzFbQ0gyXVtDSDJdW0NIMl1bQ0gyXVtDQEhdMVtDSDJdT1tDQEBIXShbQ0gzXSlDKD1PKVtOSF1jMltjSF1jKEMoRikoRilGKVtjSF1bbkhdYzI9Tw==

> <s_epik_cmdline>
J2VwaWtfcHl0aG9uJywgJy1waCcsICc3LjAnLCAnLXRuJywgJzgnLCAnLW1hJywgJzIwMCcsICctbWV0YWxfYmluZGluZycsICctaW1hZScsICc8aW5maWxlLm1hZT4nLCAnLW9tYWUnLCAnPG91dGZpbGUubWFlPic=

> <r_lp_tautomer_probability>
0.999

> <r_epik_Ionization_Penalty>
0.00891333

> <r_epik_Ionization_Penalty_Charging>
0.00891323

> <r_epik_Ionization_Penalty_Neutral>
1.00146e-07

> <r_epik_State_Penalty>
0.00674197

> <r_epik_Charging_Adjusted_Penalty>
0.0156552

> <i_epik_Tot_Q>
0

> <i_epik_Tot_abs_Q>
0

> <r_epik_Metal_State_Penalty>
0.321024

> <b_epik_Metal_Only>
0

> <s_lp_Force_Field>
OPLS_2005

> <r_lp_Energy>
24.7831

> <b_lp_Chiralities_Consistent>
1

> <s_lp_Variant>
AV-unprocessed.smi:1550-2

> <Gold.Version>
5.8.1

> <Gold.Id.Protein>
6NUR|6NUR_protein|mol2

> <Gold.PLP.Fitness>
43.7821

> <Gold.PLP.PLP>
-45.4356

> <Gold.PLP.part.hbond>
-1.5364

> <Gold.PLP.part.metal>
0.0000

> <Gold.PLP.part.buried>
-3.0675

> <Gold.PLP.part.nonpolar>
-40.5578

> <Gold.PLP.part.repulsive>
0.2012

> <Gold.PLP.ligand.clash>
0.0000

> <Gold.PLP.ligand.torsion>
0.8777

> <Gold.PLP.Chemscore.Hbond>
0.0000

> <Gold.PLP.Chemscore.CHOScore>
0.0000

> <Gold.PLP.Chemscore.Metal>
0.0000

> <Gold.PLP.Chemscore.Internal.Correction>
0.1020

> <Gold.Rescore>
     Score         DG    S(hbond)    S(metal)    S(lipo)     H(rot)  DE(clash)    DE(int)     intcor
     10.06     -12.22       0.00        0.00      98.24       1.86       0.03       2.13       ----

> <Gold.Chemscore.Fitness>
10.0592

> <Gold.Chemscore.DG>
-12.2203

> <Gold.Chemscore.ZeroCoef>
-5.4800

> <Gold.Chemscore.Hbond>
0.0000

> <Gold.Chemscore.Metal>
0.0000

> <Gold.Chemscore.Lipo>
98.2429

> <Gold.Chemscore.Internal_Hbond>
0.0000

> <Gold.Chemscore.DEClash>
0.0334

> <Gold.Chemscore.DEInternal>
2.1277

> <Gold.Chemscore.Rot>
1.8571

> <Gold.Chemscore.Internal.Correction>
   9.000000E+99

> <Gold.Chemscore.Hbond.Weighted>
-0.0000

> <Gold.Chemscore.Metal.Weighted>
-0.0000

> <Gold.Chemscore.Lipo.Weighted>
-11.4944

> <Gold.Chemscore.Internal_Hbond.Weighted>
0.0000

> <Gold.Chemscore.DEClash.Weighted>
0.0334

> <Gold.Chemscore.DEInternal.Weighted>
2.1277

> <Gold.Chemscore.Rot.Weighted>
4.7541

> <Gold.Chemscore.Internal.Correction.Weighted>
   9.000000E+99

> <Gold.Protein.RotatedTorsions>
[ 6907 6896 6895 6894 ] final   48.24 input  -60.11 | X-H torsion
[ 7974 7965 7964 7962 ] final  163.76 input  175.53 | X-H torsion
[ 8008 7997 7996 7995 ] final  -53.70 input   59.86 | X-H torsion
[ 10167 10162 10161 10158 ] final    6.45 input  -65.29 | X-H torsion
[ 10718 10713 10712 10709 ] final   72.09 input   66.30 | X-H torsion
[ 10763 10752 10751 10750 ] final -162.97 input  -60.55 | X-H torsion
[ 11005 11000 10999 10996 ] final   87.32 input  -57.11 | X-H torsion

> <Gold.Protein.ActiveResidues>
 VAL166  LYS551  ARG553  GLY616  TRP617  ASP618  TYR619  PRO620  LYS621  CYS622 
 ASP623  PHE694  ASN695  SER759  ASP760  ASP761  ALA762  ILE779  LEU786  VAL792 
 PHE793  MET794  SER795  GLU796  ALA797  LYS798  CYS799  TRP800  GLU811  SER814 

> <Gold.Protein.RotatedAtoms>
  152.2772  134.7868  160.0403 H   0  0  0  0  0  0  0  0  0  0  0  0  # atno 6907 bound_to 6896
  151.8460  133.3426  159.3666 H   0  0  0  0  0  0  0  0  0  0  0  0  # atno 6908 bound_to 6896
  150.7175  134.5274  159.5727 H   0  0  0  0  0  0  0  0  0  0  0  0  # atno 6909 bound_to 6896
  144.7575  139.8228  143.6344 H   0  0  0  0  0  0  0  0  0  0  0  0  # atno 7974 bound_to 7965
  154.4141  140.1193  156.5197 H   0  0  0  0  0  0  0  0  0  0  0  0  # atno 8008 bound_to 7997
  155.6715  140.3496  155.4801 H   0  0  0  0  0  0  0  0  0  0  0  0  # atno 8009 bound_to 7997
  155.9629  140.1126  157.0870 H   0  0  0  0  0  0  0  0  0  0  0  0  # atno 8010 bound_to 7997
  140.6427  143.7735  150.7452 H   0  0  0  0  0  0  0  0  0  0  0  0  # atno 10167 bound_to 10162
  157.6484  130.9561  150.0880 H   0  0  0  0  0  0  0  0  0  0  0  0  # atno 10718 bound_to 10713
  154.7165  135.3017  154.9115 H   0  0  0  0  0  0  0  0  0  0  0  0  # atno 10763 bound_to 10752
  154.0000  135.6708  153.4763 H   0  0  0  0  0  0  0  0  0  0  0  0  # atno 10764 bound_to 10752
  153.0798  135.5015  154.8394 H   0  0  0  0  0  0  0  0  0  0  0  0  # atno 10765 bound_to 10752
  139.8922  134.8414  156.2843 H   0  0  0  0  0  0  0  0  0  0  0  0  # atno 11005 bound_to 11000
  146.1602  139.4714  142.9993 LP  0  0  0  0  0  0  0  0  0  0  0  0  # atno 17320 bound_to 7965
  145.6729  141.0211  143.1648 LP  0  0  0  0  0  0  0  0  0  0  0  0  # atno 17321 bound_to 7965
  140.1370  143.4475  152.2218 LP  0  0  0  0  0  0  0  0  0  0  0  0  # atno 17342 bound_to 10162
  139.5637  144.7421  151.4083 LP  0  0  0  0  0  0  0  0  0  0  0  0  # atno 17343 bound_to 10162
  156.1837  130.3651  149.9001 LP  0  0  0  0  0  0  0  0  0  0  0  0  # atno 17370 bound_to 10713
  156.6947  130.8909  151.3592 LP  0  0  0  0  0  0  0  0  0  0  0  0  # atno 17371 bound_to 10713
  141.0018  133.7147  156.0972 LP  0  0  0  0  0  0  0  0  0  0  0  0  # atno 17394 bound_to 11000
  140.7487  134.4069  157.5544 LP  0  0  0  0  0  0  0  0  0  0  0  0  # atno 17395 bound_to 11000

$$$$
