AV-unprocessed.smi:3023|AV-procd|sdf|11502|dock2
  -GOLD-   2272016433D 1   1.00000     0.00000
 Structure written by MMmdl.
 43 44  0  0  0  0  0  0  0  0  2 V2000
  145.0458  137.7844  153.7104 C   0  0  0  0  0  0  0  0  0  0  0  0
  145.8944  138.9900  153.8448 N   0  3  1  0  0  0  0  0  0  0  0  0
  146.1601  139.3249  155.2707 C   0  0  0  0  0  0  0  0  0  0  0  0
  146.1816  140.8451  155.5435 C   0  0  0  0  0  0  0  0  0  0  0  0
  146.9967  141.6920  154.5460 C   0  0  0  0  0  0  0  0  0  0  0  0
  148.1378  140.9412  154.0003 N   0  0  0  0  0  0  0  0  0  0  0  0
  149.3404  140.7895  154.6109 C   0  0  0  0  0  0  0  0  0  0  0  0
  150.2920  140.2134  154.0826 O   0  0  0  0  0  0  0  0  0  0  0  0
  149.4154  141.3331  155.8393 N   0  0  0  0  0  0  0  0  0  0  0  0
  150.6112  141.3923  156.6773 C   0  0  0  0  0  0  0  0  0  0  0  0
  151.0946  142.8398  156.8835 C   0  0  0  0  0  0  0  0  0  0  0  0
  151.6921  143.0667  158.2472 C   0  0  0  0  0  0  0  0  0  0  0  0
  151.6554  144.2545  159.0323 C   0  0  0  0  0  0  0  0  0  0  0  0
  152.2526  144.1146  160.2045 N   0  0  0  0  0  0  0  0  0  0  0  0
  152.6953  142.8406  160.2061 N   0  0  0  0  0  0  0  0  0  0  0  0
  153.4038  142.3314  161.3606 C   0  0  0  0  0  0  0  0  0  0  0  0
  152.3745  142.1852  159.0374 C   0  0  0  0  0  0  0  0  0  0  0  0
  147.8181  140.2353  152.7527 C   0  0  0  0  0  0  0  0  0  0  0  0
  147.1318  138.8803  153.0198 C   0  0  0  0  0  0  0  0  0  0  0  0
  145.5521  136.9046  154.1096 H   0  0  0  0  0  0  0  0  0  0  0  0
  144.8021  137.5947  152.6646 H   0  0  0  0  0  0  0  0  0  0  0  0
  144.1040  137.9124  154.2453 H   0  0  0  0  0  0  0  0  0  0  0  0
  145.3882  138.8921  155.9089 H   0  0  0  0  0  0  0  0  0  0  0  0
  147.0933  138.8613  155.5943 H   0  0  0  0  0  0  0  0  0  0  0  0
  145.1600  141.2262  155.5686 H   0  0  0  0  0  0  0  0  0  0  0  0
  146.5769  141.0008  156.5480 H   0  0  0  0  0  0  0  0  0  0  0  0
  146.3353  142.0031  153.7366 H   0  0  0  0  0  0  0  0  0  0  0  0
  147.3111  142.6301  155.0060 H   0  0  0  0  0  0  0  0  0  0  0  0
  148.5887  141.7845  156.2022 H   0  0  0  0  0  0  0  0  0  0  0  0
  150.3767  140.9434  157.6427 H   0  0  0  0  0  0  0  0  0  0  0  0
  151.4158  140.7903  156.2520 H   0  0  0  0  0  0  0  0  0  0  0  0
  151.8219  143.0803  156.1073 H   0  0  0  0  0  0  0  0  0  0  0  0
  150.2574  143.5182  156.7163 H   0  0  0  0  0  0  0  0  0  0  0  0
  151.2032  145.2049  158.7903 H   0  0  0  0  0  0  0  0  0  0  0  0
  153.9224  141.4076  161.1019 H   0  0  0  0  0  0  0  0  0  0  0  0
  152.6963  142.1291  162.1652 H   0  0  0  0  0  0  0  0  0  0  0  0
  154.1367  143.0631  161.7025 H   0  0  0  0  0  0  0  0  0  0  0  0
  152.6460  141.1533  158.8700 H   0  0  0  0  0  0  0  0  0  0  0  0
  147.1773  140.8506  152.1202 H   0  0  0  0  0  0  0  0  0  0  0  0
  148.7158  140.0757  152.1528 H   0  0  0  0  0  0  0  0  0  0  0  0
  147.8289  138.1860  153.4922 H   0  0  0  0  0  0  0  0  0  0  0  0
  146.8805  138.4419  152.0532 H   0  0  0  0  0  0  0  0  0  0  0  0
  145.3494  139.7490  153.4615 H   0  0  0  0  0  0  0  0  0  0  0  0
  1  2  1  0  0  0  0
  1 20  1  0  0  0  0
  1 21  1  0  0  0  0
  1 22  1  0  0  0  0
  2 19  1  0  0  0  0
  2  3  1  0  0  0  0
  2 43  1  0  0  0  0
  3  4  1  0  0  0  0
  3 23  1  0  0  0  0
  3 24  1  0  0  0  0
  4  5  1  0  0  0  0
  4 25  1  0  0  0  0
  4 26  1  0  0  0  0
  5  6  1  0  0  0  0
  5 27  1  0  0  0  0
  5 28  1  0  0  0  0
  6  7  1  0  0  0  0
  6 18  1  0  0  0  0
  7  8  2  0  0  0  0
  7  9  1  0  0  0  0
  9 10  1  0  0  0  0
  9 29  1  0  0  0  0
 10 11  1  0  0  0  0
 10 30  1  0  0  0  0
 10 31  1  0  0  0  0
 11 12  1  0  0  0  0
 11 32  1  0  0  0  0
 11 33  1  0  0  0  0
 12 17  2  0  0  0  0
 12 13  1  0  0  0  0
 13 14  2  0  0  0  0
 13 34  1  0  0  0  0
 14 15  1  0  0  0  0
 15 16  1  0  0  0  0
 15 17  1  0  0  0  0
 16 35  1  0  0  0  0
 16 36  1  0  0  0  0
 16 37  1  0  0  0  0
 17 38  1  0  0  0  0
 18 19  1  0  0  0  0
 18 39  1  0  0  0  0
 18 40  1  0  0  0  0
 19 41  1  0  0  0  0
 19 42  1  0  0  0  0
M  CHG  1   2   1
M  END
> <s_m_source_file>
AV-unprocessed.smi

> <i_m_source_file_index>
3023

> <i_lp_mmshare_version>
43012

> <i_f3d_flags>
0

> <s_epik_input>
W0NIM11OMVtDSDJdW0NIMl1bQ0gyXU4oW0NIMl1bQ0gyXTEpQyg9TylbTkhdW0NIMl1bQ0gyXWMyW2NIXW5uKFtDSDNdKVtjSF0y

> <s_epik_cmdline>
J2VwaWtfcHl0aG9uJywgJy1waCcsICc3LjAnLCAnLXRuJywgJzgnLCAnLW1hJywgJzIwMCcsICctbWV0YWxfYmluZGluZycsICctaW1hZScsICc8aW5maWxlLm1hZT4nLCAnLW9tYWUnLCAnPG91dGZpbGUubWFlPic=

> <r_lp_tautomer_probability>
1

> <r_epik_Ionization_Penalty>
0.00258886

> <r_epik_Ionization_Penalty_Charging>
0.00208099

> <r_epik_Ionization_Penalty_Neutral>
0.00050787

> <r_epik_State_Penalty>
-0

> <r_epik_Charging_Adjusted_Penalty>
0.00208099

> <i_epik_Tot_Q>
1

> <i_epik_Tot_abs_Q>
1

> <r_epik_Metal_State_Penalty>
-0

> <b_epik_Metal_Only>
0

> <s_lp_Force_Field>
OPLS_2005

> <r_lp_Energy>
39.0301

> <b_lp_Chiralities_Consistent>
1

> <s_lp_Variant>
AV-unprocessed.smi:3023-2

> <Gold.Version>
5.8.1

> <Gold.Id.Protein>
6NUR|6NUR_protein|mol2

> <Gold.PLP.Fitness>
43.3976

> <Gold.PLP.PLP>
-35.7186

> <Gold.PLP.part.hbond>
-2.0000

> <Gold.PLP.part.metal>
0.0000

> <Gold.PLP.part.buried>
-0.3015

> <Gold.PLP.part.nonpolar>
-34.8379

> <Gold.PLP.part.repulsive>
0.8538

> <Gold.PLP.ligand.clash>
0.0000

> <Gold.PLP.ligand.torsion>
0.6475

> <Gold.PLP.Chemscore.Hbond>
2.9840

> <Gold.PLP.Chemscore.CHOScore>
0.0000

> <Gold.PLP.Chemscore.Metal>
0.0000

> <Gold.Chemscore.Hbonds>
donor molecule, donor type, donor heavy atom, donor atom, acceptor molecule, acceptor atom, score
      L1  H     2    43       P1 10175  1.79
      P1  H  7989  7998       L1     8  0.98

> <Gold.PLP.Chemscore.Internal.Correction>
0.0219

> <Gold.Rescore>
     Score         DG    S(hbond)    S(metal)    S(lipo)     H(rot)  DE(clash)    DE(int)     intcor
     15.95     -18.47       1.87        0.00      88.18       1.39       2.12       0.40       ----

> <Gold.Chemscore.Fitness>
15.9487

> <Gold.Chemscore.DG>
-18.4736

> <Gold.Chemscore.ZeroCoef>
-5.4800

> <Gold.Chemscore.Hbond>
1.8672

> <Gold.Chemscore.Metal>
0.0000

> <Gold.Chemscore.Lipo>
88.1789

> <Gold.Chemscore.Internal_Hbond>
0.0000

> <Gold.Chemscore.DEClash>
2.1225

> <Gold.Chemscore.DEInternal>
0.4024

> <Gold.Chemscore.Rot>
1.3906

> <Gold.Chemscore.Internal.Correction>
   9.000000E+99

> <Gold.Chemscore.Hbonds>
donor molecule, donor type, donor heavy atom, donor atom, acceptor molecule, acceptor atom, score
      L1  H     2    43       P1 10175  0.84
      P1  H  7989  7998       L1     8  0.91

> <Gold.Chemscore.Hbond.Weighted>
-6.2365

> <Gold.Chemscore.Metal.Weighted>
-0.0000

> <Gold.Chemscore.Lipo.Weighted>
-10.3169

> <Gold.Chemscore.Internal_Hbond.Weighted>
0.0000

> <Gold.Chemscore.DEClash.Weighted>
2.1225

> <Gold.Chemscore.DEInternal.Weighted>
0.4024

> <Gold.Chemscore.Rot.Weighted>
3.5598

> <Gold.Chemscore.Internal.Correction.Weighted>
   9.000000E+99

> <Gold.Protein.RotatedTorsions>
[ 6907 6896 6895 6894 ] final   60.73 input  -60.11 | X-H torsion
[ 7974 7965 7964 7962 ] final  122.00 input  175.53 | X-H torsion
[ 8008 7997 7996 7995 ] final  -72.55 input   59.86 | X-H torsion
[ 10167 10162 10161 10158 ] final  -60.29 input  -65.29 | X-H torsion
[ 10718 10713 10712 10709 ] final  104.79 input   66.30 | X-H torsion
[ 10763 10752 10751 10750 ] final  103.33 input  -60.55 | X-H torsion
[ 11005 11000 10999 10996 ] final  -64.64 input  -57.11 | X-H torsion

> <Gold.Protein.ActiveResidues>
 VAL166  LYS551  ARG553  GLY616  TRP617  ASP618  TYR619  PRO620  LYS621  CYS622 
 ASP623  PHE694  ASN695  SER759  ASP760  ASP761  ALA762  ILE779  LEU786  VAL792 
 PHE793  MET794  SER795  GLU796  ALA797  LYS798  CYS799  TRP800  GLU811  SER814 

> <Gold.Protein.RotatedAtoms>
  152.4028  134.6257  160.0062 H   0  0  0  0  0  0  0  0  0  0  0  0  # atno 6907 bound_to 6896
  151.6457  133.3318  159.3148 H   0  0  0  0  0  0  0  0  0  0  0  0  # atno 6908 bound_to 6896
  150.7927  134.7004  159.6592 H   0  0  0  0  0  0  0  0  0  0  0  0  # atno 6909 bound_to 6896
  145.1127  139.3442  143.4755 H   0  0  0  0  0  0  0  0  0  0  0  0  # atno 7974 bound_to 7965
  154.5175  140.0795  156.8109 H   0  0  0  0  0  0  0  0  0  0  0  0  # atno 8008 bound_to 7997
  155.3649  140.3420  155.4223 H   0  0  0  0  0  0  0  0  0  0  0  0  # atno 8009 bound_to 7997
  156.1644  140.1599  156.8544 H   0  0  0  0  0  0  0  0  0  0  0  0  # atno 8010 bound_to 7997
  140.6081  143.2379  151.5774 H   0  0  0  0  0  0  0  0  0  0  0  0  # atno 10167 bound_to 10162
  157.6728  131.0812  150.5759 H   0  0  0  0  0  0  0  0  0  0  0  0  # atno 10718 bound_to 10713
  153.3512  135.3980  155.1647 H   0  0  0  0  0  0  0  0  0  0  0  0  # atno 10763 bound_to 10752
  154.8662  135.3657  154.5220 H   0  0  0  0  0  0  0  0  0  0  0  0  # atno 10764 bound_to 10752
  153.5671  135.7080  153.5581 H   0  0  0  0  0  0  0  0  0  0  0  0  # atno 10765 bound_to 10752
  141.1431  133.6669  156.5864 H   0  0  0  0  0  0  0  0  0  0  0  0  # atno 11005 bound_to 11000
  146.3525  140.1053  142.8606 LP  0  0  0  0  0  0  0  0  0  0  0  0  # atno 17320 bound_to 7965
  145.0828  140.9233  143.4815 LP  0  0  0  0  0  0  0  0  0  0  0  0  # atno 17321 bound_to 7965
  139.5340  144.2834  152.1211 LP  0  0  0  0  0  0  0  0  0  0  0  0  # atno 17342 bound_to 10162
  140.2028  144.4641  150.6423 LP  0  0  0  0  0  0  0  0  0  0  0  0  # atno 17343 bound_to 10162
  156.6060  130.4367  149.5878 LP  0  0  0  0  0  0  0  0  0  0  0  0  # atno 17370 bound_to 10713
  156.2468  130.6884  151.1608 LP  0  0  0  0  0  0  0  0  0  0  0  0  # atno 17371 bound_to 10713
  140.3798  134.7534  157.4653 LP  0  0  0  0  0  0  0  0  0  0  0  0  # atno 17394 bound_to 11000
  140.0647  134.5947  155.8709 LP  0  0  0  0  0  0  0  0  0  0  0  0  # atno 17395 bound_to 11000

$$$$
