AV-unprocessed.smi:2804|AV-procd|sdf|10810|dock1
  -GOLD-   2272015243D 1   1.00000     0.00000
 Structure written by MMmdl.
 35 36  0  0  0  0  0  0  0  0  1 V2000
  150.6984  138.9600  154.5571 C   0  0  0  0  0  0  0  0  0  0  0  0
  151.5811  139.6471  155.6041 C   0  0  0  0  0  0  0  0  0  0  0  0
  150.7638  140.4498  156.6283 C   0  0  0  0  0  0  0  0  0  0  0  0
  151.6028  140.9055  157.7339 N   0  0  0  0  0  0  0  0  0  0  0  0
  152.2725  140.1231  158.6126 C   0  0  0  0  0  0  0  0  0  0  0  0
  152.2912  138.8924  158.6164 O   0  0  0  0  0  0  0  0  0  0  0  0
  152.9087  140.9307  159.4936 N   0  0  0  0  0  0  0  0  0  0  0  0
  153.7336  140.5046  160.6261 C   0  0  0  0  0  0  0  0  0  0  0  0
  154.7817  139.4109  160.2833 C   0  0  1  0  0  0  0  0  0  0  0  0
  155.7499  139.8510  159.3457 O   0  0  0  0  0  0  0  0  0  0  0  0
  155.5011  138.8532  161.5275 C   0  0  0  0  0  0  0  0  0  0  0  0
  156.4298  137.9683  161.1635 F   0  0  0  0  0  0  0  0  0  0  0  0
  156.0700  139.8333  162.2297 F   0  0  0  0  0  0  0  0  0  0  0  0
  154.6202  138.2241  162.3057 F   0  0  0  0  0  0  0  0  0  0  0  0
  152.6270  142.2677  159.1778 C   0  0  0  0  0  0  0  0  0  0  0  0
  153.0279  143.4670  159.7919 C   0  0  0  0  0  0  0  0  0  0  0  0
  152.5529  144.6731  159.2255 C   0  0  0  0  0  0  0  0  0  0  0  0
  151.7054  144.6574  158.0873 C   0  0  0  0  0  0  0  0  0  0  0  0
  151.3149  143.4353  157.4911 C   0  0  0  0  0  0  0  0  0  0  0  0
  151.8034  142.2518  158.0717 C   0  0  0  0  0  0  0  0  0  0  0  0
  151.3053  138.4020  153.8437 H   0  0  0  0  0  0  0  0  0  0  0  0
  150.1123  139.6886  153.9965 H   0  0  0  0  0  0  0  0  0  0  0  0
  150.0057  138.2596  155.0243 H   0  0  0  0  0  0  0  0  0  0  0  0
  152.1776  138.8932  156.1193 H   0  0  0  0  0  0  0  0  0  0  0  0
  152.2872  140.3073  155.0990 H   0  0  0  0  0  0  0  0  0  0  0  0
  150.2973  141.3088  156.1434 H   0  0  0  0  0  0  0  0  0  0  0  0
  149.9456  139.8435  157.0183 H   0  0  0  0  0  0  0  0  0  0  0  0
  154.2220  141.3774  161.0615 H   0  0  0  0  0  0  0  0  0  0  0  0
  153.0747  140.1364  161.4129 H   0  0  0  0  0  0  0  0  0  0  0  0
  154.2551  138.5831  159.8066 H   0  0  0  0  0  0  0  0  0  0  0  0
  156.6042  139.7862  159.7443 H   0  0  0  0  0  0  0  0  0  0  0  0
  153.6692  143.4729  160.6606 H   0  0  0  0  0  0  0  0  0  0  0  0
  152.8376  145.6175  159.6657 H   0  0  0  0  0  0  0  0  0  0  0  0
  151.3526  145.5900  157.6718 H   0  0  0  0  0  0  0  0  0  0  0  0
  150.6669  143.4175  156.6277 H   0  0  0  0  0  0  0  0  0  0  0  0
  1  2  1  0  0  0  0
  1 21  1  0  0  0  0
  1 22  1  0  0  0  0
  1 23  1  0  0  0  0
  2  3  1  0  0  0  0
  2 24  1  0  0  0  0
  2 25  1  0  0  0  0
  3  4  1  0  0  0  0
  3 26  1  0  0  0  0
  3 27  1  0  0  0  0
  4 20  1  0  0  0  0
  4  5  1  0  0  0  0
  5  6  2  0  0  0  0
  5  7  1  0  0  0  0
  7  8  1  0  0  0  0
  7 15  1  0  0  0  0
  8  9  1  0  0  0  0
  8 28  1  0  0  0  0
  8 29  1  0  0  0  0
  9 10  1  0  0  0  0
  9 11  1  0  0  0  0
  9 30  1  0  0  0  0
 10 31  1  0  0  0  0
 11 12  1  0  0  0  0
 11 13  1  0  0  0  0
 11 14  1  0  0  0  0
 15 20  2  0  0  0  0
 15 16  1  0  0  0  0
 16 17  2  0  0  0  0
 16 32  1  0  0  0  0
 17 18  1  0  0  0  0
 17 33  1  0  0  0  0
 18 19  2  0  0  0  0
 18 34  1  0  0  0  0
 19 20  1  0  0  0  0
 19 35  1  0  0  0  0
M  END
> <s_m_source_file>
AV-unprocessed.smi

> <i_m_source_file_index>
2804

> <i_lp_mmshare_version>
43012

> <i_f3d_flags>
0

> <s_epik_input>
W2NIXTFbY0hdW2NIXVtjSF1jKGMxMiluKFtDSDJdW0NIMl1bQ0gzXSljKD1PKW4yW0NIMl1bQ0BIXShbT0hdKUMoRikoRilG

> <s_epik_cmdline>
J2VwaWtfcHl0aG9uJywgJy1waCcsICc3LjAnLCAnLXRuJywgJzgnLCAnLW1hJywgJzIwMCcsICctbWV0YWxfYmluZGluZycsICctaW1hZScsICc8aW5maWxlLm1hZT4nLCAnLW9tYWUnLCAnPG91dGZpbGUubWFlPic=

> <r_epik_Ionization_Penalty>
0.0117937

> <r_epik_Ionization_Penalty_Charging>
3.30828e-09

> <r_epik_Ionization_Penalty_Neutral>
0.0117937

> <r_epik_State_Penalty>
0.00909547

> <r_epik_Charging_Adjusted_Penalty>
0.00909547

> <i_epik_Tot_Q>
0

> <i_epik_Tot_abs_Q>
0

> <r_epik_Metal_State_Penalty>
0.00909547

> <b_epik_Metal_Only>
0

> <s_lp_Force_Field>
OPLS_2005

> <r_lp_Energy>
49.0105

> <b_lp_Chiralities_Consistent>
1

> <s_lp_Variant>
AV-unprocessed.smi:2804-2

> <Gold.Version>
5.8.1

> <Gold.Id.Protein>
6NUR|6NUR_protein|mol2

> <Gold.PLP.Fitness>
45.8435

> <Gold.PLP.PLP>
-43.2860

> <Gold.PLP.part.hbond>
-1.0000

> <Gold.PLP.part.metal>
0.0000

> <Gold.PLP.part.buried>
-3.7703

> <Gold.PLP.part.nonpolar>
-37.8434

> <Gold.PLP.part.repulsive>
0.0000

> <Gold.PLP.ligand.clash>
0.0000

> <Gold.PLP.ligand.torsion>
0.2891

> <Gold.PLP.Chemscore.Hbond>
1.0000

> <Gold.PLP.Chemscore.CHOScore>
0.0000

> <Gold.PLP.Chemscore.Metal>
0.0000

> <Gold.Chemscore.Hbonds>
donor molecule, donor type, donor heavy atom, donor atom, acceptor molecule, acceptor atom, score
      P1  H  7997  8008       L1    10  1.00

> <Gold.PLP.Chemscore.Internal.Correction>
0.1357

> <Gold.Rescore>
     Score         DG    S(hbond)    S(metal)    S(lipo)     H(rot)  DE(clash)    DE(int)     intcor
     15.73     -16.04       0.96        0.00     113.35       2.32       0.17       0.14       ----

> <Gold.Chemscore.Fitness>
15.7250

> <Gold.Chemscore.DG>
-16.0382

> <Gold.Chemscore.ZeroCoef>
-5.4800

> <Gold.Chemscore.Hbond>
0.9649

> <Gold.Chemscore.Metal>
0.0000

> <Gold.Chemscore.Lipo>
113.3536

> <Gold.Chemscore.Internal_Hbond>
0.0000

> <Gold.Chemscore.DEClash>
0.1692

> <Gold.Chemscore.DEInternal>
0.1440

> <Gold.Chemscore.Rot>
2.3152

> <Gold.Chemscore.Internal.Correction>
   9.000000E+99

> <Gold.Chemscore.Hbonds>
donor molecule, donor type, donor heavy atom, donor atom, acceptor molecule, acceptor atom, score
      P1  H  7997  8008       L1    10  0.94

> <Gold.Chemscore.Hbond.Weighted>
-3.2226

> <Gold.Chemscore.Metal.Weighted>
-0.0000

> <Gold.Chemscore.Lipo.Weighted>
-13.2624

> <Gold.Chemscore.Internal_Hbond.Weighted>
0.0000

> <Gold.Chemscore.DEClash.Weighted>
0.1692

> <Gold.Chemscore.DEInternal.Weighted>
0.1440

> <Gold.Chemscore.Rot.Weighted>
5.9268

> <Gold.Chemscore.Internal.Correction.Weighted>
   9.000000E+99

> <Gold.Protein.RotatedTorsions>
[ 6907 6896 6895 6894 ] final  -57.13 input  -60.11 | X-H torsion
[ 7974 7965 7964 7962 ] final  -35.50 input  175.53 | X-H torsion
[ 8008 7997 7996 7995 ] final -141.82 input   59.86 | X-H torsion
[ 10167 10162 10161 10158 ] final -143.53 input  -65.29 | X-H torsion
[ 10718 10713 10712 10709 ] final  116.13 input   66.30 | X-H torsion
[ 10763 10752 10751 10750 ] final   80.28 input  -60.55 | X-H torsion
[ 11005 11000 10999 10996 ] final -129.28 input  -57.11 | X-H torsion

> <Gold.Protein.ActiveResidues>
 VAL166  LYS551  ARG553  GLY616  TRP617  ASP618  TYR619  PRO620  LYS621  CYS622 
 ASP623  PHE694  ASN695  SER759  ASP760  ASP761  ALA762  ILE779  LEU786  VAL792 
 PHE793  MET794  SER795  GLU796  ALA797  LYS798  CYS799  TRP800  GLU811  SER814 

> <Gold.Protein.RotatedAtoms>
  150.8111  134.7267  159.6688 H   0  0  0  0  0  0  0  0  0  0  0  0  # atno 6907 bound_to 6896
  152.4231  134.5915  159.9985 H   0  0  0  0  0  0  0  0  0  0  0  0  # atno 6908 bound_to 6896
  151.6125  133.3309  159.3106 H   0  0  0  0  0  0  0  0  0  0  0  0  # atno 6909 bound_to 6896
  146.0741  140.6167  142.8939 H   0  0  0  0  0  0  0  0  0  0  0  0  # atno 7974 bound_to 7965
  155.4840  140.0562  157.2963 H   0  0  0  0  0  0  0  0  0  0  0  0  # atno 8008 bound_to 7997
  154.4649  140.2014  156.0097 H   0  0  0  0  0  0  0  0  0  0  0  0  # atno 8009 bound_to 7997
  156.0956  140.3227  155.7878 H   0  0  0  0  0  0  0  0  0  0  0  0  # atno 8010 bound_to 7997
  139.7985  143.7867  152.2656 H   0  0  0  0  0  0  0  0  0  0  0  0  # atno 10167 bound_to 10162
  157.6179  131.1021  150.7429 H   0  0  0  0  0  0  0  0  0  0  0  0  # atno 10718 bound_to 10713
  153.1021  135.4808  154.8885 H   0  0  0  0  0  0  0  0  0  0  0  0  # atno 10763 bound_to 10752
  154.7390  135.3078  154.8764 H   0  0  0  0  0  0  0  0  0  0  0  0  # atno 10764 bound_to 10752
  153.9378  135.6837  153.4798 H   0  0  0  0  0  0  0  0  0  0  0  0  # atno 10765 bound_to 10752
  140.9445  134.1148  157.4120 H   0  0  0  0  0  0  0  0  0  0  0  0  # atno 11005 bound_to 11000
  144.7250  140.4495  143.6980 LP  0  0  0  0  0  0  0  0  0  0  0  0  # atno 17320 bound_to 7965
  145.6339  139.1540  143.2954 LP  0  0  0  0  0  0  0  0  0  0  0  0  # atno 17321 bound_to 7965
  139.7980  144.7385  150.9864 LP  0  0  0  0  0  0  0  0  0  0  0  0  # atno 17342 bound_to 10162
  140.7820  143.4374  151.0602 LP  0  0  0  0  0  0  0  0  0  0  0  0  # atno 17343 bound_to 10162
  156.7792  130.4854  149.5404 LP  0  0  0  0  0  0  0  0  0  0  0  0  # atno 17370 bound_to 10713
  156.1310  130.6178  151.0334 LP  0  0  0  0  0  0  0  0  0  0  0  0  # atno 17371 bound_to 10713
  139.8829  135.0047  156.6266 LP  0  0  0  0  0  0  0  0  0  0  0  0  # atno 17394 bound_to 11000
  140.7688  133.8756  155.8475 LP  0  0  0  0  0  0  0  0  0  0  0  0  # atno 17395 bound_to 11000

$$$$
