AV-unprocessed.smi:2079|AV-procd|sdf|8480|dock5
  -GOLD-   2272011183D 1   1.00000     0.00000
 Structure written by MMmdl.
 41 42  0  0  0  0  0  0  0  0  3 V2000
  146.4122  136.1860  162.6764 C   0  0  0  0  0  0  0  0  0  0  0  0
  147.0574  135.9039  161.3626 C   0  0  0  0  0  0  0  0  0  0  0  0
  147.4284  134.7448  160.7424 C   0  0  0  0  0  0  0  0  0  0  0  0
  147.9818  135.1968  159.5135 C   0  0  0  0  0  0  0  0  0  0  0  0
  148.5052  134.4192  158.5531 N   0  5  0  0  0  0  0  0  0  0  0  0
  148.8422  134.9498  157.3557 C   0  0  0  0  0  0  0  0  0  0  0  0
  149.9621  135.3353  157.0128 O   0  0  0  0  0  0  0  0  0  0  0  0
  147.8149  135.0449  156.5017 N   0  0  0  0  0  0  0  0  0  0  0  0
  147.8927  135.5943  155.1555 C   0  0  0  0  0  0  0  0  0  0  0  0
  146.4989  135.6122  154.5072 C   0  0  0  0  0  0  0  0  0  0  0  0
  146.5153  135.2933  153.0537 N   0  3  1  0  0  0  0  0  0  0  0  0
  146.6754  133.8336  152.8117 C   0  0  0  0  0  0  0  0  0  0  0  0
  146.9031  133.5297  151.3226 C   0  0  0  0  0  0  0  0  0  0  0  0
  145.7688  134.1003  150.4657 C   0  0  0  0  0  0  0  0  0  0  0  0
  145.6153  135.6018  150.7414 C   0  0  0  0  0  0  0  0  0  0  0  0
  145.4148  135.9044  152.2420 C   0  0  1  0  0  0  0  0  0  0  0  0
  144.0006  135.5234  152.7296 C   0  0  0  0  0  0  0  0  0  0  0  0
  147.9630  136.5145  159.4044 N   0  0  0  0  0  0  0  0  0  0  0  0
  147.3649  136.9755  160.5833 O   0  0  0  0  0  0  0  0  0  0  0  0
  147.0098  135.7814  163.4931 H   0  0  0  0  0  0  0  0  0  0  0  0
  145.4225  135.7322  162.7245 H   0  0  0  0  0  0  0  0  0  0  0  0
  146.3006  137.2584  162.8388 H   0  0  0  0  0  0  0  0  0  0  0  0
  147.3199  133.7347  161.1075 H   0  0  0  0  0  0  0  0  0  0  0  0
  146.9147  134.7151  156.8180 H   0  0  0  0  0  0  0  0  0  0  0  0
  148.3024  136.6025  155.2213 H   0  0  0  0  0  0  0  0  0  0  0  0
  148.5835  134.9950  154.5607 H   0  0  0  0  0  0  0  0  0  0  0  0
  145.8828  134.8669  155.0129 H   0  0  0  0  0  0  0  0  0  0  0  0
  146.0081  136.5709  154.6779 H   0  0  0  0  0  0  0  0  0  0  0  0
  147.5289  133.4608  153.3793 H   0  0  0  0  0  0  0  0  0  0  0  0
  145.8010  133.2958  153.1795 H   0  0  0  0  0  0  0  0  0  0  0  0
  147.8548  133.9569  151.0031 H   0  0  0  0  0  0  0  0  0  0  0  0
  146.9806  132.4529  151.1691 H   0  0  0  0  0  0  0  0  0  0  0  0
  145.9760  133.9319  149.4085 H   0  0  0  0  0  0  0  0  0  0  0  0
  144.8364  133.5789  150.6858 H   0  0  0  0  0  0  0  0  0  0  0  0
  146.5094  136.1185  150.3897 H   0  0  0  0  0  0  0  0  0  0  0  0
  144.7866  136.0057  150.1587 H   0  0  0  0  0  0  0  0  0  0  0  0
  145.4989  136.9868  152.3312 H   0  0  0  0  0  0  0  0  0  0  0  0
  143.2402  135.9744  152.0917 H   0  0  0  0  0  0  0  0  0  0  0  0
  143.8114  135.8824  153.7410 H   0  0  0  0  0  0  0  0  0  0  0  0
  143.8343  134.4469  152.7202 H   0  0  0  0  0  0  0  0  0  0  0  0
  147.3652  135.7122  152.7035 H   0  0  0  0  0  0  0  0  0  0  0  0
  1  2  1  0  0  0  0
  1 20  1  0  0  0  0
  1 21  1  0  0  0  0
  1 22  1  0  0  0  0
  2 19  1  0  0  0  0
  2  3  2  0  0  0  0
  3  4  1  0  0  0  0
  3 23  1  0  0  0  0
  4  5  1  0  0  0  0
  4 18  2  0  0  0  0
  5  6  1  0  0  0  0
  6  7  2  0  0  0  0
  6  8  1  0  0  0  0
  8  9  1  0  0  0  0
  8 24  1  0  0  0  0
  9 10  1  0  0  0  0
  9 25  1  0  0  0  0
  9 26  1  0  0  0  0
 10 11  1  0  0  0  0
 10 27  1  0  0  0  0
 10 28  1  0  0  0  0
 11 16  1  0  0  0  0
 11 12  1  0  0  0  0
 11 41  1  0  0  0  0
 12 13  1  0  0  0  0
 12 29  1  0  0  0  0
 12 30  1  0  0  0  0
 13 14  1  0  0  0  0
 13 31  1  0  0  0  0
 13 32  1  0  0  0  0
 14 15  1  0  0  0  0
 14 33  1  0  0  0  0
 14 34  1  0  0  0  0
 15 16  1  0  0  0  0
 15 35  1  0  0  0  0
 15 36  1  0  0  0  0
 16 17  1  0  0  0  0
 16 37  1  0  0  0  0
 17 38  1  0  0  0  0
 17 39  1  0  0  0  0
 17 40  1  0  0  0  0
 18 19  1  0  0  0  0
M  CHG  1   5  -1
M  CHG  1  11   1
M  END
> <s_m_source_file>
AV-unprocessed.smi

> <i_m_source_file_index>
2079

> <i_lp_mmshare_version>
43012

> <i_f3d_flags>
0

> <s_epik_input>
W0NIM11jMVtjSF1jKG5vMSlbTkhdQyg9TylbTkhdW0NIMl1bQ0gyXU4yW0NIMl1bQ0gyXVtDSDJdW0NIMl1bQ0BIXTJbQ0gzXQ==

> <s_epik_cmdline>
J2VwaWtfcHl0aG9uJywgJy1waCcsICc3LjAnLCAnLXRuJywgJzgnLCAnLW1hJywgJzIwMCcsICctbWV0YWxfYmluZGluZycsICctaW1hZScsICc8aW5maWxlLm1hZT4nLCAnLW9tYWUnLCAnPG91dGZpbGUubWFlPic=

> <r_epik_Ionization_Penalty>
6.22371

> <r_epik_Ionization_Penalty_Charging>
6.22362

> <r_epik_Ionization_Penalty_Neutral>
9.40454e-05

> <r_epik_State_Penalty>
6.22363

> <r_epik_Charging_Adjusted_Penalty>
12.4472

> <i_epik_Tot_Q>
0

> <i_epik_Tot_abs_Q>
2

> <r_epik_Metal_State_Penalty>
2.16675

> <b_epik_Metal_Only>
1

> <s_lp_Force_Field>
OPLS_2005

> <r_lp_Energy>
9.70106

> <b_lp_Chiralities_Consistent>
1

> <s_lp_Variant>
AV-unprocessed.smi:2079-6

> <Gold.Version>
5.8.1

> <Gold.Id.Protein>
6NUR|6NUR_protein|mol2

> <Gold.PLP.Fitness>
40.8754

> <Gold.PLP.PLP>
-26.2526

> <Gold.PLP.part.hbond>
-4.0000

> <Gold.PLP.part.metal>
0.0000

> <Gold.PLP.part.buried>
-4.0603

> <Gold.PLP.part.nonpolar>
-18.8861

> <Gold.PLP.part.repulsive>
0.0037

> <Gold.PLP.ligand.clash>
0.0000

> <Gold.PLP.ligand.torsion>
1.2659

> <Gold.PLP.Chemscore.Hbond>
5.6960

> <Gold.PLP.Chemscore.CHOScore>
0.0000

> <Gold.PLP.Chemscore.Metal>
0.0000

> <Gold.Chemscore.Hbonds>
donor molecule, donor type, donor heavy atom, donor atom, acceptor molecule, acceptor atom, score
      L1  H    11    41       P1  7948  2.00
      P1  H  6896  6908       L1     5  0.55
      P1  H  6934  6947       L1    19  0.88

> <Gold.PLP.Chemscore.Internal.Correction>
0.0667

> <Gold.Rescore>
     Score         DG    S(hbond)    S(metal)    S(lipo)     H(rot)  DE(clash)    DE(int)     intcor
     15.02     -16.54       2.61        0.00      53.75       1.54       0.00       1.52       ----

> <Gold.Chemscore.Fitness>
15.0218

> <Gold.Chemscore.DG>
-16.5399

> <Gold.Chemscore.ZeroCoef>
-5.4800

> <Gold.Chemscore.Hbond>
2.6095

> <Gold.Chemscore.Metal>
0.0000

> <Gold.Chemscore.Lipo>
53.7508

> <Gold.Chemscore.Internal_Hbond>
0.0000

> <Gold.Chemscore.DEClash>
0.0000

> <Gold.Chemscore.DEInternal>
1.5181

> <Gold.Chemscore.Rot>
1.5409

> <Gold.Chemscore.Internal.Correction>
   9.000000E+99

> <Gold.Chemscore.Hbonds>
donor molecule, donor type, donor heavy atom, donor atom, acceptor molecule, acceptor atom, score
      L1  H    11    41       P1  7948  1.00
      P1  H  6896  6908       L1     5  0.01
      P1  H  6931  6943       L1    19  0.01
      P1  H  6934  6947       L1    19  0.81

> <Gold.Chemscore.Hbond.Weighted>
-8.7157

> <Gold.Chemscore.Metal.Weighted>
-0.0000

> <Gold.Chemscore.Lipo.Weighted>
-6.2888

> <Gold.Chemscore.Internal_Hbond.Weighted>
0.0000

> <Gold.Chemscore.DEClash.Weighted>
0.0000

> <Gold.Chemscore.DEInternal.Weighted>
1.5181

> <Gold.Chemscore.Rot.Weighted>
3.9446

> <Gold.Chemscore.Internal.Correction.Weighted>
   9.000000E+99

> <Gold.Protein.RotatedTorsions>
[ 6907 6896 6895 6894 ] final  149.06 input  -60.11 | X-H torsion
[ 7974 7965 7964 7962 ] final   84.73 input  175.53 | X-H torsion
[ 8008 7997 7996 7995 ] final -154.96 input   59.86 | X-H torsion
[ 10167 10162 10161 10158 ] final  -12.96 input  -65.29 | X-H torsion
[ 10718 10713 10712 10709 ] final  105.52 input   66.30 | X-H torsion
[ 10763 10752 10751 10750 ] final  -53.82 input  -60.55 | X-H torsion
[ 11005 11000 10999 10996 ] final -150.88 input  -57.11 | X-H torsion

> <Gold.Protein.ActiveResidues>
 VAL166  LYS551  ARG553  GLY616  TRP617  ASP618  TYR619  PRO620  LYS621  CYS622 
 ASP623  PHE694  ASN695  SER759  ASP760  ASP761  ALA762  ILE779  LEU786  VAL792 
 PHE793  MET794  SER795  GLU796  ALA797  LYS798  CYS799  TRP800  GLU811  SER814 

> <Gold.Protein.RotatedAtoms>
  152.1331  133.4419  159.4730 H   0  0  0  0  0  0  0  0  0  0  0  0  # atno 6907 bound_to 6896
  150.6880  134.2396  159.4476 H   0  0  0  0  0  0  0  0  0  0  0  0  # atno 6908 bound_to 6896
  152.0282  134.9783  160.0622 H   0  0  0  0  0  0  0  0  0  0  0  0  # atno 6909 bound_to 6896
  145.5948  139.2343  143.2279 H   0  0  0  0  0  0  0  0  0  0  0  0  # atno 7974 bound_to 7965
  155.6944  140.0759  157.2435 H   0  0  0  0  0  0  0  0  0  0  0  0  # atno 8008 bound_to 7997
  154.4083  140.1659  156.2175 H   0  0  0  0  0  0  0  0  0  0  0  0  # atno 8009 bound_to 7997
  155.9423  140.3383  155.6341 H   0  0  0  0  0  0  0  0  0  0  0  0  # atno 8010 bound_to 7997
  140.7172  143.5477  150.9337 H   0  0  0  0  0  0  0  0  0  0  0  0  # atno 10167 bound_to 10162
  157.6702  131.0829  150.5868 H   0  0  0  0  0  0  0  0  0  0  0  0  # atno 10718 bound_to 10713
  154.1649  135.6468  153.4995 H   0  0  0  0  0  0  0  0  0  0  0  0  # atno 10763 bound_to 10752
  153.0100  135.5369  154.6673 H   0  0  0  0  0  0  0  0  0  0  0  0  # atno 10764 bound_to 10752
  154.5996  135.2942  155.0521 H   0  0  0  0  0  0  0  0  0  0  0  0  # atno 10765 bound_to 10752
  140.7355  134.3572  157.5158 H   0  0  0  0  0  0  0  0  0  0  0  0  # atno 11005 bound_to 11000
  146.1620  140.6774  142.9273 LP  0  0  0  0  0  0  0  0  0  0  0  0  # atno 17320 bound_to 7965
  144.7335  140.4742  143.6920 LP  0  0  0  0  0  0  0  0  0  0  0  0  # atno 17321 bound_to 7965
  139.9200  143.6617  152.3098 LP  0  0  0  0  0  0  0  0  0  0  0  0  # atno 17342 bound_to 10162
  139.7030  144.7632  151.1240 LP  0  0  0  0  0  0  0  0  0  0  0  0  # atno 17343 bound_to 10162
  156.6169  130.4395  149.5837 LP  0  0  0  0  0  0  0  0  0  0  0  0  # atno 17370 bound_to 10713
  156.2386  130.6838  151.1534 LP  0  0  0  0  0  0  0  0  0  0  0  0  # atno 17371 bound_to 10713
  139.8817  134.9047  156.2883 LP  0  0  0  0  0  0  0  0  0  0  0  0  # atno 17394 bound_to 11000
  140.9883  133.7224  156.0775 LP  0  0  0  0  0  0  0  0  0  0  0  0  # atno 17395 bound_to 11000

$$$$
