#       Name:                AV-unprocessed.smi:573
#       Creating user name   scv26
#       Creation time:       Thu Mar 26 23:47:30 2020


#       File generated by GOLD software.
#

@<TRIPOS>MOLECULE
AV-unprocessed.smi:573
    49    51     1
SMALL
NO_CHARGES


@<TRIPOS>ATOM
      1 ****        -3.0743   1.1775   1.8578 C.3            1 S1                 0.0000
      2 ****        -3.5755   0.3058   0.6968 C.3            1 S1                 0.0000
      3 ****        -4.9774   0.4427   0.6091 O.3            1 S1                 0.0000
      4 ****        -3.2553  -1.1898   0.8789 C.3            1 S1                 0.0000
      5 ****        -1.8265  -1.4681   0.8478 N.pl3          1 S1                 0.0000
      6 ****        -1.1418  -1.4207  -0.3720 C.cat          1 S1                 0.0000
      7 ****        -1.7052  -1.4290  -1.6096 N.pl3          1 S1                 1.0000
      8 ****        -0.6822  -1.3530  -2.5588 C.ar           1 S1                 0.0000
      9 ****        -0.7361  -1.3259  -3.9489 C.ar           1 S1                 0.0000
     10 ****         0.4958  -1.2344  -4.6290 C.ar           1 S1                 0.0000
     11 ****         1.7187  -1.1719  -3.9300 C.ar           1 S1                 0.0000
     12 ****         1.7643  -1.2025  -2.5207 C.ar           1 S1                 0.0000
     13 ****         0.5438  -1.2978  -1.8523 C.ar           1 S1                 0.0000
     14 ****         0.2086  -1.3534  -0.4926 N.pl3          1 S1                 0.0000
     15 ****         1.2602  -1.3149   0.5337 C.3            1 S1                 0.0000
     16 ****         1.4870   0.1062   1.0742 C.3            1 S1                 0.0000
     17 ****         2.6053   0.1489   2.1323 C.3            1 S1                 0.0000
     18 ****         2.8429   1.5876   2.6052 C.3            1 S1                 0.0000
     19 ****         3.0824   2.4970   1.3952 C.3            1 S1                 0.0000
     20 ****         1.9483   2.3350   0.3703 C.3            1 S1                 0.0000
     21 ****         1.8288   0.9678  -0.0103 O.3            1 S1                 0.0000
     22 ****        -1.9881   1.1357   1.9429 H              1 S1                 0.0000
     23 ****        -3.4949   0.8528   2.8101 H              1 S1                 0.0000
     24 ****        -3.3489   2.2228   1.7115 H              1 S1                 0.0000
     25 ****        -3.1520   0.6709  -0.2394 H              1 S1                 0.0000
     26 ****        -5.1850   1.3565   0.4854 H              1 S1                 0.0000
     27 ****        -3.6515  -1.5415   1.8321 H              1 S1                 0.0000
     28 ****        -3.7511  -1.7801   0.1071 H              1 S1                 0.0000
     29 ****        -1.3036  -1.3996   1.7093 H              1 S1                 0.0000
     30 ****        -1.6713  -1.3705  -4.4875 H              1 S1                 0.0000
     31 ****         0.5027  -1.2092  -5.7092 H              1 S1                 0.0000
     32 ****         2.6422  -1.0980  -4.4862 H              1 S1                 0.0000
     33 ****         2.7074  -1.1480  -1.9977 H              1 S1                 0.0000
     34 ****         0.9538  -1.9798   1.3421 H              1 S1                 0.0000
     35 ****         2.1792  -1.7345   0.1247 H              1 S1                 0.0000
     36 ****         0.5550   0.4581   1.5209 H              1 S1                 0.0000
     37 ****         2.3487  -0.4847   2.9817 H              1 S1                 0.0000
     38 ****         3.5275  -0.2526   1.7097 H              1 S1                 0.0000
     39 ****         1.9740   1.9391   3.1634 H              1 S1                 0.0000
     40 ****         3.6925   1.6297   3.2872 H              1 S1                 0.0000
     41 ****         3.1583   3.5369   1.7138 H              1 S1                 0.0000
     42 ****         4.0343   2.2421   0.9280 H              1 S1                 0.0000
     43 ****         1.0014   2.6939   0.7767 H              1 S1                 0.0000
     44 ****         2.1587   2.9302  -0.5183 H              1 S1                 0.0000
     45 ****        -2.6999  -1.4793  -1.7876 H              1 S1                 0.0000
     46 ****        -5.4013   0.1124   1.4525 LP             1 S1                 0.0000
     47 ****        -5.3197  -0.0882  -0.1661 LP             1 S1                 0.0000
     48 ****         1.1180   0.8944  -0.7098 LP             1 S1                 0.0000
     49 ****         2.7032   0.6670  -0.3908 LP             1 S1                 0.0000
@<TRIPOS>BOND
    1    1    2 1     
    2    1   22 1     
    3    1   23 1     
    4    1   24 1     
    5    2    3 1     
    6    2    4 1     
    7    2   25 1     
    8    3   26 1     
    9    4    5 1     
   10    4   27 1     
   11    4   28 1     
   12    5    6 ar    
   13    5   29 1     
   14    6   14 ar    
   15    6    7 ar    
   16    7    8 1     
   17    7   45 1     
   18    8   13 ar    
   19    8    9 ar    
   20    9   10 ar    
   21    9   30 1     
   22   10   11 ar    
   23   10   31 1     
   24   11   12 ar    
   25   11   32 1     
   26   12   13 ar    
   27   12   33 1     
   28   13   14 1     
   29   14   15 1     
   30   15   16 1     
   31   15   34 1     
   32   15   35 1     
   33   16   21 1     
   34   16   17 1     
   35   16   36 1     
   36   17   18 1     
   37   17   37 1     
   38   17   38 1     
   39   18   19 1     
   40   18   39 1     
   41   18   40 1     
   42   19   20 1     
   43   19   41 1     
   44   19   42 1     
   45   20   21 1     
   46   20   43 1     
   47   20   44 1     
   48    3   46 1     
   49    3   47 1     
   50   21   48 1     
   51   21   49 1     
@<TRIPOS>SUBSTRUCTURE
      1 S1             1
@<TRIPOS>SET
LONE_PAIRS      STATIC     ATOMS    <user>   **** ""
4 46 47 48 49
DONOR_HYDROGENS      STATIC     ATOMS    <user>   **** ""
3 26 29 45
ATOM$BLUE        STATIC     ATOMS    COLORGROUP SYSTEM
4 46 47 48 49
ATOM$RED        STATIC     ATOMS    COLORGROUP SYSTEM
3 26 29 45
