#       Name:                AV-unprocessed.smi:2508
#       Creating user name   scv26
#       Creation time:       Fri Mar 27 13:49:31 2020


#       File generated by GOLD software.
#

@<TRIPOS>MOLECULE
AV-unprocessed.smi:2508
    50    51     1
SMALL
NO_CHARGES


@<TRIPOS>ATOM
      1 ****        -5.7693   3.5654   0.4492 C.3            1 S1                 0.0000
      2 ****        -5.1009   2.2759   0.2540 N.am           1 S1                 0.0000
      3 ****        -3.6925   2.2635   0.2260 C.2            1 S1                 0.0000
      4 ****        -2.9841   1.1260   0.0499 C.2            1 S1                 0.0000
      5 ****        -1.5845   1.0311   0.0150 N.am           1 S1                 0.0000
      6 ****        -0.6521   2.0062   0.0682 C.2            1 S1                 0.0000
      7 ****        -0.8832   3.2110   0.1395 O.2            1 S1                 0.0000
      8 ****         0.6117   1.5500   0.0249 N.am           1 S1                 0.0000
      9 ****         1.8470   2.3353   0.0625 C.3            1 S1                 0.0000
     10 ****         3.1220   1.4492  -0.0304 C.3            1 S1                 0.0000
     11 ****         3.1446   0.4483   1.1476 C.3            1 S1                 0.0000
     12 ****         3.0958   0.6331  -1.3433 C.3            1 S1                 0.0000
     13 ****         4.4378   2.2915   0.0059 C.3            1 S1                 0.0000
     14 ****         4.6881   3.1414   1.2609 C.3            1 S1                 0.0000
     15 ****         5.8342   4.0821   0.8748 C.3            1 S1                 0.0000
     16 ****         5.7946   4.2045  -0.6559 C.3            1 S1                 0.0000
     17 ****         4.6531   3.2995  -1.1339 C.3            1 S1                 0.0000
     18 ****        -3.7416  -0.0977  -0.1061 C.2            1 S1                 0.0000
     19 ****        -5.0886  -0.0945  -0.0805 C.2            1 S1                 0.0000
     20 ****        -5.8479   1.1436   0.1073 C.2            1 S1                 0.0000
     21 ****        -7.0788   1.1623   0.1318 O.2            1 S1                 0.0000
     22 ****        -5.0693   4.3928   0.5696 H              1 S1                 0.0000
     23 ****        -6.3970   3.5406   1.3412 H              1 S1                 0.0000
     24 ****        -6.4044   3.7997  -0.4064 H              1 S1                 0.0000
     25 ****        -3.2533   3.2382   0.3620 H              1 S1                 0.0000
     26 ****        -1.2296   0.0892  -0.0641 H              1 S1                 0.0000
     27 ****         0.7290   0.5503  -0.0554 H              1 S1                 0.0000
     28 ****         1.8163   3.0495  -0.7601 H              1 S1                 0.0000
     29 ****         1.8486   2.9115   0.9874 H              1 S1                 0.0000
     30 ****         4.0566  -0.1497   1.1443 H              1 S1                 0.0000
     31 ****         2.3072  -0.2489   1.1064 H              1 S1                 0.0000
     32 ****         3.0900   0.9588   2.1093 H              1 S1                 0.0000
     33 ****         4.0075   0.0473  -1.4646 H              1 S1                 0.0000
     34 ****         3.0023   1.2797  -2.2162 H              1 S1                 0.0000
     35 ****         2.2609  -0.0675  -1.3720 H              1 S1                 0.0000
     36 ****         5.2700   1.5869  -0.0531 H              1 S1                 0.0000
     37 ****         3.8141   3.7423   1.5087 H              1 S1                 0.0000
     38 ****         4.9341   2.5394   2.1361 H              1 S1                 0.0000
     39 ****         5.7382   5.0511   1.3657 H              1 S1                 0.0000
     40 ****         6.7887   3.6541   1.1833 H              1 S1                 0.0000
     41 ****         5.6425   5.2353  -0.9775 H              1 S1                 0.0000
     42 ****         6.7434   3.8693  -1.0771 H              1 S1                 0.0000
     43 ****         4.8893   2.8170  -2.0826 H              1 S1                 0.0000
     44 ****         3.7659   3.9115  -1.2894 H              1 S1                 0.0000
     45 ****        -3.2215  -1.0342  -0.2468 H              1 S1                 0.0000
     46 ****        -5.6227  -1.0255  -0.2008 H              1 S1                 0.0000
     47 ****        -1.8278   3.5384   0.1625 LP             1 S1                 0.0000
     48 ****        -0.1267   3.8640   0.1746 LP             1 S1                 0.0000
     49 ****        -7.5632   2.0273   0.2626 LP             1 S1                 0.0000
     50 ****        -7.5941   0.3124   0.0209 LP             1 S1                 0.0000
@<TRIPOS>BOND
    1    1    2 1     
    2    1   22 1     
    3    1   23 1     
    4    1   24 1     
    5    2   20 am    
    6    2    3 1     
    7    3    4 2     
    8    3   25 1     
    9    4    5 1     
   10    4   18 1     
   11    5    6 am    
   12    5   26 1     
   13    6    7 2     
   14    6    8 am    
   15    8    9 1     
   16    8   27 1     
   17    9   10 1     
   18    9   28 1     
   19    9   29 1     
   20   10   11 1     
   21   10   12 1     
   22   10   13 1     
   23   11   30 1     
   24   11   31 1     
   25   11   32 1     
   26   12   33 1     
   27   12   34 1     
   28   12   35 1     
   29   13   17 1     
   30   13   14 1     
   31   13   36 1     
   32   14   15 1     
   33   14   37 1     
   34   14   38 1     
   35   15   16 1     
   36   15   39 1     
   37   15   40 1     
   38   16   17 1     
   39   16   41 1     
   40   16   42 1     
   41   17   43 1     
   42   17   44 1     
   43   18   19 2     
   44   18   45 1     
   45   19   20 1     
   46   19   46 1     
   47   20   21 2     
   48    7   47 1     
   49    7   48 1     
   50   21   49 1     
   51   21   50 1     
@<TRIPOS>SUBSTRUCTURE
      1 S1             1
@<TRIPOS>SET
LONE_PAIRS      STATIC     ATOMS    <user>   **** ""
4 47 48 49 50
DONOR_HYDROGENS      STATIC     ATOMS    <user>   **** ""
2 26 27
ATOM$BLUE        STATIC     ATOMS    COLORGROUP SYSTEM
4 47 48 49 50
ATOM$RED        STATIC     ATOMS    COLORGROUP SYSTEM
2 26 27
