AV-unprocessed.smi:1644|AV-procd|sdf|6586|dock8
  -GOLD-   22720 7283D 1   1.00000     0.00000
 Structure written by MMmdl.
 49 51  0  0  0  0  0  0  0  0  1 V2000
  144.4370  145.2461  158.2749 C   0  0  0  0  0  0  0  0  0  0  0  0
  143.8746  143.9278  157.7330 C   0  0  0  0  0  0  0  0  0  0  0  0
  144.8782  142.7641  157.8628 C   0  0  0  0  0  0  0  0  0  0  0  0
  146.2046  142.9305  157.0871 C   0  0  2  0  0  0  0  0  0  0  0  0
  146.0228  143.0277  155.6538 N   0  0  0  0  0  0  0  0  0  0  0  0
  146.7099  142.0927  154.9850 C   0  0  0  0  0  0  0  0  0  0  0  0
  146.7194  141.9663  153.7616 O   0  0  0  0  0  0  0  0  0  0  0  0
  147.3804  141.3358  155.8746 N   0  0  0  0  0  0  0  0  0  0  0  0
  148.2528  140.2083  155.5147 C   0  0  0  0  0  0  0  0  0  0  0  0
  149.6051  140.6237  154.8788 C   0  0  1  0  0  0  0  0  0  0  0  0
  149.3403  141.0774  153.5680 O   0  0  0  0  0  0  0  0  0  0  0  0
  150.3923  141.7406  155.6033 C   0  0  0  0  0  0  0  0  0  0  0  0
  151.2703  141.2673  156.6594 N   0  0  0  0  0  0  0  0  0  0  0  0
  151.9846  140.1248  156.6583 C   0  0  0  0  0  0  0  0  0  0  0  0
  152.7443  139.8794  157.7216 N   0  0  0  0  0  0  0  0  0  0  0  0
  152.4754  140.9799  158.5157 C   0  0  0  0  0  0  0  0  0  0  0  0
  152.9815  141.3371  159.7842 C   0  0  0  0  0  0  0  0  0  0  0  0
  152.5653  142.5271  160.4215 C   0  0  0  0  0  0  0  0  0  0  0  0
  153.1453  142.8795  161.7799 C   0  0  0  0  0  0  0  0  0  0  0  0
  151.6184  143.3748  159.7936 C   0  0  0  0  0  0  0  0  0  0  0  0
  151.1562  144.6594  160.4579 C   0  0  0  0  0  0  0  0  0  0  0  0
  151.0994  143.0306  158.5284 C   0  0  0  0  0  0  0  0  0  0  0  0
  151.5370  141.8547  157.8932 C   0  0  0  0  0  0  0  0  0  0  0  0
  147.1155  141.7181  157.1324 C   0  0  0  0  0  0  0  0  0  0  0  0
  147.5228  141.2023  158.1730 O   0  0  0  0  0  0  0  0  0  0  0  0
  143.7093  146.0511  158.1705 H   0  0  0  0  0  0  0  0  0  0  0  0
  145.3388  145.5405  157.7372 H   0  0  0  0  0  0  0  0  0  0  0  0
  144.6892  145.1609  159.3322 H   0  0  0  0  0  0  0  0  0  0  0  0
  142.9536  143.6929  158.2672 H   0  0  0  0  0  0  0  0  0  0  0  0
  143.5983  144.0659  156.6873 H   0  0  0  0  0  0  0  0  0  0  0  0
  145.1140  142.6223  158.9181 H   0  0  0  0  0  0  0  0  0  0  0  0
  144.3975  141.8383  157.5434 H   0  0  0  0  0  0  0  0  0  0  0  0
  146.7515  143.8046  157.4431 H   0  0  0  0  0  0  0  0  0  0  0  0
  145.4409  143.7294  155.2196 H   0  0  0  0  0  0  0  0  0  0  0  0
  148.4424  139.6555  156.4367 H   0  0  0  0  0  0  0  0  0  0  0  0
  147.7421  139.5032  154.8571 H   0  0  0  0  0  0  0  0  0  0  0  0
  150.2432  139.7501  154.7602 H   0  0  0  0  0  0  0  0  0  0  0  0
  149.2948  140.3275  152.9945 H   0  0  0  0  0  0  0  0  0  0  0  0
  151.0042  142.2892  154.8861 H   0  0  0  0  0  0  0  0  0  0  0  0
  149.6968  142.4637  156.0326 H   0  0  0  0  0  0  0  0  0  0  0  0
  151.9640  139.4453  155.8189 H   0  0  0  0  0  0  0  0  0  0  0  0
  153.6991  140.6879  160.2640 H   0  0  0  0  0  0  0  0  0  0  0  0
  152.3550  142.9408  162.5283 H   0  0  0  0  0  0  0  0  0  0  0  0
  153.6587  143.8403  161.7379 H   0  0  0  0  0  0  0  0  0  0  0  0
  153.8641  142.1305  162.1133 H   0  0  0  0  0  0  0  0  0  0  0  0
  150.4136  145.1766  159.8496 H   0  0  0  0  0  0  0  0  0  0  0  0
  151.9980  145.3362  160.6052 H   0  0  0  0  0  0  0  0  0  0  0  0
  150.7055  144.4485  161.4278 H   0  0  0  0  0  0  0  0  0  0  0  0
  150.3815  143.6729  158.0412 H   0  0  0  0  0  0  0  0  0  0  0  0
  1  2  1  0  0  0  0
  1 26  1  0  0  0  0
  1 27  1  0  0  0  0
  1 28  1  0  0  0  0
  2  3  1  0  0  0  0
  2 29  1  0  0  0  0
  2 30  1  0  0  0  0
  3  4  1  0  0  0  0
  3 31  1  0  0  0  0
  3 32  1  0  0  0  0
  4 24  1  0  0  0  0
  4  5  1  0  0  0  0
  4 33  1  0  0  0  0
  5  6  1  0  0  0  0
  5 34  1  0  0  0  0
  6  7  2  0  0  0  0
  6  8  1  0  0  0  0
  8  9  1  0  0  0  0
  8 24  1  0  0  0  0
  9 10  1  0  0  0  0
  9 35  1  0  0  0  0
  9 36  1  0  0  0  0
 10 11  1  0  0  0  0
 10 12  1  0  0  0  0
 10 37  1  0  0  0  0
 11 38  1  0  0  0  0
 12 13  1  0  0  0  0
 12 39  1  0  0  0  0
 12 40  1  0  0  0  0
 13 23  1  0  0  0  0
 13 14  1  0  0  0  0
 14 15  2  0  0  0  0
 14 41  1  0  0  0  0
 15 16  1  0  0  0  0
 16 23  2  0  0  0  0
 16 17  1  0  0  0  0
 17 18  2  0  0  0  0
 17 42  1  0  0  0  0
 18 19  1  0  0  0  0
 18 20  1  0  0  0  0
 19 43  1  0  0  0  0
 19 44  1  0  0  0  0
 19 45  1  0  0  0  0
 20 21  1  0  0  0  0
 20 22  2  0  0  0  0
 21 46  1  0  0  0  0
 21 47  1  0  0  0  0
 21 48  1  0  0  0  0
 22 23  1  0  0  0  0
 22 49  1  0  0  0  0
 24 25  2  0  0  0  0
M  END
> <s_m_source_file>
AV-unprocessed.smi

> <i_m_source_file_index>
1644

> <i_lp_mmshare_version>
43012

> <i_f3d_flags>
0

> <s_epik_input>
W0NIM11bQ0gyXVtDSDJdW0NAQEhdMVtOSF1DKD1PKU4oQzE9TylbQ0gyXVtDQEhdKFtPSF0pW0NIMl1uKFtjSF1uMiljKGMyMylbY0hdYyhbQ0gzXSljKFtjSF0zKVtDSDNd

> <s_epik_cmdline>
J2VwaWtfcHl0aG9uJywgJy1waCcsICc3LjAnLCAnLXRuJywgJzgnLCAnLW1hJywgJzIwMCcsICctbWV0YWxfYmluZGluZycsICctaW1hZScsICc8aW5maWxlLm1hZT4nLCAnLW9tYWUnLCAnPG91dGZpbGUubWFlPic=

> <r_lp_tautomer_probability>
1

> <r_epik_Ionization_Penalty>
0.10693

> <r_epik_Ionization_Penalty_Charging>
0

> <r_epik_Ionization_Penalty_Neutral>
0.10693

> <r_epik_State_Penalty>
0.096713

> <r_epik_Charging_Adjusted_Penalty>
0.096713

> <i_epik_Tot_Q>
0

> <i_epik_Tot_abs_Q>
0

> <r_epik_Metal_State_Penalty>
0.102757

> <b_epik_Metal_Only>
0

> <s_lp_Force_Field>
OPLS_2005

> <r_lp_Energy>
20.4665

> <b_lp_Chiralities_Consistent>
1

> <s_lp_Variant>
AV-unprocessed.smi:1644-3

> <Gold.Version>
5.8.1

> <Gold.Id.Protein>
6NUR|6NUR_protein|mol2

> <Gold.PLP.Fitness>
51.6000

> <Gold.PLP.PLP>
-45.1600

> <Gold.PLP.part.hbond>
-5.0837

> <Gold.PLP.part.metal>
0.0000

> <Gold.PLP.part.buried>
-6.3476

> <Gold.PLP.part.nonpolar>
-32.6202

> <Gold.PLP.part.repulsive>
0.2621

> <Gold.PLP.ligand.clash>
0.0000

> <Gold.PLP.ligand.torsion>
0.8615

> <Gold.PLP.Chemscore.Hbond>
2.6663

> <Gold.PLP.Chemscore.CHOScore>
0.0000

> <Gold.PLP.Chemscore.Metal>
0.0000

> <Gold.Chemscore.Hbonds>
donor molecule, donor type, donor heavy atom, donor atom, acceptor molecule, acceptor atom, score
      L1  H    11    38       P1  7957  0.69
      P1  H  7997  8010       L1    15  0.96
      P1  H  8011  8017       L1    11  1.00

> <Gold.PLP.Chemscore.Internal.Correction>
0.1639

> <Gold.Rescore>
     Score         DG    S(hbond)    S(metal)    S(lipo)     H(rot)  DE(clash)    DE(int)     intcor
     15.03     -15.98       1.63        0.00     102.74       2.72       0.11       0.84       ----

> <Gold.Chemscore.Fitness>
15.0319

> <Gold.Chemscore.DG>
-15.9825

> <Gold.Chemscore.ZeroCoef>
-5.4800

> <Gold.Chemscore.Hbond>
1.6313

> <Gold.Chemscore.Metal>
0.0000

> <Gold.Chemscore.Lipo>
102.7361

> <Gold.Chemscore.Internal_Hbond>
0.0000

> <Gold.Chemscore.DEClash>
0.1115

> <Gold.Chemscore.DEInternal>
0.8391

> <Gold.Chemscore.Rot>
2.7212

> <Gold.Chemscore.Internal.Correction>
   9.000000E+99

> <Gold.Chemscore.Hbonds>
donor molecule, donor type, donor heavy atom, donor atom, acceptor molecule, acceptor atom, score
      L1  H    11    38       P1  7957  0.68
      P1  H  7997  8010       L1    15  0.26
      P1  H  8011  8017       L1    11  0.25

> <Gold.Chemscore.Hbond.Weighted>
-5.4487

> <Gold.Chemscore.Metal.Weighted>
-0.0000

> <Gold.Chemscore.Lipo.Weighted>
-12.0201

> <Gold.Chemscore.Internal_Hbond.Weighted>
0.0000

> <Gold.Chemscore.DEClash.Weighted>
0.1115

> <Gold.Chemscore.DEInternal.Weighted>
0.8391

> <Gold.Chemscore.Rot.Weighted>
6.9663

> <Gold.Chemscore.Internal.Correction.Weighted>
   9.000000E+99

> <Gold.Protein.RotatedTorsions>
[ 6907 6896 6895 6894 ] final   31.04 input  -60.11 | X-H torsion
[ 7974 7965 7964 7962 ] final  154.73 input  175.53 | X-H torsion
[ 8008 7997 7996 7995 ] final   31.65 input   59.86 | X-H torsion
[ 10167 10162 10161 10158 ] final  -50.23 input  -65.29 | X-H torsion
[ 10718 10713 10712 10709 ] final  169.43 input   66.30 | X-H torsion
[ 10763 10752 10751 10750 ] final -126.22 input  -60.55 | X-H torsion
[ 11005 11000 10999 10996 ] final -138.88 input  -57.11 | X-H torsion

> <Gold.Protein.ActiveResidues>
 VAL166  LYS551  ARG553  GLY616  TRP617  ASP618  TYR619  PRO620  LYS621  CYS622 
 ASP623  PHE694  ASN695  SER759  ASP760  ASP761  ALA762  ILE779  LEU786  VAL792 
 PHE793  MET794  SER795  GLU796  ALA797  LYS798  CYS799  TRP800  GLU811  SER814 

> <Gold.Protein.RotatedAtoms>
  152.0546  134.9633  160.0574 H   0  0  0  0  0  0  0  0  0  0  0  0  # atno 6907 bound_to 6896
  152.1020  133.4250  159.4600 H   0  0  0  0  0  0  0  0  0  0  0  0  # atno 6908 bound_to 6896
  150.6840  134.2668  159.4615 H   0  0  0  0  0  0  0  0  0  0  0  0  # atno 6909 bound_to 6896
  144.8069  139.6973  143.6158 H   0  0  0  0  0  0  0  0  0  0  0  0  # atno 7974 bound_to 7965
  155.1098  140.3238  155.4525 H   0  0  0  0  0  0  0  0  0  0  0  0  # atno 8008 bound_to 7997
  156.2694  140.2046  156.6170 H   0  0  0  0  0  0  0  0  0  0  0  0  # atno 8009 bound_to 7997
  154.6765  140.0531  157.0208 H   0  0  0  0  0  0  0  0  0  0  0  0  # atno 8010 bound_to 7997
  140.6648  143.2666  151.4329 H   0  0  0  0  0  0  0  0  0  0  0  0  # atno 10167 bound_to 10162
  157.0228  131.0237  151.2769 H   0  0  0  0  0  0  0  0  0  0  0  0  # atno 10718 bound_to 10713
  154.8743  135.4003  154.3396 H   0  0  0  0  0  0  0  0  0  0  0  0  # atno 10763 bound_to 10752
  153.4197  135.7023  153.6308 H   0  0  0  0  0  0  0  0  0  0  0  0  # atno 10764 bound_to 10752
  153.4975  135.3735  155.2493 H   0  0  0  0  0  0  0  0  0  0  0  0  # atno 10765 bound_to 10752
  140.8573  134.2212  157.4727 H   0  0  0  0  0  0  0  0  0  0  0  0  # atno 11005 bound_to 11000
  146.2362  139.5911  142.9522 LP  0  0  0  0  0  0  0  0  0  0  0  0  # atno 17320 bound_to 7965
  145.5415  141.0420  143.2328 LP  0  0  0  0  0  0  0  0  0  0  0  0  # atno 17321 bound_to 7965
  139.5892  144.1535  152.2068 LP  0  0  0  0  0  0  0  0  0  0  0  0  # atno 17342 bound_to 10162
  140.0885  144.5641  150.7071 LP  0  0  0  0  0  0  0  0  0  0  0  0  # atno 17343 bound_to 10162
  157.5237  130.8014  149.7838 LP  0  0  0  0  0  0  0  0  0  0  0  0  # atno 17370 bound_to 10713
  156.0096  130.3839  150.2309 LP  0  0  0  0  0  0  0  0  0  0  0  0  # atno 17371 bound_to 10713
  139.8705  134.9713  156.4731 LP  0  0  0  0  0  0  0  0  0  0  0  0  # atno 17394 bound_to 11000
  140.8722  133.7980  155.9377 LP  0  0  0  0  0  0  0  0  0  0  0  0  # atno 17395 bound_to 11000

$$$$
