AV-unprocessed.smi:2684|AV-procd|sdf|10378|dock6
  -GOLD-   2272014403D 1   1.00000     0.00000
 Structure written by MMmdl.
 45 46  0  0  0  0  0  0  0  0  2 V2000
  143.9714  132.1554  148.6232 C   0  0  0  0  0  0  0  0  0  0  0  0
  144.5834  132.7232  149.8711 C   0  0  0  0  0  0  0  0  0  0  0  0
  145.8320  132.3847  150.4662 C   0  0  0  0  0  0  0  0  0  0  0  0
  146.0864  133.0850  151.5598 N   0  0  0  0  0  0  0  0  0  0  0  0
  145.0147  133.8935  151.7000 N   0  0  0  0  0  0  0  0  0  0  0  0
  144.9600  134.8361  152.8032 C   0  0  0  0  0  0  0  0  0  0  0  0
  145.2455  136.2954  152.3780 C   0  0  2  0  0  0  0  0  0  0  0  0
  145.4363  136.3847  150.8580 C   0  0  0  0  0  0  0  0  0  0  0  0
  146.4506  136.8300  153.0539 N   0  3  0  0  0  0  0  0  0  0  0  0
  146.6336  138.2938  152.9497 C   0  0  0  0  0  0  0  0  0  0  0  0
  147.7190  138.7986  153.9100 C   0  0  0  0  0  0  0  0  0  0  0  0
  147.4728  139.7539  154.6439 O   0  0  0  0  0  0  0  0  0  0  0  0
  148.9160  138.1857  153.9609 N   0  0  0  0  0  0  0  0  0  0  0  0
  150.0696  138.5105  154.7992 C   0  0  0  0  0  0  0  0  0  0  0  0
  150.2017  140.0271  155.0273 C   0  0  0  0  0  0  0  0  0  0  0  0
  151.4976  140.3451  155.7906 C   0  0  0  0  0  0  0  0  0  0  0  0
  152.6194  139.8322  155.0805 O   0  0  0  0  0  0  0  0  0  0  0  0
  152.5913  138.4154  154.9459 C   0  0  0  0  0  0  0  0  0  0  0  0
  151.3541  137.9886  154.1385 C   0  0  0  0  0  0  0  0  0  0  0  0
  144.0866  133.6879  150.7007 C   0  0  0  0  0  0  0  0  0  0  0  0
  144.6032  131.3891  148.1741 H   0  0  0  0  0  0  0  0  0  0  0  0
  143.8148  132.9251  147.8671 H   0  0  0  0  0  0  0  0  0  0  0  0
  143.0023  131.6975  148.8222 H   0  0  0  0  0  0  0  0  0  0  0  0
  146.5596  131.6593  150.1330 H   0  0  0  0  0  0  0  0  0  0  0  0
  143.9786  134.7625  153.2740 H   0  0  0  0  0  0  0  0  0  0  0  0
  145.6855  134.5156  153.5524 H   0  0  0  0  0  0  0  0  0  0  0  0
  144.3883  136.9220  152.6311 H   0  0  0  0  0  0  0  0  0  0  0  0
  144.5509  136.0297  150.3297 H   0  0  0  0  0  0  0  0  0  0  0  0
  146.2840  135.7839  150.5262 H   0  0  0  0  0  0  0  0  0  0  0  0
  145.6137  137.4137  150.5435 H   0  0  0  0  0  0  0  0  0  0  0  0
  146.4155  136.5691  154.0289 H   0  0  0  0  0  0  0  0  0  0  0  0
  146.9251  138.5424  151.9289 H   0  0  0  0  0  0  0  0  0  0  0  0
  145.6850  138.7878  153.1316 H   0  0  0  0  0  0  0  0  0  0  0  0
  149.0309  137.3807  153.3614 H   0  0  0  0  0  0  0  0  0  0  0  0
  149.9756  138.0043  155.7591 H   0  0  0  0  0  0  0  0  0  0  0  0
  150.2117  140.5473  154.0685 H   0  0  0  0  0  0  0  0  0  0  0  0
  149.3477  140.4147  155.5822 H   0  0  0  0  0  0  0  0  0  0  0  0
  151.6131  141.4236  155.8993 H   0  0  0  0  0  0  0  0  0  0  0  0
  151.4682  139.9255  156.7976 H   0  0  0  0  0  0  0  0  0  0  0  0
  153.4999  138.0922  154.4375 H   0  0  0  0  0  0  0  0  0  0  0  0
  152.5951  137.9468  155.9310 H   0  0  0  0  0  0  0  0  0  0  0  0
  151.3224  136.9017  154.0552 H   0  0  0  0  0  0  0  0  0  0  0  0
  151.4369  138.3786  153.1228 H   0  0  0  0  0  0  0  0  0  0  0  0
  143.1643  134.2483  150.6546 H   0  0  0  0  0  0  0  0  0  0  0  0
  147.2658  136.3995  152.6409 H   0  0  0  0  0  0  0  0  0  0  0  0
  1  2  1  0  0  0  0
  1 21  1  0  0  0  0
  1 22  1  0  0  0  0
  1 23  1  0  0  0  0
  2 20  2  0  0  0  0
  2  3  1  0  0  0  0
  3  4  2  0  0  0  0
  3 24  1  0  0  0  0
  4  5  1  0  0  0  0
  5  6  1  0  0  0  0
  5 20  1  0  0  0  0
  6  7  1  0  0  0  0
  6 25  1  0  0  0  0
  6 26  1  0  0  0  0
  7  8  1  0  0  0  0
  7  9  1  0  0  0  0
  7 27  1  0  0  0  0
  8 28  1  0  0  0  0
  8 29  1  0  0  0  0
  8 30  1  0  0  0  0
  9 10  1  0  0  0  0
  9 31  1  0  0  0  0
  9 45  1  0  0  0  0
 10 11  1  0  0  0  0
 10 32  1  0  0  0  0
 10 33  1  0  0  0  0
 11 12  2  0  0  0  0
 11 13  1  0  0  0  0
 13 14  1  0  0  0  0
 13 34  1  0  0  0  0
 14 19  1  0  0  0  0
 14 15  1  0  0  0  0
 14 35  1  0  0  0  0
 15 16  1  0  0  0  0
 15 36  1  0  0  0  0
 15 37  1  0  0  0  0
 16 17  1  0  0  0  0
 16 38  1  0  0  0  0
 16 39  1  0  0  0  0
 17 18  1  0  0  0  0
 18 19  1  0  0  0  0
 18 40  1  0  0  0  0
 18 41  1  0  0  0  0
 19 42  1  0  0  0  0
 19 43  1  0  0  0  0
 20 44  1  0  0  0  0
M  CHG  1   9   1
M  END
> <s_m_source_file>
AV-unprocessed.smi

> <i_m_source_file_index>
2684

> <i_lp_mmshare_version>
43012

> <i_f3d_flags>
0

> <s_epik_input>
W0NIM11jMVtjSF1ubihbY0hdMSlbQ0gyXVtDQEhdKFtDSDNdKVtOSF1bQ0gyXUMoPU8pW05IXVtDSF0yW0NIMl1bQ0gyXU9bQ0gyXVtDSDJdMg==

> <s_epik_cmdline>
J2VwaWtfcHl0aG9uJywgJy1waCcsICc3LjAnLCAnLXRuJywgJzgnLCAnLW1hJywgJzIwMCcsICctbWV0YWxfYmluZGluZycsICctaW1hZScsICc8aW5maWxlLm1hZT4nLCAnLW9tYWUnLCAnPG91dGZpbGUubWFlPic=

> <r_lp_tautomer_probability>
1

> <r_epik_Ionization_Penalty>
0.128576

> <r_epik_Ionization_Penalty_Charging>
0.128567

> <r_epik_Ionization_Penalty_Neutral>
8.60003e-06

> <r_epik_State_Penalty>
0.117991

> <r_epik_Charging_Adjusted_Penalty>
0.246558

> <i_epik_Tot_Q>
1

> <i_epik_Tot_abs_Q>
1

> <r_epik_Metal_State_Penalty>
0.118015

> <b_epik_Metal_Only>
0

> <s_lp_Force_Field>
OPLS_2005

> <r_lp_Energy>
10.3737

> <b_lp_Chiralities_Consistent>
1

> <s_lp_Variant>
AV-unprocessed.smi:2684-1

> <Gold.Version>
5.8.1

> <Gold.Id.Protein>
6NUR|6NUR_protein|mol2

> <Gold.PLP.Fitness>
52.0343

> <Gold.PLP.PLP>
-36.7442

> <Gold.PLP.part.hbond>
-4.0000

> <Gold.PLP.part.metal>
0.0000

> <Gold.PLP.part.buried>
0.6001

> <Gold.PLP.part.nonpolar>
-33.7072

> <Gold.PLP.part.repulsive>
0.3001

> <Gold.PLP.ligand.clash>
0.0000

> <Gold.PLP.ligand.torsion>
1.5056

> <Gold.PLP.Chemscore.Hbond>
4.0751

> <Gold.PLP.Chemscore.CHOScore>
2.0000

> <Gold.PLP.Chemscore.Metal>
0.0000

> <Gold.Chemscore.Hbonds>
donor molecule, donor type, donor heavy atom, donor atom, acceptor molecule, acceptor atom, score
      L1  H     9    45       P1  7948  2.00
      L1  H    13    34       P1  7948  1.00
      P1  H  7989  7998       L1    17  0.02
      P1  H  7997  8008       L1    17  1.00
      L1  C     3    24       P1 10747  0.98
      L1  C    20    44       P1 10186  1.00

> <Gold.PLP.Chemscore.Internal.Correction>
0.0761

> <Gold.Rescore>
     Score         DG    S(hbond)    S(metal)    S(lipo)     H(rot)  DE(clash)    DE(int)     intcor
     17.77     -21.25       2.81        0.00      99.25       2.04       0.37       3.11       ----

> <Gold.Chemscore.Fitness>
17.7701

> <Gold.Chemscore.DG>
-21.2539

> <Gold.Chemscore.ZeroCoef>
-5.4800

> <Gold.Chemscore.Hbond>
2.8125

> <Gold.Chemscore.Metal>
0.0000

> <Gold.Chemscore.Lipo>
99.2484

> <Gold.Chemscore.Internal_Hbond>
0.0000

> <Gold.Chemscore.DEClash>
0.3731

> <Gold.Chemscore.DEInternal>
3.1107

> <Gold.Chemscore.Rot>
2.0437

> <Gold.Chemscore.Internal.Correction>
   9.000000E+99

> <Gold.Chemscore.Hbonds>
donor molecule, donor type, donor heavy atom, donor atom, acceptor molecule, acceptor atom, score
      L1  H     9    45       P1  7948  1.00
      L1  H    13    34       P1  7948  1.00
      P1  H  7997  8008       L1    17  0.38

> <Gold.Chemscore.Hbond.Weighted>
-9.3937

> <Gold.Chemscore.Metal.Weighted>
-0.0000

> <Gold.Chemscore.Lipo.Weighted>
-11.6121

> <Gold.Chemscore.Internal_Hbond.Weighted>
0.0000

> <Gold.Chemscore.DEClash.Weighted>
0.3731

> <Gold.Chemscore.DEInternal.Weighted>
3.1107

> <Gold.Chemscore.Rot.Weighted>
5.2318

> <Gold.Chemscore.Internal.Correction.Weighted>
   9.000000E+99

> <Gold.Protein.RotatedTorsions>
[ 6907 6896 6895 6894 ] final  -44.15 input  -60.11 | X-H torsion
[ 7974 7965 7964 7962 ] final  -38.69 input  175.53 | X-H torsion
[ 8008 7997 7996 7995 ] final  -20.95 input   59.86 | X-H torsion
[ 10167 10162 10161 10158 ] final -111.73 input  -65.29 | X-H torsion
[ 10718 10713 10712 10709 ] final  115.50 input   66.30 | X-H torsion
[ 10763 10752 10751 10750 ] final  -76.59 input  -60.55 | X-H torsion
[ 11005 11000 10999 10996 ] final   53.36 input  -57.11 | X-H torsion

> <Gold.Protein.ActiveResidues>
 VAL166  LYS551  ARG553  GLY616  TRP617  ASP618  TYR619  PRO620  LYS621  CYS622 
 ASP623  PHE694  ASN695  SER759  ASP760  ASP761  ALA762  ILE779  LEU786  VAL792 
 PHE793  MET794  SER795  GLU796  ALA797  LYS798  CYS799  TRP800  GLU811  SER814 

> <Gold.Protein.RotatedAtoms>
  150.9360  134.8772  159.7581 H   0  0  0  0  0  0  0  0  0  0  0  0  # atno 6907 bound_to 6896
  152.5059  134.4010  159.9426 H   0  0  0  0  0  0  0  0  0  0  0  0  # atno 6908 bound_to 6896
  151.4034  133.3710  159.2770 H   0  0  0  0  0  0  0  0  0  0  0  0  # atno 6909 bound_to 6896
  146.0464  140.6540  142.9063 H   0  0  0  0  0  0  0  0  0  0  0  0  # atno 7974 bound_to 7965
  154.4736  140.2048  155.9933 H   0  0  0  0  0  0  0  0  0  0  0  0  # atno 8008 bound_to 7997
  156.1052  140.3237  155.7967 H   0  0  0  0  0  0  0  0  0  0  0  0  # atno 8009 bound_to 7997
  155.4729  140.0532  157.2968 H   0  0  0  0  0  0  0  0  0  0  0  0  # atno 8010 bound_to 7997
  140.1304  143.4365  152.1631 H   0  0  0  0  0  0  0  0  0  0  0  0  # atno 10167 bound_to 10162
  157.6218  131.1013  150.7339 H   0  0  0  0  0  0  0  0  0  0  0  0  # atno 10718 bound_to 10713
  154.5018  135.5792  153.6537 H   0  0  0  0  0  0  0  0  0  0  0  0  # atno 10763 bound_to 10752
  152.9880  135.6137  154.2992 H   0  0  0  0  0  0  0  0  0  0  0  0  # atno 10764 bound_to 10752
  154.2900  135.2849  155.2638 H   0  0  0  0  0  0  0  0  0  0  0  0  # atno 10765 bound_to 10752
  140.0773  134.5386  155.8983 H   0  0  0  0  0  0  0  0  0  0  0  0  # atno 11005 bound_to 11000
  144.7100  140.4001  143.7088 LP  0  0  0  0  0  0  0  0  0  0  0  0  # atno 17320 bound_to 7965
  145.6799  139.1616  143.2707 LP  0  0  0  0  0  0  0  0  0  0  0  0  # atno 17321 bound_to 7965
  139.5522  144.7346  151.4400 LP  0  0  0  0  0  0  0  0  0  0  0  0  # atno 17342 bound_to 10162
  140.6820  143.8060  150.7134 LP  0  0  0  0  0  0  0  0  0  0  0  0  # atno 17343 bound_to 10162
  156.7695  130.4824  149.5421 LP  0  0  0  0  0  0  0  0  0  0  0  0  # atno 17370 bound_to 10713
  156.1367  130.6216  151.0410 LP  0  0  0  0  0  0  0  0  0  0  0  0  # atno 17371 bound_to 10713
  141.2034  133.6632  156.6062 LP  0  0  0  0  0  0  0  0  0  0  0  0  # atno 17394 bound_to 11000
  140.3538  134.7745  157.4486 LP  0  0  0  0  0  0  0  0  0  0  0  0  # atno 17395 bound_to 11000

$$$$
