AV-unprocessed.smi:1396|AV-procd|sdf|5678|dock2
  -GOLD-   22720 5303D 1   1.00000     0.00000
 Structure written by MMmdl.
 46 47  0  0  0  0  0  0  0  0  3 V2000
  140.4814  141.9590  154.7081 C   0  0  0  0  0  0  0  0  0  0  0  0
  141.6468  141.3809  155.3664 N   0  5  0  0  0  0  0  0  0  0  0  0
  142.7594  142.0943  155.6872 C   0  0  0  0  0  0  0  0  0  0  0  0
  142.9581  143.3136  155.7054 O   0  0  0  0  0  0  0  0  0  0  0  0
  143.9236  141.1661  156.0527 C   0  0  0  0  0  0  0  0  0  0  0  0
  144.9747  141.2203  155.0057 N   0  3  2  0  0  0  0  0  0  0  0  0
  146.0993  140.2771  155.2532 C   0  0  0  0  0  0  0  0  0  0  0  0
  147.1006  140.2832  154.0850 C   0  0  0  0  0  0  0  0  0  0  0  0
  147.6348  141.6986  153.7890 C   0  0  2  0  0  0  0  0  0  0  0  0
  148.5213  142.1794  154.8485 N   0  0  0  0  0  0  0  0  0  0  0  0
  149.4686  141.4521  155.4579 C   0  0  0  0  0  0  0  0  0  0  0  0
  149.7032  140.2761  155.1820 O   0  0  0  0  0  0  0  0  0  0  0  0
  150.1239  142.1809  156.3776 N   0  0  0  0  0  0  0  0  0  0  0  0
  151.1455  141.7596  157.2709 C   0  0  0  0  0  0  0  0  0  0  0  0
  151.4465  142.5851  158.3730 C   0  0  0  0  0  0  0  0  0  0  0  0
  152.4356  142.1766  159.2876 C   0  0  0  0  0  0  0  0  0  0  0  0
  153.0881  140.9458  159.0768 C   0  0  0  0  0  0  0  0  0  0  0  0
  154.0536  140.5472  159.9783 O   0  0  0  0  0  0  0  0  0  0  0  0
  154.0775  141.1658  161.2600 C   0  0  0  0  0  0  0  0  0  0  0  0
  152.7976  140.1385  158.0269 N   0  0  0  0  0  0  0  0  0  0  0  0
  151.8504  140.5370  157.1515 C   0  0  0  0  0  0  0  0  0  0  0  0
  146.4526  142.6636  153.5979 C   0  0  0  0  0  0  0  0  0  0  0  0
  145.4617  142.6042  154.7749 C   0  0  0  0  0  0  0  0  0  0  0  0
  139.7357  141.2017  154.4668 H   0  0  0  0  0  0  0  0  0  0  0  0
  140.7349  142.4512  153.7688 H   0  0  0  0  0  0  0  0  0  0  0  0
  139.9793  142.7015  155.3286 H   0  0  0  0  0  0  0  0  0  0  0  0
  144.3256  141.5235  157.0020 H   0  0  0  0  0  0  0  0  0  0  0  0
  143.6064  140.1347  156.2228 H   0  0  0  0  0  0  0  0  0  0  0  0
  146.6024  140.5435  156.1840 H   0  0  0  0  0  0  0  0  0  0  0  0
  145.7212  139.2629  155.3829 H   0  0  0  0  0  0  0  0  0  0  0  0
  147.9218  139.5965  154.2932 H   0  0  0  0  0  0  0  0  0  0  0  0
  146.6061  139.8952  153.1934 H   0  0  0  0  0  0  0  0  0  0  0  0
  148.2055  141.6731  152.8589 H   0  0  0  0  0  0  0  0  0  0  0  0
  148.4070  143.1403  155.1364 H   0  0  0  0  0  0  0  0  0  0  0  0
  149.8873  143.1612  156.4217 H   0  0  0  0  0  0  0  0  0  0  0  0
  150.9299  143.5226  158.5181 H   0  0  0  0  0  0  0  0  0  0  0  0
  152.6871  142.7941  160.1374 H   0  0  0  0  0  0  0  0  0  0  0  0
  154.8929  140.7451  161.8482 H   0  0  0  0  0  0  0  0  0  0  0  0
  153.1499  140.9888  161.8065 H   0  0  0  0  0  0  0  0  0  0  0  0
  154.2474  142.2406  161.1810 H   0  0  0  0  0  0  0  0  0  0  0  0
  151.6481  139.8360  156.3569 H   0  0  0  0  0  0  0  0  0  0  0  0
  146.8145  143.6837  153.4632 H   0  0  0  0  0  0  0  0  0  0  0  0
  145.9262  142.4059  152.6777 H   0  0  0  0  0  0  0  0  0  0  0  0
  144.6168  143.2593  154.5599 H   0  0  0  0  0  0  0  0  0  0  0  0
  145.9293  142.9811  155.6858 H   0  0  0  0  0  0  0  0  0  0  0  0
  144.5261  140.9269  154.1494 H   0  0  0  0  0  0  0  0  0  0  0  0
  1  2  1  0  0  0  0
  1 24  1  0  0  0  0
  1 25  1  0  0  0  0
  1 26  1  0  0  0  0
  2  3  1  0  0  0  0
  3  4  2  0  0  0  0
  3  5  1  0  0  0  0
  5  6  1  0  0  0  0
  5 27  1  0  0  0  0
  5 28  1  0  0  0  0
  6 23  1  0  0  0  0
  6  7  1  0  0  0  0
  6 46  1  0  0  0  0
  7  8  1  0  0  0  0
  7 29  1  0  0  0  0
  7 30  1  0  0  0  0
  8  9  1  0  0  0  0
  8 31  1  0  0  0  0
  8 32  1  0  0  0  0
  9 10  1  0  0  0  0
  9 22  1  0  0  0  0
  9 33  1  0  0  0  0
 10 11  1  0  0  0  0
 10 34  1  0  0  0  0
 11 12  2  0  0  0  0
 11 13  1  0  0  0  0
 13 14  1  0  0  0  0
 13 35  1  0  0  0  0
 14 21  1  0  0  0  0
 14 15  2  0  0  0  0
 15 16  1  0  0  0  0
 15 36  1  0  0  0  0
 16 17  2  0  0  0  0
 16 37  1  0  0  0  0
 17 18  1  0  0  0  0
 17 20  1  0  0  0  0
 18 19  1  0  0  0  0
 19 38  1  0  0  0  0
 19 39  1  0  0  0  0
 19 40  1  0  0  0  0
 20 21  2  0  0  0  0
 21 41  1  0  0  0  0
 22 23  1  0  0  0  0
 22 42  1  0  0  0  0
 22 43  1  0  0  0  0
 23 44  1  0  0  0  0
 23 45  1  0  0  0  0
M  CHG  1   2  -1
M  CHG  1   6   1
M  END
> <s_m_source_file>
AV-unprocessed.smi

> <i_m_source_file_index>
1396

> <i_lp_mmshare_version>
43012

> <i_f3d_flags>
0

> <s_epik_input>
W0NIM11bTkhdQyg9TylbQ0gyXU4xW0NIMl1bQ0gyXVtDSF0oW0NIMl1bQ0gyXTEpW05IXUMoPU8pW05IXWMyW2NIXVtjSF1jKE9bQ0gzXSluW2NIXTI=

> <s_epik_cmdline>
J2VwaWtfcHl0aG9uJywgJy1waCcsICc3LjAnLCAnLXRuJywgJzgnLCAnLW1hJywgJzIwMCcsICctbWV0YWxfYmluZGluZycsICctaW1hZScsICc8aW5maWxlLm1hZT4nLCAnLW9tYWUnLCAnPG91dGZpbGUubWFlPic=

> <r_lp_tautomer_probability>
1

> <r_epik_Ionization_Penalty>
6.13954

> <r_epik_Ionization_Penalty_Charging>
6.13946

> <r_epik_Ionization_Penalty_Neutral>
7.8452e-05

> <r_epik_State_Penalty>
6.9595

> <r_epik_Charging_Adjusted_Penalty>
13.099

> <i_epik_Tot_Q>
0

> <i_epik_Tot_abs_Q>
2

> <r_epik_Metal_State_Penalty>
2.89145

> <b_epik_Metal_Only>
1

> <s_lp_Force_Field>
OPLS_2005

> <r_lp_Energy>
12.8202

> <b_lp_Chiralities_Consistent>
1

> <s_lp_Variant>
AV-unprocessed.smi:1396-5

> <Gold.Version>
5.8.1

> <Gold.Id.Protein>
6NUR|6NUR_protein|mol2

> <Gold.PLP.Fitness>
48.7528

> <Gold.PLP.PLP>
-35.0075

> <Gold.PLP.part.hbond>
-4.0000

> <Gold.PLP.part.metal>
0.0000

> <Gold.PLP.part.buried>
-7.4767

> <Gold.PLP.part.nonpolar>
-24.0029

> <Gold.PLP.part.repulsive>
0.6144

> <Gold.PLP.ligand.clash>
0.0000

> <Gold.PLP.ligand.torsion>
0.6369

> <Gold.PLP.Chemscore.Hbond>
4.9920

> <Gold.PLP.Chemscore.CHOScore>
0.0000

> <Gold.PLP.Chemscore.Metal>
0.0000

> <Gold.Chemscore.Hbonds>
donor molecule, donor type, donor heavy atom, donor atom, acceptor molecule, acceptor atom, score
      L1  H     6    46       P1 10175  2.00
      L1  H    10    34       P1  8028  1.00
      L1  H    13    35       P1  8028  0.99
      P1  H  7997  8009       L1    20  0.98

> <Gold.PLP.Chemscore.Internal.Correction>
0.0429

> <Gold.Rescore>
     Score         DG    S(hbond)    S(metal)    S(lipo)     H(rot)  DE(clash)    DE(int)     intcor
     15.48     -20.47       3.36        0.00      74.46       1.93       0.30       4.69       ----

> <Gold.Chemscore.Fitness>
15.4802

> <Gold.Chemscore.DG>
-20.4670

> <Gold.Chemscore.ZeroCoef>
-5.4800

> <Gold.Chemscore.Hbond>
3.3566

> <Gold.Chemscore.Metal>
0.0000

> <Gold.Chemscore.Lipo>
74.4647

> <Gold.Chemscore.Internal_Hbond>
0.0000

> <Gold.Chemscore.DEClash>
0.2975

> <Gold.Chemscore.DEInternal>
4.6892

> <Gold.Chemscore.Rot>
1.9283

> <Gold.Chemscore.Internal.Correction>
   9.000000E+99

> <Gold.Chemscore.Hbonds>
donor molecule, donor type, donor heavy atom, donor atom, acceptor molecule, acceptor atom, score
      L1  H     6    46       P1 10175  0.92
      L1  H    10    34       P1  8028  0.99
      L1  H    13    35       P1  8028  0.90
      P1  H  7997  8009       L1    20  0.16

> <Gold.Chemscore.Hbond.Weighted>
-11.2111

> <Gold.Chemscore.Metal.Weighted>
-0.0000

> <Gold.Chemscore.Lipo.Weighted>
-8.7124

> <Gold.Chemscore.Internal_Hbond.Weighted>
0.0000

> <Gold.Chemscore.DEClash.Weighted>
0.2975

> <Gold.Chemscore.DEInternal.Weighted>
4.6892

> <Gold.Chemscore.Rot.Weighted>
4.9365

> <Gold.Chemscore.Internal.Correction.Weighted>
   9.000000E+99

> <Gold.Protein.RotatedTorsions>
[ 6907 6896 6895 6894 ] final    3.38 input  -60.11 | X-H torsion
[ 7974 7965 7964 7962 ] final -120.48 input  175.53 | X-H torsion
[ 8008 7997 7996 7995 ] final  169.19 input   59.86 | X-H torsion
[ 10167 10162 10161 10158 ] final  174.00 input  -65.29 | X-H torsion
[ 10718 10713 10712 10709 ] final  110.65 input   66.30 | X-H torsion
[ 10763 10752 10751 10750 ] final   42.15 input  -60.55 | X-H torsion
[ 11005 11000 10999 10996 ] final -125.15 input  -57.11 | X-H torsion

> <Gold.Protein.ActiveResidues>
 VAL166  LYS551  ARG553  GLY616  TRP617  ASP618  TYR619  PRO620  LYS621  CYS622 
 ASP623  PHE694  ASN695  SER759  ASP760  ASP761  ALA762  ILE779  LEU786  VAL792 
 PHE793  MET794  SER795  GLU796  ALA797  LYS798  CYS799  TRP800  GLU811  SER814 

> <Gold.Protein.RotatedAtoms>
  151.6242  135.1029  160.0107 H   0  0  0  0  0  0  0  0  0  0  0  0  # atno 6907 bound_to 6896
  152.4141  133.7006  159.6432 H   0  0  0  0  0  0  0  0  0  0  0  0  # atno 6908 bound_to 6896
  150.8030  133.8488  159.3240 H   0  0  0  0  0  0  0  0  0  0  0  0  # atno 6909 bound_to 6896
  145.0509  140.8218  143.4209 H   0  0  0  0  0  0  0  0  0  0  0  0  # atno 7974 bound_to 7965
  156.1480  140.1571  156.8816 H   0  0  0  0  0  0  0  0  0  0  0  0  # atno 8008 bound_to 7997
  154.5045  140.0816  156.7904 H   0  0  0  0  0  0  0  0  0  0  0  0  # atno 8009 bound_to 7997
  155.3951  140.3412  155.4256 H   0  0  0  0  0  0  0  0  0  0  0  0  # atno 8010 bound_to 7997
  139.5127  144.3197  152.0214 H   0  0  0  0  0  0  0  0  0  0  0  0  # atno 10167 bound_to 10162
  157.6484  131.0936  150.6632 H   0  0  0  0  0  0  0  0  0  0  0  0  # atno 10718 bound_to 10713
  152.9890  135.6140  154.2903 H   0  0  0  0  0  0  0  0  0  0  0  0  # atno 10763 bound_to 10752
  154.2629  135.2782  155.2772 H   0  0  0  0  0  0  0  0  0  0  0  0  # atno 10764 bound_to 10752
  154.5190  135.5820  153.6722 H   0  0  0  0  0  0  0  0  0  0  0  0  # atno 10765 bound_to 10752
  140.9785  134.0707  157.3792 H   0  0  0  0  0  0  0  0  0  0  0  0  # atno 11005 bound_to 11000
  145.1528  139.2504  143.5432 LP  0  0  0  0  0  0  0  0  0  0  0  0  # atno 17320 bound_to 7965
  146.3518  140.1235  142.8599 LP  0  0  0  0  0  0  0  0  0  0  0  0  # atno 17321 bound_to 7965
  140.2639  144.4037  150.6175 LP  0  0  0  0  0  0  0  0  0  0  0  0  # atno 17342 bound_to 10162
  140.6137  143.2171  151.6835 LP  0  0  0  0  0  0  0  0  0  0  0  0  # atno 17343 bound_to 10162
  156.6946  130.4605  149.5590 LP  0  0  0  0  0  0  0  0  0  0  0  0  # atno 17370 bound_to 10713
  156.1837  130.6515  151.0982 LP  0  0  0  0  0  0  0  0  0  0  0  0  # atno 17371 bound_to 10713
  139.8940  135.0133  156.6929 LP  0  0  0  0  0  0  0  0  0  0  0  0  # atno 17394 bound_to 11000
  140.7223  133.9130  155.8155 LP  0  0  0  0  0  0  0  0  0  0  0  0  # atno 17395 bound_to 11000

$$$$
