AV-unprocessed.smi:3077|AV-procd|sdf|11729|dock10
  -GOLD-   2272017123D 1   1.00000     0.00000
 Structure written by MMmdl.
 28 29  0  0  0  0  0  0  0  0  2 V2000
  152.4640  138.5359  156.0568 C   0  0  0  0  0  0  0  0  0  0  0  0
  151.8929  138.9055  154.8071 C   0  0  0  0  0  0  0  0  0  0  0  0
  151.1227  139.9779  154.8957 N   0  0  0  0  0  0  0  0  0  0  0  0
  151.1821  140.3309  156.1979 N   0  0  0  0  0  0  0  0  0  0  0  0
  150.4298  141.4804  156.6672 C   0  0  0  0  0  0  0  0  0  0  0  0
  151.3127  142.5455  157.3494 C   0  0  2  0  0  0  0  0  0  0  0  0
  152.0214  142.0223  158.6202 C   0  0  0  0  0  0  0  0  0  0  0  0
  152.8426  143.1286  159.3006 C   0  0  0  0  0  0  0  0  0  0  0  0
  151.9609  144.3532  159.5818 C   0  0  0  0  0  0  0  0  0  0  0  0
  151.2739  144.8347  158.2940 C   0  0  0  0  0  0  0  0  0  0  0  0
  150.4969  143.7389  157.6743 N   0  3  0  0  0  0  0  0  0  0  0  0
  151.9805  139.4726  156.9245 C   0  0  0  0  0  0  0  0  0  0  0  0
  153.1226  137.7100  156.2816 H   0  0  0  0  0  0  0  0  0  0  0  0
  152.0122  138.4285  153.8455 H   0  0  0  0  0  0  0  0  0  0  0  0
  149.9048  141.9126  155.8140 H   0  0  0  0  0  0  0  0  0  0  0  0
  149.6633  141.1282  157.3590 H   0  0  0  0  0  0  0  0  0  0  0  0
  152.0753  142.8634  156.6361 H   0  0  0  0  0  0  0  0  0  0  0  0
  151.2822  141.6331  159.3216 H   0  0  0  0  0  0  0  0  0  0  0  0
  152.6807  141.1892  158.3743 H   0  0  0  0  0  0  0  0  0  0  0  0
  153.2788  142.7575  160.2285 H   0  0  0  0  0  0  0  0  0  0  0  0
  153.6760  143.4156  158.6579 H   0  0  0  0  0  0  0  0  0  0  0  0
  151.2071  144.0993  160.3284 H   0  0  0  0  0  0  0  0  0  0  0  0
  152.5613  145.1571  160.0088 H   0  0  0  0  0  0  0  0  0  0  0  0
  150.6040  145.6670  158.5111 H   0  0  0  0  0  0  0  0  0  0  0  0
  152.0145  145.1987  157.5807 H   0  0  0  0  0  0  0  0  0  0  0  0
  150.0726  144.0830  156.8245 H   0  0  0  0  0  0  0  0  0  0  0  0
  152.1372  139.5974  157.9860 H   0  0  0  0  0  0  0  0  0  0  0  0
  149.7657  143.4627  158.3138 H   0  0  0  0  0  0  0  0  0  0  0  0
  1 12  2  0  0  0  0
  1  2  1  0  0  0  0
  1 13  1  0  0  0  0
  2  3  2  0  0  0  0
  2 14  1  0  0  0  0
  3  4  1  0  0  0  0
  4  5  1  0  0  0  0
  4 12  1  0  0  0  0
  5  6  1  0  0  0  0
  5 15  1  0  0  0  0
  5 16  1  0  0  0  0
  6 11  1  0  0  0  0
  6  7  1  0  0  0  0
  6 17  1  0  0  0  0
  7  8  1  0  0  0  0
  7 18  1  0  0  0  0
  7 19  1  0  0  0  0
  8  9  1  0  0  0  0
  8 20  1  0  0  0  0
  8 21  1  0  0  0  0
  9 10  1  0  0  0  0
  9 22  1  0  0  0  0
  9 23  1  0  0  0  0
 10 11  1  0  0  0  0
 10 24  1  0  0  0  0
 10 25  1  0  0  0  0
 11 26  1  0  0  0  0
 11 28  1  0  0  0  0
 12 27  1  0  0  0  0
M  CHG  1  11   1
M  END
> <s_m_source_file>
AV-unprocessed.smi

> <i_m_source_file_index>
3077

> <i_lp_mmshare_version>
43012

> <i_f3d_flags>
0

> <s_epik_input>
W2NIXTFbY0hdW2NIXW5uMVtDSDJdW0NAQEhdMltDSDJdW0NIMl1bQ0gyXVtDSDJdW05IXTI=

> <s_epik_cmdline>
J2VwaWtfcHl0aG9uJywgJy1waCcsICc3LjAnLCAnLXRuJywgJzgnLCAnLW1hJywgJzIwMCcsICctbWV0YWxfYmluZGluZycsICctaW1hZScsICc8aW5maWxlLm1hZT4nLCAnLW9tYWUnLCAnPG91dGZpbGUubWFlPic=

> <r_lp_tautomer_probability>
1

> <r_epik_Ionization_Penalty>
0.000655985

> <r_epik_Ionization_Penalty_Charging>
0.000651447

> <r_epik_Ionization_Penalty_Neutral>
4.5377e-06

> <r_epik_State_Penalty>
0.000412577

> <r_epik_Charging_Adjusted_Penalty>
0.00106402

> <i_epik_Tot_Q>
1

> <i_epik_Tot_abs_Q>
1

> <r_epik_Metal_State_Penalty>
-0

> <b_epik_Metal_Only>
0

> <s_lp_Force_Field>
OPLS_2005

> <r_lp_Energy>
13.5088

> <b_lp_Chiralities_Consistent>
1

> <s_lp_Variant>
AV-unprocessed.smi:3077-1

> <Gold.Version>
5.8.1

> <Gold.Id.Protein>
6NUR|6NUR_protein|mol2

> <Gold.PLP.Fitness>
39.8492

> <Gold.PLP.PLP>
-30.8773

> <Gold.PLP.part.hbond>
-2.0000

> <Gold.PLP.part.metal>
0.0000

> <Gold.PLP.part.buried>
-3.8288

> <Gold.PLP.part.nonpolar>
-24.9395

> <Gold.PLP.part.repulsive>
0.0777

> <Gold.PLP.ligand.clash>
0.0000

> <Gold.PLP.ligand.torsion>
0.0161

> <Gold.PLP.Chemscore.Hbond>
3.0000

> <Gold.PLP.Chemscore.CHOScore>
0.0000

> <Gold.PLP.Chemscore.Metal>
0.0000

> <Gold.Chemscore.Hbonds>
donor molecule, donor type, donor heavy atom, donor atom, acceptor molecule, acceptor atom, score
      L1  H    11    26       P1  8028  2.00
      P1  H  7989  7998       L1     3  1.00

> <Gold.PLP.Chemscore.Internal.Correction>
0.0041

> <Gold.Rescore>
     Score         DG    S(hbond)    S(metal)    S(lipo)     H(rot)  DE(clash)    DE(int)     intcor
     17.34     -18.46       1.91        0.00      82.57       1.19       0.02       1.11       ----

> <Gold.Chemscore.Fitness>
17.3394

> <Gold.Chemscore.DG>
-18.4649

> <Gold.Chemscore.ZeroCoef>
-5.4800

> <Gold.Chemscore.Hbond>
1.9069

> <Gold.Chemscore.Metal>
0.0000

> <Gold.Chemscore.Lipo>
82.5725

> <Gold.Chemscore.Internal_Hbond>
0.0000

> <Gold.Chemscore.DEClash>
0.0174

> <Gold.Chemscore.DEInternal>
1.1081

> <Gold.Chemscore.Rot>
1.1896

> <Gold.Chemscore.Internal.Correction>
   9.000000E+99

> <Gold.Chemscore.Hbonds>
donor molecule, donor type, donor heavy atom, donor atom, acceptor molecule, acceptor atom, score
      L1  H    11    26       P1  8028  0.98
      P1  H  7989  7998       L1     3  0.30

> <Gold.Chemscore.Hbond.Weighted>
-6.3692

> <Gold.Chemscore.Metal.Weighted>
-0.0000

> <Gold.Chemscore.Lipo.Weighted>
-9.6610

> <Gold.Chemscore.Internal_Hbond.Weighted>
0.0000

> <Gold.Chemscore.DEClash.Weighted>
0.0174

> <Gold.Chemscore.DEInternal.Weighted>
1.1081

> <Gold.Chemscore.Rot.Weighted>
3.0453

> <Gold.Chemscore.Internal.Correction.Weighted>
   9.000000E+99

> <Gold.Protein.RotatedTorsions>
[ 6907 6896 6895 6894 ] final -156.10 input  -60.11 | X-H torsion
[ 7974 7965 7964 7962 ] final -122.96 input  175.53 | X-H torsion
[ 8008 7997 7996 7995 ] final  170.09 input   59.86 | X-H torsion
[ 10167 10162 10161 10158 ] final  134.89 input  -65.29 | X-H torsion
[ 10718 10713 10712 10709 ] final   59.69 input   66.30 | X-H torsion
[ 10763 10752 10751 10750 ] final -152.61 input  -60.55 | X-H torsion
[ 11005 11000 10999 10996 ] final  143.56 input  -57.11 | X-H torsion

> <Gold.Protein.ActiveResidues>
 VAL166  LYS551  ARG553  GLY616  TRP617  ASP618  TYR619  PRO620  LYS621  CYS622 
 ASP623  PHE694  ASN695  SER759  ASP760  ASP761  ALA762  ILE779  LEU786  VAL792 
 PHE793  MET794  SER795  GLU796  ALA797  LYS798  CYS799  TRP800  GLU811  SER814 

> <Gold.Protein.RotatedAtoms>
  151.2826  133.4203  159.2627 H   0  0  0  0  0  0  0  0  0  0  0  0  # atno 6907 bound_to 6896
  151.0348  134.9565  159.8140 H   0  0  0  0  0  0  0  0  0  0  0  0  # atno 6908 bound_to 6896
  152.5353  134.2785  159.9051 H   0  0  0  0  0  0  0  0  0  0  0  0  # atno 6909 bound_to 6896
  145.0239  140.8011  143.4364 H   0  0  0  0  0  0  0  0  0  0  0  0  # atno 7974 bound_to 7965
  156.1398  140.1547  156.8939 H   0  0  0  0  0  0  0  0  0  0  0  0  # atno 8008 bound_to 7997
  154.4977  140.0833  156.7771 H   0  0  0  0  0  0  0  0  0  0  0  0  # atno 8009 bound_to 7997
  155.4101  140.3418  155.4265 H   0  0  0  0  0  0  0  0  0  0  0  0  # atno 8010 bound_to 7997
  139.5238  144.6545  151.5204 H   0  0  0  0  0  0  0  0  0  0  0  0  # atno 10167 bound_to 10162
  157.5695  130.8897  149.9243 H   0  0  0  0  0  0  0  0  0  0  0  0  # atno 10718 bound_to 10713
  154.7983  135.3232  154.7613 H   0  0  0  0  0  0  0  0  0  0  0  0  # atno 10763 bound_to 10752
  153.8287  135.6881  153.4822 H   0  0  0  0  0  0  0  0  0  0  0  0  # atno 10764 bound_to 10752
  153.1685  135.4632  154.9813 H   0  0  0  0  0  0  0  0  0  0  0  0  # atno 10765 bound_to 10752
  140.0564  134.9228  157.1107 H   0  0  0  0  0  0  0  0  0  0  0  0  # atno 11005 bound_to 11000
  145.1860  139.2326  143.5268 LP  0  0  0  0  0  0  0  0  0  0  0  0  # atno 17320 bound_to 7965
  146.3489  140.1645  142.8590 LP  0  0  0  0  0  0  0  0  0  0  0  0  # atno 17321 bound_to 7965
  140.6364  143.8975  150.6651 LP  0  0  0  0  0  0  0  0  0  0  0  0  # atno 17342 bound_to 10162
  140.2296  143.3746  152.1576 LP  0  0  0  0  0  0  0  0  0  0  0  0  # atno 17343 bound_to 10162
  156.0741  130.3681  150.0714 LP  0  0  0  0  0  0  0  0  0  0  0  0  # atno 17370 bound_to 10713
  156.8868  130.9575  151.3593 LP  0  0  0  0  0  0  0  0  0  0  0  0  # atno 17371 bound_to 10713
  140.3838  134.2258  155.7169 LP  0  0  0  0  0  0  0  0  0  0  0  0  # atno 17394 bound_to 11000
  141.1954  133.8107  157.0718 LP  0  0  0  0  0  0  0  0  0  0  0  0  # atno 17395 bound_to 11000

$$$$
