AV-unprocessed.smi:1843|AV-procd|sdf|7504|dock3
  -GOLD-   22720 9203D 1   1.00000     0.00000
 Structure written by MMmdl.
 36 38  0  0  0  0  0  0  0  0  2 V2000
  146.4651  130.6505  154.4338 O   0  0  0  0  0  0  0  0  0  0  0  0
  147.1884  130.4160  153.4629 C   0  0  0  0  0  0  0  0  0  0  0  0
  148.2497  129.5780  153.4389 N   0  5  0  0  0  0  0  0  0  0  0  0
  148.2475  128.5141  152.6186 C   0  0  0  0  0  0  0  0  0  0  0  0
  147.5479  128.4902  151.4755 N   0  0  0  0  0  0  0  0  0  0  0  0
  147.6863  127.2995  150.7774 N   0  0  0  0  0  0  0  0  0  0  0  0
  148.4972  126.4413  151.4006 C   0  0  0  0  0  0  0  0  0  0  0  0
  148.8045  125.0891  150.8494 C   0  0  0  0  0  0  0  0  0  0  0  0
  149.5307  124.9398  149.5325 C   0  0  0  0  0  0  0  0  0  0  0  0
  148.0805  124.5427  149.6381 C   0  0  0  0  0  0  0  0  0  0  0  0
  149.1679  127.0386  152.9102 S   0  0  0  0  0  0  0  0  0  0  0  0
  146.9511  131.0192  152.2894 N   0  0  0  0  0  0  0  0  0  0  0  0
  145.8858  131.9822  152.0150 C   0  0  2  0  0  0  0  0  0  0  0  0
  144.8453  131.3295  151.0773 C   0  0  0  0  0  0  0  0  0  0  0  0
  143.7718  132.3256  150.6157 C   0  0  0  0  0  0  0  0  0  0  0  0
  144.4110  133.5449  149.9388 C   0  0  0  0  0  0  0  0  0  0  0  0
  145.4065  134.2284  150.8856 C   0  0  0  0  0  0  0  0  0  0  0  0
  146.4937  133.2517  151.3734 C   0  0  1  0  0  0  0  0  0  0  0  0
  147.2810  133.9374  152.3268 O   0  0  0  0  0  0  0  0  0  0  0  0
  149.0519  124.3952  151.6503 H   0  0  0  0  0  0  0  0  0  0  0  0
  149.7627  125.8467  148.9774 H   0  0  0  0  0  0  0  0  0  0  0  0
  150.2677  124.1432  149.4545 H   0  0  0  0  0  0  0  0  0  0  0  0
  147.8490  123.4797  149.6298 H   0  0  0  0  0  0  0  0  0  0  0  0
  147.3528  125.1813  149.1414 H   0  0  0  0  0  0  0  0  0  0  0  0
  147.5719  130.8001  151.5242 H   0  0  0  0  0  0  0  0  0  0  0  0
  145.3903  132.2643  152.9462 H   0  0  0  0  0  0  0  0  0  0  0  0
  145.3485  130.9195  150.2003 H   0  0  0  0  0  0  0  0  0  0  0  0
  144.3671  130.4861  151.5769 H   0  0  0  0  0  0  0  0  0  0  0  0
  143.0824  131.8362  149.9274 H   0  0  0  0  0  0  0  0  0  0  0  0
  143.1785  132.6484  151.4721 H   0  0  0  0  0  0  0  0  0  0  0  0
  144.9219  133.2357  149.0259 H   0  0  0  0  0  0  0  0  0  0  0  0
  143.6375  134.2523  149.6382 H   0  0  0  0  0  0  0  0  0  0  0  0
  145.8673  135.0794  150.3824 H   0  0  0  0  0  0  0  0  0  0  0  0
  144.8627  134.6332  151.7406 H   0  0  0  0  0  0  0  0  0  0  0  0
  147.1293  132.9749  150.5308 H   0  0  0  0  0  0  0  0  0  0  0  0
  147.7955  134.5895  151.8763 H   0  0  0  0  0  0  0  0  0  0  0  0
  1  2  2  0  0  0  0
  2  3  1  0  0  0  0
  2 12  1  0  0  0  0
  3  4  1  0  0  0  0
  4 11  1  0  0  0  0
  4  5  2  0  0  0  0
  5  6  1  0  0  0  0
  6  7  2  0  0  0  0
  7  8  1  0  0  0  0
  7 11  1  0  0  0  0
  8 10  1  0  0  0  0
  8  9  1  0  0  0  0
  8 20  1  0  0  0  0
  9 10  1  0  0  0  0
  9 21  1  0  0  0  0
  9 22  1  0  0  0  0
 10 23  1  0  0  0  0
 10 24  1  0  0  0  0
 12 13  1  0  0  0  0
 12 25  1  0  0  0  0
 13 18  1  0  0  0  0
 13 14  1  0  0  0  0
 13 26  1  0  0  0  0
 14 15  1  0  0  0  0
 14 27  1  0  0  0  0
 14 28  1  0  0  0  0
 15 16  1  0  0  0  0
 15 29  1  0  0  0  0
 15 30  1  0  0  0  0
 16 17  1  0  0  0  0
 16 31  1  0  0  0  0
 16 32  1  0  0  0  0
 17 18  1  0  0  0  0
 17 33  1  0  0  0  0
 17 34  1  0  0  0  0
 18 19  1  0  0  0  0
 18 35  1  0  0  0  0
 19 36  1  0  0  0  0
M  CHG  1   3  -1
M  END
> <s_m_source_file>
AV-unprocessed.smi

> <i_m_source_file_index>
1843

> <i_lp_mmshare_version>
43012

> <i_f3d_flags>
0

> <s_epik_input>
W09IXVtDQEBIXTFbQ0gyXVtDSDJdW0NIMl1bQ0gyXVtDQEhdMVtOSF1DKD1PKVtOSF1jMm5uYyhzMilbQ0hdM1tDSDJdW0NIMl0z

> <s_epik_cmdline>
J2VwaWtfcHl0aG9uJywgJy1waCcsICc3LjAnLCAnLXRuJywgJzgnLCAnLW1hJywgJzIwMCcsICctbWV0YWxfYmluZGluZycsICctaW1hZScsICc8aW5maWxlLm1hZT4nLCAnLW9tYWUnLCAnPG91dGZpbGUubWFlPic=

> <r_lp_tautomer_probability>
1

> <r_epik_Ionization_Penalty>
4.7996

> <r_epik_Ionization_Penalty_Charging>
4.64516

> <r_epik_Ionization_Penalty_Neutral>
0.154442

> <r_epik_State_Penalty>
4.64493

> <r_epik_Charging_Adjusted_Penalty>
9.29009

> <i_epik_Tot_Q>
-1

> <i_epik_Tot_abs_Q>
1

> <r_epik_Metal_State_Penalty>
0.896144

> <b_epik_Metal_Only>
1

> <s_lp_Force_Field>
OPLS_2005

> <r_lp_Energy>
6.98885

> <b_lp_Chiralities_Consistent>
1

> <s_lp_Variant>
AV-unprocessed.smi:1843-5

> <Gold.Version>
5.8.1

> <Gold.Id.Protein>
6NUR|6NUR_protein|mol2

> <Gold.PLP.Fitness>
38.3536

> <Gold.PLP.PLP>
-33.9530

> <Gold.PLP.part.hbond>
-2.0000

> <Gold.PLP.part.metal>
0.0000

> <Gold.PLP.part.buried>
-6.2010

> <Gold.PLP.part.nonpolar>
-26.3492

> <Gold.PLP.part.repulsive>
1.5468

> <Gold.PLP.ligand.clash>
0.0000

> <Gold.PLP.ligand.torsion>
0.8676

> <Gold.PLP.Chemscore.Hbond>
2.0000

> <Gold.PLP.Chemscore.CHOScore>
0.0000

> <Gold.PLP.Chemscore.Metal>
0.0000

> <Gold.Chemscore.Hbonds>
donor molecule, donor type, donor heavy atom, donor atom, acceptor molecule, acceptor atom, score
      L1  H    12    25       P1 10747  1.00
      L1  H    19    36       P1  7948  1.00

> <Gold.PLP.Chemscore.Internal.Correction>
0.1358

> <Gold.Rescore>
     Score         DG    S(hbond)    S(metal)    S(lipo)     H(rot)  DE(clash)    DE(int)     intcor
     15.19     -16.04       1.84        0.00      75.43       1.72       0.06       0.79       ----

> <Gold.Chemscore.Fitness>
15.1932

> <Gold.Chemscore.DG>
-16.0439

> <Gold.Chemscore.ZeroCoef>
-5.4800

> <Gold.Chemscore.Hbond>
1.8358

> <Gold.Chemscore.Metal>
0.0000

> <Gold.Chemscore.Lipo>
75.4287

> <Gold.Chemscore.Internal_Hbond>
0.0000

> <Gold.Chemscore.DEClash>
0.0624

> <Gold.Chemscore.DEInternal>
0.7883

> <Gold.Chemscore.Rot>
1.7160

> <Gold.Chemscore.Internal.Correction>
   9.000000E+99

> <Gold.Chemscore.Hbonds>
donor molecule, donor type, donor heavy atom, donor atom, acceptor molecule, acceptor atom, score
      L1  H    12    25       P1 10747  1.00
      L1  H    19    36       P1  7948  0.29

> <Gold.Chemscore.Hbond.Weighted>
-6.1317

> <Gold.Chemscore.Metal.Weighted>
-0.0000

> <Gold.Chemscore.Lipo.Weighted>
-8.8252

> <Gold.Chemscore.Internal_Hbond.Weighted>
0.0000

> <Gold.Chemscore.DEClash.Weighted>
0.0624

> <Gold.Chemscore.DEInternal.Weighted>
0.7883

> <Gold.Chemscore.Rot.Weighted>
4.3930

> <Gold.Chemscore.Internal.Correction.Weighted>
   9.000000E+99

> <Gold.Protein.RotatedTorsions>
[ 6907 6896 6895 6894 ] final   65.74 input  -60.11 | X-H torsion
[ 7974 7965 7964 7962 ] final  141.11 input  175.53 | X-H torsion
[ 8008 7997 7996 7995 ] final  -20.05 input   59.86 | X-H torsion
[ 10167 10162 10161 10158 ] final -115.95 input  -65.29 | X-H torsion
[ 10718 10713 10712 10709 ] final -153.83 input   66.30 | X-H torsion
[ 10763 10752 10751 10750 ] final  -36.84 input  -60.55 | X-H torsion
[ 11005 11000 10999 10996 ] final   28.62 input  -57.11 | X-H torsion

> <Gold.Protein.ActiveResidues>
 VAL166  LYS551  ARG553  GLY616  TRP617  ASP618  TYR619  PRO620  LYS621  CYS622 
 ASP623  PHE694  ASN695  SER759  ASP760  ASP761  ALA762  ILE779  LEU786  VAL792 
 PHE793  MET794  SER795  GLU796  ALA797  LYS798  CYS799  TRP800  GLU811  SER814 

> <Gold.Protein.RotatedAtoms>
  152.4430  134.5553  159.9878 H   0  0  0  0  0  0  0  0  0  0  0  0  # atno 6907 bound_to 6896
  151.5645  133.3392  159.2985 H   0  0  0  0  0  0  0  0  0  0  0  0  # atno 6908 bound_to 6896
  150.8339  134.7638  159.6941 H   0  0  0  0  0  0  0  0  0  0  0  0  # atno 6909 bound_to 6896
  144.9126  139.5273  143.5701 H   0  0  0  0  0  0  0  0  0  0  0  0  # atno 7974 bound_to 7965
  154.4796  140.2072  155.9796 H   0  0  0  0  0  0  0  0  0  0  0  0  # atno 8008 bound_to 7997
  156.1143  140.3224  155.8087 H   0  0  0  0  0  0  0  0  0  0  0  0  # atno 8009 bound_to 7997
  155.4579  140.0522  157.2985 H   0  0  0  0  0  0  0  0  0  0  0  0  # atno 8010 bound_to 7997
  140.0845  143.4756  152.1906 H   0  0  0  0  0  0  0  0  0  0  0  0  # atno 10167 bound_to 10162
  156.4911  130.8348  151.2571 H   0  0  0  0  0  0  0  0  0  0  0  0  # atno 10718 bound_to 10713
  153.8864  135.6816  153.4763 H   0  0  0  0  0  0  0  0  0  0  0  0  # atno 10763 bound_to 10752
  153.1205  135.4742  154.9185 H   0  0  0  0  0  0  0  0  0  0  0  0  # atno 10764 bound_to 10752
  154.7644  135.3220  154.8268 H   0  0  0  0  0  0  0  0  0  0  0  0  # atno 10765 bound_to 10752
  140.3136  134.2621  155.7729 H   0  0  0  0  0  0  0  0  0  0  0  0  # atno 11005 bound_to 11000
  146.3166  139.7943  142.8979 LP  0  0  0  0  0  0  0  0  0  0  0  0  # atno 17320 bound_to 7965
  145.3429  141.0291  143.3382 LP  0  0  0  0  0  0  0  0  0  0  0  0  # atno 17321 bound_to 7965
  139.5760  144.7487  151.3764 LP  0  0  0  0  0  0  0  0  0  0  0  0  # atno 17342 bound_to 10162
  140.7060  143.7511  150.7483 LP  0  0  0  0  0  0  0  0  0  0  0  0  # atno 17343 bound_to 10162
  157.7473  131.0013  150.2958 LP  0  0  0  0  0  0  0  0  0  0  0  0  # atno 17370 bound_to 10713
  156.3426  130.3818  149.7396 LP  0  0  0  0  0  0  0  0  0  0  0  0  # atno 17371 bound_to 10713
  141.2102  133.7725  156.9944 LP  0  0  0  0  0  0  0  0  0  0  0  0  # atno 17394 bound_to 11000
  140.1003  134.9539  157.1912 LP  0  0  0  0  0  0  0  0  0  0  0  0  # atno 17395 bound_to 11000

$$$$
