AV-unprocessed.smi:1695|AV-procd|sdf|6792|dock4
  -GOLD-   22720 7553D 1   1.00000     0.00000
 Structure written by MMmdl.
 51 53  0  0  0  0  0  0  0  0  2 V2000
  152.7883  142.5329  161.5638 C   0  0  0  0  0  0  0  0  0  0  0  0
  152.3113  142.1484  160.1744 C   0  0  0  0  0  0  0  0  0  0  0  0
  152.8526  140.9996  159.5551 C   0  0  0  0  0  0  0  0  0  0  0  0
  152.4358  140.6084  158.2640 C   0  0  0  0  0  0  0  0  0  0  0  0
  152.8256  139.5356  157.4809 N   0  0  0  0  0  0  0  0  0  0  0  0
  152.0801  139.7121  156.3948 C   0  0  0  0  0  0  0  0  0  0  0  0
  151.2617  140.7823  156.3736 N   0  0  0  0  0  0  0  0  0  0  0  0
  150.3663  141.1787  155.2980 C   0  0  0  0  0  0  0  0  0  0  0  0
  148.9528  140.5631  155.4016 C   0  0  1  0  0  0  0  0  0  0  0  0
  149.0670  139.1541  155.4551 O   0  0  0  0  0  0  0  0  0  0  0  0
  148.1645  141.0468  156.6398 C   0  0  0  0  0  0  0  0  0  0  0  0
  147.1740  142.1059  156.3179 N   0  3  1  0  0  0  0  0  0  0  0  0
  146.6395  141.9769  154.9377 C   0  0  0  0  0  0  0  0  0  0  0  0
  145.7361  143.1688  154.5801 C   0  0  0  0  0  0  0  0  0  0  0  0
  144.5802  143.3168  155.5885 C   0  0  2  0  0  0  0  0  0  0  0  0
  143.7207  144.5462  155.2648 C   0  0  0  0  0  0  0  0  0  0  0  0
  143.1348  144.5841  154.0654 N   0  0  0  0  0  0  0  0  0  0  0  0
  143.5869  145.4514  156.0863 O   0  0  0  0  0  0  0  0  0  0  0  0
  145.1633  143.4070  157.0118 C   0  0  0  0  0  0  0  0  0  0  0  0
  146.0755  142.2072  157.3152 C   0  0  0  0  0  0  0  0  0  0  0  0
  151.4558  141.4052  157.6026 C   0  0  0  0  0  0  0  0  0  0  0  0
  150.9078  142.5486  158.2101 C   0  0  0  0  0  0  0  0  0  0  0  0
  151.3354  142.9255  159.5004 C   0  0  0  0  0  0  0  0  0  0  0  0
  150.7387  144.1635  160.1459 C   0  0  0  0  0  0  0  0  0  0  0  0
  153.5421  141.8371  161.9335 H   0  0  0  0  0  0  0  0  0  0  0  0
  151.9560  142.5296  162.2678 H   0  0  0  0  0  0  0  0  0  0  0  0
  153.2305  143.5293  161.5539 H   0  0  0  0  0  0  0  0  0  0  0  0
  153.5944  140.4060  160.0692 H   0  0  0  0  0  0  0  0  0  0  0  0
  152.1384  139.0280  155.5610 H   0  0  0  0  0  0  0  0  0  0  0  0
  150.2918  142.2670  155.3050 H   0  0  0  0  0  0  0  0  0  0  0  0
  150.8284  140.9131  154.3460 H   0  0  0  0  0  0  0  0  0  0  0  0
  148.4209  140.8136  154.4848 H   0  0  0  0  0  0  0  0  0  0  0  0
  148.9355  138.8669  156.3455 H   0  0  0  0  0  0  0  0  0  0  0  0
  147.6524  140.1913  157.0836 H   0  0  0  0  0  0  0  0  0  0  0  0
  148.8475  141.4197  157.4049 H   0  0  0  0  0  0  0  0  0  0  0  0
  147.4634  141.9307  154.2245 H   0  0  0  0  0  0  0  0  0  0  0  0
  146.0867  141.0407  154.8450 H   0  0  0  0  0  0  0  0  0  0  0  0
  146.3383  144.0789  154.5569 H   0  0  0  0  0  0  0  0  0  0  0  0
  145.3399  143.0361  153.5724 H   0  0  0  0  0  0  0  0  0  0  0  0
  143.9523  142.4258  155.5281 H   0  0  0  0  0  0  0  0  0  0  0  0
  142.5597  145.3721  153.8048 H   0  0  0  0  0  0  0  0  0  0  0  0
  143.2705  143.8198  153.4190 H   0  0  0  0  0  0  0  0  0  0  0  0
  145.7334  144.3301  157.1319 H   0  0  0  0  0  0  0  0  0  0  0  0
  144.3565  143.4454  157.7452 H   0  0  0  0  0  0  0  0  0  0  0  0
  145.4928  141.2844  157.3116 H   0  0  0  0  0  0  0  0  0  0  0  0
  146.4793  142.3173  158.3207 H   0  0  0  0  0  0  0  0  0  0  0  0
  150.1657  143.1322  157.6856 H   0  0  0  0  0  0  0  0  0  0  0  0
  150.0093  144.6408  159.4909 H   0  0  0  0  0  0  0  0  0  0  0  0
  151.5179  144.8936  160.3658 H   0  0  0  0  0  0  0  0  0  0  0  0
  150.2334  143.9036  161.0764 H   0  0  0  0  0  0  0  0  0  0  0  0
  147.6774  142.9812  156.3394 H   0  0  0  0  0  0  0  0  0  0  0  0
  1  2  1  0  0  0  0
  1 25  1  0  0  0  0
  1 26  1  0  0  0  0
  1 27  1  0  0  0  0
  2 23  1  0  0  0  0
  2  3  2  0  0  0  0
  3  4  1  0  0  0  0
  3 28  1  0  0  0  0
  4 21  2  0  0  0  0
  4  5  1  0  0  0  0
  5  6  2  0  0  0  0
  6  7  1  0  0  0  0
  6 29  1  0  0  0  0
  7  8  1  0  0  0  0
  7 21  1  0  0  0  0
  8  9  1  0  0  0  0
  8 30  1  0  0  0  0
  8 31  1  0  0  0  0
  9 10  1  0  0  0  0
  9 11  1  0  0  0  0
  9 32  1  0  0  0  0
 10 33  1  0  0  0  0
 11 12  1  0  0  0  0
 11 34  1  0  0  0  0
 11 35  1  0  0  0  0
 12 20  1  0  0  0  0
 12 13  1  0  0  0  0
 12 51  1  0  0  0  0
 13 14  1  0  0  0  0
 13 36  1  0  0  0  0
 13 37  1  0  0  0  0
 14 15  1  0  0  0  0
 14 38  1  0  0  0  0
 14 39  1  0  0  0  0
 15 16  1  0  0  0  0
 15 19  1  0  0  0  0
 15 40  1  0  0  0  0
 16 17  1  0  0  0  0
 16 18  2  0  0  0  0
 17 41  1  0  0  0  0
 17 42  1  0  0  0  0
 19 20  1  0  0  0  0
 19 43  1  0  0  0  0
 19 44  1  0  0  0  0
 20 45  1  0  0  0  0
 20 46  1  0  0  0  0
 21 22  1  0  0  0  0
 22 23  2  0  0  0  0
 22 47  1  0  0  0  0
 23 24  1  0  0  0  0
 24 48  1  0  0  0  0
 24 49  1  0  0  0  0
 24 50  1  0  0  0  0
M  CHG  1  12   1
M  END
> <s_m_source_file>
AV-unprocessed.smi

> <i_m_source_file_index>
1695

> <i_lp_mmshare_version>
43012

> <i_f3d_flags>
0

> <s_epik_input>
W0NIM11jKFtjSF0xKWMoW0NIM10pW2NIXWMoYzEyKW4oW2NIXW4yKVtDSDJdW0NASF0oW09IXSlbQ0gyXU4zW0NIMl1bQ0gyXVtDSF0oQyg9TylbTkgyXSlbQ0gyXVtDSDJdMw==

> <s_epik_cmdline>
J2VwaWtfcHl0aG9uJywgJy1waCcsICc3LjAnLCAnLXRuJywgJzgnLCAnLW1hJywgJzIwMCcsICctbWV0YWxfYmluZGluZycsICctaW1hZScsICc8aW5maWxlLm1hZT4nLCAnLW9tYWUnLCAnPG91dGZpbGUubWFlPic=

> <r_epik_Ionization_Penalty>
0.113899

> <r_epik_Ionization_Penalty_Charging>
0.0258844

> <r_epik_Ionization_Penalty_Neutral>
0.0880147

> <r_epik_State_Penalty>
0.0974403

> <r_epik_Charging_Adjusted_Penalty>
0.123325

> <i_epik_Tot_Q>
1

> <i_epik_Tot_abs_Q>
1

> <r_epik_Metal_State_Penalty>
0.0851148

> <b_epik_Metal_Only>
0

> <s_lp_Force_Field>
OPLS_2005

> <r_lp_Energy>
20.1405

> <b_lp_Chiralities_Consistent>
1

> <s_lp_Variant>
AV-unprocessed.smi:1695-4

> <Gold.Version>
5.8.1

> <Gold.Id.Protein>
6NUR|6NUR_protein|mol2

> <Gold.PLP.Fitness>
53.9900

> <Gold.PLP.PLP>
-44.8155

> <Gold.PLP.part.hbond>
-3.0000

> <Gold.PLP.part.metal>
0.0000

> <Gold.PLP.part.buried>
-6.2279

> <Gold.PLP.part.nonpolar>
-35.9666

> <Gold.PLP.part.repulsive>
0.9077

> <Gold.PLP.ligand.clash>
0.0000

> <Gold.PLP.ligand.torsion>
1.2738

> <Gold.PLP.Chemscore.Hbond>
3.8880

> <Gold.PLP.Chemscore.CHOScore>
0.0000

> <Gold.PLP.Chemscore.Metal>
0.0000

> <Gold.Chemscore.Hbonds>
donor molecule, donor type, donor heavy atom, donor atom, acceptor molecule, acceptor atom, score
      L1  H    12    51       P1  8028  0.99
      L1  H    17    42       P1 10174  1.00
      P1  H  7997  8008       L1     5  0.88

> <Gold.PLP.Chemscore.Internal.Correction>
0.0581

> <Gold.Rescore>
     Score         DG    S(hbond)    S(metal)    S(lipo)     H(rot)  DE(clash)    DE(int)     intcor
     14.66     -16.13       1.62        0.00     107.07       2.85       0.33       1.14       ----

> <Gold.Chemscore.Fitness>
14.6604

> <Gold.Chemscore.DG>
-16.1298

> <Gold.Chemscore.ZeroCoef>
-5.4800

> <Gold.Chemscore.Hbond>
1.6197

> <Gold.Chemscore.Metal>
0.0000

> <Gold.Chemscore.Lipo>
107.0659

> <Gold.Chemscore.Internal_Hbond>
0.0000

> <Gold.Chemscore.DEClash>
0.3253

> <Gold.Chemscore.DEInternal>
1.1441

> <Gold.Chemscore.Rot>
2.8464

> <Gold.Chemscore.Internal.Correction>
   9.000000E+99

> <Gold.Chemscore.Hbonds>
donor molecule, donor type, donor heavy atom, donor atom, acceptor molecule, acceptor atom, score
      L1  H    12    51       P1  8028  0.09
      L1  H    17    42       P1 10174  0.96
      P1  H  7997  8008       L1     5  0.18

> <Gold.Chemscore.Hbond.Weighted>
-5.4098

> <Gold.Chemscore.Metal.Weighted>
-0.0000

> <Gold.Chemscore.Lipo.Weighted>
-12.5267

> <Gold.Chemscore.Internal_Hbond.Weighted>
0.0000

> <Gold.Chemscore.DEClash.Weighted>
0.3253

> <Gold.Chemscore.DEInternal.Weighted>
1.1441

> <Gold.Chemscore.Rot.Weighted>
7.2867

> <Gold.Chemscore.Internal.Correction.Weighted>
   9.000000E+99

> <Gold.Protein.RotatedTorsions>
[ 6907 6896 6895 6894 ] final -172.67 input  -60.11 | X-H torsion
[ 7974 7965 7964 7962 ] final  162.66 input  175.53 | X-H torsion
[ 8008 7997 7996 7995 ] final  -93.23 input   59.86 | X-H torsion
[ 10167 10162 10161 10158 ] final  141.66 input  -65.29 | X-H torsion
[ 10718 10713 10712 10709 ] final -166.87 input   66.30 | X-H torsion
[ 10763 10752 10751 10750 ] final -106.97 input  -60.55 | X-H torsion
[ 11005 11000 10999 10996 ] final  122.93 input  -57.11 | X-H torsion

> <Gold.Protein.ActiveResidues>
 VAL166  LYS551  ARG553  GLY616  TRP617  ASP618  TYR619  PRO620  LYS621  CYS622 
 ASP623  PHE694  ASN695  SER759  ASP760  ASP761  ALA762  ILE779  LEU786  VAL792 
 PHE793  MET794  SER795  GLU796  ALA797  LYS798  CYS799  TRP800  GLU811  SER814 

> <Gold.Protein.RotatedAtoms>
  151.5438  133.3428  159.2940 H   0  0  0  0  0  0  0  0  0  0  0  0  # atno 6907 bound_to 6896
  150.8520  134.7850  159.7027 H   0  0  0  0  0  0  0  0  0  0  0  0  # atno 6908 bound_to 6896
  152.4563  134.5292  159.9857 H   0  0  0  0  0  0  0  0  0  0  0  0  # atno 6909 bound_to 6896
  144.7626  139.8071  143.6327 H   0  0  0  0  0  0  0  0  0  0  0  0  # atno 7974 bound_to 7965
  154.7330  140.0501  157.0743 H   0  0  0  0  0  0  0  0  0  0  0  0  # atno 8008 bound_to 7997
  155.0277  140.3154  155.4751 H   0  0  0  0  0  0  0  0  0  0  0  0  # atno 8009 bound_to 7997
  156.2846  140.2155  156.5397 H   0  0  0  0  0  0  0  0  0  0  0  0  # atno 8010 bound_to 7997
  139.5015  144.6157  151.6168 H   0  0  0  0  0  0  0  0  0  0  0  0  # atno 10167 bound_to 10162
  156.6741  130.9095  151.3048 H   0  0  0  0  0  0  0  0  0  0  0  0  # atno 10718 bound_to 10713
  154.8046  135.4692  154.0359 H   0  0  0  0  0  0  0  0  0  0  0  0  # atno 10763 bound_to 10752
  153.1838  135.6845  153.8449 H   0  0  0  0  0  0  0  0  0  0  0  0  # atno 10764 bound_to 10752
  153.7990  135.3232  155.3365 H   0  0  0  0  0  0  0  0  0  0  0  0  # atno 10765 bound_to 10752
  139.9290  134.9641  156.8184 H   0  0  0  0  0  0  0  0  0  0  0  0  # atno 11005 bound_to 11000
  146.1704  139.4852  142.9931 LP  0  0  0  0  0  0  0  0  0  0  0  0  # atno 17320 bound_to 7965
  145.6571  141.0249  143.1729 LP  0  0  0  0  0  0  0  0  0  0  0  0  # atno 17321 bound_to 7965
  140.5845  143.9888  150.6287 LP  0  0  0  0  0  0  0  0  0  0  0  0  # atno 17342 bound_to 10162
  140.3048  143.3236  152.0936 LP  0  0  0  0  0  0  0  0  0  0  0  0  # atno 17343 bound_to 10162
  157.7067  130.9393  150.0953 LP  0  0  0  0  0  0  0  0  0  0  0  0  # atno 17370 bound_to 10713
  156.1917  130.3655  149.8902 LP  0  0  0  0  0  0  0  0  0  0  0  0  # atno 17371 bound_to 10713
  140.6255  133.9954  155.7637 LP  0  0  0  0  0  0  0  0  0  0  0  0  # atno 17394 bound_to 11000
  141.0867  133.9980  157.3302 LP  0  0  0  0  0  0  0  0  0  0  0  0  # atno 17395 bound_to 11000

$$$$
