AV-unprocessed.smi:3176|AV-procd|sdf|12127|dock1
  -GOLD-   2272017563D 1   1.00000     0.00000
 Structure written by MMmdl.
 33 34  0  0  0  0  0  0  0  0  2 V2000
  150.0544  139.9001  154.1750 O   0  0  0  0  0  0  0  0  0  0  0  0
  149.4508  140.9564  154.3630 C   0  0  0  0  0  0  0  0  0  0  0  0
  149.8948  141.9090  155.1976 N   0  0  0  0  0  0  0  0  0  0  0  0
  151.0823  141.8070  156.0402 C   0  0  0  0  0  0  0  0  0  0  0  0
  150.7435  141.7403  157.5439 C   0  0  0  0  0  0  0  0  0  0  0  0
  151.1980  142.9628  158.3233 C   0  0  0  0  0  0  0  0  0  0  0  0
  152.0231  142.8607  159.4649 C   0  0  0  0  0  0  0  0  0  0  0  0
  152.3919  144.0330  160.1561 C   0  0  0  0  0  0  0  0  0  0  0  0
  151.9311  145.2820  159.6905 C   0  0  0  0  0  0  0  0  0  0  0  0
  151.1123  145.3266  158.5435 C   0  0  0  0  0  0  0  0  0  0  0  0
  150.7796  144.1806  157.9093 N   0  3  0  0  0  0  0  0  0  0  0  0
  148.1208  141.2490  153.6473 C   0  0  1  0  0  0  0  0  0  0  0  0
  146.9605  140.3285  154.0597 C   0  0  0  0  0  0  0  0  0  0  0  0
  146.3254  141.0877  155.2038 C   0  0  0  0  0  0  0  0  0  0  0  0
  146.4626  142.5250  154.7190 C   0  0  0  0  0  0  0  0  0  0  0  0
  147.6933  142.5678  154.0025 O   0  0  0  0  0  0  0  0  0  0  0  0
  149.3433  142.7512  155.2824 H   0  0  0  0  0  0  0  0  0  0  0  0
  151.6852  140.9469  155.7450 H   0  0  0  0  0  0  0  0  0  0  0  0
  151.6907  142.6905  155.8458 H   0  0  0  0  0  0  0  0  0  0  0  0
  149.6662  141.6263  157.6714 H   0  0  0  0  0  0  0  0  0  0  0  0
  151.1920  140.8487  157.9836 H   0  0  0  0  0  0  0  0  0  0  0  0
  152.3619  141.8955  159.8127 H   0  0  0  0  0  0  0  0  0  0  0  0
  153.0182  143.9741  161.0342 H   0  0  0  0  0  0  0  0  0  0  0  0
  152.2013  146.1922  160.2060 H   0  0  0  0  0  0  0  0  0  0  0  0
  150.7146  146.2367  158.1187 H   0  0  0  0  0  0  0  0  0  0  0  0
  148.2914  141.1920  152.5718 H   0  0  0  0  0  0  0  0  0  0  0  0
  146.2517  140.2416  153.2353 H   0  0  0  0  0  0  0  0  0  0  0  0
  147.2563  139.3165  154.3383 H   0  0  0  0  0  0  0  0  0  0  0  0
  145.2914  140.7974  155.3909 H   0  0  0  0  0  0  0  0  0  0  0  0
  146.8962  140.9380  156.1210 H   0  0  0  0  0  0  0  0  0  0  0  0
  145.6515  142.7731  154.0333 H   0  0  0  0  0  0  0  0  0  0  0  0
  146.4499  143.2466  155.5359 H   0  0  0  0  0  0  0  0  0  0  0  0
  150.1833  144.2364  157.0834 H   0  0  0  0  0  0  0  0  0  0  0  0
  1  2  2  0  0  0  0
  2  3  1  0  0  0  0
  2 12  1  0  0  0  0
  3  4  1  0  0  0  0
  3 17  1  0  0  0  0
  4  5  1  0  0  0  0
  4 18  1  0  0  0  0
  4 19  1  0  0  0  0
  5  6  1  0  0  0  0
  5 20  1  0  0  0  0
  5 21  1  0  0  0  0
  6 11  1  0  0  0  0
  6  7  2  0  0  0  0
  7  8  1  0  0  0  0
  7 22  1  0  0  0  0
  8  9  2  0  0  0  0
  8 23  1  0  0  0  0
  9 10  1  0  0  0  0
  9 24  1  0  0  0  0
 10 11  2  0  0  0  0
 10 25  1  0  0  0  0
 11 33  1  0  0  0  0
 12 16  1  0  0  0  0
 12 13  1  0  0  0  0
 12 26  1  0  0  0  0
 13 14  1  0  0  0  0
 13 27  1  0  0  0  0
 13 28  1  0  0  0  0
 14 15  1  0  0  0  0
 14 29  1  0  0  0  0
 14 30  1  0  0  0  0
 15 16  1  0  0  0  0
 15 31  1  0  0  0  0
 15 32  1  0  0  0  0
M  CHG  1  11   1
M  END
> <s_m_source_file>
AV-unprocessed.smi

> <i_m_source_file_index>
3176

> <i_lp_mmshare_version>
43012

> <i_f3d_flags>
0

> <s_epik_input>
TzFbQ0gyXVtDSDJdW0NIMl1bQ0BIXTFDKD1PKVtOSF1bQ0gyXVtDSDJdYzJbY0hdW2NIXVtjSF1bY0hdbjI=

> <s_epik_cmdline>
J2VwaWtfcHl0aG9uJywgJy1waCcsICc3LjAnLCAnLXRuJywgJzgnLCAnLW1hJywgJzIwMCcsICctbWV0YWxfYmluZGluZycsICctaW1hZScsICc8aW5maWxlLm1hZT4nLCAnLW9tYWUnLCAnPG91dGZpbGUubWFlPic=

> <r_epik_Ionization_Penalty>
1.81664

> <r_epik_Ionization_Penalty_Charging>
1.81664

> <r_epik_Ionization_Penalty_Neutral>
5.71603e-08

> <r_epik_State_Penalty>
1.93152

> <r_epik_Charging_Adjusted_Penalty>
3.74817

> <i_epik_Tot_Q>
1

> <i_epik_Tot_abs_Q>
1

> <r_epik_Metal_State_Penalty>
1.95876

> <b_epik_Metal_Only>
0

> <s_lp_Force_Field>
OPLS_2005

> <r_lp_Energy>
22.6844

> <b_lp_Chiralities_Consistent>
1

> <s_lp_Variant>
AV-unprocessed.smi:3176-4

> <Gold.Version>
5.8.1

> <Gold.Id.Protein>
6NUR|6NUR_protein|mol2

> <Gold.PLP.Fitness>
45.9781

> <Gold.PLP.PLP>
-35.0554

> <Gold.PLP.part.hbond>
-3.0000

> <Gold.PLP.part.metal>
0.0000

> <Gold.PLP.part.buried>
-5.4549

> <Gold.PLP.part.nonpolar>
-26.5650

> <Gold.PLP.part.repulsive>
2.6710

> <Gold.PLP.ligand.clash>
0.0000

> <Gold.PLP.ligand.torsion>
0.4712

> <Gold.PLP.Chemscore.Hbond>
3.9440

> <Gold.PLP.Chemscore.CHOScore>
0.0000

> <Gold.PLP.Chemscore.Metal>
0.0000

> <Gold.Chemscore.Hbonds>
donor molecule, donor type, donor heavy atom, donor atom, acceptor molecule, acceptor atom, score
      L1  H     3    17       P1  8028  0.96
      L1  H    11    33       P1  8028  2.00
      P1  H  7989  7998       L1     1  0.55
      P1  H  8022  8030       L1    16  0.08

> <Gold.PLP.Chemscore.Internal.Correction>
0.0330

> <Gold.Rescore>
     Score         DG    S(hbond)    S(metal)    S(lipo)     H(rot)  DE(clash)    DE(int)     intcor
     16.66     -18.59       1.99        0.00      90.28       1.61       1.34       0.59       ----

> <Gold.Chemscore.Fitness>
16.6638

> <Gold.Chemscore.DG>
-18.5940

> <Gold.Chemscore.ZeroCoef>
-5.4800

> <Gold.Chemscore.Hbond>
1.9942

> <Gold.Chemscore.Metal>
0.0000

> <Gold.Chemscore.Lipo>
90.2843

> <Gold.Chemscore.Internal_Hbond>
0.0000

> <Gold.Chemscore.DEClash>
1.3389

> <Gold.Chemscore.DEInternal>
0.5913

> <Gold.Chemscore.Rot>
1.6054

> <Gold.Chemscore.Internal.Correction>
   9.000000E+99

> <Gold.Chemscore.Hbonds>
donor molecule, donor type, donor heavy atom, donor atom, acceptor molecule, acceptor atom, score
      L1  H     3    17       P1  8028  0.90
      L1  H    11    33       P1  8028  0.84
      P1  H  7989  7998       L1     1  0.03
      P1  H  8022  8030       L1    16  0.09

> <Gold.Chemscore.Hbond.Weighted>
-6.6605

> <Gold.Chemscore.Metal.Weighted>
-0.0000

> <Gold.Chemscore.Lipo.Weighted>
-10.5633

> <Gold.Chemscore.Internal_Hbond.Weighted>
0.0000

> <Gold.Chemscore.DEClash.Weighted>
1.3389

> <Gold.Chemscore.DEInternal.Weighted>
0.5913

> <Gold.Chemscore.Rot.Weighted>
4.1097

> <Gold.Chemscore.Internal.Correction.Weighted>
   9.000000E+99

> <Gold.Protein.RotatedTorsions>
[ 6907 6896 6895 6894 ] final    3.88 input  -60.11 | X-H torsion
[ 7974 7965 7964 7962 ] final  160.53 input  175.53 | X-H torsion
[ 8008 7997 7996 7995 ] final    7.95 input   59.86 | X-H torsion
[ 10167 10162 10161 10158 ] final  177.67 input  -65.29 | X-H torsion
[ 10718 10713 10712 10709 ] final   52.89 input   66.30 | X-H torsion
[ 10763 10752 10751 10750 ] final   54.22 input  -60.55 | X-H torsion
[ 11005 11000 10999 10996 ] final  125.30 input  -57.11 | X-H torsion

> <Gold.Protein.ActiveResidues>
 VAL166  LYS551  ARG553  GLY616  TRP617  ASP618  TYR619  PRO620  LYS621  CYS622 
 ASP623  PHE694  ASN695  SER759  ASP760  ASP761  ALA762  ILE779  LEU786  VAL792 
 PHE793  MET794  SER795  GLU796  ALA797  LYS798  CYS799  TRP800  GLU811  SER814 

> <Gold.Protein.RotatedAtoms>
  151.6322  135.1022  160.0123 H   0  0  0  0  0  0  0  0  0  0  0  0  # atno 6907 bound_to 6896
  152.4100  133.6944  159.6398 H   0  0  0  0  0  0  0  0  0  0  0  0  # atno 6908 bound_to 6896
  150.7991  133.8558  159.3259 H   0  0  0  0  0  0  0  0  0  0  0  0  # atno 6909 bound_to 6896
  144.7732  139.7770  143.6289 H   0  0  0  0  0  0  0  0  0  0  0  0  # atno 7974 bound_to 7965
  154.7605  140.2783  155.6218 H   0  0  0  0  0  0  0  0  0  0  0  0  # atno 8008 bound_to 7997
  156.2914  140.2661  156.2309 H   0  0  0  0  0  0  0  0  0  0  0  0  # atno 8009 bound_to 7997
  155.0023  140.0372  157.2355 H   0  0  0  0  0  0  0  0  0  0  0  0  # atno 8010 bound_to 7997
  139.5262  144.2771  152.0579 H   0  0  0  0  0  0  0  0  0  0  0  0  # atno 10167 bound_to 10162
  157.5117  130.8505  149.8443 H   0  0  0  0  0  0  0  0  0  0  0  0  # atno 10718 bound_to 10713
  152.9802  135.5752  154.4869 H   0  0  0  0  0  0  0  0  0  0  0  0  # atno 10763 bound_to 10752
  154.4410  135.2776  155.1850 H   0  0  0  0  0  0  0  0  0  0  0  0  # atno 10764 bound_to 10752
  154.3518  135.6207  153.5700 H   0  0  0  0  0  0  0  0  0  0  0  0  # atno 10765 bound_to 10752
  139.9400  134.9636  156.8538 H   0  0  0  0  0  0  0  0  0  0  0  0  # atno 11005 bound_to 11000
  146.1893  139.5125  142.9815 LP  0  0  0  0  0  0  0  0  0  0  0  0  # atno 17320 bound_to 7965
  145.6262  141.0313  143.1888 LP  0  0  0  0  0  0  0  0  0  0  0  0  # atno 17321 bound_to 7965
  140.2228  144.4449  150.6334 LP  0  0  0  0  0  0  0  0  0  0  0  0  # atno 17342 bound_to 10162
  140.6407  143.2203  151.6296 LP  0  0  0  0  0  0  0  0  0  0  0  0  # atno 17343 bound_to 10162
  156.0293  130.3769  150.1732 LP  0  0  0  0  0  0  0  0  0  0  0  0  # atno 17370 bound_to 10713
  156.9921  130.9896  151.3412 LP  0  0  0  0  0  0  0  0  0  0  0  0  # atno 17371 bound_to 10713
  140.5976  134.0202  155.7524 LP  0  0  0  0  0  0  0  0  0  0  0  0  # atno 17394 bound_to 11000
  141.1030  133.9738  157.3045 LP  0  0  0  0  0  0  0  0  0  0  0  0  # atno 17395 bound_to 11000

$$$$
