AV-unprocessed.smi:1093|AV-procd|sdf|4745|dock2
  -GOLD-   22720 3283D 1   1.00000     0.00000
 Structure written by MMmdl.
 47 48  0  0  0  0  0  0  0  0  2 V2000
  143.0440  137.4067  154.2324 C   0  0  0  0  0  0  0  0  0  0  0  0
  143.9718  138.3152  155.0523 C   0  0  0  0  0  0  0  0  0  0  0  0
  144.9769  139.0134  154.2115 N   0  3  2  0  0  0  0  0  0  0  0  0
  145.7745  138.0648  153.3910 C   0  0  0  0  0  0  0  0  0  0  0  0
  146.7132  138.8119  152.4291 C   0  0  0  0  0  0  0  0  0  0  0  0
  147.6309  139.7753  153.1922 C   0  0  0  0  0  0  0  0  0  0  0  0
  146.7884  140.7306  154.0511 C   0  0  2  0  0  0  0  0  0  0  0  0
  147.6636  141.6121  154.8182 N   0  0  0  0  0  0  0  0  0  0  0  0
  148.5373  141.2075  155.7511 C   0  0  0  0  0  0  0  0  0  0  0  0
  148.7130  140.0256  156.0465 O   0  0  0  0  0  0  0  0  0  0  0  0
  149.1972  142.2484  156.2862 N   0  0  0  0  0  0  0  0  0  0  0  0
  150.1529  142.2364  157.3372 C   0  0  0  0  0  0  0  0  0  0  0  0
  151.0363  141.1633  157.5942 C   0  0  0  0  0  0  0  0  0  0  0  0
  151.9226  141.2539  158.6846 C   0  0  0  0  0  0  0  0  0  0  0  0
  151.9054  142.4127  159.5006 C   0  0  0  0  0  0  0  0  0  0  0  0
  152.7752  142.5499  160.6066 N   0  0  0  0  0  0  0  0  0  0  0  0
  153.9134  141.6524  160.7603 C   0  0  0  0  0  0  0  0  0  0  0  0
  152.5709  143.6349  161.5608 C   0  0  0  0  0  0  0  0  0  0  0  0
  151.0476  143.4329  159.2537 N   0  0  0  0  0  0  0  0  0  0  0  0
  150.1975  143.3406  158.2102 C   0  0  0  0  0  0  0  0  0  0  0  0
  145.8522  139.9346  154.9850 C   0  0  0  0  0  0  0  0  0  0  0  0
  142.3891  136.8360  154.8912 H   0  0  0  0  0  0  0  0  0  0  0  0
  143.6154  136.6935  153.6378 H   0  0  0  0  0  0  0  0  0  0  0  0
  142.4041  137.9735  153.5568 H   0  0  0  0  0  0  0  0  0  0  0  0
  143.3932  139.0405  155.6261 H   0  0  0  0  0  0  0  0  0  0  0  0
  144.4883  137.6878  155.7799 H   0  0  0  0  0  0  0  0  0  0  0  0
  146.3507  137.4101  154.0469 H   0  0  0  0  0  0  0  0  0  0  0  0
  145.1073  137.4254  152.8118 H   0  0  0  0  0  0  0  0  0  0  0  0
  147.3116  138.0978  151.8625 H   0  0  0  0  0  0  0  0  0  0  0  0
  146.1232  139.3682  151.6992 H   0  0  0  0  0  0  0  0  0  0  0  0
  148.3149  139.2065  153.8239 H   0  0  0  0  0  0  0  0  0  0  0  0
  148.2471  140.3385  152.4900 H   0  0  0  0  0  0  0  0  0  0  0  0
  146.1804  141.3404  153.3796 H   0  0  0  0  0  0  0  0  0  0  0  0
  147.5887  142.6023  154.6354 H   0  0  0  0  0  0  0  0  0  0  0  0
  149.0241  143.1515  155.8690 H   0  0  0  0  0  0  0  0  0  0  0  0
  151.0409  140.2694  156.9899 H   0  0  0  0  0  0  0  0  0  0  0  0
  152.5933  140.4299  158.8747 H   0  0  0  0  0  0  0  0  0  0  0  0
  154.5903  141.7423  159.9103 H   0  0  0  0  0  0  0  0  0  0  0  0
  153.5777  140.6175  160.8330 H   0  0  0  0  0  0  0  0  0  0  0  0
  154.4806  141.8805  161.6628 H   0  0  0  0  0  0  0  0  0  0  0  0
  152.6401  144.6011  161.0599 H   0  0  0  0  0  0  0  0  0  0  0  0
  153.3201  143.6154  162.3521 H   0  0  0  0  0  0  0  0  0  0  0  0
  151.5892  143.5563  162.0292 H   0  0  0  0  0  0  0  0  0  0  0  0
  149.5340  144.1810  158.0669 H   0  0  0  0  0  0  0  0  0  0  0  0
  145.2414  140.6319  155.5574 H   0  0  0  0  0  0  0  0  0  0  0  0
  146.4351  139.3606  155.7077 H   0  0  0  0  0  0  0  0  0  0  0  0
  144.4570  139.5819  153.5580 H   0  0  0  0  0  0  0  0  0  0  0  0
  1  2  1  0  0  0  0
  1 22  1  0  0  0  0
  1 23  1  0  0  0  0
  1 24  1  0  0  0  0
  2  3  1  0  0  0  0
  2 25  1  0  0  0  0
  2 26  1  0  0  0  0
  3 21  1  0  0  0  0
  3  4  1  0  0  0  0
  3 47  1  0  0  0  0
  4  5  1  0  0  0  0
  4 27  1  0  0  0  0
  4 28  1  0  0  0  0
  5  6  1  0  0  0  0
  5 29  1  0  0  0  0
  5 30  1  0  0  0  0
  6  7  1  0  0  0  0
  6 31  1  0  0  0  0
  6 32  1  0  0  0  0
  7  8  1  0  0  0  0
  7 21  1  0  0  0  0
  7 33  1  0  0  0  0
  8  9  1  0  0  0  0
  8 34  1  0  0  0  0
  9 10  2  0  0  0  0
  9 11  1  0  0  0  0
 11 12  1  0  0  0  0
 11 35  1  0  0  0  0
 12 20  1  0  0  0  0
 12 13  2  0  0  0  0
 13 14  1  0  0  0  0
 13 36  1  0  0  0  0
 14 15  2  0  0  0  0
 14 37  1  0  0  0  0
 15 16  1  0  0  0  0
 15 19  1  0  0  0  0
 16 17  1  0  0  0  0
 16 18  1  0  0  0  0
 17 38  1  0  0  0  0
 17 39  1  0  0  0  0
 17 40  1  0  0  0  0
 18 41  1  0  0  0  0
 18 42  1  0  0  0  0
 18 43  1  0  0  0  0
 19 20  2  0  0  0  0
 20 44  1  0  0  0  0
 21 45  1  0  0  0  0
 21 46  1  0  0  0  0
M  CHG  1   3   1
M  END
> <s_m_source_file>
AV-unprocessed.smi

> <i_m_source_file_index>
1093

> <i_lp_mmshare_version>
43012

> <i_f3d_flags>
0

> <s_epik_input>
W0NIM11bQ0gyXU4xW0NIMl1bQ0gyXVtDSDJdW0NASF0oW0NIMl0xKVtOSF1DKD1PKVtOSF1jMltjSF1bY0hdYyhOKFtDSDNdKVtDSDNdKW5bY0hdMg==

> <s_epik_cmdline>
J2VwaWtfcHl0aG9uJywgJy1waCcsICc3LjAnLCAnLXRuJywgJzgnLCAnLW1hJywgJzIwMCcsICctbWV0YWxfYmluZGluZycsICctaW1hZScsICc8aW5maWxlLm1hZT4nLCAnLW9tYWUnLCAnPG91dGZpbGUubWFlPic=

> <r_lp_tautomer_probability>
1

> <r_epik_Ionization_Penalty>
0.489418

> <r_epik_Ionization_Penalty_Charging>
0.00268196

> <r_epik_Ionization_Penalty_Neutral>
0.486736

> <r_epik_State_Penalty>
0.491157

> <r_epik_Charging_Adjusted_Penalty>
0.493839

> <i_epik_Tot_Q>
1

> <i_epik_Tot_abs_Q>
1

> <r_epik_Metal_State_Penalty>
0.266953

> <b_epik_Metal_Only>
0

> <s_lp_Force_Field>
OPLS_2005

> <r_lp_Energy>
20.183

> <b_lp_Chiralities_Consistent>
1

> <s_lp_Variant>
AV-unprocessed.smi:1093-8

> <Gold.Version>
5.8.1

> <Gold.Id.Protein>
6NUR|6NUR_protein|mol2

> <Gold.PLP.Fitness>
46.0213

> <Gold.PLP.PLP>
-34.6595

> <Gold.PLP.part.hbond>
-1.9854

> <Gold.PLP.part.metal>
0.0000

> <Gold.PLP.part.buried>
-0.9246

> <Gold.PLP.part.nonpolar>
-31.3518

> <Gold.PLP.part.repulsive>
0.2132

> <Gold.PLP.ligand.clash>
0.0000

> <Gold.PLP.ligand.torsion>
0.2957

> <Gold.PLP.Chemscore.Hbond>
3.0000

> <Gold.PLP.Chemscore.CHOScore>
0.9751

> <Gold.PLP.Chemscore.Metal>
0.0000

> <Gold.Chemscore.Hbonds>
donor molecule, donor type, donor heavy atom, donor atom, acceptor molecule, acceptor atom, score
      L1  H     3    47       P1 10175  2.00
      L1  H    11    35       P1  8028  1.00
      L1  C    20    44       P1  8028  0.46
      L1  C    20    44       P1  8029  0.60

> <Gold.PLP.Chemscore.Internal.Correction>
0.0280

> <Gold.Rescore>
     Score         DG    S(hbond)    S(metal)    S(lipo)     H(rot)  DE(clash)    DE(int)     intcor
     15.04     -18.84       1.98        0.00      83.64       1.18       1.48       2.32       ----

> <Gold.Chemscore.Fitness>
15.0404

> <Gold.Chemscore.DG>
-18.8394

> <Gold.Chemscore.ZeroCoef>
-5.4800

> <Gold.Chemscore.Hbond>
1.9775

> <Gold.Chemscore.Metal>
0.0000

> <Gold.Chemscore.Lipo>
83.6423

> <Gold.Chemscore.Internal_Hbond>
0.0000

> <Gold.Chemscore.DEClash>
1.4810

> <Gold.Chemscore.DEInternal>
2.3181

> <Gold.Chemscore.Rot>
1.1842

> <Gold.Chemscore.Internal.Correction>
   9.000000E+99

> <Gold.Chemscore.Hbonds>
donor molecule, donor type, donor heavy atom, donor atom, acceptor molecule, acceptor atom, score
      L1  H     3    47       P1 10175  0.99
      L1  H    11    35       P1  8028  0.98

> <Gold.Chemscore.Hbond.Weighted>
-6.6049

> <Gold.Chemscore.Metal.Weighted>
-0.0000

> <Gold.Chemscore.Lipo.Weighted>
-9.7861

> <Gold.Chemscore.Internal_Hbond.Weighted>
0.0000

> <Gold.Chemscore.DEClash.Weighted>
1.4810

> <Gold.Chemscore.DEInternal.Weighted>
2.3181

> <Gold.Chemscore.Rot.Weighted>
3.0317

> <Gold.Chemscore.Internal.Correction.Weighted>
   9.000000E+99

> <Gold.Protein.RotatedTorsions>
[ 6907 6896 6895 6894 ] final  -14.20 input  -60.11 | X-H torsion
[ 7974 7965 7964 7962 ] final -145.63 input  175.53 | X-H torsion
[ 8008 7997 7996 7995 ] final  -30.25 input   59.86 | X-H torsion
[ 10167 10162 10161 10158 ] final  146.23 input  -65.29 | X-H torsion
[ 10718 10713 10712 10709 ] final   75.99 input   66.30 | X-H torsion
[ 10763 10752 10751 10750 ] final -121.34 input  -60.55 | X-H torsion
[ 11005 11000 10999 10996 ] final  140.19 input  -57.11 | X-H torsion

> <Gold.Protein.ActiveResidues>
 VAL166  LYS551  ARG553  GLY616  TRP617  ASP618  TYR619  PRO620  LYS621  CYS622 
 ASP623  PHE694  ASN695  SER759  ASP760  ASP761  ALA762  ILE779  LEU786  VAL792 
 PHE793  MET794  SER795  GLU796  ALA797  LYS798  CYS799  TRP800  GLU811  SER814 

> <Gold.Protein.RotatedAtoms>
  151.3431  135.0868  159.9377 H   0  0  0  0  0  0  0  0  0  0  0  0  # atno 6907 bound_to 6896
  152.5206  133.9427  159.7644 H   0  0  0  0  0  0  0  0  0  0  0  0  # atno 6908 bound_to 6896
  150.9788  133.6214  159.2755 H   0  0  0  0  0  0  0  0  0  0  0  0  # atno 6909 bound_to 6896
  144.8214  140.5560  143.5575 H   0  0  0  0  0  0  0  0  0  0  0  0  # atno 7974 bound_to 7965
  154.4258  140.1796  156.1377 H   0  0  0  0  0  0  0  0  0  0  0  0  # atno 8008 bound_to 7997
  156.0017  140.3359  155.6827 H   0  0  0  0  0  0  0  0  0  0  0  0  # atno 8009 bound_to 7997
  155.6234  140.0662  157.2662 H   0  0  0  0  0  0  0  0  0  0  0  0  # atno 8010 bound_to 7997
  139.4911  144.5844  151.6807 H   0  0  0  0  0  0  0  0  0  0  0  0  # atno 10167 bound_to 10162
  157.6656  130.9753  150.1433 H   0  0  0  0  0  0  0  0  0  0  0  0  # atno 10718 bound_to 10713
  154.8666  135.4171  154.2605 H   0  0  0  0  0  0  0  0  0  0  0  0  # atno 10763 bound_to 10752
  153.3534  135.7000  153.6776 H   0  0  0  0  0  0  0  0  0  0  0  0  # atno 10764 bound_to 10752
  153.5706  135.3592  155.2809 H   0  0  0  0  0  0  0  0  0  0  0  0  # atno 10765 bound_to 10752
  140.0309  134.9352  157.0661 H   0  0  0  0  0  0  0  0  0  0  0  0  # atno 11005 bound_to 11000
  145.5096  139.1480  143.3612 LP  0  0  0  0  0  0  0  0  0  0  0  0  # atno 17320 bound_to 7965
  146.2520  140.5236  142.8889 LP  0  0  0  0  0  0  0  0  0  0  0  0  # atno 17321 bound_to 7965
  140.5457  144.0506  150.6106 LP  0  0  0  0  0  0  0  0  0  0  0  0  # atno 17342 bound_to 10162
  140.3544  143.2944  152.0452 LP  0  0  0  0  0  0  0  0  0  0  0  0  # atno 17343 bound_to 10162
  156.2250  130.3677  149.8511 LP  0  0  0  0  0  0  0  0  0  0  0  0  # atno 17370 bound_to 10713
  156.6353  130.8683  151.3503 LP  0  0  0  0  0  0  0  0  0  0  0  0  # atno 17371 bound_to 10713
  140.4227  134.1864  155.7165 LP  0  0  0  0  0  0  0  0  0  0  0  0  # atno 17394 bound_to 11000
  141.1830  133.8373  157.1188 LP  0  0  0  0  0  0  0  0  0  0  0  0  # atno 17395 bound_to 11000

$$$$
