AV-unprocessed.smi:3085|AV-procd|sdf|11752|dock2
  -GOLD-   2272017143D 1   1.00000     0.00000
 Structure written by MMmdl.
 28 29  0  0  0  0  0  0  0  0  2 V2000
  144.3093  134.5219  156.3942 C   0  0  0  0  0  0  0  0  0  0  0  0
  145.6861  133.9351  156.0631 C   0  0  0  0  0  0  0  0  0  0  0  0
  146.0530  134.1306  154.6292 C   0  0  0  0  0  0  0  0  0  0  0  0
  145.3073  133.6273  153.5995 N   0  0  0  0  0  0  0  0  0  0  0  0
  145.9948  134.0921  152.5604 C   0  0  0  0  0  0  0  0  0  0  0  0
  145.6478  133.8721  151.1218 C   0  0  2  0  0  0  0  0  0  0  0  0
  144.2693  134.4541  150.7535 C   0  0  0  0  0  0  0  0  0  0  0  0
  143.9386  134.1212  149.3542 N   0  3  0  0  0  0  0  0  0  0  0  0
  144.0158  132.6668  149.1128 C   0  0  0  0  0  0  0  0  0  0  0  0
  145.3957  132.1328  149.5359 C   0  0  0  0  0  0  0  0  0  0  0  0
  145.6423  132.4640  150.8988 O   0  0  0  0  0  0  0  0  0  0  0  0
  147.0485  134.8220  152.9336 N   0  0  0  0  0  0  0  0  0  0  0  0
  147.1053  134.8696  154.2810 N   0  0  0  0  0  0  0  0  0  0  0  0
  147.7186  135.2874  152.3382 H   0  0  0  0  0  0  0  0  0  0  0  0
  144.0661  134.3733  157.4464 H   0  0  0  0  0  0  0  0  0  0  0  0
  143.5271  134.0479  155.8006 H   0  0  0  0  0  0  0  0  0  0  0  0
  144.2798  135.5933  156.1936 H   0  0  0  0  0  0  0  0  0  0  0  0
  146.4467  134.3958  156.6948 H   0  0  0  0  0  0  0  0  0  0  0  0
  145.6990  132.8690  156.2920 H   0  0  0  0  0  0  0  0  0  0  0  0
  146.4245  134.3295  150.5052 H   0  0  0  0  0  0  0  0  0  0  0  0
  143.4956  134.0472  151.4064 H   0  0  0  0  0  0  0  0  0  0  0  0
  144.2605  135.5371  150.8799 H   0  0  0  0  0  0  0  0  0  0  0  0
  143.0067  134.4484  149.1413 H   0  0  0  0  0  0  0  0  0  0  0  0
  143.2291  132.1671  149.6795 H   0  0  0  0  0  0  0  0  0  0  0  0
  143.8310  132.4636  148.0577 H   0  0  0  0  0  0  0  0  0  0  0  0
  145.4309  131.0489  149.4232 H   0  0  0  0  0  0  0  0  0  0  0  0
  146.1831  132.5445  148.9027 H   0  0  0  0  0  0  0  0  0  0  0  0
  144.5978  134.5856  148.7459 H   0  0  0  0  0  0  0  0  0  0  0  0
  1  2  1  0  0  0  0
  1 15  1  0  0  0  0
  1 16  1  0  0  0  0
  1 17  1  0  0  0  0
  2 18  1  0  0  0  0
  2 19  1  0  0  0  0
  2  3  1  0  0  0  0
  3  4  1  0  0  0  0
  3 13  2  0  0  0  0
  4  5  2  0  0  0  0
  5  6  1  0  0  0  0
  5 12  1  0  0  0  0
  6 11  1  0  0  0  0
  6  7  1  0  0  0  0
  6 20  1  0  0  0  0
  7  8  1  0  0  0  0
  7 21  1  0  0  0  0
  7 22  1  0  0  0  0
  8  9  1  0  0  0  0
  8 23  1  0  0  0  0
  8 28  1  0  0  0  0
  9 10  1  0  0  0  0
  9 24  1  0  0  0  0
  9 25  1  0  0  0  0
 10 11  1  0  0  0  0
 10 26  1  0  0  0  0
 10 27  1  0  0  0  0
 12 13  1  0  0  0  0
 12 14  1  0  0  0  0
M  CHG  1   8   1
M  END
> <s_m_source_file>
AV-unprocessed.smi

> <i_m_source_file_index>
3085

> <i_lp_mmshare_version>
43012

> <i_f3d_flags>
0

> <s_epik_input>
W0NIM11bQ0gyXWMxbmMobltuSF0xKVtDQEBIXTJbQ0gyXVtOSF1bQ0gyXVtDSDJdTzI=

> <s_epik_cmdline>
J2VwaWtfcHl0aG9uJywgJy1waCcsICc3LjAnLCAnLXRuJywgJzgnLCAnLW1hJywgJzIwMCcsICctbWV0YWxfYmluZGluZycsICctaW1hZScsICc8aW5maWxlLm1hZT4nLCAnLW9tYWUnLCAnPG91dGZpbGUubWFlPic=

> <r_epik_Ionization_Penalty>
0.162344

> <r_epik_Ionization_Penalty_Charging>
0.125708

> <r_epik_Ionization_Penalty_Neutral>
0.0366364

> <r_epik_State_Penalty>
0.637958

> <r_epik_Charging_Adjusted_Penalty>
0.763666

> <i_epik_Tot_Q>
1

> <i_epik_Tot_abs_Q>
1

> <r_epik_Metal_State_Penalty>
0.860091

> <b_epik_Metal_Only>
0

> <s_lp_Force_Field>
OPLS_2005

> <r_lp_Energy>
9.17309

> <b_lp_Chiralities_Consistent>
1

> <s_lp_Variant>
AV-unprocessed.smi:3085-3

> <Gold.Version>
5.8.1

> <Gold.Id.Protein>
6NUR|6NUR_protein|mol2

> <Gold.PLP.Fitness>
30.9827

> <Gold.PLP.PLP>
-18.9971

> <Gold.PLP.part.hbond>
-3.0000

> <Gold.PLP.part.metal>
0.0000

> <Gold.PLP.part.buried>
-4.8762

> <Gold.PLP.part.nonpolar>
-12.4705

> <Gold.PLP.part.repulsive>
0.4115

> <Gold.PLP.ligand.clash>
0.0000

> <Gold.PLP.ligand.torsion>
0.0111

> <Gold.PLP.Chemscore.Hbond>
4.0000

> <Gold.PLP.Chemscore.CHOScore>
0.0000

> <Gold.PLP.Chemscore.Metal>
0.0000

> <Gold.Chemscore.Hbonds>
donor molecule, donor type, donor heavy atom, donor atom, acceptor molecule, acceptor atom, score
      L1  H     8    23       P1 10186  2.00
      L1  H     8    28       P1  7921  1.00
      L1  H    12    14       P1  7948  1.00

> <Gold.PLP.Chemscore.Internal.Correction>
0.0078

> <Gold.Rescore>
     Score         DG    S(hbond)    S(metal)    S(lipo)     H(rot)  DE(clash)    DE(int)     intcor
     16.61     -16.62       2.93        0.00      40.21       1.30       0.00       0.01       ----

> <Gold.Chemscore.Fitness>
16.6084

> <Gold.Chemscore.DG>
-16.6245

> <Gold.Chemscore.ZeroCoef>
-5.4800

> <Gold.Chemscore.Hbond>
2.9253

> <Gold.Chemscore.Metal>
0.0000

> <Gold.Chemscore.Lipo>
40.2110

> <Gold.Chemscore.Internal_Hbond>
0.0000

> <Gold.Chemscore.DEClash>
0.0048

> <Gold.Chemscore.DEInternal>
0.0113

> <Gold.Chemscore.Rot>
1.3011

> <Gold.Chemscore.Internal.Correction>
   9.000000E+99

> <Gold.Chemscore.Hbonds>
donor molecule, donor type, donor heavy atom, donor atom, acceptor molecule, acceptor atom, score
      L1  H     8    23       P1 10186  0.88
      L1  H     8    28       P1  7921  0.99
      L1  H    12    14       P1  7948  0.98

> <Gold.Chemscore.Hbond.Weighted>
-9.7706

> <Gold.Chemscore.Metal.Weighted>
-0.0000

> <Gold.Chemscore.Lipo.Weighted>
-4.7047

> <Gold.Chemscore.Internal_Hbond.Weighted>
0.0000

> <Gold.Chemscore.DEClash.Weighted>
0.0048

> <Gold.Chemscore.DEInternal.Weighted>
0.0113

> <Gold.Chemscore.Rot.Weighted>
3.3308

> <Gold.Chemscore.Internal.Correction.Weighted>
   9.000000E+99

> <Gold.Protein.RotatedTorsions>
[ 6907 6896 6895 6894 ] final   85.30 input  -60.11 | X-H torsion
[ 7974 7965 7964 7962 ] final   72.24 input  175.53 | X-H torsion
[ 8008 7997 7996 7995 ] final  -88.21 input   59.86 | X-H torsion
[ 10167 10162 10161 10158 ] final  176.40 input  -65.29 | X-H torsion
[ 10718 10713 10712 10709 ] final  -64.72 input   66.30 | X-H torsion
[ 10763 10752 10751 10750 ] final -133.97 input  -60.55 | X-H torsion
[ 11005 11000 10999 10996 ] final  -25.10 input  -57.11 | X-H torsion

> <Gold.Protein.ActiveResidues>
 VAL166  LYS551  ARG553  GLY616  TRP617  ASP618  TYR619  PRO620  LYS621  CYS622 
 ASP623  PHE694  ASN695  SER759  ASP760  ASP761  ALA762  ILE779  LEU786  VAL792 
 PHE793  MET794  SER795  GLU796  ALA797  LYS798  CYS799  TRP800  GLU811  SER814 

> <Gold.Protein.RotatedAtoms>
  152.5372  134.2607  159.8933 H   0  0  0  0  0  0  0  0  0  0  0  0  # atno 6907 bound_to 6896
  151.2567  133.4316  159.2621 H   0  0  0  0  0  0  0  0  0  0  0  0  # atno 6908 bound_to 6896
  151.0490  134.9674  159.8258 H   0  0  0  0  0  0  0  0  0  0  0  0  # atno 6909 bound_to 6896
  145.7559  139.2779  143.1404 H   0  0  0  0  0  0  0  0  0  0  0  0  # atno 7974 bound_to 7965
  154.6722  140.0556  157.0177 H   0  0  0  0  0  0  0  0  0  0  0  0  # atno 8008 bound_to 7997
  155.1072  140.3235  155.4512 H   0  0  0  0  0  0  0  0  0  0  0  0  # atno 8009 bound_to 7997
  156.2662  140.2020  156.6197 H   0  0  0  0  0  0  0  0  0  0  0  0  # atno 8010 bound_to 7997
  139.5213  144.2919  152.0456 H   0  0  0  0  0  0  0  0  0  0  0  0  # atno 10167 bound_to 10162
  156.0712  130.4237  150.1461 H   0  0  0  0  0  0  0  0  0  0  0  0  # atno 10718 bound_to 10713
  154.8726  135.3749  154.4659 H   0  0  0  0  0  0  0  0  0  0  0  0  # atno 10763 bound_to 10752
  153.5323  135.7027  153.5682 H   0  0  0  0  0  0  0  0  0  0  0  0  # atno 10764 bound_to 10752
  153.3881  135.3979  155.1869 H   0  0  0  0  0  0  0  0  0  0  0  0  # atno 10765 bound_to 10752
  140.8906  133.7591  156.0417 H   0  0  0  0  0  0  0  0  0  0  0  0  # atno 11005 bound_to 11000
  146.0311  140.8256  142.9875 LP  0  0  0  0  0  0  0  0  0  0  0  0  # atno 17320 bound_to 7965
  144.6840  140.2771  143.7297 LP  0  0  0  0  0  0  0  0  0  0  0  0  # atno 17321 bound_to 7965
  140.2370  144.4309  150.6276 LP  0  0  0  0  0  0  0  0  0  0  0  0  # atno 17342 bound_to 10162
  140.6316  143.2188  151.6482 LP  0  0  0  0  0  0  0  0  0  0  0  0  # atno 17343 bound_to 10162
  156.9511  130.9775  151.3498 LP  0  0  0  0  0  0  0  0  0  0  0  0  # atno 17370 bound_to 10713
  157.5783  130.8359  149.8487 LP  0  0  0  0  0  0  0  0  0  0  0  0  # atno 17371 bound_to 10713
  140.8351  134.3133  157.5334 LP  0  0  0  0  0  0  0  0  0  0  0  0  # atno 17394 bound_to 11000
  139.8729  134.9385  156.3716 LP  0  0  0  0  0  0  0  0  0  0  0  0  # atno 17395 bound_to 11000

$$$$
