AV-unprocessed.smi:189|AV-procd|sdf|1476|dock4
  -GOLD-   2262019293D 1   1.00000     0.00000
 Structure written by MMmdl.
 53 57  0  0  0  0  0  0  0  0  1 V2000
  152.8045  138.7838  159.3468 C   0  0  0  0  0  0  0  0  0  0  0  0
  152.3833  140.2256  159.6907 C   0  0  1  0  0  0  0  0  0  0  0  0
  153.5020  141.2725  159.6499 C   0  0  0  0  0  0  0  0  0  0  0  0
  152.7296  142.6001  159.6184 C   0  0  1  0  0  0  0  0  0  0  0  0
  153.2963  143.6551  158.6521 C   0  0  0  0  0  0  0  0  0  0  0  0
  152.4134  144.9207  158.5956 C   0  0  0  0  0  0  0  0  0  0  0  0
  150.8983  144.6316  158.7021 C   0  0  0  0  0  0  0  0  0  0  0  0
  150.5548  143.1862  158.3163 C   0  0  0  0  0  0  0  0  0  0  0  0
  151.2758  142.1999  159.2732 C   0  0  1  0  0  0  0  0  0  0  0  0
  151.2897  140.7828  158.8930 N   0  0  0  0  0  0  0  0  0  0  0  0
  151.2407  140.5175  157.5621 C   0  0  0  0  0  0  0  0  0  0  0  0
  152.3566  140.1601  156.8719 N   0  0  0  0  0  0  0  0  0  0  0  0
  152.2906  139.9460  155.5546 C   0  0  0  0  0  0  0  0  0  0  0  0
  151.2343  140.0465  154.7449 N   0  0  0  0  0  0  0  0  0  0  0  0
  150.1174  140.4223  155.4319 C   0  0  0  0  0  0  0  0  0  0  0  0
  150.0339  140.6683  156.8304 C   0  0  0  0  0  0  0  0  0  0  0  0
  148.7377  141.0267  157.1771 N   0  0  0  0  0  0  0  0  0  0  0  0
  148.0894  140.9957  156.0449 C   0  0  0  0  0  0  0  0  0  0  0  0
  148.8441  140.6584  154.9432 N   0  0  0  0  0  0  0  0  0  0  0  0
  148.3803  140.5622  153.5681 C   0  0  0  0  0  0  0  0  0  0  0  0
  146.8689  140.2406  153.4360 C   0  0  1  0  0  0  0  0  0  0  0  0
  146.1048  141.3674  153.8217 O   0  0  0  0  0  0  0  0  0  0  0  0
  146.4914  139.8359  152.0204 C   0  0  0  0  0  0  0  0  0  0  0  0
  146.7934  138.3391  152.0033 C   0  0  0  0  0  0  0  0  0  0  0  0
  146.6279  137.8898  153.3449 O   0  0  0  0  0  0  0  0  0  0  0  0
  146.4134  138.9979  154.2134 C   0  0  0  0  0  0  0  0  0  0  0  0
  153.5346  138.4179  160.0687 H   0  0  0  0  0  0  0  0  0  0  0  0
  153.2620  138.7044  158.3613 H   0  0  0  0  0  0  0  0  0  0  0  0
  151.9484  138.1094  159.3759 H   0  0  0  0  0  0  0  0  0  0  0  0
  152.0040  140.1950  160.7136 H   0  0  0  0  0  0  0  0  0  0  0  0
  154.1697  141.1988  160.5088 H   0  0  0  0  0  0  0  0  0  0  0  0
  154.1091  141.1538  158.7518 H   0  0  0  0  0  0  0  0  0  0  0  0
  152.7294  143.0271  160.6226 H   0  0  0  0  0  0  0  0  0  0  0  0
  154.3156  143.9224  158.9319 H   0  0  0  0  0  0  0  0  0  0  0  0
  153.3607  143.2238  157.6523 H   0  0  0  0  0  0  0  0  0  0  0  0
  152.6971  145.6041  159.3968 H   0  0  0  0  0  0  0  0  0  0  0  0
  152.6230  145.4493  157.6650 H   0  0  0  0  0  0  0  0  0  0  0  0
  150.5691  144.8066  159.7272 H   0  0  0  0  0  0  0  0  0  0  0  0
  150.3409  145.3339  158.0816 H   0  0  0  0  0  0  0  0  0  0  0  0
  149.4772  143.0232  158.3529 H   0  0  0  0  0  0  0  0  0  0  0  0
  150.8546  143.0436  157.2777 H   0  0  0  0  0  0  0  0  0  0  0  0
  150.7161  142.2286  160.2096 H   0  0  0  0  0  0  0  0  0  0  0  0
  153.2180  139.6596  155.0812 H   0  0  0  0  0  0  0  0  0  0  0  0
  147.0370  141.2316  155.9798 H   0  0  0  0  0  0  0  0  0  0  0  0
  148.6092  141.5029  153.0655 H   0  0  0  0  0  0  0  0  0  0  0  0
  148.9769  139.7991  153.0673 H   0  0  0  0  0  0  0  0  0  0  0  0
  145.2021  141.2132  153.5890 H   0  0  0  0  0  0  0  0  0  0  0  0
  145.4231  139.9841  151.8533 H   0  0  0  0  0  0  0  0  0  0  0  0
  147.0279  140.3896  151.2489 H   0  0  0  0  0  0  0  0  0  0  0  0
  146.1420  137.7942  151.3198 H   0  0  0  0  0  0  0  0  0  0  0  0
  147.8251  138.1580  151.7008 H   0  0  0  0  0  0  0  0  0  0  0  0
  146.9113  138.8617  155.1722 H   0  0  0  0  0  0  0  0  0  0  0  0
  145.3417  139.0466  154.4137 H   0  0  0  0  0  0  0  0  0  0  0  0
  1  2  1  0  0  0  0
  1 27  1  0  0  0  0
  1 28  1  0  0  0  0
  1 29  1  0  0  0  0
  2 10  1  0  0  0  0
  2  3  1  0  0  0  0
  2 30  1  0  0  0  0
  3  4  1  0  0  0  0
  3 31  1  0  0  0  0
  3 32  1  0  0  0  0
  4  9  1  0  0  0  0
  4  5  1  0  0  0  0
  4 33  1  0  0  0  0
  5  6  1  0  0  0  0
  5 34  1  0  0  0  0
  5 35  1  0  0  0  0
  6  7  1  0  0  0  0
  6 36  1  0  0  0  0
  6 37  1  0  0  0  0
  7  8  1  0  0  0  0
  7 38  1  0  0  0  0
  7 39  1  0  0  0  0
  8  9  1  0  0  0  0
  8 40  1  0  0  0  0
  8 41  1  0  0  0  0
  9 10  1  0  0  0  0
  9 42  1  0  0  0  0
 10 11  1  0  0  0  0
 11 16  1  0  0  0  0
 11 12  2  0  0  0  0
 12 13  1  0  0  0  0
 13 14  2  0  0  0  0
 13 43  1  0  0  0  0
 14 15  1  0  0  0  0
 15 19  1  0  0  0  0
 15 16  2  0  0  0  0
 16 17  1  0  0  0  0
 17 18  2  0  0  0  0
 18 19  1  0  0  0  0
 18 44  1  0  0  0  0
 19 20  1  0  0  0  0
 20 21  1  0  0  0  0
 20 45  1  0  0  0  0
 20 46  1  0  0  0  0
 21 26  1  0  0  0  0
 21 22  1  0  0  0  0
 21 23  1  0  0  0  0
 22 47  1  0  0  0  0
 23 24  1  0  0  0  0
 23 48  1  0  0  0  0
 23 49  1  0  0  0  0
 24 25  1  0  0  0  0
 24 50  1  0  0  0  0
 24 51  1  0  0  0  0
 25 26  1  0  0  0  0
 26 52  1  0  0  0  0
 26 53  1  0  0  0  0
M  END
> <s_m_source_file>
AV-unprocessed.smi

> <i_m_source_file_index>
189

> <i_lp_mmshare_version>
43012

> <i_f3d_flags>
0

> <s_epik_input>
W0NIMl0xW0NIMl1bQ0gyXVtDSDJdW0NASF0oW0NASF0xMilOKFtDQEhdKFtDSDNdKVtDSDJdMiljKG5bY0hdbjMpYyhjMzQpbltjSF1uNFtDSDJdW0NAQF01KFtPSF0pW0NIMl1bQ0gyXU9bQ0gyXTU=

> <s_epik_cmdline>
J2VwaWtfcHl0aG9uJywgJy1waCcsICc3LjAnLCAnLXRuJywgJzgnLCAnLW1hJywgJzIwMCcsICctbWV0YWxfYmluZGluZycsICctaW1hZScsICc8aW5maWxlLm1hZT4nLCAnLW9tYWUnLCAnPG91dGZpbGUubWFlPic=

> <r_lp_tautomer_probability>
1

> <r_epik_Ionization_Penalty>
0.00594261

> <r_epik_Ionization_Penalty_Charging>
0

> <r_epik_Ionization_Penalty_Neutral>
0.00594261

> <r_epik_State_Penalty>
0.00429776

> <r_epik_Charging_Adjusted_Penalty>
0.00429776

> <i_epik_Tot_Q>
0

> <i_epik_Tot_abs_Q>
0

> <r_epik_Metal_State_Penalty>
-0

> <b_epik_Metal_Only>
0

> <s_lp_Force_Field>
OPLS_2005

> <r_lp_Energy>
67.8884

> <b_lp_Chiralities_Consistent>
1

> <s_lp_Variant>
AV-unprocessed.smi:189-2

> <Gold.Version>
5.8.1

> <Gold.Id.Protein>
6NUR|6NUR_protein|mol2

> <Gold.PLP.Fitness>
46.9722

> <Gold.PLP.PLP>
-42.9132

> <Gold.PLP.part.hbond>
-3.0000

> <Gold.PLP.part.metal>
0.0000

> <Gold.PLP.part.buried>
2.1438

> <Gold.PLP.part.nonpolar>
-43.5489

> <Gold.PLP.part.repulsive>
0.3419

> <Gold.PLP.ligand.clash>
1.0051

> <Gold.PLP.ligand.torsion>
0.9542

> <Gold.PLP.Chemscore.Hbond>
2.3075

> <Gold.PLP.Chemscore.CHOScore>
0.0000

> <Gold.PLP.Chemscore.Metal>
0.0000

> <Gold.Chemscore.Hbonds>
donor molecule, donor type, donor heavy atom, donor atom, acceptor molecule, acceptor atom, score
      L1  H    22    47       P1 10175  1.00
      P1  H  7989  7998       L1    14  1.00
      P1  H  7997  8009       L1    12  0.39

> <Gold.PLP.Chemscore.Internal.Correction>
0.0500

> <Gold.Rescore>
     Score         DG    S(hbond)    S(metal)    S(lipo)     H(rot)  DE(clash)    DE(int)     intcor
     14.11     -20.50       1.61        0.00     126.67       2.03       3.01       3.38       ----

> <Gold.Chemscore.Fitness>
14.1072

> <Gold.Chemscore.DG>
-20.4961

> <Gold.Chemscore.ZeroCoef>
-5.4800

> <Gold.Chemscore.Hbond>
1.6144

> <Gold.Chemscore.Metal>
0.0000

> <Gold.Chemscore.Lipo>
126.6665

> <Gold.Chemscore.Internal_Hbond>
0.0000

> <Gold.Chemscore.DEClash>
3.0080

> <Gold.Chemscore.DEInternal>
3.3809

> <Gold.Chemscore.Rot>
2.0297

> <Gold.Chemscore.Internal.Correction>
   9.000000E+99

> <Gold.Chemscore.Hbonds>
donor molecule, donor type, donor heavy atom, donor atom, acceptor molecule, acceptor atom, score
      L1  H    22    47       P1 10175  0.42
      P1  H  7989  7998       L1    14  0.59
      P1  H  7997  8009       L1    12  0.03

> <Gold.Chemscore.Hbond.Weighted>
-5.3921

> <Gold.Chemscore.Metal.Weighted>
-0.0000

> <Gold.Chemscore.Lipo.Weighted>
-14.8200

> <Gold.Chemscore.Internal_Hbond.Weighted>
0.0000

> <Gold.Chemscore.DEClash.Weighted>
3.0080

> <Gold.Chemscore.DEInternal.Weighted>
3.3809

> <Gold.Chemscore.Rot.Weighted>
5.1960

> <Gold.Chemscore.Internal.Correction.Weighted>
   9.000000E+99

> <Gold.Protein.RotatedTorsions>
[ 6907 6896 6895 6894 ] final -129.34 input  -60.11 | X-H torsion
[ 7974 7965 7964 7962 ] final   65.86 input  175.53 | X-H torsion
[ 8008 7997 7996 7995 ] final  165.38 input   59.86 | X-H torsion
[ 10167 10162 10161 10158 ] final  -85.22 input  -65.29 | X-H torsion
[ 10718 10713 10712 10709 ] final  113.50 input   66.30 | X-H torsion
[ 10763 10752 10751 10750 ] final -158.64 input  -60.55 | X-H torsion
[ 11005 11000 10999 10996 ] final   70.56 input  -57.11 | X-H torsion

> <Gold.Protein.ActiveResidues>
 VAL166  LYS551  ARG553  GLY616  TRP617  ASP618  TYR619  PRO620  LYS621  CYS622 
 ASP623  PHE694  ASN695  SER759  ASP760  ASP761  ALA762  ILE779  LEU786  VAL792 
 PHE793  MET794  SER795  GLU796  ALA797  LYS798  CYS799  TRP800  GLU811  SER814 

> <Gold.Protein.RotatedAtoms>
  150.9276  133.6804  159.2817 H   0  0  0  0  0  0  0  0  0  0  0  0  # atno 6907 bound_to 6896
  151.4237  135.1000  159.9631 H   0  0  0  0  0  0  0  0  0  0  0  0  # atno 6908 bound_to 6896
  152.5010  133.8722  159.7359 H   0  0  0  0  0  0  0  0  0  0  0  0  # atno 6909 bound_to 6896
  145.8335  139.3153  143.0974 H   0  0  0  0  0  0  0  0  0  0  0  0  # atno 7974 bound_to 7965
  156.1805  140.1671  156.8283 H   0  0  0  0  0  0  0  0  0  0  0  0  # atno 8008 bound_to 7997
  154.5354  140.0748  156.8452 H   0  0  0  0  0  0  0  0  0  0  0  0  # atno 8009 bound_to 7997
  155.3321  140.3379  155.4242 H   0  0  0  0  0  0  0  0  0  0  0  0  # atno 8010 bound_to 7997
  140.4058  143.2643  151.9083 H   0  0  0  0  0  0  0  0  0  0  0  0  # atno 10167 bound_to 10162
  157.6334  131.0984  150.7050 H   0  0  0  0  0  0  0  0  0  0  0  0  # atno 10718 bound_to 10713
  154.7540  135.3100  154.8504 H   0  0  0  0  0  0  0  0  0  0  0  0  # atno 10763 bound_to 10752
  153.9283  135.6788  153.4750 H   0  0  0  0  0  0  0  0  0  0  0  0  # atno 10764 bound_to 10752
  153.1137  135.4854  154.9008 H   0  0  0  0  0  0  0  0  0  0  0  0  # atno 10765 bound_to 10752
  139.9591  134.7092  156.0686 H   0  0  0  0  0  0  0  0  0  0  0  0  # atno 11005 bound_to 11000
  145.9545  140.8883  143.0242 LP  0  0  0  0  0  0  0  0  0  0  0  0  # atno 17320 bound_to 7965
  144.6738  140.1726  143.7413 LP  0  0  0  0  0  0  0  0  0  0  0  0  # atno 17321 bound_to 7965
  139.4783  144.5588  151.8272 LP  0  0  0  0  0  0  0  0  0  0  0  0  # atno 17342 bound_to 10162
  140.4691  144.1612  150.5915 LP  0  0  0  0  0  0  0  0  0  0  0  0  # atno 17343 bound_to 10162
  156.7385  130.4731  149.5483 LP  0  0  0  0  0  0  0  0  0  0  0  0  # atno 17370 bound_to 10713
  156.1555  130.6339  151.0652 LP  0  0  0  0  0  0  0  0  0  0  0  0  # atno 17371 bound_to 10713
  141.1266  133.6597  156.3353 LP  0  0  0  0  0  0  0  0  0  0  0  0  # atno 17394 bound_to 11000
  140.5541  134.5998  157.5416 LP  0  0  0  0  0  0  0  0  0  0  0  0  # atno 17395 bound_to 11000

$$$$
