AV-unprocessed.smi:38|AV-procd|sdf|335|dock9
  -GOLD-   2262016173D 1   1.00000     0.00000
 Structure written by MMmdl.
 28 29  0  0  0  0  0  0  0  0  1 V2000
  152.3290  136.9837  159.9222 O   0  0  0  0  0  0  0  0  0  0  0  0
  152.0266  137.4470  158.8243 C   0  0  0  0  0  0  0  0  0  0  0  0
  153.0151  137.6842  157.8645 N   0  0  0  0  0  0  0  0  0  0  0  0
  152.7989  138.2018  156.5857 C   0  0  0  0  0  0  0  0  0  0  0  0
  153.7499  138.3554  155.8207 O   0  0  0  0  0  0  0  0  0  0  0  0
  151.4662  138.5166  156.2357 N   0  0  0  0  0  0  0  0  0  0  0  0
  151.1557  139.0924  154.8728 C   0  0  1  0  0  0  0  0  0  0  0  0
  150.1767  138.1958  154.1081 C   0  0  0  0  0  0  0  0  0  0  0  0
  148.8880  138.9950  154.1645 C   0  0  2  0  0  0  0  0  0  0  0  0
  148.0964  138.7510  153.0198 O   0  0  0  0  0  0  0  0  0  0  0  0
  149.3961  140.4381  154.2266 C   0  0  1  0  0  0  0  0  0  0  0  0
  148.3930  141.4160  154.8572 C   0  0  0  0  0  0  0  0  0  0  0  0
  148.5099  142.6863  154.2532 O   0  0  0  0  0  0  0  0  0  0  0  0
  150.5538  140.3388  155.0500 O   0  0  0  0  0  0  0  0  0  0  0  0
  150.4520  138.2964  157.1577 C   0  0  0  0  0  0  0  0  0  0  0  0
  150.6748  137.7914  158.3939 C   0  0  0  0  0  0  0  0  0  0  0  0
  149.6404  137.6072  159.2319 F   0  0  0  0  0  0  0  0  0  0  0  0
  153.9667  137.4611  158.1170 H   0  0  0  0  0  0  0  0  0  0  0  0
  152.0985  139.2365  154.3439 H   0  0  0  0  0  0  0  0  0  0  0  0
  148.3276  138.7423  155.0653 H   0  0  0  0  0  0  0  0  0  0  0  0
  149.6979  140.7639  153.2288 H   0  0  0  0  0  0  0  0  0  0  0  0
  150.5369  138.0990  153.0824 H   0  0  0  0  0  0  0  0  0  0  0  0
  150.0956  137.1999  154.5456 H   0  0  0  0  0  0  0  0  0  0  0  0
  148.4624  139.2293  152.2913 H   0  0  0  0  0  0  0  0  0  0  0  0
  147.3733  141.0687  154.6898 H   0  0  0  0  0  0  0  0  0  0  0  0
  148.5368  141.4917  155.9356 H   0  0  0  0  0  0  0  0  0  0  0  0
  148.7012  143.3230  154.9247 H   0  0  0  0  0  0  0  0  0  0  0  0
  149.4344  138.5375  156.8886 H   0  0  0  0  0  0  0  0  0  0  0  0
  1  2  2  0  0  0  0
  2 16  1  0  0  0  0
  2  3  1  0  0  0  0
  3 18  1  0  0  0  0
  3  4  1  0  0  0  0
  4  5  2  0  0  0  0
  4  6  1  0  0  0  0
  6  7  1  0  0  0  0
  6 15  1  0  0  0  0
  7 19  1  0  0  0  0
  7 14  1  0  0  0  0
  7  8  1  0  0  0  0
  8  9  1  0  0  0  0
  8 22  1  0  0  0  0
  8 23  1  0  0  0  0
  9 20  1  0  0  0  0
  9 10  1  0  0  0  0
  9 11  1  0  0  0  0
 10 24  1  0  0  0  0
 11 21  1  0  0  0  0
 11 12  1  0  0  0  0
 11 14  1  0  0  0  0
 12 13  1  0  0  0  0
 12 25  1  0  0  0  0
 12 26  1  0  0  0  0
 13 27  1  0  0  0  0
 15 16  2  0  0  0  0
 15 28  1  0  0  0  0
 16 17  1  0  0  0  0
M  END
> <s_m_source_file>
AV-unprocessed.smi

> <i_m_source_file_index>
38

> <i_lp_mmshare_version>
43012

> <i_f3d_flags>
0

> <s_epik_input>
Tz1jMVtuSF1jKD1PKW4oW2NIXWMxRilbQ0BIXTJbQ0gyXVtDQEhdKFtPSF0pW0NASF0oTzIpW0NIMl1bT0hd

> <s_epik_cmdline>
J2VwaWtfcHl0aG9uJywgJy1waCcsICc3LjAnLCAnLXRuJywgJzgnLCAnLW1hJywgJzIwMCcsICctbWV0YWxfYmluZGluZycsICctaW1hZScsICc8aW5maWxlLm1hZT4nLCAnLW9tYWUnLCAnPG91dGZpbGUubWFlPic=

> <r_lp_tautomer_probability>
0.999537

> <r_epik_Ionization_Penalty>
0.0357432

> <r_epik_Ionization_Penalty_Charging>
0.0357431

> <r_epik_Ionization_Penalty_Neutral>
1.19946e-07

> <r_epik_State_Penalty>
0.0298169

> <r_epik_Charging_Adjusted_Penalty>
0.06556

> <i_epik_Tot_Q>
0

> <i_epik_Tot_abs_Q>
0

> <r_epik_Metal_State_Penalty>
2.348

> <b_epik_Metal_Only>
0

> <s_epik_Chemistry_Notes>
This compound contains an acetal/aminal-like group ( X-CH(R)-Y where X, Y are N, S, or O) that may be acid/base labile, releasing an aldehyde.

> <s_lp_Force_Field>
OPLS_2005

> <r_lp_Energy>
27.0042

> <b_lp_Chiralities_Consistent>
1

> <s_lp_Variant>
AV-unprocessed.smi:38-1

> <Gold.Version>
5.8.1

> <Gold.Id.Protein>
6NUR|6NUR_protein|mol2

> <Gold.PLP.Fitness>
37.7007

> <Gold.PLP.PLP>
-27.4936

> <Gold.PLP.part.hbond>
-7.2008

> <Gold.PLP.part.metal>
0.0000

> <Gold.PLP.part.buried>
-1.5193

> <Gold.PLP.part.nonpolar>
-18.9714

> <Gold.PLP.part.repulsive>
0.1987

> <Gold.PLP.ligand.clash>
0.0000

> <Gold.PLP.ligand.torsion>
0.4838

> <Gold.PLP.Chemscore.Hbond>
3.7218

> <Gold.PLP.Chemscore.CHOScore>
0.0000

> <Gold.PLP.Chemscore.Metal>
0.0000

> <Gold.Chemscore.Hbonds>
donor molecule, donor type, donor heavy atom, donor atom, acceptor molecule, acceptor atom, score
      L1  H    10    24       P1  7957  1.00
      L1  H    13    27       P1  8028  1.00
      P1  H  6896  6907       L1     1  1.00
      P1  H  7989  7998       L1    14  0.10
      P1  H  7997  8009       L1     5  0.62
      P1  H  8011  8017       L1    13  0.01

> <Gold.PLP.Chemscore.Internal.Correction>
0.0092

> <Gold.Rescore>
     Score         DG    S(hbond)    S(metal)    S(lipo)     H(rot)  DE(clash)    DE(int)     intcor
     12.99     -13.67       3.47        0.00      34.62       2.91       0.01       0.67       ----

> <Gold.Chemscore.Fitness>
12.9940

> <Gold.Chemscore.DG>
-13.6654

> <Gold.Chemscore.ZeroCoef>
-5.4800

> <Gold.Chemscore.Hbond>
3.4716

> <Gold.Chemscore.Metal>
0.0000

> <Gold.Chemscore.Lipo>
34.6188

> <Gold.Chemscore.Internal_Hbond>
0.0000

> <Gold.Chemscore.DEClash>
0.0057

> <Gold.Chemscore.DEInternal>
0.6657

> <Gold.Chemscore.Rot>
2.9141

> <Gold.Chemscore.Internal.Correction>
   9.000000E+99

> <Gold.Chemscore.Hbonds>
donor molecule, donor type, donor heavy atom, donor atom, acceptor molecule, acceptor atom, score
      L1  H    10    24       P1  7957  1.00
      L1  H    13    27       P1  8028  0.96
      P1  H  6896  6907       L1     1  0.82
      P1  H  7997  8009       L1     5  0.40
      P1  H  8011  8017       L1    13  0.02

> <Gold.Chemscore.Hbond.Weighted>
-11.5951

> <Gold.Chemscore.Metal.Weighted>
-0.0000

> <Gold.Chemscore.Lipo.Weighted>
-4.0504

> <Gold.Chemscore.Internal_Hbond.Weighted>
0.0000

> <Gold.Chemscore.DEClash.Weighted>
0.0057

> <Gold.Chemscore.DEInternal.Weighted>
0.6657

> <Gold.Chemscore.Rot.Weighted>
7.4601

> <Gold.Chemscore.Internal.Correction.Weighted>
   9.000000E+99

> <Gold.Protein.RotatedTorsions>
[ 6907 6896 6895 6894 ] final   23.73 input  -60.11 | X-H torsion
[ 7974 7965 7964 7962 ] final  -72.38 input  175.53 | X-H torsion
[ 8008 7997 7996 7995 ] final -144.74 input   59.86 | X-H torsion
[ 10167 10162 10161 10158 ] final  100.74 input  -65.29 | X-H torsion
[ 10718 10713 10712 10709 ] final  118.85 input   66.30 | X-H torsion
[ 10763 10752 10751 10750 ] final   54.64 input  -60.55 | X-H torsion
[ 11005 11000 10999 10996 ] final   58.90 input  -57.11 | X-H torsion

> <Gold.Protein.ActiveResidues>
 VAL166  LYS551  ARG553  GLY616  TRP617  ASP618  TYR619  PRO620  LYS621  CYS622 
 ASP623  PHE694  ASN695  SER759  ASP760  ASP761  ALA762  ILE779  LEU786  VAL792 
 PHE793  MET794  SER795  GLU796  ALA797  LYS798  CYS799  TRP800  GLU811  SER814 

> <Gold.Protein.RotatedAtoms>
  151.9468  135.0188  160.0539 H   0  0  0  0  0  0  0  0  0  0  0  0  # atno 6907 bound_to 6896
  152.1988  133.4821  159.5056 H   0  0  0  0  0  0  0  0  0  0  0  0  # atno 6908 bound_to 6896
  150.6950  134.1534  159.4192 H   0  0  0  0  0  0  0  0  0  0  0  0  # atno 6909 bound_to 6896
  145.6659  140.9237  143.0909 H   0  0  0  0  0  0  0  0  0  0  0  0  # atno 7974 bound_to 7965
  155.5319  140.0600  157.2887 H   0  0  0  0  0  0  0  0  0  0  0  0  # atno 8008 bound_to 7997
  154.4481  140.1934  156.0547 H   0  0  0  0  0  0  0  0  0  0  0  0  # atno 8009 bound_to 7997
  156.0646  140.3268  155.7506 H   0  0  0  0  0  0  0  0  0  0  0  0  # atno 8010 bound_to 7997
  139.7500  144.6987  151.0447 H   0  0  0  0  0  0  0  0  0  0  0  0  # atno 10167 bound_to 10162
  157.6002  131.1052  150.7814 H   0  0  0  0  0  0  0  0  0  0  0  0  # atno 10718 bound_to 10713
  152.9807  135.5738  154.4937 H   0  0  0  0  0  0  0  0  0  0  0  0  # atno 10763 bound_to 10752
  154.4467  135.2777  155.1812 H   0  0  0  0  0  0  0  0  0  0  0  0  # atno 10764 bound_to 10752
  154.3456  135.6220  153.5671 H   0  0  0  0  0  0  0  0  0  0  0  0  # atno 10765 bound_to 10752
  140.0344  134.5965  155.9464 H   0  0  0  0  0  0  0  0  0  0  0  0  # atno 11005 bound_to 11000
  144.7073  139.8509  143.7426 LP  0  0  0  0  0  0  0  0  0  0  0  0  # atno 17320 bound_to 7965
  146.1086  139.4089  143.0302 LP  0  0  0  0  0  0  0  0  0  0  0  0  # atno 17321 bound_to 7965
  140.7796  143.4821  151.0005 LP  0  0  0  0  0  0  0  0  0  0  0  0  # atno 17342 bound_to 10162
  139.8508  143.7440  152.3178 LP  0  0  0  0  0  0  0  0  0  0  0  0  # atno 17343 bound_to 10162
  156.8215  130.4985  149.5342 LP  0  0  0  0  0  0  0  0  0  0  0  0  # atno 17370 bound_to 10713
  156.1074  130.6014  150.9992 LP  0  0  0  0  0  0  0  0  0  0  0  0  # atno 17371 bound_to 10713
  141.1849  133.6554  156.5175 LP  0  0  0  0  0  0  0  0  0  0  0  0  # atno 17394 bound_to 11000
  140.4173  134.7219  157.4870 LP  0  0  0  0  0  0  0  0  0  0  0  0  # atno 17395 bound_to 11000

$$$$
