AV-unprocessed.smi:680|AV-procd|sdf|3323|dock5
  -GOLD-   22720 0293D 1   1.00000     0.00000
 Structure written by MMmdl.
 32 33  0  0  0  0  0  0  0  0  1 V2000
  152.3279  140.0789  155.5048 C   0  0  0  0  0  0  0  0  0  0  0  0
  151.7609  138.7002  155.3369 C   0  0  0  0  0  0  0  0  0  0  0  0
  150.5908  138.3071  154.6297 C   0  0  0  0  0  0  0  0  0  0  0  0
  150.5678  136.9501  154.8120 C   0  0  0  0  0  0  0  0  0  0  0  0
  149.6638  136.0499  154.3449 N   0  0  0  0  0  0  0  0  0  0  0  0
  149.1992  134.9348  154.9361 C   0  0  0  0  0  0  0  0  0  0  0  0
  149.5285  134.5267  156.0499 O   0  0  0  0  0  0  0  0  0  0  0  0
  148.3183  134.3030  154.1463 N   0  0  0  0  0  0  0  0  0  0  0  0
  147.6375  133.0498  154.4626 C   0  0  0  0  0  0  0  0  0  0  0  0
  146.8118  132.5318  153.2693 C   0  0  2  0  0  0  0  0  0  0  0  0
  146.0148  133.6745  152.6142 C   0  0  0  0  0  0  0  0  0  0  0  0
  145.3226  133.1981  151.0052 S   0  0  0  0  0  0  0  0  0  0  0  0
  144.2260  131.8505  151.5241 C   0  0  0  0  0  0  0  0  0  0  0  0
  145.0028  130.7041  152.1825 C   0  0  0  0  0  0  0  0  0  0  0  0
  145.6948  131.1897  153.7875 S   0  0  0  0  0  0  0  0  0  0  0  0
  151.6219  136.5368  155.5565 O   0  0  0  0  0  0  0  0  0  0  0  0
  152.3787  137.6664  155.8893 N   0  0  0  0  0  0  0  0  0  0  0  0
  151.7124  140.8216  154.9969 H   0  0  0  0  0  0  0  0  0  0  0  0
  153.3340  140.1429  155.0899 H   0  0  0  0  0  0  0  0  0  0  0  0
  152.3818  140.3567  156.5578 H   0  0  0  0  0  0  0  0  0  0  0  0
  149.8995  138.9321  154.0850 H   0  0  0  0  0  0  0  0  0  0  0  0
  149.3052  136.2439  153.4216 H   0  0  0  0  0  0  0  0  0  0  0  0
  148.1108  134.7137  153.2477 H   0  0  0  0  0  0  0  0  0  0  0  0
  148.3359  132.2812  154.7985 H   0  0  0  0  0  0  0  0  0  0  0  0
  146.9783  133.2488  155.3079 H   0  0  0  0  0  0  0  0  0  0  0  0
  147.5024  132.1231  152.5301 H   0  0  0  0  0  0  0  0  0  0  0  0
  145.2117  134.0125  153.2701 H   0  0  0  0  0  0  0  0  0  0  0  0
  146.6640  134.5336  152.4434 H   0  0  0  0  0  0  0  0  0  0  0  0
  143.4669  132.2410  152.2026 H   0  0  0  0  0  0  0  0  0  0  0  0
  143.7034  131.4816  150.6413 H   0  0  0  0  0  0  0  0  0  0  0  0
  144.3372  129.8564  152.3459 H   0  0  0  0  0  0  0  0  0  0  0  0
  145.8050  130.3563  151.5310 H   0  0  0  0  0  0  0  0  0  0  0  0
  1  2  1  0  0  0  0
  1 18  1  0  0  0  0
  1 19  1  0  0  0  0
  1 20  1  0  0  0  0
  2 17  2  0  0  0  0
  2  3  1  0  0  0  0
  3  4  2  0  0  0  0
  3 21  1  0  0  0  0
  4  5  1  0  0  0  0
  4 16  1  0  0  0  0
  5  6  1  0  0  0  0
  5 22  1  0  0  0  0
  6  7  2  0  0  0  0
  6  8  1  0  0  0  0
  8  9  1  0  0  0  0
  8 23  1  0  0  0  0
  9 10  1  0  0  0  0
  9 24  1  0  0  0  0
  9 25  1  0  0  0  0
 10 15  1  0  0  0  0
 10 11  1  0  0  0  0
 10 26  1  0  0  0  0
 11 12  1  0  0  0  0
 11 27  1  0  0  0  0
 11 28  1  0  0  0  0
 12 13  1  0  0  0  0
 13 14  1  0  0  0  0
 13 29  1  0  0  0  0
 13 30  1  0  0  0  0
 14 15  1  0  0  0  0
 14 31  1  0  0  0  0
 14 32  1  0  0  0  0
 16 17  1  0  0  0  0
M  END
> <s_m_source_file>
AV-unprocessed.smi

> <i_m_source_file_index>
680

> <i_lp_mmshare_version>
43012

> <i_f3d_flags>
0

> <s_epik_input>
W0NIM11jMVtjSF1jKG9uMSlbTkhdQyg9TylbTkhdW0NIMl1bQ0BASF0yW0NIMl1TW0NIMl1bQ0gyXVMy

> <s_epik_cmdline>
J2VwaWtfcHl0aG9uJywgJy1waCcsICc3LjAnLCAnLXRuJywgJzgnLCAnLW1hJywgJzIwMCcsICctbWV0YWxfYmluZGluZycsICctaW1hZScsICc8aW5maWxlLm1hZT4nLCAnLW9tYWUnLCAnPG91dGZpbGUubWFlPic=

> <r_epik_Ionization_Penalty>
0.000554698

> <r_epik_Ionization_Penalty_Charging>
0

> <r_epik_Ionization_Penalty_Neutral>
0.000554698

> <r_epik_State_Penalty>
0.000333438

> <r_epik_Charging_Adjusted_Penalty>
0.000333438

> <i_epik_Tot_Q>
0

> <i_epik_Tot_abs_Q>
0

> <r_epik_Metal_State_Penalty>
-0

> <b_epik_Metal_Only>
0

> <s_lp_Force_Field>
OPLS_2005

> <r_lp_Energy>
4.32293

> <b_lp_Chiralities_Consistent>
1

> <s_lp_Variant>
AV-unprocessed.smi:680-1

> <Gold.Version>
5.8.1

> <Gold.Id.Protein>
6NUR|6NUR_protein|mol2

> <Gold.PLP.Fitness>
38.3751

> <Gold.PLP.PLP>
-30.6697

> <Gold.PLP.part.hbond>
-4.7711

> <Gold.PLP.part.metal>
0.0000

> <Gold.PLP.part.buried>
-0.9567

> <Gold.PLP.part.nonpolar>
-25.1599

> <Gold.PLP.part.repulsive>
0.1734

> <Gold.PLP.ligand.clash>
0.0000

> <Gold.PLP.ligand.torsion>
0.3730

> <Gold.PLP.Chemscore.Hbond>
2.8160

> <Gold.PLP.Chemscore.CHOScore>
0.0000

> <Gold.PLP.Chemscore.Metal>
0.0000

> <Gold.Chemscore.Hbonds>
donor molecule, donor type, donor heavy atom, donor atom, acceptor molecule, acceptor atom, score
      L1  H     5    22       P1  7948  1.00
      L1  H     8    23       P1  7948  0.47
      P1  H 10752 10764       L1    16  0.90

> <Gold.PLP.Chemscore.Internal.Correction>
0.0035

> <Gold.Rescore>
     Score         DG    S(hbond)    S(metal)    S(lipo)     H(rot)  DE(clash)    DE(int)     intcor
     14.46     -15.92       2.05        0.00      58.40       1.26       0.00       1.46       ----

> <Gold.Chemscore.Fitness>
14.4604

> <Gold.Chemscore.DG>
-15.9209

> <Gold.Chemscore.ZeroCoef>
-5.4800

> <Gold.Chemscore.Hbond>
2.0453

> <Gold.Chemscore.Metal>
0.0000

> <Gold.Chemscore.Lipo>
58.4005

> <Gold.Chemscore.Internal_Hbond>
0.0000

> <Gold.Chemscore.DEClash>
0.0021

> <Gold.Chemscore.DEInternal>
1.4584

> <Gold.Chemscore.Rot>
1.2590

> <Gold.Chemscore.Internal.Correction>
   9.000000E+99

> <Gold.Chemscore.Hbonds>
donor molecule, donor type, donor heavy atom, donor atom, acceptor molecule, acceptor atom, score
      L1  H     5    22       P1  7948  0.80
      L1  H     8    23       P1  7948  0.40
      P1  H 10752 10764       L1    16  0.17

> <Gold.Chemscore.Hbond.Weighted>
-6.8312

> <Gold.Chemscore.Metal.Weighted>
-0.0000

> <Gold.Chemscore.Lipo.Weighted>
-6.8329

> <Gold.Chemscore.Internal_Hbond.Weighted>
0.0000

> <Gold.Chemscore.DEClash.Weighted>
0.0021

> <Gold.Chemscore.DEInternal.Weighted>
1.4584

> <Gold.Chemscore.Rot.Weighted>
3.2232

> <Gold.Chemscore.Internal.Correction.Weighted>
   9.000000E+99

> <Gold.Protein.RotatedTorsions>
[ 6907 6896 6895 6894 ] final  175.54 input  -60.11 | X-H torsion
[ 7974 7965 7964 7962 ] final  -88.12 input  175.53 | X-H torsion
[ 8008 7997 7996 7995 ] final  -38.19 input   59.86 | X-H torsion
[ 10167 10162 10161 10158 ] final  -51.14 input  -65.29 | X-H torsion
[ 10718 10713 10712 10709 ] final  143.81 input   66.30 | X-H torsion
[ 10763 10752 10751 10750 ] final  -58.45 input  -60.55 | X-H torsion
[ 11005 11000 10999 10996 ] final -140.05 input  -57.11 | X-H torsion

> <Gold.Protein.ActiveResidues>
 VAL166  LYS551  ARG553  GLY616  TRP617  ASP618  TYR619  PRO620  LYS621  CYS622 
 ASP623  PHE694  ASN695  SER759  ASP760  ASP761  ALA762  ILE779  LEU786  VAL792 
 PHE793  MET794  SER795  GLU796  ALA797  LYS798  CYS799  TRP800  GLU811  SER814 

> <Gold.Protein.RotatedAtoms>
  151.7347  133.3319  159.3349 H   0  0  0  0  0  0  0  0  0  0  0  0  # atno 6907 bound_to 6896
  150.7598  134.6332  159.6207 H   0  0  0  0  0  0  0  0  0  0  0  0  # atno 6908 bound_to 6896
  152.3569  134.6929  160.0271 H   0  0  0  0  0  0  0  0  0  0  0  0  # atno 6909 bound_to 6896
  145.4573  140.9561  143.1989 H   0  0  0  0  0  0  0  0  0  0  0  0  # atno 7974 bound_to 7965
  154.4041  140.1584  156.2659 H   0  0  0  0  0  0  0  0  0  0  0  0  # atno 8008 bound_to 7997
  155.8996  140.3434  155.5994 H   0  0  0  0  0  0  0  0  0  0  0  0  # atno 8009 bound_to 7997
  155.7464  140.0799  157.2212 H   0  0  0  0  0  0  0  0  0  0  0  0  # atno 8010 bound_to 7997
  140.6603  143.2631  151.4461 H   0  0  0  0  0  0  0  0  0  0  0  0  # atno 10167 bound_to 10162
  157.3646  131.0970  151.0884 H   0  0  0  0  0  0  0  0  0  0  0  0  # atno 10718 bound_to 10713
  154.2382  135.6348  153.5198 H   0  0  0  0  0  0  0  0  0  0  0  0  # atno 10763 bound_to 10752
  152.9935  135.5536  154.5939 H   0  0  0  0  0  0  0  0  0  0  0  0  # atno 10764 bound_to 10752
  154.5438  135.2896  155.1046 H   0  0  0  0  0  0  0  0  0  0  0  0  # atno 10765 bound_to 10752
  140.8460  134.2344  157.4785 H   0  0  0  0  0  0  0  0  0  0  0  0  # atno 11005 bound_to 11000
  144.8024  139.6115  143.7066 LP  0  0  0  0  0  0  0  0  0  0  0  0  # atno 17320 bound_to 7965
  146.2471  139.6120  142.9452 LP  0  0  0  0  0  0  0  0  0  0  0  0  # atno 17321 bound_to 7965
  139.5835  144.1656  152.1999 LP  0  0  0  0  0  0  0  0  0  0  0  0  # atno 17342 bound_to 10162
  140.0989  144.5557  150.7003 LP  0  0  0  0  0  0  0  0  0  0  0  0  # atno 17343 bound_to 10162
  157.2012  130.6395  149.5739 LP  0  0  0  0  0  0  0  0  0  0  0  0  # atno 17370 bound_to 10713
  155.9743  130.4690  150.6381 LP  0  0  0  0  0  0  0  0  0  0  0  0  # atno 17371 bound_to 10713
  139.8703  134.9659  156.4546 LP  0  0  0  0  0  0  0  0  0  0  0  0  # atno 17394 bound_to 11000
  140.8843  133.7895  155.9501 LP  0  0  0  0  0  0  0  0  0  0  0  0  # atno 17395 bound_to 11000

$$$$
