AV-unprocessed.smi:2083|AV-procd|sdf|8509|dock3
  -GOLD-   2272011223D 1   1.00000     0.00000
 Structure written by MMmdl.
 44 45  0  0  0  0  0  0  0  0  3 V2000
  153.1986  142.3404  160.9226 C   0  0  0  0  0  0  0  0  0  0  0  0
  152.4022  142.4102  159.6649 C   0  0  0  0  0  0  0  0  0  0  0  0
  152.1000  141.4870  158.7040 C   0  0  0  0  0  0  0  0  0  0  0  0
  151.2991  142.2237  157.7911 C   0  0  0  0  0  0  0  0  0  0  0  0
  150.7709  141.6034  156.6283 N   0  0  0  0  0  0  0  0  0  0  0  0
  151.2701  140.5722  155.9228 C   0  0  0  0  0  0  0  0  0  0  0  0
  152.3213  140.0237  156.2751 O   0  0  0  0  0  0  0  0  0  0  0  0
  150.4903  140.2538  154.8526 N   0  5  0  0  0  0  0  0  0  0  0  0
  150.3797  138.9162  154.2682 C   0  0  0  0  0  0  0  0  0  0  0  0
  149.3216  138.0618  155.0201 C   0  0  1  0  0  0  0  0  0  0  0  0
  148.9340  138.6121  156.4158 C   0  0  0  0  0  0  0  0  0  0  0  0
  148.1345  137.8079  154.1452 N   0  3  2  0  0  0  0  0  0  0  0  0
  147.5646  138.9972  153.4455 C   0  0  0  0  0  0  0  0  0  0  0  0
  146.5372  138.5664  152.3882 C   0  0  0  0  0  0  0  0  0  0  0  0
  145.4231  137.7207  153.0216 C   0  0  0  0  0  0  0  0  0  0  0  0
  146.0019  136.5311  153.8106 C   0  0  1  0  0  0  0  0  0  0  0  0
  146.5290  135.4111  152.8962 C   0  0  0  0  0  0  0  0  0  0  0  0
  147.0706  137.0107  154.8151 C   0  0  0  0  0  0  0  0  0  0  0  0
  151.1299  143.4846  158.1618 N   0  0  0  0  0  0  0  0  0  0  0  0
  151.8351  143.6099  159.3646 O   0  0  0  0  0  0  0  0  0  0  0  0
  153.9111  141.5162  160.8856 H   0  0  0  0  0  0  0  0  0  0  0  0
  152.5470  142.1865  161.7825 H   0  0  0  0  0  0  0  0  0  0  0  0
  153.7578  143.2626  161.0813 H   0  0  0  0  0  0  0  0  0  0  0  0
  152.4017  140.4509  158.6633 H   0  0  0  0  0  0  0  0  0  0  0  0
  149.9091  141.9953  156.2790 H   0  0  0  0  0  0  0  0  0  0  0  0
  150.1097  138.9664  153.2133 H   0  0  0  0  0  0  0  0  0  0  0  0
  151.3362  138.3914  154.2896 H   0  0  0  0  0  0  0  0  0  0  0  0
  149.7922  137.0925  155.1913 H   0  0  0  0  0  0  0  0  0  0  0  0
  149.7907  138.6412  157.0916 H   0  0  0  0  0  0  0  0  0  0  0  0
  148.1885  137.9742  156.8908 H   0  0  0  0  0  0  0  0  0  0  0  0
  148.5218  139.6217  156.3734 H   0  0  0  0  0  0  0  0  0  0  0  0
  147.0869  139.6620  154.1663 H   0  0  0  0  0  0  0  0  0  0  0  0
  148.3520  139.5728  152.9584 H   0  0  0  0  0  0  0  0  0  0  0  0
  146.1066  139.4464  151.9096 H   0  0  0  0  0  0  0  0  0  0  0  0
  147.0346  138.0020  151.5989 H   0  0  0  0  0  0  0  0  0  0  0  0
  144.8407  138.3495  153.6964 H   0  0  0  0  0  0  0  0  0  0  0  0
  144.7296  137.3717  152.2557 H   0  0  0  0  0  0  0  0  0  0  0  0
  145.1843  136.0963  154.3872 H   0  0  0  0  0  0  0  0  0  0  0  0
  147.3750  135.7407  152.2929 H   0  0  0  0  0  0  0  0  0  0  0  0
  145.7519  135.0625  152.2156 H   0  0  0  0  0  0  0  0  0  0  0  0
  146.8593  134.5524  153.4814 H   0  0  0  0  0  0  0  0  0  0  0  0
  147.5024  136.1427  155.3149 H   0  0  0  0  0  0  0  0  0  0  0  0
  146.6064  137.6187  155.5929 H   0  0  0  0  0  0  0  0  0  0  0  0
  148.4900  137.2033  153.4180 H   0  0  0  0  0  0  0  0  0  0  0  0
  1  2  1  0  0  0  0
  1 21  1  0  0  0  0
  1 22  1  0  0  0  0
  1 23  1  0  0  0  0
  2 20  1  0  0  0  0
  2  3  2  0  0  0  0
  3  4  1  0  0  0  0
  3 24  1  0  0  0  0
  4  5  1  0  0  0  0
  4 19  2  0  0  0  0
  5  6  1  0  0  0  0
  5 25  1  0  0  0  0
  6  7  2  0  0  0  0
  6  8  1  0  0  0  0
  8  9  1  0  0  0  0
  9 10  1  0  0  0  0
  9 26  1  0  0  0  0
  9 27  1  0  0  0  0
 10 11  1  0  0  0  0
 10 12  1  0  0  0  0
 10 28  1  0  0  0  0
 11 29  1  0  0  0  0
 11 30  1  0  0  0  0
 11 31  1  0  0  0  0
 12 18  1  0  0  0  0
 12 13  1  0  0  0  0
 12 44  1  0  0  0  0
 13 14  1  0  0  0  0
 13 32  1  0  0  0  0
 13 33  1  0  0  0  0
 14 15  1  0  0  0  0
 14 34  1  0  0  0  0
 14 35  1  0  0  0  0
 15 16  1  0  0  0  0
 15 36  1  0  0  0  0
 15 37  1  0  0  0  0
 16 17  1  0  0  0  0
 16 18  1  0  0  0  0
 16 38  1  0  0  0  0
 17 39  1  0  0  0  0
 17 40  1  0  0  0  0
 17 41  1  0  0  0  0
 18 42  1  0  0  0  0
 18 43  1  0  0  0  0
 19 20  1  0  0  0  0
M  CHG  1   8  -1
M  CHG  1  12   1
M  END
> <s_m_source_file>
AV-unprocessed.smi

> <i_m_source_file_index>
2083

> <i_lp_mmshare_version>
43012

> <i_f3d_flags>
0

> <s_epik_input>
W0NIM11jMVtjSF1jKG5vMSlbTkhdQyg9TylbTkhdW0NIMl1bQ0BIXShbQ0gzXSlOMltDSDJdW0NIMl1bQ0gyXVtDQEBIXShbQ0gzXSlbQ0gyXTI=

> <s_epik_cmdline>
J2VwaWtfcHl0aG9uJywgJy1waCcsICc3LjAnLCAnLXRuJywgJzgnLCAnLW1hJywgJzIwMCcsICctbWV0YWxfYmluZGluZycsICctaW1hZScsICc8aW5maWxlLm1hZT4nLCAnLW9tYWUnLCAnPG91dGZpbGUubWFlPic=

> <r_epik_Ionization_Penalty>
6.76934

> <r_epik_Ionization_Penalty_Charging>
6.76934

> <r_epik_Ionization_Penalty_Neutral>
5.77849e-06

> <r_epik_State_Penalty>
6.79457

> <r_epik_Charging_Adjusted_Penalty>
13.5639

> <i_epik_Tot_Q>
0

> <i_epik_Tot_abs_Q>
2

> <r_epik_Metal_State_Penalty>
2.72837

> <b_epik_Metal_Only>
1

> <s_lp_Force_Field>
OPLS_2005

> <r_lp_Energy>
19.7061

> <b_lp_Chiralities_Consistent>
1

> <s_lp_Variant>
AV-unprocessed.smi:2083-20

> <Gold.Version>
5.8.1

> <Gold.Id.Protein>
6NUR|6NUR_protein|mol2

> <Gold.PLP.Fitness>
39.3054

> <Gold.PLP.PLP>
-29.8489

> <Gold.PLP.part.hbond>
-3.0000

> <Gold.PLP.part.metal>
0.0000

> <Gold.PLP.part.buried>
-2.4240

> <Gold.PLP.part.nonpolar>
-24.2461

> <Gold.PLP.part.repulsive>
0.2545

> <Gold.PLP.ligand.clash>
0.0103

> <Gold.PLP.ligand.torsion>
1.3478

> <Gold.PLP.Chemscore.Hbond>
4.0000

> <Gold.PLP.Chemscore.CHOScore>
0.0000

> <Gold.PLP.Chemscore.Metal>
0.0000

> <Gold.Chemscore.Hbonds>
donor molecule, donor type, donor heavy atom, donor atom, acceptor molecule, acceptor atom, score
      L1  H    12    44       P1  7948  2.00
      P1  H  7989  7998       L1     8  0.63
      P1  H  7997  8008       L1     7  1.00

> <Gold.PLP.Chemscore.Internal.Correction>
0.1624

> <Gold.Rescore>
     Score         DG    S(hbond)    S(metal)    S(lipo)     H(rot)  DE(clash)    DE(int)     intcor
     12.83     -16.59       2.06        0.00      69.38       1.52       1.20       2.56       ----

> <Gold.Chemscore.Fitness>
12.8253

> <Gold.Chemscore.DG>
-16.5928

> <Gold.Chemscore.ZeroCoef>
-5.4800

> <Gold.Chemscore.Hbond>
2.0609

> <Gold.Chemscore.Metal>
0.0000

> <Gold.Chemscore.Lipo>
69.3843

> <Gold.Chemscore.Internal_Hbond>
0.0000

> <Gold.Chemscore.DEClash>
1.2027

> <Gold.Chemscore.DEInternal>
2.5648

> <Gold.Chemscore.Rot>
1.5190

> <Gold.Chemscore.Internal.Correction>
   9.000000E+99

> <Gold.Chemscore.Hbonds>
donor molecule, donor type, donor heavy atom, donor atom, acceptor molecule, acceptor atom, score
      L1  H    12    44       P1  7948  1.00
      P1  H  7989  7998       L1     8  0.01
      P1  H  7997  8008       L1     7  0.92

> <Gold.Chemscore.Hbond.Weighted>
-6.8834

> <Gold.Chemscore.Metal.Weighted>
-0.0000

> <Gold.Chemscore.Lipo.Weighted>
-8.1180

> <Gold.Chemscore.Internal_Hbond.Weighted>
0.0000

> <Gold.Chemscore.DEClash.Weighted>
1.2027

> <Gold.Chemscore.DEInternal.Weighted>
2.5648

> <Gold.Chemscore.Rot.Weighted>
3.8886

> <Gold.Chemscore.Internal.Correction.Weighted>
   9.000000E+99

> <Gold.Protein.RotatedTorsions>
[ 6907 6896 6895 6894 ] final -104.72 input  -60.11 | X-H torsion
[ 7974 7965 7964 7962 ] final   56.38 input  175.53 | X-H torsion
[ 8008 7997 7996 7995 ] final  -51.25 input   59.86 | X-H torsion
[ 10167 10162 10161 10158 ] final   67.02 input  -65.29 | X-H torsion
[ 10718 10713 10712 10709 ] final -157.58 input   66.30 | X-H torsion
[ 10763 10752 10751 10750 ] final   17.12 input  -60.55 | X-H torsion
[ 11005 11000 10999 10996 ] final  103.37 input  -57.11 | X-H torsion

> <Gold.Protein.ActiveResidues>
 VAL166  LYS551  ARG553  GLY616  TRP617  ASP618  TYR619  PRO620  LYS621  CYS622 
 ASP623  PHE694  ASN695  SER759  ASP760  ASP761  ALA762  ILE779  LEU786  VAL792 
 PHE793  MET794  SER795  GLU796  ALA797  LYS798  CYS799  TRP800  GLU811  SER814 

> <Gold.Protein.RotatedAtoms>
  150.7301  134.0234  159.3708 H   0  0  0  0  0  0  0  0  0  0  0  0  # atno 6907 bound_to 6896
  151.8200  135.0652  160.0433 H   0  0  0  0  0  0  0  0  0  0  0  0  # atno 6908 bound_to 6896
  152.3010  133.5619  159.5655 H   0  0  0  0  0  0  0  0  0  0  0  0  # atno 6909 bound_to 6896
  145.9404  139.3884  143.0367 H   0  0  0  0  0  0  0  0  0  0  0  0  # atno 7974 bound_to 7965
  154.4079  140.1252  156.4798 H   0  0  0  0  0  0  0  0  0  0  0  0  # atno 8008 bound_to 7997
  155.7096  140.3494  155.4948 H   0  0  0  0  0  0  0  0  0  0  0  0  # atno 8009 bound_to 7997
  155.9312  140.1070  157.1120 H   0  0  0  0  0  0  0  0  0  0  0  0  # atno 8010 bound_to 7997
  140.0940  144.4963  150.7080 H   0  0  0  0  0  0  0  0  0  0  0  0  # atno 10167 bound_to 10162
  156.5422  130.8568  151.2753 H   0  0  0  0  0  0  0  0  0  0  0  0  # atno 10718 bound_to 10713
  153.1368  135.6752  153.9090 H   0  0  0  0  0  0  0  0  0  0  0  0  # atno 10763 bound_to 10752
  153.8559  135.3087  155.3436 H   0  0  0  0  0  0  0  0  0  0  0  0  # atno 10764 bound_to 10752
  154.7754  135.4917  153.9817 H   0  0  0  0  0  0  0  0  0  0  0  0  # atno 10765 bound_to 10752
  139.8783  134.9260  156.5199 H   0  0  0  0  0  0  0  0  0  0  0  0  # atno 11005 bound_to 11000
  145.8307  140.9632  143.0850 LP  0  0  0  0  0  0  0  0  0  0  0  0  # atno 17320 bound_to 7965
  144.6778  140.0159  143.7484 LP  0  0  0  0  0  0  0  0  0  0  0  0  # atno 17321 bound_to 7965
  140.7013  143.2437  151.4855 LP  0  0  0  0  0  0  0  0  0  0  0  0  # atno 17342 bound_to 10162
  139.5708  144.1932  152.1834 LP  0  0  0  0  0  0  0  0  0  0  0  0  # atno 17343 bound_to 10162
  157.7403  130.9848  150.2369 LP  0  0  0  0  0  0  0  0  0  0  0  0  # atno 17370 bound_to 10713
  156.2961  130.3752  149.7795 LP  0  0  0  0  0  0  0  0  0  0  0  0  # atno 17371 bound_to 10713
  140.8458  133.8170  155.9120 LP  0  0  0  0  0  0  0  0  0  0  0  0  # atno 17394 bound_to 11000
  140.9193  134.2162  157.4937 LP  0  0  0  0  0  0  0  0  0  0  0  0  # atno 17395 bound_to 11000

$$$$
