AV-unprocessed.smi:2889|AV-procd|sdf|11115|dock8
  -GOLD-   2272015583D 1   1.00000     0.00000
 Structure written by MMmdl.
 35 36  0  0  0  0  0  0  0  0  2 V2000
  154.1017  140.5138  161.1070 C   0  0  0  0  0  0  0  0  0  0  0  0
  153.6211  140.0893  159.4096 S   0  0  0  0  0  0  0  0  0  0  0  0
  152.3904  141.3877  159.0549 C   0  0  1  0  0  0  0  0  0  0  0  0
  152.9777  142.7671  159.4605 C   0  0  0  0  0  0  0  0  0  0  0  0
  152.0205  143.9441  159.1851 C   0  0  0  0  0  0  0  0  0  0  0  0
  151.5905  143.9163  157.7059 C   0  0  0  0  0  0  0  0  0  0  0  0
  150.9824  142.5535  157.2968 C   0  0  0  0  0  0  0  0  0  0  0  0
  151.9174  141.3472  157.5712 C   0  0  2  0  0  0  0  0  0  0  0  0
  151.2022  140.1087  157.2968 N   0  5  0  0  0  0  0  0  0  0  0  0
  151.8188  139.0317  156.2527 S   0  0  0  0  0  0  0  0  0  0  0  0
  152.6139  139.6617  155.1855 O   0  0  0  0  0  0  0  0  0  0  0  0
  152.4142  137.8746  156.9405 O   0  0  0  0  0  0  0  0  0  0  0  0
  150.2754  138.4020  155.4574 C   0  0  0  0  0  0  0  0  0  0  0  0
  149.5267  139.5231  154.7883 C   0  0  0  0  0  0  0  0  0  0  0  0
  148.2316  139.4946  154.1990 C   0  0  0  0  0  0  0  0  0  0  0  0
  148.0575  140.7703  153.7469 C   0  0  0  0  0  0  0  0  0  0  0  0
  149.1516  141.5246  154.0203 O   0  0  0  0  0  0  0  0  0  0  0  0
  150.0857  140.7192  154.6818 N   0  0  0  0  0  0  0  0  0  0  0  0
  154.8693  139.8260  161.4604 H   0  0  0  0  0  0  0  0  0  0  0  0
  153.2475  140.4491  161.7806 H   0  0  0  0  0  0  0  0  0  0  0  0
  154.5017  141.5268  161.1475 H   0  0  0  0  0  0  0  0  0  0  0  0
  151.5285  141.2090  159.6999 H   0  0  0  0  0  0  0  0  0  0  0  0
  153.2272  142.7556  160.5220 H   0  0  0  0  0  0  0  0  0  0  0  0
  153.9205  142.9428  158.9379 H   0  0  0  0  0  0  0  0  0  0  0  0
  151.1422  143.8638  159.8270 H   0  0  0  0  0  0  0  0  0  0  0  0
  152.5024  144.8922  159.4249 H   0  0  0  0  0  0  0  0  0  0  0  0
  150.8617  144.7069  157.5257 H   0  0  0  0  0  0  0  0  0  0  0  0
  152.4478  144.1514  157.0717 H   0  0  0  0  0  0  0  0  0  0  0  0
  150.0445  142.4166  157.8377 H   0  0  0  0  0  0  0  0  0  0  0  0
  150.7178  142.5850  156.2395 H   0  0  0  0  0  0  0  0  0  0  0  0
  152.7998  141.4514  156.9380 H   0  0  0  0  0  0  0  0  0  0  0  0
  150.5676  137.6447  154.7299 H   0  0  0  0  0  0  0  0  0  0  0  0
  149.6679  137.9083  156.2154 H   0  0  0  0  0  0  0  0  0  0  0  0
  147.5386  138.6692  154.1293 H   0  0  0  0  0  0  0  0  0  0  0  0
  147.2505  141.2716  153.2338 H   0  0  0  0  0  0  0  0  0  0  0  0
  1  2  1  0  0  0  0
  1 19  1  0  0  0  0
  1 20  1  0  0  0  0
  1 21  1  0  0  0  0
  2  3  1  0  0  0  0
  3  8  1  0  0  0  0
  3  4  1  0  0  0  0
  3 22  1  0  0  0  0
  4  5  1  0  0  0  0
  4 23  1  0  0  0  0
  4 24  1  0  0  0  0
  5  6  1  0  0  0  0
  5 25  1  0  0  0  0
  5 26  1  0  0  0  0
  6  7  1  0  0  0  0
  6 27  1  0  0  0  0
  6 28  1  0  0  0  0
  7  8  1  0  0  0  0
  7 29  1  0  0  0  0
  7 30  1  0  0  0  0
  8  9  1  0  0  0  0
  8 31  1  0  0  0  0
  9 10  1  0  0  0  0
 10 11  2  0  0  0  0
 10 12  2  0  0  0  0
 10 13  1  0  0  0  0
 13 14  1  0  0  0  0
 13 32  1  0  0  0  0
 13 33  1  0  0  0  0
 14 18  2  0  0  0  0
 14 15  1  0  0  0  0
 15 16  2  0  0  0  0
 15 34  1  0  0  0  0
 16 17  1  0  0  0  0
 16 35  1  0  0  0  0
 17 18  1  0  0  0  0
M  CHG  1   9  -1
M  END
> <s_m_source_file>
AV-unprocessed.smi

> <i_m_source_file_index>
2889

> <i_lp_mmshare_version>
43012

> <i_f3d_flags>
0

> <s_epik_input>
W0NIM11TW0NAQEhdMVtDSDJdW0NIMl1bQ0gyXVtDSDJdW0NASF0xW05IXVMoPU8pKD1PKVtDSDJdYzJbY0hdW2NIXW9uMg==

> <s_epik_cmdline>
J2VwaWtfcHl0aG9uJywgJy1waCcsICc3LjAnLCAnLXRuJywgJzgnLCAnLW1hJywgJzIwMCcsICctbWV0YWxfYmluZGluZycsICctaW1hZScsICc8aW5maWxlLm1hZT4nLCAnLW9tYWUnLCAnPG91dGZpbGUubWFlPic=

> <r_lp_tautomer_probability>
1

> <r_epik_Ionization_Penalty>
4.65467

> <r_epik_Ionization_Penalty_Charging>
4.65467

> <r_epik_Ionization_Penalty_Neutral>
2.71476e-10

> <r_epik_State_Penalty>
4.65444

> <r_epik_Charging_Adjusted_Penalty>
9.30911

> <i_epik_Tot_Q>
-1

> <i_epik_Tot_abs_Q>
1

> <r_epik_Metal_State_Penalty>
0.901484

> <b_epik_Metal_Only>
1

> <s_lp_Force_Field>
OPLS_2005

> <r_lp_Energy>
9.1096

> <b_lp_Chiralities_Consistent>
1

> <s_lp_Variant>
AV-unprocessed.smi:2889-8

> <Gold.Version>
5.8.1

> <Gold.Id.Protein>
6NUR|6NUR_protein|mol2

> <Gold.PLP.Fitness>
43.2011

> <Gold.PLP.PLP>
-36.1659

> <Gold.PLP.part.hbond>
-4.9897

> <Gold.PLP.part.metal>
0.0000

> <Gold.PLP.part.buried>
-2.0960

> <Gold.PLP.part.nonpolar>
-29.1753

> <Gold.PLP.part.repulsive>
0.3217

> <Gold.PLP.ligand.clash>
0.0000

> <Gold.PLP.ligand.torsion>
0.7197

> <Gold.PLP.Chemscore.Hbond>
2.4880

> <Gold.PLP.Chemscore.CHOScore>
0.0000

> <Gold.PLP.Chemscore.Metal>
0.0000

> <Gold.Chemscore.Hbonds>
donor molecule, donor type, donor heavy atom, donor atom, acceptor molecule, acceptor atom, score
      P1  H  7989  7998       L1    18  0.80
      P1  H  7997  8009       L1    11  1.00
      P1  H  8011  8017       L1    17  0.67

> <Gold.PLP.Chemscore.Internal.Correction>
1.0107

> <Gold.Rescore>
     Score         DG    S(hbond)    S(metal)    S(lipo)     H(rot)  DE(clash)    DE(int)     intcor
     16.25     -18.79       1.67        0.00      99.48       1.53       0.08       2.46       ----

> <Gold.Chemscore.Fitness>
16.2512

> <Gold.Chemscore.DG>
-18.7897

> <Gold.Chemscore.ZeroCoef>
-5.4800

> <Gold.Chemscore.Hbond>
1.6740

> <Gold.Chemscore.Metal>
0.0000

> <Gold.Chemscore.Lipo>
99.4794

> <Gold.Chemscore.Internal_Hbond>
0.0000

> <Gold.Chemscore.DEClash>
0.0807

> <Gold.Chemscore.DEInternal>
2.4578

> <Gold.Chemscore.Rot>
1.5314

> <Gold.Chemscore.Internal.Correction>
   9.000000E+99

> <Gold.Chemscore.Hbonds>
donor molecule, donor type, donor heavy atom, donor atom, acceptor molecule, acceptor atom, score
      P1  H  7989  7998       L1    11  0.25
      P1  H  7997  8009       L1    11  0.52
      P1  H  8011  8017       L1    17  0.43

> <Gold.Chemscore.Hbond.Weighted>
-5.5911

> <Gold.Chemscore.Metal.Weighted>
-0.0000

> <Gold.Chemscore.Lipo.Weighted>
-11.6391

> <Gold.Chemscore.Internal_Hbond.Weighted>
0.0000

> <Gold.Chemscore.DEClash.Weighted>
0.0807

> <Gold.Chemscore.DEInternal.Weighted>
2.4578

> <Gold.Chemscore.Rot.Weighted>
3.9205

> <Gold.Chemscore.Internal.Correction.Weighted>
   9.000000E+99

> <Gold.Protein.RotatedTorsions>
[ 6907 6896 6895 6894 ] final   97.74 input  -60.11 | X-H torsion
[ 7974 7965 7964 7962 ] final -137.85 input  175.53 | X-H torsion
[ 8008 7997 7996 7995 ] final -145.77 input   59.86 | X-H torsion
[ 10167 10162 10161 10158 ] final -113.16 input  -65.29 | X-H torsion
[ 10718 10713 10712 10709 ] final   66.60 input   66.30 | X-H torsion
[ 10763 10752 10751 10750 ] final  169.32 input  -60.55 | X-H torsion
[ 11005 11000 10999 10996 ] final -126.01 input  -57.11 | X-H torsion

> <Gold.Protein.ActiveResidues>
 VAL166  LYS551  ARG553  GLY616  TRP617  ASP618  TYR619  PRO620  LYS621  CYS622 
 ASP623  PHE694  ASN695  SER759  ASP760  ASP761  ALA762  ILE779  LEU786  VAL792 
 PHE793  MET794  SER795  GLU796  ALA797  LYS798  CYS799  TRP800  GLU811  SER814 

> <Gold.Protein.RotatedAtoms>
  152.5419  134.0686  159.8183 H   0  0  0  0  0  0  0  0  0  0  0  0  # atno 6907 bound_to 6896
  151.0804  133.5387  159.2628 H   0  0  0  0  0  0  0  0  0  0  0  0  # atno 6908 bound_to 6896
  151.2216  135.0529  159.9006 H   0  0  0  0  0  0  0  0  0  0  0  0  # atno 6909 bound_to 6896
  144.8807  140.6503  143.5208 H   0  0  0  0  0  0  0  0  0  0  0  0  # atno 7974 bound_to 7965
  155.5485  140.0614  157.2855 H   0  0  0  0  0  0  0  0  0  0  0  0  # atno 8008 bound_to 7997
  154.4428  140.1906  156.0707 H   0  0  0  0  0  0  0  0  0  0  0  0  # atno 8009 bound_to 7997
  156.0533  140.3281  155.7380 H   0  0  0  0  0  0  0  0  0  0  0  0  # atno 8010 bound_to 7997
  140.1149  143.4495  152.1729 H   0  0  0  0  0  0  0  0  0  0  0  0  # atno 10167 bound_to 10162
  157.6179  130.9277  150.0131 H   0  0  0  0  0  0  0  0  0  0  0  0  # atno 10718 bound_to 10713
  154.3814  135.2753  155.2209 H   0  0  0  0  0  0  0  0  0  0  0  0  # atno 10763 bound_to 10752
  154.4314  135.5976  153.6074 H   0  0  0  0  0  0  0  0  0  0  0  0  # atno 10764 bound_to 10752
  152.9834  135.5996  154.4058 H   0  0  0  0  0  0  0  0  0  0  0  0  # atno 10765 bound_to 10752
  140.9716  134.0797  157.3863 H   0  0  0  0  0  0  0  0  0  0  0  0  # atno 11005 bound_to 11000
  145.3960  139.1607  143.4203 LP  0  0  0  0  0  0  0  0  0  0  0  0  # atno 17320 bound_to 7965
  146.2992  140.4053  142.8710 LP  0  0  0  0  0  0  0  0  0  0  0  0  # atno 17321 bound_to 7965
  139.5599  144.7399  151.4184 LP  0  0  0  0  0  0  0  0  0  0  0  0  # atno 17342 bound_to 10162
  140.6905  143.7873  150.7248 LP  0  0  0  0  0  0  0  0  0  0  0  0  # atno 17343 bound_to 10162
  156.1310  130.3643  149.9732 LP  0  0  0  0  0  0  0  0  0  0  0  0  # atno 17370 bound_to 10713
  156.7792  130.9215  151.3646 LP  0  0  0  0  0  0  0  0  0  0  0  0  # atno 17371 bound_to 10713
  139.8914  135.0118  156.6791 LP  0  0  0  0  0  0  0  0  0  0  0  0  # atno 17394 bound_to 11000
  140.7320  133.9050  155.8218 LP  0  0  0  0  0  0  0  0  0  0  0  0  # atno 17395 bound_to 11000

$$$$
