AV-unprocessed.smi:2742|AV-procd|sdf|10565|dock4
  -GOLD-   2272015 13D 1   1.00000     0.00000
 Structure written by MMmdl.
 37 38  0  0  0  0  0  0  0  0  1 V2000
  150.6738  140.0150  157.0277 C   0  0  0  0  0  0  0  0  0  0  0  0
  150.6519  139.7659  155.2321 S   0  0  0  0  0  0  0  0  0  0  0  0
  148.8976  140.0644  154.8661 C   0  0  1  0  0  0  0  0  0  0  0  0
  148.3850  141.2765  155.6637 C   0  0  0  0  0  0  0  0  0  0  0  0
  146.9071  141.5669  155.3599 C   0  0  0  0  0  0  0  0  0  0  0  0
  146.6805  141.7782  153.8537 C   0  0  0  0  0  0  0  0  0  0  0  0
  147.1954  140.5878  153.0175 C   0  0  2  0  0  0  0  0  0  0  0  0
  146.3631  139.4012  153.2125 N   0  0  0  0  0  0  0  0  0  0  0  0
  146.2078  138.4052  152.3284 C   0  0  0  0  0  0  0  0  0  0  0  0
  146.7729  138.3760  151.2357 O   0  0  0  0  0  0  0  0  0  0  0  0
  145.3732  137.4649  152.8044 N   0  0  0  0  0  0  0  0  0  0  0  0
  144.9374  136.2545  152.1969 C   0  0  0  0  0  0  0  0  0  0  0  0
  145.2957  135.8360  150.8919 C   0  0  0  0  0  0  0  0  0  0  0  0
  144.7812  134.6162  150.4086 C   0  0  0  0  0  0  0  0  0  0  0  0
  143.9550  133.8218  151.1215 N   0  0  0  0  0  0  0  0  0  0  0  0
  143.6064  134.2285  152.3601 C   0  0  0  0  0  0  0  0  0  0  0  0
  144.0646  135.4295  152.9381 C   0  0  0  0  0  0  0  0  0  0  0  0
  143.6718  135.7800  154.1868 F   0  0  0  0  0  0  0  0  0  0  0  0
  148.6661  140.2702  153.3541 C   0  0  0  0  0  0  0  0  0  0  0  0
  151.6928  139.9216  157.4030 H   0  0  0  0  0  0  0  0  0  0  0  0
  150.0554  139.2730  157.5316 H   0  0  0  0  0  0  0  0  0  0  0  0
  150.3039  141.0086  157.2799 H   0  0  0  0  0  0  0  0  0  0  0  0
  148.3461  139.1836  155.1973 H   0  0  0  0  0  0  0  0  0  0  0  0
  148.5108  141.0995  156.7324 H   0  0  0  0  0  0  0  0  0  0  0  0
  148.9842  142.1560  155.4237 H   0  0  0  0  0  0  0  0  0  0  0  0
  146.2903  140.7404  155.7144 H   0  0  0  0  0  0  0  0  0  0  0  0
  146.5822  142.4505  155.9098 H   0  0  0  0  0  0  0  0  0  0  0  0
  145.6231  141.9575  153.6553 H   0  0  0  0  0  0  0  0  0  0  0  0
  147.2019  142.6839  153.5413 H   0  0  0  0  0  0  0  0  0  0  0  0
  147.1516  140.8619  151.9619 H   0  0  0  0  0  0  0  0  0  0  0  0
  145.8628  139.3400  154.0871 H   0  0  0  0  0  0  0  0  0  0  0  0
  145.0351  137.6130  153.7439 H   0  0  0  0  0  0  0  0  0  0  0  0
  145.9382  136.4184  150.2507 H   0  0  0  0  0  0  0  0  0  0  0  0
  145.0374  134.2714  149.4177 H   0  0  0  0  0  0  0  0  0  0  0  0
  142.9402  133.5783  152.9074 H   0  0  0  0  0  0  0  0  0  0  0  0
  149.2924  141.0932  153.0073 H   0  0  0  0  0  0  0  0  0  0  0  0
  148.9872  139.3916  152.7943 H   0  0  0  0  0  0  0  0  0  0  0  0
  1  2  1  0  0  0  0
  1 20  1  0  0  0  0
  1 21  1  0  0  0  0
  1 22  1  0  0  0  0
  2  3  1  0  0  0  0
  3 19  1  0  0  0  0
  3  4  1  0  0  0  0
  3 23  1  0  0  0  0
  4  5  1  0  0  0  0
  4 24  1  0  0  0  0
  4 25  1  0  0  0  0
  5  6  1  0  0  0  0
  5 26  1  0  0  0  0
  5 27  1  0  0  0  0
  6  7  1  0  0  0  0
  6 28  1  0  0  0  0
  6 29  1  0  0  0  0
  7  8  1  0  0  0  0
  7 19  1  0  0  0  0
  7 30  1  0  0  0  0
  8  9  1  0  0  0  0
  8 31  1  0  0  0  0
  9 10  2  0  0  0  0
  9 11  1  0  0  0  0
 11 12  1  0  0  0  0
 11 32  1  0  0  0  0
 12 17  1  0  0  0  0
 12 13  2  0  0  0  0
 13 14  1  0  0  0  0
 13 33  1  0  0  0  0
 14 15  2  0  0  0  0
 14 34  1  0  0  0  0
 15 16  1  0  0  0  0
 16 17  2  0  0  0  0
 16 35  1  0  0  0  0
 17 18  1  0  0  0  0
 19 36  1  0  0  0  0
 19 37  1  0  0  0  0
M  END
> <s_m_source_file>
AV-unprocessed.smi

> <i_m_source_file_index>
2742

> <i_lp_mmshare_version>
43012

> <i_f3d_flags>
0

> <s_epik_input>
W0NIM11TW0NAQEhdMVtDSDJdW0NIMl1bQ0gyXVtDQEhdKFtDSDJdMSlbTkhdQyg9TylbTkhdYzJbY0hdW2NIXW5bY0hdYzJG

> <s_epik_cmdline>
J2VwaWtfcHl0aG9uJywgJy1waCcsICc3LjAnLCAnLXRuJywgJzgnLCAnLW1hJywgJzIwMCcsICctbWV0YWxfYmluZGluZycsICctaW1hZScsICc8aW5maWxlLm1hZT4nLCAnLW9tYWUnLCAnPG91dGZpbGUubWFlPic=

> <r_epik_Ionization_Penalty>
0.00344009

> <r_epik_Ionization_Penalty_Charging>
0

> <r_epik_Ionization_Penalty_Neutral>
0.00344009

> <r_epik_State_Penalty>
0.0024078

> <r_epik_Charging_Adjusted_Penalty>
0.0024078

> <i_epik_Tot_Q>
0

> <i_epik_Tot_abs_Q>
0

> <r_epik_Metal_State_Penalty>
-0

> <b_epik_Metal_Only>
0

> <s_lp_Force_Field>
OPLS_2005

> <r_lp_Energy>
13.9364

> <b_lp_Chiralities_Consistent>
1

> <s_lp_Variant>
AV-unprocessed.smi:2742-4

> <Gold.Version>
5.8.1

> <Gold.Id.Protein>
6NUR|6NUR_protein|mol2

> <Gold.PLP.Fitness>
37.1158

> <Gold.PLP.PLP>
-29.0439

> <Gold.PLP.part.hbond>
-2.0000

> <Gold.PLP.part.metal>
0.0000

> <Gold.PLP.part.buried>
0.9550

> <Gold.PLP.part.nonpolar>
-29.9631

> <Gold.PLP.part.repulsive>
0.8370

> <Gold.PLP.ligand.clash>
0.0000

> <Gold.PLP.ligand.torsion>
0.4685

> <Gold.PLP.Chemscore.Hbond>
1.0000

> <Gold.PLP.Chemscore.CHOScore>
1.9994

> <Gold.PLP.Chemscore.Metal>
0.0000

> <Gold.Chemscore.Hbonds>
donor molecule, donor type, donor heavy atom, donor atom, acceptor molecule, acceptor atom, score
      P1  H  7954  7966       L1    10  1.00
      L1  C    14    34       P1  7921  1.00
      L1  C    16    35       P1 10957  0.79

> <Gold.PLP.Chemscore.Internal.Correction>
0.0108

> <Gold.Rescore>
     Score         DG    S(hbond)    S(metal)    S(lipo)     H(rot)  DE(clash)    DE(int)     intcor
     10.83     -14.62       0.99        0.00      75.80       1.19       2.26       1.53       ----

> <Gold.Chemscore.Fitness>
10.8325

> <Gold.Chemscore.DG>
-14.6217

> <Gold.Chemscore.ZeroCoef>
-5.4800

> <Gold.Chemscore.Hbond>
0.9921

> <Gold.Chemscore.Metal>
0.0000

> <Gold.Chemscore.Lipo>
75.7965

> <Gold.Chemscore.Internal_Hbond>
0.0000

> <Gold.Chemscore.DEClash>
2.2601

> <Gold.Chemscore.DEInternal>
1.5291

> <Gold.Chemscore.Rot>
1.1875

> <Gold.Chemscore.Internal.Correction>
   9.000000E+99

> <Gold.Chemscore.Hbonds>
donor molecule, donor type, donor heavy atom, donor atom, acceptor molecule, acceptor atom, score
      P1  H  7954  7966       L1    10  0.96

> <Gold.Chemscore.Hbond.Weighted>
-3.3135

> <Gold.Chemscore.Metal.Weighted>
-0.0000

> <Gold.Chemscore.Lipo.Weighted>
-8.8682

> <Gold.Chemscore.Internal_Hbond.Weighted>
0.0000

> <Gold.Chemscore.DEClash.Weighted>
2.2601

> <Gold.Chemscore.DEInternal.Weighted>
1.5291

> <Gold.Chemscore.Rot.Weighted>
3.0400

> <Gold.Chemscore.Internal.Correction.Weighted>
   9.000000E+99

> <Gold.Protein.RotatedTorsions>
[ 6907 6896 6895 6894 ] final -152.39 input  -60.11 | X-H torsion
[ 7974 7965 7964 7962 ] final  162.05 input  175.53 | X-H torsion
[ 8008 7997 7996 7995 ] final    1.09 input   59.86 | X-H torsion
[ 10167 10162 10161 10158 ] final  162.74 input  -65.29 | X-H torsion
[ 10718 10713 10712 10709 ] final  -56.12 input   66.30 | X-H torsion
[ 10763 10752 10751 10750 ] final  169.14 input  -60.55 | X-H torsion
[ 11005 11000 10999 10996 ] final    1.08 input  -57.11 | X-H torsion

> <Gold.Protein.ActiveResidues>
 VAL166  LYS551  ARG553  GLY616  TRP617  ASP618  TYR619  PRO620  LYS621  CYS622 
 ASP623  PHE694  ASN695  SER759  ASP760  ASP761  ALA762  ILE779  LEU786  VAL792 
 PHE793  MET794  SER795  GLU796  ALA797  LYS798  CYS799  TRP800  GLU811  SER814 

> <Gold.Protein.RotatedAtoms>
  151.2270  133.4471  159.2602 H   0  0  0  0  0  0  0  0  0  0  0  0  # atno 6907 bound_to 6896
  151.0830  134.9870  159.8375 H   0  0  0  0  0  0  0  0  0  0  0  0  # atno 6908 bound_to 6896
  152.5426  134.2209  159.8840 H   0  0  0  0  0  0  0  0  0  0  0  0  # atno 6909 bound_to 6896
  144.7655  139.7985  143.6316 H   0  0  0  0  0  0  0  0  0  0  0  0  # atno 7974 bound_to 7965
  154.6757  140.2622  155.6960 H   0  0  0  0  0  0  0  0  0  0  0  0  # atno 8008 bound_to 7997
  156.2677  140.2820  156.1205 H   0  0  0  0  0  0  0  0  0  0  0  0  # atno 8009 bound_to 7997
  155.1104  140.0375  157.2712 H   0  0  0  0  0  0  0  0  0  0  0  0  # atno 8010 bound_to 7997
  139.4864  144.4407  151.8956 H   0  0  0  0  0  0  0  0  0  0  0  0  # atno 10167 bound_to 10162
  156.1313  130.4159  150.0263 H   0  0  0  0  0  0  0  0  0  0  0  0  # atno 10718 bound_to 10713
  154.3789  135.2753  155.2223 H   0  0  0  0  0  0  0  0  0  0  0  0  # atno 10763 bound_to 10752
  154.4339  135.5971  153.6089 H   0  0  0  0  0  0  0  0  0  0  0  0  # atno 10764 bound_to 10752
  152.9835  135.6002  154.4029 H   0  0  0  0  0  0  0  0  0  0  0  0  # atno 10765 bound_to 10752
  140.6194  133.9675  155.8217 H   0  0  0  0  0  0  0  0  0  0  0  0  # atno 11005 bound_to 11000
  146.1759  139.4929  142.9898 LP  0  0  0  0  0  0  0  0  0  0  0  0  # atno 17320 bound_to 7965
  145.6483  141.0269  143.1774 LP  0  0  0  0  0  0  0  0  0  0  0  0  # atno 17321 bound_to 7965
  140.3858  144.2678  150.5904 LP  0  0  0  0  0  0  0  0  0  0  0  0  # atno 17342 bound_to 10162
  140.5191  143.2270  151.8416 LP  0  0  0  0  0  0  0  0  0  0  0  0  # atno 17343 bound_to 10162
  156.8174  130.9346  151.3642 LP  0  0  0  0  0  0  0  0  0  0  0  0  # atno 17370 bound_to 10713
  157.6491  130.8869  149.9597 LP  0  0  0  0  0  0  0  0  0  0  0  0  # atno 17371 bound_to 10713
  141.0753  134.0144  157.3467 LP  0  0  0  0  0  0  0  0  0  0  0  0  # atno 17394 bound_to 11000
  139.9159  135.0196  156.7880 LP  0  0  0  0  0  0  0  0  0  0  0  0  # atno 17395 bound_to 11000

$$$$
