AV-unprocessed.smi:2107|AV-procd|sdf|8602|dock4
  -GOLD-   2272011343D 1   1.00000     0.00000
 Structure written by MMmdl.
 45 46  0  0  0  0  0  0  0  0  2 V2000
  146.8475  137.4858  163.1820 C   0  0  0  0  0  0  0  0  0  0  0  0
  147.6432  136.1769  163.0716 C   0  0  0  0  0  0  0  0  0  0  0  0
  147.4213  135.4847  161.7863 N   0  0  0  0  0  0  0  0  0  0  0  0
  147.0080  134.0674  161.8429 C   0  0  0  0  0  0  0  0  0  0  0  0
  145.6545  133.8631  162.5397 C   0  0  0  0  0  0  0  0  0  0  0  0
  147.4153  136.3709  160.2803 S   0  0  0  0  0  0  0  0  0  0  0  0
  147.4120  135.3443  159.2267 O   0  0  0  0  0  0  0  0  0  0  0  0
  146.2612  137.2854  160.3387 O   0  0  0  0  0  0  0  0  0  0  0  0
  148.8713  137.0915  160.4112 N   0  5  0  0  0  0  0  0  0  0  0  0
  149.7755  137.2221  159.2774 C   0  0  0  0  0  0  0  0  0  0  0  0
  149.4497  138.4663  158.4397 C   0  0  0  0  0  0  0  0  0  0  0  0
  148.1976  138.5097  157.7785 C   0  0  0  0  0  0  0  0  0  0  0  0
  147.8558  139.6298  157.0002 C   0  0  0  0  0  0  0  0  0  0  0  0
  148.7831  140.6791  156.9035 C   0  0  0  0  0  0  0  0  0  0  0  0
  149.9804  140.6626  157.5205 N   0  0  0  0  0  0  0  0  0  0  0  0
  150.3269  139.5872  158.2738 C   0  0  0  0  0  0  0  0  0  0  0  0
  151.6007  139.6639  158.8788 N   0  0  0  0  0  0  0  0  0  0  0  0
  152.5060  138.5880  158.4900 C   0  0  0  0  0  0  0  0  0  0  0  0
  153.8297  138.6954  159.2673 C   0  0  0  0  0  0  0  0  0  0  0  0
  154.3968  139.9879  159.0744 O   0  0  0  0  0  0  0  0  0  0  0  0
  153.5380  141.0224  159.5455 C   0  0  0  0  0  0  0  0  0  0  0  0
  152.2103  140.9838  158.7700 C   0  0  0  0  0  0  0  0  0  0  0  0
  146.9660  137.9250  164.1722 H   0  0  0  0  0  0  0  0  0  0  0  0
  145.7835  137.3259  163.0159 H   0  0  0  0  0  0  0  0  0  0  0  0
  147.1908  138.2234  162.4568 H   0  0  0  0  0  0  0  0  0  0  0  0
  148.7075  136.3855  163.1808 H   0  0  0  0  0  0  0  0  0  0  0  0
  147.3851  135.5124  163.8965 H   0  0  0  0  0  0  0  0  0  0  0  0
  146.9560  133.6607  160.8334 H   0  0  0  0  0  0  0  0  0  0  0  0
  147.7793  133.4977  162.3612 H   0  0  0  0  0  0  0  0  0  0  0  0
  145.3472  132.8191  162.4808 H   0  0  0  0  0  0  0  0  0  0  0  0
  144.8755  134.4606  162.0709 H   0  0  0  0  0  0  0  0  0  0  0  0
  145.6934  134.1310  163.5952 H   0  0  0  0  0  0  0  0  0  0  0  0
  150.8143  137.3026  159.5992 H   0  0  0  0  0  0  0  0  0  0  0  0
  149.7486  136.3458  158.6302 H   0  0  0  0  0  0  0  0  0  0  0  0
  147.4865  137.6976  157.8530 H   0  0  0  0  0  0  0  0  0  0  0  0
  146.9060  139.6800  156.4891 H   0  0  0  0  0  0  0  0  0  0  0  0
  148.5581  141.5564  156.3157 H   0  0  0  0  0  0  0  0  0  0  0  0
  152.0337  137.6242  158.6843 H   0  0  0  0  0  0  0  0  0  0  0  0
  152.7074  138.6399  157.4195 H   0  0  0  0  0  0  0  0  0  0  0  0
  153.6789  138.5105  160.3307 H   0  0  0  0  0  0  0  0  0  0  0  0
  154.5332  137.9423  158.9130 H   0  0  0  0  0  0  0  0  0  0  0  0
  153.3684  140.9115  160.6172 H   0  0  0  0  0  0  0  0  0  0  0  0
  154.0289  141.9846  159.4003 H   0  0  0  0  0  0  0  0  0  0  0  0
  152.3898  141.2229  157.7209 H   0  0  0  0  0  0  0  0  0  0  0  0
  151.5262  141.7374  159.1616 H   0  0  0  0  0  0  0  0  0  0  0  0
  1  2  1  0  0  0  0
  1 23  1  0  0  0  0
  1 24  1  0  0  0  0
  1 25  1  0  0  0  0
  2  3  1  0  0  0  0
  2 26  1  0  0  0  0
  2 27  1  0  0  0  0
  3  4  1  0  0  0  0
  3  6  1  0  0  0  0
  4  5  1  0  0  0  0
  4 28  1  0  0  0  0
  4 29  1  0  0  0  0
  5 30  1  0  0  0  0
  5 31  1  0  0  0  0
  5 32  1  0  0  0  0
  6  7  2  0  0  0  0
  6  8  2  0  0  0  0
  6  9  1  0  0  0  0
  9 10  1  0  0  0  0
 10 11  1  0  0  0  0
 10 33  1  0  0  0  0
 10 34  1  0  0  0  0
 11 16  1  0  0  0  0
 11 12  2  0  0  0  0
 12 13  1  0  0  0  0
 12 35  1  0  0  0  0
 13 14  2  0  0  0  0
 13 36  1  0  0  0  0
 14 15  1  0  0  0  0
 14 37  1  0  0  0  0
 15 16  2  0  0  0  0
 16 17  1  0  0  0  0
 17 22  1  0  0  0  0
 17 18  1  0  0  0  0
 18 19  1  0  0  0  0
 18 38  1  0  0  0  0
 18 39  1  0  0  0  0
 19 20  1  0  0  0  0
 19 40  1  0  0  0  0
 19 41  1  0  0  0  0
 20 21  1  0  0  0  0
 21 22  1  0  0  0  0
 21 42  1  0  0  0  0
 21 43  1  0  0  0  0
 22 44  1  0  0  0  0
 22 45  1  0  0  0  0
M  CHG  1   9  -1
M  END
> <s_m_source_file>
AV-unprocessed.smi

> <i_m_source_file_index>
2107

> <i_lp_mmshare_version>
43012

> <i_f3d_flags>
0

> <s_epik_input>
W0NIM11bQ0gyXU4oW0NIMl1bQ0gzXSlTKD1PKSg9TylbTkhdW0NIMl1jMVtjSF1bY0hdW2NIXW5jMU4yW0NIMl1bQ0gyXU9bQ0gyXVtDSDJdMg==

> <s_epik_cmdline>
J2VwaWtfcHl0aG9uJywgJy1waCcsICc3LjAnLCAnLXRuJywgJzgnLCAnLW1hJywgJzIwMCcsICctbWV0YWxfYmluZGluZycsICctaW1hZScsICc8aW5maWxlLm1hZT4nLCAnLW9tYWUnLCAnPG91dGZpbGUubWFlPic=

> <r_lp_tautomer_probability>
1

> <r_epik_Ionization_Penalty>
2.49252

> <r_epik_Ionization_Penalty_Charging>
2.41478

> <r_epik_Ionization_Penalty_Neutral>
0.0777344

> <r_epik_State_Penalty>
2.68884

> <r_epik_Charging_Adjusted_Penalty>
5.10362

> <i_epik_Tot_Q>
-1

> <i_epik_Tot_abs_Q>
1

> <r_epik_Metal_State_Penalty>
0.584574

> <b_epik_Metal_Only>
0

> <s_lp_Force_Field>
OPLS_2005

> <r_lp_Energy>
22.2252

> <b_lp_Chiralities_Consistent>
1

> <s_lp_Variant>
AV-unprocessed.smi:2107-3

> <Gold.Version>
5.8.1

> <Gold.Id.Protein>
6NUR|6NUR_protein|mol2

> <Gold.PLP.Fitness>
43.6301

> <Gold.PLP.PLP>
-34.7755

> <Gold.PLP.part.hbond>
-3.0909

> <Gold.PLP.part.metal>
0.0000

> <Gold.PLP.part.buried>
-4.7540

> <Gold.PLP.part.nonpolar>
-26.9696

> <Gold.PLP.part.repulsive>
0.0143

> <Gold.PLP.ligand.clash>
0.0000

> <Gold.PLP.ligand.torsion>
2.2089

> <Gold.PLP.Chemscore.Hbond>
3.2800

> <Gold.PLP.Chemscore.CHOScore>
0.0000

> <Gold.PLP.Chemscore.Metal>
0.0000

> <Gold.Chemscore.Hbonds>
donor molecule, donor type, donor heavy atom, donor atom, acceptor molecule, acceptor atom, score
      P1  H  6931  6943       L1     9  1.31
      P1  H  6934  6947       L1     8  0.98
      P1  H  7997  8009       L1    20  1.00

> <Gold.PLP.Chemscore.Internal.Correction>
3.4323

> <Gold.Rescore>
     Score         DG    S(hbond)    S(metal)    S(lipo)     H(rot)  DE(clash)    DE(int)     intcor
     14.40     -16.68       2.03        0.00      74.14       1.66       0.17       2.11       ----

> <Gold.Chemscore.Fitness>
14.4042

> <Gold.Chemscore.DG>
-16.6819

> <Gold.Chemscore.ZeroCoef>
-5.4800

> <Gold.Chemscore.Hbond>
2.0323

> <Gold.Chemscore.Metal>
0.0000

> <Gold.Chemscore.Lipo>
74.1420

> <Gold.Chemscore.Internal_Hbond>
0.0000

> <Gold.Chemscore.DEClash>
0.1687

> <Gold.Chemscore.DEInternal>
2.1091

> <Gold.Chemscore.Rot>
1.6642

> <Gold.Chemscore.Internal.Correction>
   9.000000E+99

> <Gold.Chemscore.Hbonds>
donor molecule, donor type, donor heavy atom, donor atom, acceptor molecule, acceptor atom, score
      P1  H  6931  6943       L1     9  0.58
      P1  H  6934  6947       L1     8  0.32
      P1  H  7997  8009       L1    20  0.57

> <Gold.Chemscore.Hbond.Weighted>
-6.7877

> <Gold.Chemscore.Metal.Weighted>
-0.0000

> <Gold.Chemscore.Lipo.Weighted>
-8.6746

> <Gold.Chemscore.Internal_Hbond.Weighted>
0.0000

> <Gold.Chemscore.DEClash.Weighted>
0.1687

> <Gold.Chemscore.DEInternal.Weighted>
2.1091

> <Gold.Chemscore.Rot.Weighted>
4.2604

> <Gold.Chemscore.Internal.Correction.Weighted>
   9.000000E+99

> <Gold.Protein.RotatedTorsions>
[ 6907 6896 6895 6894 ] final -102.80 input  -60.11 | X-H torsion
[ 7974 7965 7964 7962 ] final -174.55 input  175.53 | X-H torsion
[ 8008 7997 7996 7995 ] final  121.67 input   59.86 | X-H torsion
[ 10167 10162 10161 10158 ] final -117.90 input  -65.29 | X-H torsion
[ 10718 10713 10712 10709 ] final  -39.88 input   66.30 | X-H torsion
[ 10763 10752 10751 10750 ] final  117.44 input  -60.55 | X-H torsion
[ 11005 11000 10999 10996 ] final  -34.77 input  -57.11 | X-H torsion

> <Gold.Protein.ActiveResidues>
 VAL166  LYS551  ARG553  GLY616  TRP617  ASP618  TYR619  PRO620  LYS621  CYS622 
 ASP623  PHE694  ASN695  SER759  ASP760  ASP761  ALA762  ILE779  LEU786  VAL792 
 PHE793  MET794  SER795  GLU796  ALA797  LYS798  CYS799  TRP800  GLU811  SER814 

> <Gold.Protein.RotatedAtoms>
  150.7212  134.0526  159.3803 H   0  0  0  0  0  0  0  0  0  0  0  0  # atno 6907 bound_to 6896
  151.8503  135.0558  160.0467 H   0  0  0  0  0  0  0  0  0  0  0  0  # atno 6908 bound_to 6896
  152.2795  133.5421  159.5525 H   0  0  0  0  0  0  0  0  0  0  0  0  # atno 6909 bound_to 6896
  144.7131  140.1455  143.6388 H   0  0  0  0  0  0  0  0  0  0  0  0  # atno 7974 bound_to 7965
  156.2696  140.2803  156.1344 H   0  0  0  0  0  0  0  0  0  0  0  0  # atno 8008 bound_to 7997
  155.1019  140.0390  157.2717 H   0  0  0  0  0  0  0  0  0  0  0  0  # atno 8009 bound_to 7997
  154.6808  140.2608  155.6916 H   0  0  0  0  0  0  0  0  0  0  0  0  # atno 8010 bound_to 7997
  140.0633  143.4947  152.2020 H   0  0  0  0  0  0  0  0  0  0  0  0  # atno 10167 bound_to 10162
  156.2875  130.4224  149.8273 H   0  0  0  0  0  0  0  0  0  0  0  0  # atno 10718 bound_to 10713
  153.5524  135.3537  155.2765 H   0  0  0  0  0  0  0  0  0  0  0  0  # atno 10763 bound_to 10752
  154.8705  135.4117  154.2923 H   0  0  0  0  0  0  0  0  0  0  0  0  # atno 10764 bound_to 10752
  153.3651  135.7061  153.6750 H   0  0  0  0  0  0  0  0  0  0  0  0  # atno 10765 bound_to 10752
  140.9743  133.7092  156.1576 H   0  0  0  0  0  0  0  0  0  0  0  0  # atno 11005 bound_to 11000
  145.9163  139.2518  143.1407 LP  0  0  0  0  0  0  0  0  0  0  0  0  # atno 17320 bound_to 7965
  145.9665  140.8794  143.0184 LP  0  0  0  0  0  0  0  0  0  0  0  0  # atno 17321 bound_to 7965
  139.5880  144.7539  151.3470 LP  0  0  0  0  0  0  0  0  0  0  0  0  # atno 17342 bound_to 10162
  140.7161  143.7261  150.7658 LP  0  0  0  0  0  0  0  0  0  0  0  0  # atno 17343 bound_to 10162
  156.5698  130.8419  151.3353 LP  0  0  0  0  0  0  0  0  0  0  0  0  # atno 17370 bound_to 10713
  157.7333  130.9728  150.1970 LP  0  0  0  0  0  0  0  0  0  0  0  0  # atno 17371 bound_to 10713
  140.7282  134.4283  157.5568 LP  0  0  0  0  0  0  0  0  0  0  0  0  # atno 17394 bound_to 11000
  139.8924  134.8755  156.2271 LP  0  0  0  0  0  0  0  0  0  0  0  0  # atno 17395 bound_to 11000

$$$$
