AV-unprocessed.smi:888|AV-procd|sdf|4055|dock10
  -GOLD-   22720 1543D 1   1.00000     0.00000
 Structure written by MMmdl.
 45 46  0  0  0  0  0  0  0  0  1 V2000
  142.0569  144.6347  161.0357 C   0  0  0  0  0  0  0  0  0  0  0  0
  143.0155  143.9308  162.0020 C   0  0  0  0  0  0  0  0  0  0  0  0
  144.1270  143.2186  161.2950 C   0  0  0  0  0  0  0  0  0  0  0  0
  144.3544  141.9051  161.4168 N   0  0  0  0  0  0  0  0  0  0  0  0
  145.4399  141.6380  160.6063 N   0  0  0  0  0  0  0  0  0  0  0  0
  145.7545  142.8158  160.0691 C   0  0  0  0  0  0  0  0  0  0  0  0
  144.9761  143.8402  160.4497 N   0  0  0  0  0  0  0  0  0  0  0  0
  145.0569  145.2307  160.0420 C   0  0  0  0  0  0  0  0  0  0  0  0
  146.3274  145.9020  160.5798 C   0  0  0  0  0  0  0  0  0  0  0  0
  147.4877  145.5066  159.7870 N   0  0  0  0  0  0  0  0  0  0  0  0
  148.4248  144.6014  160.1160 C   0  0  0  0  0  0  0  0  0  0  0  0
  148.3915  143.9914  161.1829 O   0  0  0  0  0  0  0  0  0  0  0  0
  149.3863  144.4358  159.1909 N   0  0  0  0  0  0  0  0  0  0  0  0
  150.5240  143.5194  159.2880 C   0  0  1  0  0  0  0  0  0  0  0  0
  150.5988  142.6755  158.0021 C   0  0  0  0  0  0  0  0  0  0  0  0
  151.7214  143.2718  157.1418 C   0  0  0  0  0  0  0  0  0  0  0  0
  152.2405  144.4950  157.9035 C   0  0  0  0  0  0  0  0  0  0  0  0
  151.8869  144.2553  159.3801 C   0  0  0  0  0  0  0  0  0  0  0  0
  151.8533  145.5792  160.1744 C   0  0  0  0  0  0  0  0  0  0  0  0
  152.9385  143.3290  160.0288 C   0  0  0  0  0  0  0  0  0  0  0  0
  141.2580  145.1382  161.5802 H   0  0  0  0  0  0  0  0  0  0  0  0
  141.5964  143.9225  160.3504 H   0  0  0  0  0  0  0  0  0  0  0  0
  142.5779  145.3843  160.4399 H   0  0  0  0  0  0  0  0  0  0  0  0
  143.4287  144.6491  162.7099 H   0  0  0  0  0  0  0  0  0  0  0  0
  142.4631  143.2036  162.5979 H   0  0  0  0  0  0  0  0  0  0  0  0
  146.5749  142.9340  159.3763 H   0  0  0  0  0  0  0  0  0  0  0  0
  145.0394  145.2716  158.9520 H   0  0  0  0  0  0  0  0  0  0  0  0
  144.1650  145.7536  160.3891 H   0  0  0  0  0  0  0  0  0  0  0  0
  146.2189  146.9874  160.5497 H   0  0  0  0  0  0  0  0  0  0  0  0
  146.4847  145.6195  161.6221 H   0  0  0  0  0  0  0  0  0  0  0  0
  147.5958  145.9692  158.8958 H   0  0  0  0  0  0  0  0  0  0  0  0
  149.3262  144.9891  158.3489 H   0  0  0  0  0  0  0  0  0  0  0  0
  150.3820  142.8607  160.1470 H   0  0  0  0  0  0  0  0  0  0  0  0
  150.8428  141.6417  158.2498 H   0  0  0  0  0  0  0  0  0  0  0  0
  149.6496  142.6517  157.4644 H   0  0  0  0  0  0  0  0  0  0  0  0
  152.5202  142.5397  157.0177 H   0  0  0  0  0  0  0  0  0  0  0  0
  151.3717  143.5428  156.1452 H   0  0  0  0  0  0  0  0  0  0  0  0
  153.3061  144.6624  157.7426 H   0  0  0  0  0  0  0  0  0  0  0  0
  151.7196  145.3815  157.5386 H   0  0  0  0  0  0  0  0  0  0  0  0
  152.8442  146.0316  160.2238 H   0  0  0  0  0  0  0  0  0  0  0  0
  151.5156  145.4151  161.1983 H   0  0  0  0  0  0  0  0  0  0  0  0
  151.1905  146.3167  159.7209 H   0  0  0  0  0  0  0  0  0  0  0  0
  153.9279  143.7877  160.0237 H   0  0  0  0  0  0  0  0  0  0  0  0
  153.0212  142.3734  159.5103 H   0  0  0  0  0  0  0  0  0  0  0  0
  152.6843  143.1133  161.0671 H   0  0  0  0  0  0  0  0  0  0  0  0
  1  2  1  0  0  0  0
  1 21  1  0  0  0  0
  1 22  1  0  0  0  0
  1 23  1  0  0  0  0
  2  3  1  0  0  0  0
  2 24  1  0  0  0  0
  2 25  1  0  0  0  0
  3  7  1  0  0  0  0
  3  4  2  0  0  0  0
  4  5  1  0  0  0  0
  5  6  2  0  0  0  0
  6  7  1  0  0  0  0
  6 26  1  0  0  0  0
  7  8  1  0  0  0  0
  8  9  1  0  0  0  0
  8 27  1  0  0  0  0
  8 28  1  0  0  0  0
  9 10  1  0  0  0  0
  9 29  1  0  0  0  0
  9 30  1  0  0  0  0
 10 11  1  0  0  0  0
 10 31  1  0  0  0  0
 11 12  2  0  0  0  0
 11 13  1  0  0  0  0
 13 14  1  0  0  0  0
 13 32  1  0  0  0  0
 14 18  1  0  0  0  0
 14 15  1  0  0  0  0
 14 33  1  0  0  0  0
 15 16  1  0  0  0  0
 15 34  1  0  0  0  0
 15 35  1  0  0  0  0
 16 17  1  0  0  0  0
 16 36  1  0  0  0  0
 16 37  1  0  0  0  0
 17 18  1  0  0  0  0
 17 38  1  0  0  0  0
 17 39  1  0  0  0  0
 18 19  1  0  0  0  0
 18 20  1  0  0  0  0
 19 40  1  0  0  0  0
 19 41  1  0  0  0  0
 19 42  1  0  0  0  0
 20 43  1  0  0  0  0
 20 44  1  0  0  0  0
 20 45  1  0  0  0  0
M  END
> <s_m_source_file>
AV-unprocessed.smi

> <i_m_source_file_index>
888

> <i_lp_mmshare_version>
43012

> <i_f3d_flags>
0

> <s_epik_input>
W0NIM11bQ0gyXWMxbm5bY0hdbjFbQ0gyXVtDSDJdW05IXUMoPU8pW05IXVtDQEBIXShDMihbQ0gzXSlbQ0gzXSlbQ0gyXVtDSDJdW0NIMl0y

> <s_epik_cmdline>
J2VwaWtfcHl0aG9uJywgJy1waCcsICc3LjAnLCAnLXRuJywgJzgnLCAnLW1hJywgJzIwMCcsICctbWV0YWxfYmluZGluZycsICctaW1hZScsICc8aW5maWxlLm1hZT4nLCAnLW9tYWUnLCAnPG91dGZpbGUubWFlPic=

> <r_lp_tautomer_probability>
1

> <r_epik_Ionization_Penalty>
0.000379534

> <r_epik_Ionization_Penalty_Charging>
0

> <r_epik_Ionization_Penalty_Neutral>
0.000379534

> <r_epik_State_Penalty>
-0

> <r_epik_Charging_Adjusted_Penalty>
0

> <i_epik_Tot_Q>
0

> <i_epik_Tot_abs_Q>
0

> <r_epik_Metal_State_Penalty>
-0

> <b_epik_Metal_Only>
0

> <s_lp_Force_Field>
OPLS_2005

> <r_lp_Energy>
32.1677

> <b_lp_Chiralities_Consistent>
1

> <s_lp_Variant>
AV-unprocessed.smi:888-2

> <Gold.Version>
5.8.1

> <Gold.Id.Protein>
6NUR|6NUR_protein|mol2

> <Gold.PLP.Fitness>
53.9476

> <Gold.PLP.PLP>
-43.4282

> <Gold.PLP.part.hbond>
-5.3990

> <Gold.PLP.part.metal>
0.0000

> <Gold.PLP.part.buried>
-6.7209

> <Gold.PLP.part.nonpolar>
-31.6623

> <Gold.PLP.part.repulsive>
0.4843

> <Gold.PLP.ligand.clash>
0.0000

> <Gold.PLP.ligand.torsion>
0.3204

> <Gold.PLP.Chemscore.Hbond>
3.7120

> <Gold.PLP.Chemscore.CHOScore>
0.0000

> <Gold.PLP.Chemscore.Metal>
0.0000

> <Gold.Chemscore.Hbonds>
donor molecule, donor type, donor heavy atom, donor atom, acceptor molecule, acceptor atom, score
      L1  H    10    31       P1  8029  1.00
      L1  H    13    32       P1  8029  0.77
      P1  H  6933  6944       L1    12  0.98
      P1  H  6934  6946       L1     5  1.00

> <Gold.PLP.Chemscore.Internal.Correction>
0.0242

> <Gold.Rescore>
     Score         DG    S(hbond)    S(metal)    S(lipo)     H(rot)  DE(clash)    DE(int)     intcor
     18.65     -19.83       2.67        0.00      90.73       2.03       0.67       0.51       ----

> <Gold.Chemscore.Fitness>
18.6505

> <Gold.Chemscore.DG>
-19.8258

> <Gold.Chemscore.ZeroCoef>
-5.4800

> <Gold.Chemscore.Hbond>
2.6722

> <Gold.Chemscore.Metal>
0.0000

> <Gold.Chemscore.Lipo>
90.7312

> <Gold.Chemscore.Internal_Hbond>
0.0000

> <Gold.Chemscore.DEClash>
0.6661

> <Gold.Chemscore.DEInternal>
0.5093

> <Gold.Chemscore.Rot>
2.0293

> <Gold.Chemscore.Internal.Correction>
   9.000000E+99

> <Gold.Chemscore.Hbonds>
donor molecule, donor type, donor heavy atom, donor atom, acceptor molecule, acceptor atom, score
      L1  H    10    31       P1  8029  0.96
      L1  H    13    32       P1  8029  0.44
      P1  H  6933  6944       L1    12  0.92
      P1  H  6934  6946       L1     5  0.48

> <Gold.Chemscore.Hbond.Weighted>
-8.9253

> <Gold.Chemscore.Metal.Weighted>
-0.0000

> <Gold.Chemscore.Lipo.Weighted>
-10.6156

> <Gold.Chemscore.Internal_Hbond.Weighted>
0.0000

> <Gold.Chemscore.DEClash.Weighted>
0.6661

> <Gold.Chemscore.DEInternal.Weighted>
0.5093

> <Gold.Chemscore.Rot.Weighted>
5.1950

> <Gold.Chemscore.Internal.Correction.Weighted>
   9.000000E+99

> <Gold.Protein.RotatedTorsions>
[ 6907 6896 6895 6894 ] final -152.33 input  -60.11 | X-H torsion
[ 7974 7965 7964 7962 ] final  128.10 input  175.53 | X-H torsion
[ 8008 7997 7996 7995 ] final  -49.66 input   59.86 | X-H torsion
[ 10167 10162 10161 10158 ] final  176.54 input  -65.29 | X-H torsion
[ 10718 10713 10712 10709 ] final   96.43 input   66.30 | X-H torsion
[ 10763 10752 10751 10750 ] final   43.77 input  -60.55 | X-H torsion
[ 11005 11000 10999 10996 ] final -143.68 input  -57.11 | X-H torsion

> <Gold.Protein.ActiveResidues>
 VAL166  LYS551  ARG553  GLY616  TRP617  ASP618  TYR619  PRO620  LYS621  CYS622 
 ASP623  PHE694  ASN695  SER759  ASP760  ASP761  ALA762  ILE779  LEU786  VAL792 
 PHE793  MET794  SER795  GLU796  ALA797  LYS798  CYS799  TRP800  GLU811  SER814 

> <Gold.Protein.RotatedAtoms>
  151.2262  133.4475  159.2602 H   0  0  0  0  0  0  0  0  0  0  0  0  # atno 6907 bound_to 6896
  151.0837  134.9874  159.8379 H   0  0  0  0  0  0  0  0  0  0  0  0  # atno 6908 bound_to 6896
  152.5427  134.2200  159.8837 H   0  0  0  0  0  0  0  0  0  0  0  0  # atno 6909 bound_to 6896
  145.0432  139.3945  143.5091 H   0  0  0  0  0  0  0  0  0  0  0  0  # atno 7974 bound_to 7965
  154.4048  140.1291  156.4539 H   0  0  0  0  0  0  0  0  0  0  0  0  # atno 8008 bound_to 7997
  155.7339  140.3491  155.5052 H   0  0  0  0  0  0  0  0  0  0  0  0  # atno 8009 bound_to 7997
  155.9102  140.1034  157.1275 H   0  0  0  0  0  0  0  0  0  0  0  0  # atno 8010 bound_to 7997
  139.5218  144.2903  152.0470 H   0  0  0  0  0  0  0  0  0  0  0  0  # atno 10167 bound_to 10162
  157.6927  131.0578  150.4490 H   0  0  0  0  0  0  0  0  0  0  0  0  # atno 10718 bound_to 10713
  152.9854  135.6091  154.3166 H   0  0  0  0  0  0  0  0  0  0  0  0  # atno 10763 bound_to 10752
  154.2878  135.2775  155.2670 H   0  0  0  0  0  0  0  0  0  0  0  0  # atno 10764 bound_to 10752
  154.4979  135.5874  153.6565 H   0  0  0  0  0  0  0  0  0  0  0  0  # atno 10765 bound_to 10752
  140.8101  134.2754  157.4944 H   0  0  0  0  0  0  0  0  0  0  0  0  # atno 11005 bound_to 11000
  146.3511  140.0044  142.8673 LP  0  0  0  0  0  0  0  0  0  0  0  0  # atno 17320 bound_to 7965
  145.1621  140.9678  143.4371 LP  0  0  0  0  0  0  0  0  0  0  0  0  # atno 17321 bound_to 7965
  140.2354  144.4325  150.6282 LP  0  0  0  0  0  0  0  0  0  0  0  0  # atno 17342 bound_to 10162
  140.6327  143.2190  151.6462 LP  0  0  0  0  0  0  0  0  0  0  0  0  # atno 17343 bound_to 10162
  156.4843  130.4081  149.6443 LP  0  0  0  0  0  0  0  0  0  0  0  0  # atno 17370 bound_to 10713
  156.3477  130.7415  151.2370 LP  0  0  0  0  0  0  0  0  0  0  0  0  # atno 17371 bound_to 10713
  139.8715  134.9478  156.3978 LP  0  0  0  0  0  0  0  0  0  0  0  0  # atno 17394 bound_to 11000
  140.9206  133.7647  155.9902 LP  0  0  0  0  0  0  0  0  0  0  0  0  # atno 17395 bound_to 11000

$$$$
