#       Name:                AV-unprocessed.smi:2007
#       Creating user name   scv26
#       Creation time:       Fri Mar 27 10:37:03 2020


#       File generated by GOLD software.
#

@<TRIPOS>MOLECULE
AV-unprocessed.smi:2007
    42    43     1
SMALL
NO_CHARGES


@<TRIPOS>ATOM
      1 ****        -0.7898   3.6225   0.6064 C.3            1 S1                 0.0000
      2 ****        -0.4379   2.1297   0.6587 C.3            1 S1                 0.0000
      3 ****         1.0943   1.9191   0.6888 C.3            1 S1                 0.0000
      4 ****         1.4883   0.4915   0.7996 N.4            1 S1                 1.0000
      5 ****         2.8378   0.2177   0.2526 C.3            1 S1                 0.0000
      6 ****         3.1520  -1.2862   0.3334 C.3            1 S1                 0.0000
      7 ****         3.0343  -1.7295   1.6798 O.3            1 S1                 0.0000
      8 ****         1.7180  -1.5473   2.1871 C.3            1 S1                 0.0000
      9 ****         1.3670  -0.0505   2.1748 C.3            1 S1                 0.0000
     10 ****        -1.0518   1.4573  -0.4876 N.am           1 S1                 0.0000
     11 ****        -1.5112   0.1969  -0.5091 C.2            1 S1                 0.0000
     12 ****        -1.4339  -0.5689   0.4520 O.2            1 S1                 0.0000
     13 ****        -2.0455  -0.1083  -1.7042 N.am           1 S1                 0.0000
     14 ****        -2.5931  -1.3479  -2.1276 C.2            1 S1                 0.0000
     15 ****        -2.6325  -2.4518  -1.3721 N.2            1 S1                 0.0000
     16 ****        -3.2224  -3.5257  -2.0436 C.2            1 S1                 0.0000
     17 ****        -3.6243  -3.2208  -3.3203 C.2            1 S1                 0.0000
     18 ****        -3.2798  -1.5618  -3.7312 S.3            1 S1                 0.0000
     19 ****        -0.3836   4.1509   1.4693 H              1 S1                 0.0000
     20 ****        -1.8701   3.7728   0.6095 H              1 S1                 0.0000
     21 ****        -0.3899   4.0958  -0.2912 H              1 S1                 0.0000
     22 ****        -0.8753   1.7368   1.5774 H              1 S1                 0.0000
     23 ****         1.5106   2.3338  -0.2308 H              1 S1                 0.0000
     24 ****         1.5454   2.4846   1.5057 H              1 S1                 0.0000
     25 ****         2.8909   0.5457  -0.7863 H              1 S1                 0.0000
     26 ****         3.5821   0.7883   0.8102 H              1 S1                 0.0000
     27 ****         2.4824  -1.8591  -0.3102 H              1 S1                 0.0000
     28 ****         4.1677  -1.4769  -0.0136 H              1 S1                 0.0000
     29 ****         1.0024  -2.1207   1.5952 H              1 S1                 0.0000
     30 ****         1.6736  -1.9354   3.2046 H              1 S1                 0.0000
     31 ****         2.0322   0.4947   2.8462 H              1 S1                 0.0000
     32 ****         0.3532   0.0860   2.5504 H              1 S1                 0.0000
     33 ****        -1.1598   2.0099  -1.3258 H              1 S1                 0.0000
     34 ****        -2.0562   0.6276  -2.3953 H              1 S1                 0.0000
     35 ****        -3.3152  -4.4748  -1.5365 H              1 S1                 0.0000
     36 ****        -4.1011  -3.8688  -4.0409 H              1 S1                 0.0000
     37 ****         0.8400  -0.0276   0.2242 H              1 S1                 0.0000
     38 ****         3.6739  -1.2111   2.2475 LP             1 S1                 0.0000
     39 ****         3.2646  -2.7017   1.7210 LP             1 S1                 0.0000
     40 ****        -1.0115  -0.2605   1.3044 LP             1 S1                 0.0000
     41 ****        -1.7934  -1.4992   0.3802 LP             1 S1                 0.0000
     42 ****        -2.2811  -2.5021  -0.4372 LP             1 S1                 0.0000
@<TRIPOS>BOND
    1    1    2 1     
    2    1   19 1     
    3    1   20 1     
    4    1   21 1     
    5    2    3 1     
    6    2   10 1     
    7    2   22 1     
    8    3    4 1     
    9    3   23 1     
   10    3   24 1     
   11    4    9 1     
   12    4    5 1     
   13    4   37 1     
   14    5    6 1     
   15    5   25 1     
   16    5   26 1     
   17    6    7 1     
   18    6   27 1     
   19    6   28 1     
   20    7    8 1     
   21    8    9 1     
   22    8   29 1     
   23    8   30 1     
   24    9   31 1     
   25    9   32 1     
   26   10   11 am    
   27   10   33 1     
   28   11   12 2     
   29   11   13 am    
   30   13   14 1     
   31   13   34 1     
   32   14   18 1     
   33   14   15 2     
   34   15   16 1     
   35   16   17 2     
   36   16   35 1     
   37   17   18 1     
   38   17   36 1     
   39    7   38 1     
   40    7   39 1     
   41   12   40 1     
   42   12   41 1     
   43   15   42 1     
@<TRIPOS>SUBSTRUCTURE
      1 S1             1
@<TRIPOS>SET
LONE_PAIRS      STATIC     ATOMS    <user>   **** ""
5 38 39 40 41 42
DONOR_HYDROGENS      STATIC     ATOMS    <user>   **** ""
3 37 33 34
ATOM$BLUE        STATIC     ATOMS    COLORGROUP SYSTEM
5 38 39 40 41 42
ATOM$RED        STATIC     ATOMS    COLORGROUP SYSTEM
3 37 33 34
