AV-unprocessed.smi:1580|AV-procd|sdf|6359|dock2
  -GOLD-   22720 6583D 1   1.00000     0.00000
 Structure written by MMmdl.
 37 38  0  0  0  0  0  0  0  0  1 V2000
  152.7063  138.1903  156.8330 C   0  0  0  0  0  0  0  0  0  0  0  0
  152.4714  138.5123  155.0378 S   0  0  0  0  0  0  0  0  0  0  0  0
  153.6399  139.2669  154.5581 O   0  0  0  0  0  0  0  0  0  0  0  0
  152.1077  137.2450  154.3850 O   0  0  0  0  0  0  0  0  0  0  0  0
  151.0443  139.5900  154.9822 C   0  0  0  0  0  0  0  0  0  0  0  0
  149.8542  139.1663  154.3583 C   0  0  0  0  0  0  0  0  0  0  0  0
  148.7734  140.0669  154.3070 C   0  0  0  0  0  0  0  0  0  0  0  0
  148.9273  141.3569  154.8746 C   0  0  0  0  0  0  0  0  0  0  0  0
  147.9241  142.3656  154.8917 N   0  0  0  0  0  0  0  0  0  0  0  0
  146.6169  142.2785  154.5899 C   0  0  0  0  0  0  0  0  0  0  0  0
  146.0309  141.2613  154.2217 O   0  0  0  0  0  0  0  0  0  0  0  0
  146.0079  143.4622  154.7448 N   0  0  0  0  0  0  0  0  0  0  0  0
  144.5959  143.7164  154.4824 C   0  0  0  0  0  0  0  0  0  0  0  0
  144.2317  145.1883  154.7376 C   0  0  1  0  0  0  0  0  0  0  0  0
  142.8494  145.5779  154.2170 C   0  0  0  0  0  0  0  0  0  0  0  0
  142.5130  146.7565  155.1012 C   0  0  0  0  0  0  0  0  0  0  0  0
  143.0824  146.3081  156.4436 C   0  0  0  0  0  0  0  0  0  0  0  0
  144.1861  145.4589  156.1374 O   0  0  0  0  0  0  0  0  0  0  0  0
  150.1752  141.6746  155.4536 C   0  0  0  0  0  0  0  0  0  0  0  0
  151.2187  140.8209  155.5073 N   0  0  0  0  0  0  0  0  0  0  0  0
  153.5627  137.5314  156.9745 H   0  0  0  0  0  0  0  0  0  0  0  0
  151.8125  137.7157  157.2372 H   0  0  0  0  0  0  0  0  0  0  0  0
  152.8833  139.1326  157.3510 H   0  0  0  0  0  0  0  0  0  0  0  0
  149.7654  138.1797  153.9284 H   0  0  0  0  0  0  0  0  0  0  0  0
  147.8630  139.7454  153.8278 H   0  0  0  0  0  0  0  0  0  0  0  0
  148.2396  143.2737  155.1996 H   0  0  0  0  0  0  0  0  0  0  0  0
  146.5616  144.2489  155.0506 H   0  0  0  0  0  0  0  0  0  0  0  0
  144.3533  143.4400  153.4549 H   0  0  0  0  0  0  0  0  0  0  0  0
  144.0023  143.0657  155.1250 H   0  0  0  0  0  0  0  0  0  0  0  0
  144.9744  145.8511  154.2903 H   0  0  0  0  0  0  0  0  0  0  0  0
  142.8494  145.8251  153.1551 H   0  0  0  0  0  0  0  0  0  0  0  0
  142.1323  144.7722  154.3815 H   0  0  0  0  0  0  0  0  0  0  0  0
  143.0334  147.6486  154.7500 H   0  0  0  0  0  0  0  0  0  0  0  0
  141.4455  146.9749  155.1412 H   0  0  0  0  0  0  0  0  0  0  0  0
  143.3869  147.1492  157.0666 H   0  0  0  0  0  0  0  0  0  0  0  0
  142.3430  145.7277  156.9965 H   0  0  0  0  0  0  0  0  0  0  0  0
  150.3440  142.6487  155.8892 H   0  0  0  0  0  0  0  0  0  0  0  0
  1  2  1  0  0  0  0
  1 21  1  0  0  0  0
  1 22  1  0  0  0  0
  1 23  1  0  0  0  0
  2  3  2  0  0  0  0
  2  4  2  0  0  0  0
  2  5  1  0  0  0  0
  5 20  1  0  0  0  0
  5  6  2  0  0  0  0
  6  7  1  0  0  0  0
  6 24  1  0  0  0  0
  7  8  2  0  0  0  0
  7 25  1  0  0  0  0
  8  9  1  0  0  0  0
  8 19  1  0  0  0  0
  9 10  1  0  0  0  0
  9 26  1  0  0  0  0
 10 11  2  0  0  0  0
 10 12  1  0  0  0  0
 12 13  1  0  0  0  0
 12 27  1  0  0  0  0
 13 14  1  0  0  0  0
 13 28  1  0  0  0  0
 13 29  1  0  0  0  0
 14 18  1  0  0  0  0
 14 15  1  0  0  0  0
 14 30  1  0  0  0  0
 15 16  1  0  0  0  0
 15 31  1  0  0  0  0
 15 32  1  0  0  0  0
 16 17  1  0  0  0  0
 16 33  1  0  0  0  0
 16 34  1  0  0  0  0
 17 18  1  0  0  0  0
 17 35  1  0  0  0  0
 17 36  1  0  0  0  0
 19 20  2  0  0  0  0
 19 37  1  0  0  0  0
M  END
> <s_m_source_file>
AV-unprocessed.smi

> <i_m_source_file_index>
1580

> <i_lp_mmshare_version>
43012

> <i_f3d_flags>
0

> <s_epik_input>
W0NIM11TKD1PKSg9TyljMVtjSF1bY0hdYyhbY0hdbjEpW05IXUMoPU8pW05IXVtDSDJdW0NAQEhdMltDSDJdW0NIMl1bQ0gyXU8y

> <s_epik_cmdline>
J2VwaWtfcHl0aG9uJywgJy1waCcsICc3LjAnLCAnLXRuJywgJzgnLCAnLW1hJywgJzIwMCcsICctbWV0YWxfYmluZGluZycsICctaW1hZScsICc8aW5maWxlLm1hZT4nLCAnLW9tYWUnLCAnPG91dGZpbGUubWFlPic=

> <r_lp_tautomer_probability>
1

> <r_epik_Ionization_Penalty>
3.28405e-05

> <r_epik_Ionization_Penalty_Charging>
0

> <r_epik_Ionization_Penalty_Neutral>
3.28405e-05

> <r_epik_State_Penalty>
-0

> <r_epik_Charging_Adjusted_Penalty>
0

> <i_epik_Tot_Q>
0

> <i_epik_Tot_abs_Q>
0

> <r_epik_Metal_State_Penalty>
-0

> <b_epik_Metal_Only>
0

> <s_lp_Force_Field>
OPLS_2005

> <r_lp_Energy>
18.5383

> <b_lp_Chiralities_Consistent>
1

> <s_lp_Variant>
AV-unprocessed.smi:1580-2

> <Gold.Version>
5.8.1

> <Gold.Id.Protein>
6NUR|6NUR_protein|mol2

> <Gold.PLP.Fitness>
45.1923

> <Gold.PLP.PLP>
-34.0225

> <Gold.PLP.part.hbond>
-4.5541

> <Gold.PLP.part.metal>
0.0000

> <Gold.PLP.part.buried>
-2.5127

> <Gold.PLP.part.nonpolar>
-27.7826

> <Gold.PLP.part.repulsive>
1.4310

> <Gold.PLP.ligand.clash>
0.0000

> <Gold.PLP.ligand.torsion>
1.1553

> <Gold.PLP.Chemscore.Hbond>
2.8800

> <Gold.PLP.Chemscore.CHOScore>
0.9374

> <Gold.PLP.Chemscore.Metal>
0.0000

> <Gold.Chemscore.Hbonds>
donor molecule, donor type, donor heavy atom, donor atom, acceptor molecule, acceptor atom, score
      L1  H     9    26       P1  8028  1.00
      P1  H  7997  8009       L1     3  1.00
      P1  H 10752 10763       L1     4  0.88
      L1  C    19    37       P1  8028  0.93

> <Gold.PLP.Chemscore.Internal.Correction>
2.0282

> <Gold.Rescore>
     Score         DG    S(hbond)    S(metal)    S(lipo)     H(rot)  DE(clash)    DE(int)     intcor
     16.75     -19.96       2.89        0.00      69.11       1.27       1.01       2.19       ----

> <Gold.Chemscore.Fitness>
16.7528

> <Gold.Chemscore.DG>
-19.9565

> <Gold.Chemscore.ZeroCoef>
-5.4800

> <Gold.Chemscore.Hbond>
2.8888

> <Gold.Chemscore.Metal>
0.0000

> <Gold.Chemscore.Lipo>
69.1077

> <Gold.Chemscore.Internal_Hbond>
0.0000

> <Gold.Chemscore.DEClash>
1.0104

> <Gold.Chemscore.DEInternal>
2.1933

> <Gold.Chemscore.Rot>
1.2725

> <Gold.Chemscore.Internal.Correction>
   9.000000E+99

> <Gold.Chemscore.Hbonds>
donor molecule, donor type, donor heavy atom, donor atom, acceptor molecule, acceptor atom, score
      L1  H     9    26       P1  8028  0.95
      P1  H  7997  8009       L1     3  0.98
      P1  H 10752 10763       L1     4  0.87

> <Gold.Chemscore.Hbond.Weighted>
-9.6485

> <Gold.Chemscore.Metal.Weighted>
-0.0000

> <Gold.Chemscore.Lipo.Weighted>
-8.0856

> <Gold.Chemscore.Internal_Hbond.Weighted>
0.0000

> <Gold.Chemscore.DEClash.Weighted>
1.0104

> <Gold.Chemscore.DEInternal.Weighted>
2.1933

> <Gold.Chemscore.Rot.Weighted>
3.2576

> <Gold.Chemscore.Internal.Correction.Weighted>
   9.000000E+99

> <Gold.Protein.RotatedTorsions>
[ 6907 6896 6895 6894 ] final -151.74 input  -60.11 | X-H torsion
[ 7974 7965 7964 7962 ] final  178.57 input  175.53 | X-H torsion
[ 8008 7997 7996 7995 ] final -121.15 input   59.86 | X-H torsion
[ 10167 10162 10161 10158 ] final   36.37 input  -65.29 | X-H torsion
[ 10718 10713 10712 10709 ] final  125.28 input   66.30 | X-H torsion
[ 10763 10752 10751 10750 ] final   44.29 input  -60.55 | X-H torsion
[ 11005 11000 10999 10996 ] final   -4.42 input  -57.11 | X-H torsion

> <Gold.Protein.ActiveResidues>
 VAL166  LYS551  ARG553  GLY616  TRP617  ASP618  TYR619  PRO620  LYS621  CYS622 
 ASP623  PHE694  ASN695  SER759  ASP760  ASP761  ALA762  ILE779  LEU786  VAL792 
 PHE793  MET794  SER795  GLU796  ALA797  LYS798  CYS799  TRP800  GLU811  SER814 

> <Gold.Protein.RotatedAtoms>
  151.2176  133.4520  159.2599 H   0  0  0  0  0  0  0  0  0  0  0  0  # atno 6907 bound_to 6896
  151.0916  134.9919  159.8415 H   0  0  0  0  0  0  0  0  0  0  0  0  # atno 6908 bound_to 6896
  152.5435  134.2109  159.8802 H   0  0  0  0  0  0  0  0  0  0  0  0  # atno 6909 bound_to 6896
  144.7155  140.0417  143.6437 H   0  0  0  0  0  0  0  0  0  0  0  0  # atno 7974 bound_to 7965
  155.1434  140.0402  157.2804 H   0  0  0  0  0  0  0  0  0  0  0  0  # atno 8008 bound_to 7997
  154.6456  140.2557  155.7245 H   0  0  0  0  0  0  0  0  0  0  0  0  # atno 8009 bound_to 7997
  156.2553  140.2846  156.0869 H   0  0  0  0  0  0  0  0  0  0  0  0  # atno 8010 bound_to 7997
  140.4134  144.1561  150.6141 H   0  0  0  0  0  0  0  0  0  0  0  0  # atno 10167 bound_to 10162
  157.5516  131.1094  150.8693 H   0  0  0  0  0  0  0  0  0  0  0  0  # atno 10718 bound_to 10713
  152.9844  135.6075  154.3251 H   0  0  0  0  0  0  0  0  0  0  0  0  # atno 10763 bound_to 10752
  154.2958  135.2774  155.2636 H   0  0  0  0  0  0  0  0  0  0  0  0  # atno 10764 bound_to 10752
  154.4910  135.5892  153.6516 H   0  0  0  0  0  0  0  0  0  0  0  0  # atno 10765 bound_to 10752
  140.6801  133.9161  155.8549 H   0  0  0  0  0  0  0  0  0  0  0  0  # atno 11005 bound_to 11000
  146.0018  139.3097  143.0923 LP  0  0  0  0  0  0  0  0  0  0  0  0  # atno 17320 bound_to 7965
  145.8784  140.9377  143.0614 LP  0  0  0  0  0  0  0  0  0  0  0  0  # atno 17321 bound_to 7965
  140.4613  143.2448  151.9215 LP  0  0  0  0  0  0  0  0  0  0  0  0  # atno 17342 bound_to 10162
  139.4782  144.5464  151.8451 LP  0  0  0  0  0  0  0  0  0  0  0  0  # atno 17343 bound_to 10162
  156.9216  130.5317  149.5279 LP  0  0  0  0  0  0  0  0  0  0  0  0  # atno 17370 bound_to 10713
  156.0581  130.5639  150.9135 LP  0  0  0  0  0  0  0  0  0  0  0  0  # atno 17371 bound_to 10713
  141.0324  134.0737  157.3998 LP  0  0  0  0  0  0  0  0  0  0  0  0  # atno 17394 bound_to 11000
  139.8954  135.0141  156.7002 LP  0  0  0  0  0  0  0  0  0  0  0  0  # atno 17395 bound_to 11000

$$$$
