AV-unprocessed.smi:541|AV-procd|sdf|2871|dock3
  -GOLD-   2262023363D 1   1.00000     0.00000
 Structure written by MMmdl.
 43 45  0  0  0  0  0  0  0  0  1 V2000
  154.7041  140.3619  160.1784 C   0  0  0  0  0  0  0  0  0  0  0  0
  153.4099  139.6668  159.7496 C   0  0  0  0  0  0  0  0  0  0  0  0
  153.4655  139.4099  158.3567 O   0  0  0  0  0  0  0  0  0  0  0  0
  152.1880  139.1624  157.7952 C   0  0  0  0  0  0  0  0  0  0  0  0
  152.2019  139.5969  156.3230 C   0  0  0  0  0  0  0  0  0  0  0  0
  151.0255  140.3902  155.9798 N   0  0  0  0  0  0  0  0  0  0  0  0
  150.6171  141.6133  156.4375 C   0  0  0  0  0  0  0  0  0  0  0  0
  151.2890  142.3732  157.4093 N   0  0  0  0  0  0  0  0  0  0  0  0
  151.8388  142.0067  158.7155 C   0  0  0  0  0  0  0  0  0  0  0  0
  152.0941  143.2868  159.5045 C   0  0  0  0  0  0  0  0  0  0  0  0
  152.4518  144.2602  158.4043 C   0  0  0  0  0  0  0  0  0  0  0  0
  151.5237  143.8123  157.2795 C   0  0  0  0  0  0  0  0  0  0  0  0
  149.4852  142.0496  155.8729 N   0  0  0  0  0  0  0  0  0  0  0  0
  149.1321  141.0301  155.0071 C   0  0  0  0  0  0  0  0  0  0  0  0
  150.0359  140.0217  155.0628 C   0  0  0  0  0  0  0  0  0  0  0  0
  149.8951  138.7989  154.2569 C   0  0  0  0  0  0  0  0  0  0  0  0
  150.6917  137.8637  154.2934 O   0  0  0  0  0  0  0  0  0  0  0  0
  148.7895  138.8010  153.4732 N   0  0  0  0  0  0  0  0  0  0  0  0
  147.8440  139.7836  153.3718 C   0  0  0  0  0  0  0  0  0  0  0  0
  146.8826  139.6367  152.6173 O   0  0  0  0  0  0  0  0  0  0  0  0
  148.0131  140.9106  154.1345 N   0  0  0  0  0  0  0  0  0  0  0  0
  147.0317  141.9953  154.0709 C   0  0  0  0  0  0  0  0  0  0  0  0
  148.6447  137.9812  152.9021 H   0  0  0  0  0  0  0  0  0  0  0  0
  154.6972  140.5725  161.2479 H   0  0  0  0  0  0  0  0  0  0  0  0
  154.8337  141.3077  159.6518 H   0  0  0  0  0  0  0  0  0  0  0  0
  155.5724  139.7377  159.9662 H   0  0  0  0  0  0  0  0  0  0  0  0
  153.2904  138.7325  160.2999 H   0  0  0  0  0  0  0  0  0  0  0  0
  152.5527  140.3003  159.9825 H   0  0  0  0  0  0  0  0  0  0  0  0
  151.9464  138.1013  157.8711 H   0  0  0  0  0  0  0  0  0  0  0  0
  151.4238  139.7067  158.3511 H   0  0  0  0  0  0  0  0  0  0  0  0
  153.1093  140.1381  156.0753 H   0  0  0  0  0  0  0  0  0  0  0  0
  152.2374  138.7207  155.6773 H   0  0  0  0  0  0  0  0  0  0  0  0
  151.1693  141.3523  159.2702 H   0  0  0  0  0  0  0  0  0  0  0  0
  152.7825  141.4830  158.5615 H   0  0  0  0  0  0  0  0  0  0  0  0
  151.1808  143.6080  160.0072 H   0  0  0  0  0  0  0  0  0  0  0  0
  152.8783  143.1770  160.2539 H   0  0  0  0  0  0  0  0  0  0  0  0
  152.3065  145.3031  158.6877 H   0  0  0  0  0  0  0  0  0  0  0  0
  153.4935  144.1258  158.1092 H   0  0  0  0  0  0  0  0  0  0  0  0
  151.9464  144.0548  156.3041 H   0  0  0  0  0  0  0  0  0  0  0  0
  150.5639  144.3242  157.3587 H   0  0  0  0  0  0  0  0  0  0  0  0
  146.8282  142.2790  153.0373 H   0  0  0  0  0  0  0  0  0  0  0  0
  147.3696  142.8937  154.5870 H   0  0  0  0  0  0  0  0  0  0  0  0
  146.0932  141.6830  154.5300 H   0  0  0  0  0  0  0  0  0  0  0  0
  1  2  1  0  0  0  0
  1 24  1  0  0  0  0
  1 25  1  0  0  0  0
  1 26  1  0  0  0  0
  2  3  1  0  0  0  0
  2 27  1  0  0  0  0
  2 28  1  0  0  0  0
  3  4  1  0  0  0  0
  4  5  1  0  0  0  0
  4 29  1  0  0  0  0
  4 30  1  0  0  0  0
  5  6  1  0  0  0  0
  5 31  1  0  0  0  0
  5 32  1  0  0  0  0
  6 15  1  0  0  0  0
  6  7  1  0  0  0  0
  7  8  1  0  0  0  0
  7 13  2  0  0  0  0
  8 12  1  0  0  0  0
  8  9  1  0  0  0  0
  9 10  1  0  0  0  0
  9 33  1  0  0  0  0
  9 34  1  0  0  0  0
 10 11  1  0  0  0  0
 10 35  1  0  0  0  0
 10 36  1  0  0  0  0
 11 12  1  0  0  0  0
 11 37  1  0  0  0  0
 11 38  1  0  0  0  0
 12 39  1  0  0  0  0
 12 40  1  0  0  0  0
 13 14  1  0  0  0  0
 14 21  1  0  0  0  0
 14 15  2  0  0  0  0
 15 16  1  0  0  0  0
 16 17  2  0  0  0  0
 16 18  1  0  0  0  0
 18 23  1  0  0  0  0
 18 19  1  0  0  0  0
 19 20  2  0  0  0  0
 19 21  1  0  0  0  0
 21 22  1  0  0  0  0
 22 41  1  0  0  0  0
 22 42  1  0  0  0  0
 22 43  1  0  0  0  0
M  END
> <s_m_source_file>
AV-unprocessed.smi

> <i_m_source_file_index>
541

> <i_lp_mmshare_version>
43012

> <i_f3d_flags>
0

> <s_epik_input>
W0NIM11uMWMoPU8pW25IXWMoPU8pYyhjMTIpbihbQ0gyXVtDSDJdT1tDSDJdW0NIM10pYyhuMilOM1tDSDJdW0NIMl1bQ0gyXVtDSDJdMw==

> <s_epik_cmdline>
J2VwaWtfcHl0aG9uJywgJy1waCcsICc3LjAnLCAnLXRuJywgJzgnLCAnLW1hJywgJzIwMCcsICctbWV0YWxfYmluZGluZycsICctaW1hZScsICc8aW5maWxlLm1hZT4nLCAnLW9tYWUnLCAnPG91dGZpbGUubWFlPic=

> <r_lp_tautomer_probability>
1

> <r_epik_Ionization_Penalty>
0.00016913

> <r_epik_Ionization_Penalty_Charging>
2.12732e-05

> <r_epik_Ionization_Penalty_Neutral>
0.000147857

> <r_epik_State_Penalty>
-0

> <r_epik_Charging_Adjusted_Penalty>
2.12732e-05

> <i_epik_Tot_Q>
0

> <i_epik_Tot_abs_Q>
0

> <r_epik_Metal_State_Penalty>
0.0201837

> <b_epik_Metal_Only>
0

> <s_lp_Force_Field>
OPLS_2005

> <r_lp_Energy>
45.5158

> <b_lp_Chiralities_Consistent>
1

> <s_lp_Variant>
AV-unprocessed.smi:541-1

> <Gold.Version>
5.8.1

> <Gold.Id.Protein>
6NUR|6NUR_protein|mol2

> <Gold.PLP.Fitness>
48.1070

> <Gold.PLP.PLP>
-44.8539

> <Gold.PLP.part.hbond>
-3.0000

> <Gold.PLP.part.metal>
0.0000

> <Gold.PLP.part.buried>
-3.3103

> <Gold.PLP.part.nonpolar>
-42.5231

> <Gold.PLP.part.repulsive>
3.5435

> <Gold.PLP.ligand.clash>
0.0000

> <Gold.PLP.ligand.torsion>
1.3821

> <Gold.PLP.Chemscore.Hbond>
2.0000

> <Gold.PLP.Chemscore.CHOScore>
0.0000

> <Gold.PLP.Chemscore.Metal>
0.0000

> <Gold.Chemscore.Hbonds>
donor molecule, donor type, donor heavy atom, donor atom, acceptor molecule, acceptor atom, score
      L1  H    18    23       P1  7948  0.99
      P1  H  7997  8010       L1     3  1.00

> <Gold.PLP.Chemscore.Internal.Correction>
0.0173

> <Gold.Rescore>
     Score         DG    S(hbond)    S(metal)    S(lipo)     H(rot)  DE(clash)    DE(int)     intcor
     14.39     -17.79       1.91        0.00      87.17       1.67       1.35       2.05       ----

> <Gold.Chemscore.Fitness>
14.3851

> <Gold.Chemscore.DG>
-17.7889

> <Gold.Chemscore.ZeroCoef>
-5.4800

> <Gold.Chemscore.Hbond>
1.9099

> <Gold.Chemscore.Metal>
0.0000

> <Gold.Chemscore.Lipo>
87.1697

> <Gold.Chemscore.Internal_Hbond>
0.0000

> <Gold.Chemscore.DEClash>
1.3537

> <Gold.Chemscore.DEInternal>
2.0500

> <Gold.Chemscore.Rot>
1.6675

> <Gold.Chemscore.Internal.Correction>
   9.000000E+99

> <Gold.Chemscore.Hbonds>
donor molecule, donor type, donor heavy atom, donor atom, acceptor molecule, acceptor atom, score
      L1  H    18    23       P1  7948  0.92
      P1  H  7997  8010       L1     3  0.93

> <Gold.Chemscore.Hbond.Weighted>
-6.3789

> <Gold.Chemscore.Metal.Weighted>
-0.0000

> <Gold.Chemscore.Lipo.Weighted>
-10.1989

> <Gold.Chemscore.Internal_Hbond.Weighted>
0.0000

> <Gold.Chemscore.DEClash.Weighted>
1.3537

> <Gold.Chemscore.DEInternal.Weighted>
2.0500

> <Gold.Chemscore.Rot.Weighted>
4.2689

> <Gold.Chemscore.Internal.Correction.Weighted>
   9.000000E+99

> <Gold.Protein.RotatedTorsions>
[ 6907 6896 6895 6894 ] final   87.57 input  -60.11 | X-H torsion
[ 7974 7965 7964 7962 ] final  -10.15 input  175.53 | X-H torsion
[ 8008 7997 7996 7995 ] final    9.57 input   59.86 | X-H torsion
[ 10167 10162 10161 10158 ] final  -26.01 input  -65.29 | X-H torsion
[ 10718 10713 10712 10709 ] final  -77.84 input   66.30 | X-H torsion
[ 10763 10752 10751 10750 ] final -175.07 input  -60.55 | X-H torsion
[ 11005 11000 10999 10996 ] final   10.10 input  -57.11 | X-H torsion

> <Gold.Protein.ActiveResidues>
 VAL166  LYS551  ARG553  GLY616  TRP617  ASP618  TYR619  PRO620  LYS621  CYS622 
 ASP623  PHE694  ASN695  SER759  ASP760  ASP761  ALA762  ILE779  LEU786  VAL792 
 PHE793  MET794  SER795  GLU796  ALA797  LYS798  CYS799  TRP800  GLU811  SER814 

> <Gold.Protein.RotatedAtoms>
  152.5413  134.2256  159.8804 H   0  0  0  0  0  0  0  0  0  0  0  0  # atno 6907 bound_to 6896
  151.2231  133.4485  159.2609 H   0  0  0  0  0  0  0  0  0  0  0  0  # atno 6908 bound_to 6896
  151.0787  134.9857  159.8401 H   0  0  0  0  0  0  0  0  0  0  0  0  # atno 6909 bound_to 6896
  146.2230  140.2721  142.8357 H   0  0  0  0  0  0  0  0  0  0  0  0  # atno 7974 bound_to 7965
  154.7818  140.2820  155.6058 H   0  0  0  0  0  0  0  0  0  0  0  0  # atno 8008 bound_to 7997
  156.2951  140.2621  156.2573 H   0  0  0  0  0  0  0  0  0  0  0  0  # atno 8009 bound_to 7997
  154.9775  140.0375  157.2252 H   0  0  0  0  0  0  0  0  0  0  0  0  # atno 8010 bound_to 7997
  140.7284  143.4215  151.0943 H   0  0  0  0  0  0  0  0  0  0  0  0  # atno 10167 bound_to 10162
  156.0134  130.4502  150.3406 H   0  0  0  0  0  0  0  0  0  0  0  0  # atno 10718 bound_to 10713
  154.5888  135.2843  155.0657 H   0  0  0  0  0  0  0  0  0  0  0  0  # atno 10763 bound_to 10752
  154.1966  135.6431  153.5079 H   0  0  0  0  0  0  0  0  0  0  0  0  # atno 10764 bound_to 10752
  153.0114  135.5459  154.6566 H   0  0  0  0  0  0  0  0  0  0  0  0  # atno 10765 bound_to 10752
  140.5183  134.0584  155.7837 H   0  0  0  0  0  0  0  0  0  0  0  0  # atno 11005 bound_to 11000
  144.9260  140.7922  143.5719 LP  0  0  0  0  0  0  0  0  0  0  0  0  # atno 17320 bound_to 7965
  145.2661  139.1973  143.4866 LP  0  0  0  0  0  0  0  0  0  0  0  0  # atno 17321 bound_to 7965
  139.7861  143.8285  152.3145 LP  0  0  0  0  0  0  0  0  0  0  0  0  # atno 17342 bound_to 10162
  139.8253  144.7278  150.9520 LP  0  0  0  0  0  0  0  0  0  0  0  0  # atno 17343 bound_to 10162
  157.1501  131.0319  151.2889 LP  0  0  0  0  0  0  0  0  0  0  0  0  # atno 17370 bound_to 10713
  157.4399  130.7538  149.7060 LP  0  0  0  0  0  0  0  0  0  0  0  0  # atno 17371 bound_to 10713
  141.1348  133.9240  157.2458 LP  0  0  0  0  0  0  0  0  0  0  0  0  # atno 17394 bound_to 11000
  139.9620  135.0152  156.9286 LP  0  0  0  0  0  0  0  0  0  0  0  0  # atno 17395 bound_to 11000

$$$$
