AV-unprocessed.smi:3168|AV-procd|sdf|12099|dock7
  -GOLD-   2272017533D 1   1.00000     0.00000
 Structure written by MMmdl.
 33 34  0  0  0  0  0  0  0  0  1 V2000
  153.8680  141.9693  160.6830 C   0  0  0  0  0  0  0  0  0  0  0  0
  152.4849  141.8927  160.0037 C   0  0  2  0  0  0  0  0  0  0  0  0
  152.4425  140.8929  158.8348 C   0  0  0  0  0  0  0  0  0  0  0  0
  153.4024  140.1581  158.5993 O   0  0  0  0  0  0  0  0  0  0  0  0
  151.3089  140.8695  158.1150 N   0  0  0  0  0  0  0  0  0  0  0  0
  151.0479  140.0054  156.9684 C   0  0  0  0  0  0  0  0  0  0  0  0
  150.4118  140.7805  155.8023 C   0  0  2  0  0  0  0  0  0  0  0  0
  148.9830  141.2692  156.0492 C   0  0  0  0  0  0  0  0  0  0  0  0
  148.4446  141.3625  154.6406 C   0  0  0  0  0  0  0  0  0  0  0  0
  149.0752  140.1345  153.9924 C   0  0  0  0  0  0  0  0  0  0  0  0
  150.3274  139.9484  154.6475 O   0  0  0  0  0  0  0  0  0  0  0  0
  152.0143  143.2057  159.5754 N   0  0  0  0  0  0  0  0  0  0  0  0
  152.0403  144.3890  160.2854 C   0  0  0  0  0  0  0  0  0  0  0  0
  151.4646  145.3499  159.5049 C   0  0  0  0  0  0  0  0  0  0  0  0
  151.1014  144.6500  158.3212 C   0  0  0  0  0  0  0  0  0  0  0  0
  151.4243  143.3680  158.3680 N   0  0  0  0  0  0  0  0  0  0  0  0
  154.1757  140.9938  161.0615 H   0  0  0  0  0  0  0  0  0  0  0  0
  153.8469  142.6549  161.5305 H   0  0  0  0  0  0  0  0  0  0  0  0
  154.6423  142.3166  159.9978 H   0  0  0  0  0  0  0  0  0  0  0  0
  151.7802  141.5289  160.7533 H   0  0  0  0  0  0  0  0  0  0  0  0
  150.5706  141.5059  158.3779 H   0  0  0  0  0  0  0  0  0  0  0  0
  152.0024  139.5881  156.6469 H   0  0  0  0  0  0  0  0  0  0  0  0
  150.4245  139.1546  157.2482 H   0  0  0  0  0  0  0  0  0  0  0  0
  151.0393  141.6335  155.5383 H   0  0  0  0  0  0  0  0  0  0  0  0
  148.4139  140.5293  156.6145 H   0  0  0  0  0  0  0  0  0  0  0  0
  148.9426  142.2165  156.5875 H   0  0  0  0  0  0  0  0  0  0  0  0
  147.3554  141.3586  154.5942 H   0  0  0  0  0  0  0  0  0  0  0  0
  148.8068  142.2719  154.1595 H   0  0  0  0  0  0  0  0  0  0  0  0
  148.4585  139.2529  154.1708 H   0  0  0  0  0  0  0  0  0  0  0  0
  149.1996  140.2490  152.9154 H   0  0  0  0  0  0  0  0  0  0  0  0
  152.4618  144.4480  161.2780 H   0  0  0  0  0  0  0  0  0  0  0  0
  151.3211  146.3928  159.7446 H   0  0  0  0  0  0  0  0  0  0  0  0
  150.6124  145.0319  157.4373 H   0  0  0  0  0  0  0  0  0  0  0  0
  1  2  1  0  0  0  0
  1 17  1  0  0  0  0
  1 18  1  0  0  0  0
  1 19  1  0  0  0  0
  2  3  1  0  0  0  0
  2 12  1  0  0  0  0
  2 20  1  0  0  0  0
  3  4  2  0  0  0  0
  3  5  1  0  0  0  0
  5  6  1  0  0  0  0
  5 21  1  0  0  0  0
  6  7  1  0  0  0  0
  6 22  1  0  0  0  0
  6 23  1  0  0  0  0
  7 11  1  0  0  0  0
  7  8  1  0  0  0  0
  7 24  1  0  0  0  0
  8  9  1  0  0  0  0
  8 25  1  0  0  0  0
  8 26  1  0  0  0  0
  9 10  1  0  0  0  0
  9 27  1  0  0  0  0
  9 28  1  0  0  0  0
 10 11  1  0  0  0  0
 10 29  1  0  0  0  0
 10 30  1  0  0  0  0
 12 16  1  0  0  0  0
 12 13  1  0  0  0  0
 13 14  2  0  0  0  0
 13 31  1  0  0  0  0
 14 15  1  0  0  0  0
 14 32  1  0  0  0  0
 15 16  2  0  0  0  0
 15 33  1  0  0  0  0
M  END
> <s_m_source_file>
AV-unprocessed.smi

> <i_m_source_file_index>
3168

> <i_lp_mmshare_version>
43012

> <i_f3d_flags>
0

> <s_epik_input>
bjFbY0hdW2NIXVtjSF1uMVtDQEhdKFtDSDNdKUMoPU8pW05IXVtDSDJdW0NAQEhdMltDSDJdW0NIMl1bQ0gyXU8y

> <s_epik_cmdline>
J2VwaWtfcHl0aG9uJywgJy1waCcsICc3LjAnLCAnLXRuJywgJzgnLCAnLW1hJywgJzIwMCcsICctbWV0YWxfYmluZGluZycsICctaW1hZScsICc8aW5maWxlLm1hZT4nLCAnLW9tYWUnLCAnPG91dGZpbGUubWFlPic=

> <r_lp_tautomer_probability>
1

> <r_epik_Ionization_Penalty>
4.14877e-05

> <r_epik_Ionization_Penalty_Charging>
0

> <r_epik_Ionization_Penalty_Neutral>
4.14877e-05

> <r_epik_State_Penalty>
-0

> <r_epik_Charging_Adjusted_Penalty>
0

> <i_epik_Tot_Q>
0

> <i_epik_Tot_abs_Q>
0

> <r_epik_Metal_State_Penalty>
-0

> <b_epik_Metal_Only>
0

> <s_lp_Force_Field>
OPLS_2005

> <r_lp_Energy>
21.6016

> <b_lp_Chiralities_Consistent>
1

> <s_lp_Variant>
AV-unprocessed.smi:3168-1

> <Gold.Version>
5.8.1

> <Gold.Id.Protein>
6NUR|6NUR_protein|mol2

> <Gold.PLP.Fitness>
45.1641

> <Gold.PLP.PLP>
-37.5239

> <Gold.PLP.part.hbond>
-2.0000

> <Gold.PLP.part.metal>
0.0000

> <Gold.PLP.part.buried>
-1.9692

> <Gold.PLP.part.nonpolar>
-33.8951

> <Gold.PLP.part.repulsive>
0.2507

> <Gold.PLP.ligand.clash>
0.0000

> <Gold.PLP.ligand.torsion>
0.5990

> <Gold.PLP.Chemscore.Hbond>
1.9920

> <Gold.PLP.Chemscore.CHOScore>
0.9187

> <Gold.PLP.Chemscore.Metal>
0.0000

> <Gold.Chemscore.Hbonds>
donor molecule, donor type, donor heavy atom, donor atom, acceptor molecule, acceptor atom, score
      P1  H  7989  7998       L1    11  0.95
      P1  H  7997  8009       L1     4  0.98
      L1  C    15    33       P1  8028  0.95
      L1  C    15    33       P1  8029  0.01

> <Gold.PLP.Chemscore.Internal.Correction>
0.1061

> <Gold.Rescore>
     Score         DG    S(hbond)    S(metal)    S(lipo)     H(rot)  DE(clash)    DE(int)     intcor
     14.59     -17.06       1.66        0.00      86.67       1.61       0.36       2.11       ----

> <Gold.Chemscore.Fitness>
14.5876

> <Gold.Chemscore.DG>
-17.0611

> <Gold.Chemscore.ZeroCoef>
-5.4800

> <Gold.Chemscore.Hbond>
1.6648

> <Gold.Chemscore.Metal>
0.0000

> <Gold.Chemscore.Lipo>
86.6734

> <Gold.Chemscore.Internal_Hbond>
0.0000

> <Gold.Chemscore.DEClash>
0.3597

> <Gold.Chemscore.DEInternal>
2.1139

> <Gold.Chemscore.Rot>
1.6094

> <Gold.Chemscore.Internal.Correction>
   9.000000E+99

> <Gold.Chemscore.Hbonds>
donor molecule, donor type, donor heavy atom, donor atom, acceptor molecule, acceptor atom, score
      P1  H  7989  7998       L1    11  0.09
      P1  H  7997  8009       L1     4  0.92

> <Gold.Chemscore.Hbond.Weighted>
-5.5604

> <Gold.Chemscore.Metal.Weighted>
-0.0000

> <Gold.Chemscore.Lipo.Weighted>
-10.1408

> <Gold.Chemscore.Internal_Hbond.Weighted>
0.0000

> <Gold.Chemscore.DEClash.Weighted>
0.3597

> <Gold.Chemscore.DEInternal.Weighted>
2.1139

> <Gold.Chemscore.Rot.Weighted>
4.1201

> <Gold.Chemscore.Internal.Correction.Weighted>
   9.000000E+99

> <Gold.Protein.RotatedTorsions>
[ 6907 6896 6895 6894 ] final   53.91 input  -60.11 | X-H torsion
[ 7974 7965 7964 7962 ] final   45.50 input  175.53 | X-H torsion
[ 8008 7997 7996 7995 ] final  149.54 input   59.86 | X-H torsion
[ 10167 10162 10161 10158 ] final  -96.12 input  -65.29 | X-H torsion
[ 10718 10713 10712 10709 ] final  -96.95 input   66.30 | X-H torsion
[ 10763 10752 10751 10750 ] final   10.37 input  -60.55 | X-H torsion
[ 11005 11000 10999 10996 ] final  170.84 input  -57.11 | X-H torsion

> <Gold.Protein.ActiveResidues>
 VAL166  LYS551  ARG553  GLY616  TRP617  ASP618  TYR619  PRO620  LYS621  CYS622 
 ASP623  PHE694  ASN695  SER759  ASP760  ASP761  ALA762  ILE779  LEU786  VAL792 
 PHE793  MET794  SER795  GLU796  ALA797  LYS798  CYS799  TRP800  GLU811  SER814 

> <Gold.Protein.RotatedAtoms>
  152.3385  134.7166  160.0270 H   0  0  0  0  0  0  0  0  0  0  0  0  # atno 6907 bound_to 6896
  151.7559  133.3325  159.3412 H   0  0  0  0  0  0  0  0  0  0  0  0  # atno 6908 bound_to 6896
  150.7465  134.6082  159.6117 H   0  0  0  0  0  0  0  0  0  0  0  0  # atno 6909 bound_to 6896
  146.0474  139.4957  142.9740 H   0  0  0  0  0  0  0  0  0  0  0  0  # atno 7974 bound_to 7965
  156.2751  140.2099  156.5874 H   0  0  0  0  0  0  0  0  0  0  0  0  # atno 8008 bound_to 7997
  154.7010  140.0521  157.0481 H   0  0  0  0  0  0  0  0  0  0  0  0  # atno 8009 bound_to 7997
  155.0735  140.3179  155.4626 H   0  0  0  0  0  0  0  0  0  0  0  0  # atno 8010 bound_to 7997
  140.2971  143.3185  152.0287 H   0  0  0  0  0  0  0  0  0  0  0  0  # atno 10167 bound_to 10162
  156.0073  130.5173  150.6301 H   0  0  0  0  0  0  0  0  0  0  0  0  # atno 10718 bound_to 10713
  153.2039  135.6860  153.8196 H   0  0  0  0  0  0  0  0  0  0  0  0  # atno 10763 bound_to 10752
  153.7453  135.3232  155.3312 H   0  0  0  0  0  0  0  0  0  0  0  0  # atno 10764 bound_to 10752
  154.8186  135.4668  154.0818 H   0  0  0  0  0  0  0  0  0  0  0  0  # atno 10765 bound_to 10752
  140.3126  134.7504  157.4003 H   0  0  0  0  0  0  0  0  0  0  0  0  # atno 11005 bound_to 11000
  145.6783  141.0198  143.1620 LP  0  0  0  0  0  0  0  0  0  0  0  0  # atno 17320 bound_to 7965
  144.7105  139.8391  143.7416 LP  0  0  0  0  0  0  0  0  0  0  0  0  # atno 17321 bound_to 7965
  139.4924  144.6483  151.6731 LP  0  0  0  0  0  0  0  0  0  0  0  0  # atno 17342 bound_to 10162
  140.5683  144.0152  150.6203 LP  0  0  0  0  0  0  0  0  0  0  0  0  # atno 17343 bound_to 10162
  157.4101  131.0822  151.1229 LP  0  0  0  0  0  0  0  0  0  0  0  0  # atno 17370 bound_to 10713
  157.1863  130.6332  149.5689 LP  0  0  0  0  0  0  0  0  0  0  0  0  # atno 17371 bound_to 10713
  140.1011  134.5471  155.8352 LP  0  0  0  0  0  0  0  0  0  0  0  0  # atno 17394 bound_to 11000
  141.2104  133.6695  156.6511 LP  0  0  0  0  0  0  0  0  0  0  0  0  # atno 17395 bound_to 11000

$$$$
