AV-unprocessed.smi:529|AV-procd|sdf|2840|dock10
  -GOLD-   2262023333D 1   1.00000     0.00000
 Structure written by MMmdl.
 30 31  0  0  0  0  0  0  0  0  1 V2000
  149.4544  138.4713  153.7235 N   0  0  0  0  0  0  0  0  0  0  0  0
  148.8345  139.5865  153.8895 C   0  0  0  0  0  0  0  0  0  0  0  0
  147.2110  140.0442  153.1871 S   0  0  0  0  0  0  0  0  0  0  0  0
  147.3118  141.5974  153.9886 C   0  0  0  0  0  0  0  0  0  0  0  0
  148.4388  141.7306  154.6860 C   0  0  0  0  0  0  0  0  0  0  0  0
  149.3053  140.6570  154.6536 N   0  0  0  0  0  0  0  0  0  0  0  0
  150.5635  140.6429  155.4010 C   0  0  0  0  0  0  0  0  0  0  0  0
  150.4042  141.0389  156.8754 C   0  0  0  0  0  0  0  0  0  0  0  0
  149.7217  140.3633  157.6469 O   0  0  0  0  0  0  0  0  0  0  0  0
  151.0411  142.1585  157.2501 N   0  0  0  0  0  0  0  0  0  0  0  0
  151.0256  142.7201  158.5982 C   0  0  0  0  0  0  0  0  0  0  0  0
  150.4473  144.1509  158.6167 C   0  0  0  0  0  0  0  0  0  0  0  0
  151.4467  145.0029  159.4010 C   0  0  0  0  0  0  0  0  0  0  0  0
  152.7908  144.3230  159.1613 C   0  0  0  0  0  0  0  0  0  0  0  0
  152.4567  142.8311  159.1554 C   0  0  0  0  0  0  0  0  0  0  0  0
  148.9161  137.8553  153.1321 H   0  0  0  0  0  0  0  0  0  0  0  0
  146.5211  142.3271  153.8973 H   0  0  0  0  0  0  0  0  0  0  0  0
  148.7333  142.5910  155.2692 H   0  0  0  0  0  0  0  0  0  0  0  0
  151.0280  139.6576  155.3378 H   0  0  0  0  0  0  0  0  0  0  0  0
  151.2658  141.3347  154.9339 H   0  0  0  0  0  0  0  0  0  0  0  0
  151.5759  142.6577  156.5542 H   0  0  0  0  0  0  0  0  0  0  0  0
  150.4434  142.0687  159.2526 H   0  0  0  0  0  0  0  0  0  0  0  0
  150.3643  144.5466  157.6031 H   0  0  0  0  0  0  0  0  0  0  0  0
  149.4500  144.1846  159.0562 H   0  0  0  0  0  0  0  0  0  0  0  0
  151.4417  146.0482  159.0908 H   0  0  0  0  0  0  0  0  0  0  0  0
  151.2041  144.9692  160.4640 H   0  0  0  0  0  0  0  0  0  0  0  0
  153.1824  144.6170  158.1866 H   0  0  0  0  0  0  0  0  0  0  0  0
  153.5353  144.5841  159.9136 H   0  0  0  0  0  0  0  0  0  0  0  0
  152.4716  142.4589  160.1806 H   0  0  0  0  0  0  0  0  0  0  0  0
  153.1884  142.2483  158.5942 H   0  0  0  0  0  0  0  0  0  0  0  0
  1  2  2  0  0  0  0
  1 16  1  0  0  0  0
  2  6  1  0  0  0  0
  2  3  1  0  0  0  0
  3  4  1  0  0  0  0
  4  5  2  0  0  0  0
  4 17  1  0  0  0  0
  5  6  1  0  0  0  0
  5 18  1  0  0  0  0
  6  7  1  0  0  0  0
  7  8  1  0  0  0  0
  7 19  1  0  0  0  0
  7 20  1  0  0  0  0
  8  9  2  0  0  0  0
  8 10  1  0  0  0  0
 10 11  1  0  0  0  0
 10 21  1  0  0  0  0
 11 15  1  0  0  0  0
 11 12  1  0  0  0  0
 11 22  1  0  0  0  0
 12 13  1  0  0  0  0
 12 23  1  0  0  0  0
 12 24  1  0  0  0  0
 13 14  1  0  0  0  0
 13 25  1  0  0  0  0
 13 26  1  0  0  0  0
 14 15  1  0  0  0  0
 14 27  1  0  0  0  0
 14 28  1  0  0  0  0
 15 29  1  0  0  0  0
 15 30  1  0  0  0  0
M  END
> <s_m_source_file>
AV-unprocessed.smi

> <i_m_source_file_index>
529

> <i_lp_mmshare_version>
43012

> <i_f3d_flags>
0

> <s_epik_input>
W0hdL049YzFcc1tjSF1bY0hdbjFbQ0gyXUMoPU8pW05IXVtDSF0yW0NIMl1bQ0gyXVtDSDJdW0NIMl0y

> <s_epik_cmdline>
J2VwaWtfcHl0aG9uJywgJy1waCcsICc3LjAnLCAnLXRuJywgJzgnLCAnLW1hJywgJzIwMCcsICctbWV0YWxfYmluZGluZycsICctaW1hZScsICc8aW5maWxlLm1hZT4nLCAnLW9tYWUnLCAnPG91dGZpbGUubWFlPic=

> <r_epik_Ionization_Penalty>
2.18041

> <r_epik_Ionization_Penalty_Charging>
2.18041

> <r_epik_Ionization_Penalty_Neutral>
1.25369e-07

> <r_epik_State_Penalty>
2.33404

> <r_epik_Charging_Adjusted_Penalty>
4.51444

> <i_epik_Tot_Q>
0

> <i_epik_Tot_abs_Q>
0

> <r_epik_Metal_State_Penalty>
2.33404

> <b_epik_Metal_Only>
0

> <s_lp_Force_Field>
OPLS_2005

> <r_lp_Energy>
15.3577

> <b_lp_Chiralities_Consistent>
1

> <s_lp_Variant>
AV-unprocessed.smi:529-2

> <Gold.Version>
5.8.1

> <Gold.Id.Protein>
6NUR|6NUR_protein|mol2

> <Gold.PLP.Fitness>
39.3451

> <Gold.PLP.PLP>
-33.6375

> <Gold.PLP.part.hbond>
-2.0000

> <Gold.PLP.part.metal>
0.0000

> <Gold.PLP.part.buried>
-0.0376

> <Gold.PLP.part.nonpolar>
-31.5550

> <Gold.PLP.part.repulsive>
0.0439

> <Gold.PLP.ligand.clash>
0.0000

> <Gold.PLP.ligand.torsion>
0.0895

> <Gold.PLP.Chemscore.Hbond>
0.9600

> <Gold.PLP.Chemscore.CHOScore>
1.0000

> <Gold.PLP.Chemscore.Metal>
0.0000

> <Gold.Chemscore.Hbonds>
donor molecule, donor type, donor heavy atom, donor atom, acceptor molecule, acceptor atom, score
      L1  H     1    16       P1  7948  0.89
      L1  C     5    18       P1  8028  1.00

> <Gold.PLP.Chemscore.Internal.Correction>
0.0066

> <Gold.Rescore>
     Score         DG    S(hbond)    S(metal)    S(lipo)     H(rot)  DE(clash)    DE(int)     intcor
     13.79     -13.84       0.91        0.00      79.71       1.56       0.00       0.05       ----

> <Gold.Chemscore.Fitness>
13.7879

> <Gold.Chemscore.DG>
-13.8427

> <Gold.Chemscore.ZeroCoef>
-5.4800

> <Gold.Chemscore.Hbond>
0.9100

> <Gold.Chemscore.Metal>
0.0000

> <Gold.Chemscore.Lipo>
79.7080

> <Gold.Chemscore.Internal_Hbond>
0.0000

> <Gold.Chemscore.DEClash>
0.0029

> <Gold.Chemscore.DEInternal>
0.0519

> <Gold.Chemscore.Rot>
1.5635

> <Gold.Chemscore.Internal.Correction>
   9.000000E+99

> <Gold.Chemscore.Hbonds>
donor molecule, donor type, donor heavy atom, donor atom, acceptor molecule, acceptor atom, score
      L1  H     1    16       P1  7948  0.81

> <Gold.Chemscore.Hbond.Weighted>
-3.0394

> <Gold.Chemscore.Metal.Weighted>
-0.0000

> <Gold.Chemscore.Lipo.Weighted>
-9.3258

> <Gold.Chemscore.Internal_Hbond.Weighted>
0.0000

> <Gold.Chemscore.DEClash.Weighted>
0.0029

> <Gold.Chemscore.DEInternal.Weighted>
0.0519

> <Gold.Chemscore.Rot.Weighted>
4.0025

> <Gold.Chemscore.Internal.Correction.Weighted>
   9.000000E+99

> <Gold.Protein.RotatedTorsions>
[ 6907 6896 6895 6894 ] final   63.66 input  -60.11 | X-H torsion
[ 7974 7965 7964 7962 ] final  -63.68 input  175.53 | X-H torsion
[ 8008 7997 7996 7995 ] final  152.67 input   59.86 | X-H torsion
[ 10167 10162 10161 10158 ] final  140.45 input  -65.29 | X-H torsion
[ 10718 10713 10712 10709 ] final  -80.46 input   66.30 | X-H torsion
[ 10763 10752 10751 10750 ] final  -42.27 input  -60.55 | X-H torsion
[ 11005 11000 10999 10996 ] final -177.92 input  -57.11 | X-H torsion

> <Gold.Protein.ActiveResidues>
 VAL166  LYS551  ARG553  GLY616  TRP617  ASP618  TYR619  PRO620  LYS621  CYS622 
 ASP623  PHE694  ASN695  SER759  ASP760  ASP761  ALA762  ILE779  LEU786  VAL792 
 PHE793  MET794  SER795  GLU796  ALA797  LYS798  CYS799  TRP800  GLU811  SER814 

> <Gold.Protein.RotatedAtoms>
  152.4270  134.5849  159.9957 H   0  0  0  0  0  0  0  0  0  0  0  0  # atno 6907 bound_to 6896
  151.5983  133.3353  159.3050 H   0  0  0  0  0  0  0  0  0  0  0  0  # atno 6908 bound_to 6896
  150.8160  134.7379  159.6796 H   0  0  0  0  0  0  0  0  0  0  0  0  # atno 6909 bound_to 6896
  145.7761  140.8787  143.0355 H   0  0  0  0  0  0  0  0  0  0  0  0  # atno 7974 bound_to 7965
  156.2618  140.2014  156.6370 H   0  0  0  0  0  0  0  0  0  0  0  0  # atno 8008 bound_to 7997
  154.6639  140.0557  157.0117 H   0  0  0  0  0  0  0  0  0  0  0  0  # atno 8009 bound_to 7997
  155.1236  140.3227  155.4494 H   0  0  0  0  0  0  0  0  0  0  0  0  # atno 8010 bound_to 7997
  139.5048  144.6233  151.5998 H   0  0  0  0  0  0  0  0  0  0  0  0  # atno 10167 bound_to 10162
  156.0070  130.4575  150.3804 H   0  0  0  0  0  0  0  0  0  0  0  0  # atno 10718 bound_to 10713
  153.9763  135.6722  153.4748 H   0  0  0  0  0  0  0  0  0  0  0  0  # atno 10763 bound_to 10752
  153.0769  135.4944  154.8419 H   0  0  0  0  0  0  0  0  0  0  0  0  # atno 10764 bound_to 10752
  154.7190  135.3113  154.9039 H   0  0  0  0  0  0  0  0  0  0  0  0  # atno 10765 bound_to 10752
  140.4356  134.6479  157.4733 H   0  0  0  0  0  0  0  0  0  0  0  0  # atno 11005 bound_to 11000
  144.6804  139.9923  143.7484 LP  0  0  0  0  0  0  0  0  0  0  0  0  # atno 17320 bound_to 7965
  146.0121  139.3179  143.0864 LP  0  0  0  0  0  0  0  0  0  0  0  0  # atno 17321 bound_to 7965
  140.5942  143.9725  150.6344 LP  0  0  0  0  0  0  0  0  0  0  0  0  # atno 17342 bound_to 10162
  140.2916  143.3320  152.1057 LP  0  0  0  0  0  0  0  0  0  0  0  0  # atno 17343 bound_to 10162
  157.1884  131.0409  151.2713 LP  0  0  0  0  0  0  0  0  0  0  0  0  # atno 17370 bound_to 10713
  157.4083  130.7371  149.6820 LP  0  0  0  0  0  0  0  0  0  0  0  0  # atno 17371 bound_to 10713
  140.0105  134.6698  155.9389 LP  0  0  0  0  0  0  0  0  0  0  0  0  # atno 17394 bound_to 11000
  141.1727  133.6538  156.4713 LP  0  0  0  0  0  0  0  0  0  0  0  0  # atno 17395 bound_to 11000

$$$$
