AV-unprocessed.smi:3133|AV-procd|sdf|11938|dock10
  -GOLD-   2272017323D 1   1.00000     0.00000
 Structure written by MMmdl.
 32 33  0  0  0  0  0  0  0  0  1 V2000
  151.4910  138.1518  154.9360 C   0  0  0  0  0  0  0  0  0  0  0  0
  150.7786  139.0490  155.9689 C   0  0  1  0  0  0  0  0  0  0  0  0
  151.7485  139.6390  157.0022 C   0  0  0  0  0  0  0  0  0  0  0  0
  152.9651  139.5900  156.8184 O   0  0  0  0  0  0  0  0  0  0  0  0
  151.1879  140.2218  158.0737 N   0  0  0  0  0  0  0  0  0  0  0  0
  151.9056  140.9447  159.1173 C   0  0  0  0  0  0  0  0  0  0  0  0
  152.3814  142.3178  158.6144 C   0  0  2  0  0  0  0  0  0  0  0  0
  152.6578  143.3509  159.7066 C   0  0  0  0  0  0  0  0  0  0  0  0
  152.4866  144.6785  158.9864 C   0  0  0  0  0  0  0  0  0  0  0  0
  151.7285  144.3152  157.7052 C   0  0  0  0  0  0  0  0  0  0  0  0
  151.3656  142.9490  157.8531 O   0  0  0  0  0  0  0  0  0  0  0  0
  150.0127  140.1236  155.3478 N   0  0  0  0  0  0  0  0  0  0  0  0
  149.6945  140.3158  154.0656 C   0  0  0  0  0  0  0  0  0  0  0  0
  148.9254  141.3742  153.8530 N   0  0  0  0  0  0  0  0  0  0  0  0
  148.7842  141.8147  155.1383 C   0  0  0  0  0  0  0  0  0  0  0  0
  149.4033  141.0947  156.0735 N   0  0  0  0  0  0  0  0  0  0  0  0
  152.0163  137.3317  155.4266 H   0  0  0  0  0  0  0  0  0  0  0  0
  152.2232  138.7036  154.3449 H   0  0  0  0  0  0  0  0  0  0  0  0
  150.7729  137.7108  154.2442 H   0  0  0  0  0  0  0  0  0  0  0  0
  150.0657  138.4189  156.5034 H   0  0  0  0  0  0  0  0  0  0  0  0
  150.1810  140.2067  158.1463 H   0  0  0  0  0  0  0  0  0  0  0  0
  151.2258  141.0809  159.9587 H   0  0  0  0  0  0  0  0  0  0  0  0
  152.7472  140.3624  159.4968 H   0  0  0  0  0  0  0  0  0  0  0  0
  153.2647  142.1999  157.9835 H   0  0  0  0  0  0  0  0  0  0  0  0
  151.9132  143.2685  160.4994 H   0  0  0  0  0  0  0  0  0  0  0  0
  153.6436  143.2359  160.1587 H   0  0  0  0  0  0  0  0  0  0  0  0
  151.9312  145.3878  159.6008 H   0  0  0  0  0  0  0  0  0  0  0  0
  153.4514  145.1259  158.7452 H   0  0  0  0  0  0  0  0  0  0  0  0
  150.8467  144.9372  157.5502 H   0  0  0  0  0  0  0  0  0  0  0  0
  152.3769  144.4213  156.8343 H   0  0  0  0  0  0  0  0  0  0  0  0
  150.0266  139.6629  153.2720 H   0  0  0  0  0  0  0  0  0  0  0  0
  148.2013  142.6875  155.3935 H   0  0  0  0  0  0  0  0  0  0  0  0
  1  2  1  0  0  0  0
  1 17  1  0  0  0  0
  1 18  1  0  0  0  0
  1 19  1  0  0  0  0
  2  3  1  0  0  0  0
  2 12  1  0  0  0  0
  2 20  1  0  0  0  0
  3  4  2  0  0  0  0
  3  5  1  0  0  0  0
  5  6  1  0  0  0  0
  5 21  1  0  0  0  0
  6  7  1  0  0  0  0
  6 22  1  0  0  0  0
  6 23  1  0  0  0  0
  7 11  1  0  0  0  0
  7  8  1  0  0  0  0
  7 24  1  0  0  0  0
  8  9  1  0  0  0  0
  8 25  1  0  0  0  0
  8 26  1  0  0  0  0
  9 10  1  0  0  0  0
  9 27  1  0  0  0  0
  9 28  1  0  0  0  0
 10 11  1  0  0  0  0
 10 29  1  0  0  0  0
 10 30  1  0  0  0  0
 12 16  1  0  0  0  0
 12 13  1  0  0  0  0
 13 14  2  0  0  0  0
 13 31  1  0  0  0  0
 14 15  1  0  0  0  0
 15 16  2  0  0  0  0
 15 32  1  0  0  0  0
M  END
> <s_m_source_file>
AV-unprocessed.smi

> <i_m_source_file_index>
3133

> <i_lp_mmshare_version>
43012

> <i_f3d_flags>
0

> <s_epik_input>
bjFbY0hdbltjSF1uMVtDQEhdKFtDSDNdKUMoPU8pW05IXVtDSDJdW0NAQEhdMltDSDJdW0NIMl1bQ0gyXU8y

> <s_epik_cmdline>
J2VwaWtfcHl0aG9uJywgJy1waCcsICc3LjAnLCAnLXRuJywgJzgnLCAnLW1hJywgJzIwMCcsICctbWV0YWxfYmluZGluZycsICctaW1hZScsICc8aW5maWxlLm1hZT4nLCAnLW9tYWUnLCAnPG91dGZpbGUubWFlPic=

> <r_lp_tautomer_probability>
1

> <r_epik_Ionization_Penalty>
1.2027e-05

> <r_epik_Ionization_Penalty_Charging>
0

> <r_epik_Ionization_Penalty_Neutral>
1.2027e-05

> <r_epik_State_Penalty>
-0

> <r_epik_Charging_Adjusted_Penalty>
0

> <i_epik_Tot_Q>
0

> <i_epik_Tot_abs_Q>
0

> <r_epik_Metal_State_Penalty>
-0

> <b_epik_Metal_Only>
0

> <s_lp_Force_Field>
OPLS_2005

> <r_lp_Energy>
22.7356

> <b_lp_Chiralities_Consistent>
1

> <s_lp_Variant>
AV-unprocessed.smi:3133-2

> <Gold.Version>
5.8.1

> <Gold.Id.Protein>
6NUR|6NUR_protein|mol2

> <Gold.PLP.Fitness>
38.7729

> <Gold.PLP.PLP>
-29.0817

> <Gold.PLP.part.hbond>
-2.2394

> <Gold.PLP.part.metal>
0.0000

> <Gold.PLP.part.buried>
2.0093

> <Gold.PLP.part.nonpolar>
-28.7168

> <Gold.PLP.part.repulsive>
0.8819

> <Gold.PLP.ligand.clash>
0.0000

> <Gold.PLP.ligand.torsion>
0.6941

> <Gold.PLP.Chemscore.Hbond>
1.7840

> <Gold.PLP.Chemscore.CHOScore>
1.8702

> <Gold.PLP.Chemscore.Metal>
0.0000

> <Gold.Chemscore.Hbonds>
donor molecule, donor type, donor heavy atom, donor atom, acceptor molecule, acceptor atom, score
      P1  H  7997  8009       L1     4  1.00
      P1  H  8011  8017       L1    14  0.78
      L1  C    13    31       P1  7957  0.87
      L1  C    15    32       P1  8028  0.98

> <Gold.PLP.Chemscore.Internal.Correction>
0.1166

> <Gold.Rescore>
     Score         DG    S(hbond)    S(metal)    S(lipo)     H(rot)  DE(clash)    DE(int)     intcor
     11.05     -13.18       1.59        0.00      69.84       2.26       0.41       1.73       ----

> <Gold.Chemscore.Fitness>
11.0471

> <Gold.Chemscore.DG>
-13.1778

> <Gold.Chemscore.ZeroCoef>
-5.4800

> <Gold.Chemscore.Hbond>
1.5870

> <Gold.Chemscore.Metal>
0.0000

> <Gold.Chemscore.Lipo>
69.8445

> <Gold.Chemscore.Internal_Hbond>
0.0000

> <Gold.Chemscore.DEClash>
0.4057

> <Gold.Chemscore.DEInternal>
1.7250

> <Gold.Chemscore.Rot>
2.2558

> <Gold.Chemscore.Internal.Correction>
   9.000000E+99

> <Gold.Chemscore.Hbonds>
donor molecule, donor type, donor heavy atom, donor atom, acceptor molecule, acceptor atom, score
      P1  H  7997  8009       L1     4  0.93
      P1  H  8011  8017       L1    14  0.43

> <Gold.Chemscore.Hbond.Weighted>
-5.3007

> <Gold.Chemscore.Metal.Weighted>
-0.0000

> <Gold.Chemscore.Lipo.Weighted>
-8.1718

> <Gold.Chemscore.Internal_Hbond.Weighted>
0.0000

> <Gold.Chemscore.DEClash.Weighted>
0.4057

> <Gold.Chemscore.DEInternal.Weighted>
1.7250

> <Gold.Chemscore.Rot.Weighted>
5.7747

> <Gold.Chemscore.Internal.Correction.Weighted>
   9.000000E+99

> <Gold.Protein.RotatedTorsions>
[ 6907 6896 6895 6894 ] final  -94.53 input  -60.11 | X-H torsion
[ 7974 7965 7964 7962 ] final   16.10 input  175.53 | X-H torsion
[ 8008 7997 7996 7995 ] final  169.28 input   59.86 | X-H torsion
[ 10167 10162 10161 10158 ] final  -54.00 input  -65.29 | X-H torsion
[ 10718 10713 10712 10709 ] final   -9.02 input   66.30 | X-H torsion
[ 10763 10752 10751 10750 ] final   41.44 input  -60.55 | X-H torsion
[ 11005 11000 10999 10996 ] final -159.79 input  -57.11 | X-H torsion

> <Gold.Protein.ActiveResidues>
 VAL166  LYS551  ARG553  GLY616  TRP617  ASP618  TYR619  PRO620  LYS621  CYS622 
 ASP623  PHE694  ASN695  SER759  ASP760  ASP761  ALA762  ILE779  LEU786  VAL792 
 PHE793  MET794  SER795  GLU796  ALA797  LYS798  CYS799  TRP800  GLU811  SER814 

> <Gold.Protein.RotatedAtoms>
  150.6944  134.1799  159.4244 H   0  0  0  0  0  0  0  0  0  0  0  0  # atno 6907 bound_to 6896
  151.9773  135.0044  160.0565 H   0  0  0  0  0  0  0  0  0  0  0  0  # atno 6908 bound_to 6896
  152.1787  133.4657  159.4983 H   0  0  0  0  0  0  0  0  0  0  0  0  # atno 6909 bound_to 6896
  146.2259  139.8797  142.8573 H   0  0  0  0  0  0  0  0  0  0  0  0  # atno 7974 bound_to 7965
  156.1472  140.1568  156.8828 H   0  0  0  0  0  0  0  0  0  0  0  0  # atno 8008 bound_to 7997
  154.5038  140.0818  156.7891 H   0  0  0  0  0  0  0  0  0  0  0  0  # atno 8009 bound_to 7997
  155.3966  140.3412  155.4256 H   0  0  0  0  0  0  0  0  0  0  0  0  # atno 8010 bound_to 7997
  140.6454  143.2532  151.4873 H   0  0  0  0  0  0  0  0  0  0  0  0  # atno 10167 bound_to 10162
  156.6941  130.5073  149.5935 H   0  0  0  0  0  0  0  0  0  0  0  0  # atno 10718 bound_to 10713
  152.9908  135.6161  154.2788 H   0  0  0  0  0  0  0  0  0  0  0  0  # atno 10763 bound_to 10752
  154.2518  135.2785  155.2815 H   0  0  0  0  0  0  0  0  0  0  0  0  # atno 10764 bound_to 10752
  154.5281  135.5796  153.6793 H   0  0  0  0  0  0  0  0  0  0  0  0  # atno 10765 bound_to 10752
  140.6387  134.4574  157.5232 H   0  0  0  0  0  0  0  0  0  0  0  0  # atno 11005 bound_to 11000
  145.2525  141.0049  143.3873 LP  0  0  0  0  0  0  0  0  0  0  0  0  # atno 17320 bound_to 7965
  144.9363  139.4240  143.6470 LP  0  0  0  0  0  0  0  0  0  0  0  0  # atno 17321 bound_to 7965
  139.5665  144.2030  152.1772 LP  0  0  0  0  0  0  0  0  0  0  0  0  # atno 17342 bound_to 10162
  140.1314  144.5285  150.6800 LP  0  0  0  0  0  0  0  0  0  0  0  0  # atno 17343 bound_to 10162
  156.1776  130.6478  151.0913 LP  0  0  0  0  0  0  0  0  0  0  0  0  # atno 17370 bound_to 10713
  157.6998  131.0780  150.6856 LP  0  0  0  0  0  0  0  0  0  0  0  0  # atno 17371 bound_to 10713
  139.9088  134.8390  156.1604 LP  0  0  0  0  0  0  0  0  0  0  0  0  # atno 17394 bound_to 11000
  141.0622  133.6836  156.1975 LP  0  0  0  0  0  0  0  0  0  0  0  0  # atno 17395 bound_to 11000

$$$$
