AV-unprocessed.smi:107|AV-procd|sdf|1017|dock4
  -GOLD-   2262018 13D 1   1.00000     0.00000
 Structure written by MMmdl.
 31 32  0  0  0  0  0  0  0  0  1 V2000
  152.4873  138.5634  154.1858 C   0  0  0  0  0  0  0  0  0  0  0  0
  151.5929  139.4167  155.0695 C   0  0  0  0  0  0  0  0  0  0  0  0
  150.4649  140.0115  154.6044 C   0  0  0  0  0  0  0  0  0  0  0  0
  149.6283  140.7977  155.3836 N   0  0  0  0  0  0  0  0  0  0  0  0
  148.4032  141.4433  154.7764 C   0  0  2  0  0  0  0  0  0  0  0  0
  147.1151  140.8688  155.3770 C   0  0  0  0  0  0  0  0  0  0  0  0
  146.5431  140.0658  154.2224 C   0  0  1  0  0  0  0  0  0  0  0  0
  145.1305  140.0596  154.2596 O   0  0  0  0  0  0  0  0  0  0  0  0
  147.0916  140.8011  152.9964 C   0  0  2  0  0  0  0  0  0  0  0  0
  147.1700  139.9224  151.7387 C   0  0  0  0  0  0  0  0  0  0  0  0
  145.9696  139.1972  151.5790 O   0  0  0  0  0  0  0  0  0  0  0  0
  148.4026  141.1736  153.4079 O   0  0  0  0  0  0  0  0  0  0  0  0
  149.9532  141.0178  156.7394 C   0  0  0  0  0  0  0  0  0  0  0  0
  149.2657  141.7011  157.4973 O   0  0  0  0  0  0  0  0  0  0  0  0
  151.1115  140.4072  157.2178 N   0  0  0  0  0  0  0  0  0  0  0  0
  151.9761  139.6025  156.4716 C   0  0  0  0  0  0  0  0  0  0  0  0
  152.9691  139.1157  157.0096 O   0  0  0  0  0  0  0  0  0  0  0  0
  151.3460  140.5600  158.1878 H   0  0  0  0  0  0  0  0  0  0  0  0
  152.0993  138.4885  153.1697 H   0  0  0  0  0  0  0  0  0  0  0  0
  152.5683  137.5527  154.5873 H   0  0  0  0  0  0  0  0  0  0  0  0
  153.4886  138.9921  154.1310 H   0  0  0  0  0  0  0  0  0  0  0  0
  150.2066  139.8680  153.5659 H   0  0  0  0  0  0  0  0  0  0  0  0
  148.4791  142.5223  154.9139 H   0  0  0  0  0  0  0  0  0  0  0  0
  147.3032  140.2736  156.2716 H   0  0  0  0  0  0  0  0  0  0  0  0
  146.4640  141.7031  155.6430 H   0  0  0  0  0  0  0  0  0  0  0  0
  146.9162  139.0417  154.2570 H   0  0  0  0  0  0  0  0  0  0  0  0
  144.8047  140.1308  153.3753 H   0  0  0  0  0  0  0  0  0  0  0  0
  146.5048  141.7043  152.8160 H   0  0  0  0  0  0  0  0  0  0  0  0
  147.3764  140.5194  150.8498 H   0  0  0  0  0  0  0  0  0  0  0  0
  147.9781  139.1970  151.8370 H   0  0  0  0  0  0  0  0  0  0  0  0
  145.2445  139.7666  151.7869 H   0  0  0  0  0  0  0  0  0  0  0  0
  1  2  1  0  0  0  0
  1 19  1  0  0  0  0
  1 20  1  0  0  0  0
  1 21  1  0  0  0  0
  2 16  1  0  0  0  0
  2  3  2  0  0  0  0
  3  4  1  0  0  0  0
  3 22  1  0  0  0  0
  4  5  1  0  0  0  0
  4 13  1  0  0  0  0
  5 12  1  0  0  0  0
  5  6  1  0  0  0  0
  5 23  1  0  0  0  0
  6  7  1  0  0  0  0
  6 24  1  0  0  0  0
  6 25  1  0  0  0  0
  7  8  1  0  0  0  0
  7  9  1  0  0  0  0
  7 26  1  0  0  0  0
  8 27  1  0  0  0  0
  9 10  1  0  0  0  0
  9 12  1  0  0  0  0
  9 28  1  0  0  0  0
 10 11  1  0  0  0  0
 10 29  1  0  0  0  0
 10 30  1  0  0  0  0
 11 31  1  0  0  0  0
 13 14  2  0  0  0  0
 13 15  1  0  0  0  0
 15 18  1  0  0  0  0
 15 16  1  0  0  0  0
 16 17  2  0  0  0  0
M  END
> <s_m_source_file>
AV-unprocessed.smi

> <i_m_source_file_index>
107

> <i_lp_mmshare_version>
43012

> <i_f3d_flags>
0

> <s_epik_input>
Tz1jMVtuSF1jKD1PKW4oW2NIXWMxW0NIM10pW0NAQEhdMltDSDJdW0NAQEhdKFtPSF0pW0NASF0oTzIpW0NIMl1bT0hd

> <s_epik_cmdline>
J2VwaWtfcHl0aG9uJywgJy1waCcsICc3LjAnLCAnLXRuJywgJzgnLCAnLW1hJywgJzIwMCcsICctbWV0YWxfYmluZGluZycsICctaW1hZScsICc8aW5maWxlLm1hZT4nLCAnLW9tYWUnLCAnPG91dGZpbGUubWFlPic=

> <r_lp_tautomer_probability>
0.999537

> <r_epik_Ionization_Penalty>
0.00121888

> <r_epik_Ionization_Penalty_Charging>
0.00121876

> <r_epik_Ionization_Penalty_Neutral>
1.19946e-07

> <r_epik_State_Penalty>
0.000805124

> <r_epik_Charging_Adjusted_Penalty>
0.00202389

> <i_epik_Tot_Q>
0

> <i_epik_Tot_abs_Q>
0

> <r_epik_Metal_State_Penalty>
0.662472

> <b_epik_Metal_Only>
0

> <s_epik_Chemistry_Notes>
This compound contains an acetal/aminal-like group ( X-CH(R)-Y where X, Y are N, S, or O) that may be acid/base labile, releasing an aldehyde.

> <s_lp_Force_Field>
OPLS_2005

> <r_lp_Energy>
24.9707

> <b_lp_Chiralities_Consistent>
1

> <s_lp_Variant>
AV-unprocessed.smi:107-5

> <Gold.Version>
5.8.1

> <Gold.Id.Protein>
6NUR|6NUR_protein|mol2

> <Gold.PLP.Fitness>
39.6073

> <Gold.PLP.PLP>
-25.8795

> <Gold.PLP.part.hbond>
-4.8826

> <Gold.PLP.part.metal>
0.0000

> <Gold.PLP.part.buried>
1.9175

> <Gold.PLP.part.nonpolar>
-26.6861

> <Gold.PLP.part.repulsive>
3.5434

> <Gold.PLP.ligand.clash>
0.0000

> <Gold.PLP.ligand.torsion>
0.2082

> <Gold.PLP.Chemscore.Hbond>
3.7176

> <Gold.PLP.Chemscore.CHOScore>
0.9929

> <Gold.PLP.Chemscore.Metal>
0.0000

> <Gold.Chemscore.Hbonds>
donor molecule, donor type, donor heavy atom, donor atom, acceptor molecule, acceptor atom, score
      L1  H     8    27       P1 10175  0.83
      L1  H    11    31       P1 10175  1.00
      P1  H  7997  8008       L1    17  1.00
      P1  H  8011  8017       L1    12  0.61
      L1  C     3    22       P1  7957  1.00

> <Gold.PLP.Chemscore.Internal.Correction>
0.0127

> <Gold.Rescore>
     Score         DG    S(hbond)    S(metal)    S(lipo)     H(rot)  DE(clash)    DE(int)     intcor
     11.60     -13.95       2.95        0.00      47.89       2.73       2.13       0.23       ----

> <Gold.Chemscore.Fitness>
11.5965

> <Gold.Chemscore.DG>
-13.9480

> <Gold.Chemscore.ZeroCoef>
-5.4800

> <Gold.Chemscore.Hbond>
2.9466

> <Gold.Chemscore.Metal>
0.0000

> <Gold.Chemscore.Lipo>
47.8910

> <Gold.Chemscore.Internal_Hbond>
0.0000

> <Gold.Chemscore.DEClash>
2.1262

> <Gold.Chemscore.DEInternal>
0.2253

> <Gold.Chemscore.Rot>
2.7253

> <Gold.Chemscore.Internal.Correction>
   9.000000E+99

> <Gold.Chemscore.Hbonds>
donor molecule, donor type, donor heavy atom, donor atom, acceptor molecule, acceptor atom, score
      L1  H     8    27       P1 10175  0.79
      L1  H    11    31       P1 10175  0.65
      P1  H  7997  8008       L1    17  0.65
      P1  H  8011  8017       L1    12  0.52

> <Gold.Chemscore.Hbond.Weighted>
-9.8416

> <Gold.Chemscore.Metal.Weighted>
-0.0000

> <Gold.Chemscore.Lipo.Weighted>
-5.6032

> <Gold.Chemscore.Internal_Hbond.Weighted>
0.0000

> <Gold.Chemscore.DEClash.Weighted>
2.1262

> <Gold.Chemscore.DEInternal.Weighted>
0.2253

> <Gold.Chemscore.Rot.Weighted>
6.9769

> <Gold.Chemscore.Internal.Correction.Weighted>
   9.000000E+99

> <Gold.Protein.RotatedTorsions>
[ 6907 6896 6895 6894 ] final  124.04 input  -60.11 | X-H torsion
[ 7974 7965 7964 7962 ] final  165.45 input  175.53 | X-H torsion
[ 8008 7997 7996 7995 ] final  -53.70 input   59.86 | X-H torsion
[ 10167 10162 10161 10158 ] final  -22.02 input  -65.29 | X-H torsion
[ 10718 10713 10712 10709 ] final  117.87 input   66.30 | X-H torsion
[ 10763 10752 10751 10750 ] final -113.45 input  -60.55 | X-H torsion
[ 11005 11000 10999 10996 ] final  130.15 input  -57.11 | X-H torsion

> <Gold.Protein.ActiveResidues>
 VAL166  LYS551  ARG553  GLY616  TRP617  ASP618  TYR619  PRO620  LYS621  CYS622 
 ASP623  PHE694  ASN695  SER759  ASP760  ASP761  ALA762  ILE779  LEU786  VAL792 
 PHE793  MET794  SER795  GLU796  ALA797  LYS798  CYS799  TRP800  GLU811  SER814 

> <Gold.Protein.RotatedAtoms>
  152.4111  133.6965  159.6398 H   0  0  0  0  0  0  0  0  0  0  0  0  # atno 6907 bound_to 6896
  150.7991  133.8622  159.3244 H   0  0  0  0  0  0  0  0  0  0  0  0  # atno 6908 bound_to 6896
  151.6364  135.1019  160.0184 H   0  0  0  0  0  0  0  0  0  0  0  0  # atno 6909 bound_to 6896
  144.7502  139.8472  143.6368 H   0  0  0  0  0  0  0  0  0  0  0  0  # atno 7974 bound_to 7965
  154.4141  140.1194  156.5196 H   0  0  0  0  0  0  0  0  0  0  0  0  # atno 8008 bound_to 7997
  155.6716  140.3496  155.4801 H   0  0  0  0  0  0  0  0  0  0  0  0  # atno 8009 bound_to 7997
  155.9628  140.1126  157.0870 H   0  0  0  0  0  0  0  0  0  0  0  0  # atno 8010 bound_to 7997
  140.7284  143.4573  151.0430 H   0  0  0  0  0  0  0  0  0  0  0  0  # atno 10167 bound_to 10162
  157.6068  131.1042  150.7677 H   0  0  0  0  0  0  0  0  0  0  0  0  # atno 10718 bound_to 10713
  154.8396  135.4454  154.1351 H   0  0  0  0  0  0  0  0  0  0  0  0  # atno 10763 bound_to 10752
  153.2551  135.6930  153.7644 H   0  0  0  0  0  0  0  0  0  0  0  0  # atno 10764 bound_to 10752
  153.6941  135.3382  155.3185 H   0  0  0  0  0  0  0  0  0  0  0  0  # atno 10765 bound_to 10752
  139.9656  134.9591  156.9252 H   0  0  0  0  0  0  0  0  0  0  0  0  # atno 11005 bound_to 11000
  146.1441  139.4506  143.0090 LP  0  0  0  0  0  0  0  0  0  0  0  0  # atno 17320 bound_to 7965
  145.6972  141.0147  143.1524 LP  0  0  0  0  0  0  0  0  0  0  0  0  # atno 17321 bound_to 7965
  139.8255  143.7762  152.3178 LP  0  0  0  0  0  0  0  0  0  0  0  0  # atno 17342 bound_to 10162
  139.7860  144.7428  151.0022 LP  0  0  0  0  0  0  0  0  0  0  0  0  # atno 17343 bound_to 10162
  156.8063  130.4937  149.5362 LP  0  0  0  0  0  0  0  0  0  0  0  0  # atno 17370 bound_to 10713
  156.1156  130.6073  151.0116 LP  0  0  0  0  0  0  0  0  0  0  0  0  # atno 17371 bound_to 10713
  140.5404  134.0725  155.7340 LP  0  0  0  0  0  0  0  0  0  0  0  0  # atno 17394 bound_to 11000
  141.1335  133.9261  157.2484 LP  0  0  0  0  0  0  0  0  0  0  0  0  # atno 17395 bound_to 11000

$$$$
