AV-unprocessed.smi:1701|AV-procd|sdf|6841|dock2
  -GOLD-   22720 8 13D 1   1.00000     0.00000
 Structure written by MMmdl.
 54 56  0  0  0  0  0  0  0  0  4 V2000
  152.6019  142.8281  160.7528 C   0  0  0  0  0  0  0  0  0  0  0  0
  152.8624  142.8040  159.2411 C   0  0  0  0  0  0  0  0  0  0  0  0
  151.6596  143.1084  158.4707 N   0  0  0  0  0  0  0  0  0  0  0  0
  151.1831  144.4898  158.4163 C   0  0  0  0  0  0  0  0  0  0  0  0
  151.9795  145.4150  159.3459 C   0  0  0  0  0  0  0  0  0  0  0  0
  150.9913  142.0898  157.7519 C   0  0  0  0  0  0  0  0  0  0  0  0
  151.2425  140.7082  157.9428 C   0  0  0  0  0  0  0  0  0  0  0  0
  150.5354  139.7529  157.1846 C   0  0  0  0  0  0  0  0  0  0  0  0
  149.5886  140.1765  156.2305 C   0  0  0  0  0  0  0  0  0  0  0  0
  148.8848  139.1779  155.5054 N   0  0  0  0  0  0  0  0  0  0  0  0
  148.1455  139.2981  154.3755 C   0  0  0  0  0  0  0  0  0  0  0  0
  148.0880  140.3899  153.8131 O   0  0  0  0  0  0  0  0  0  0  0  0
  147.5016  138.2057  153.8641 N   0  5  0  0  0  0  0  0  0  0  0  0
  146.4625  137.3596  154.4812 C   0  0  2  0  0  0  0  0  0  0  0  0
  147.1327  136.2934  155.3694 C   0  0  0  0  0  0  0  0  0  0  0  0
  147.3574  135.0640  154.4631 C   0  0  0  0  0  0  0  0  0  0  0  0
  146.7617  135.4157  153.1582 N   0  3  1  0  0  0  0  0  0  0  0  0
  146.2151  134.3072  152.3442 C   0  0  0  0  0  0  0  0  0  0  0  0
  145.7021  134.8594  150.9987 C   0  0  0  0  0  0  0  0  0  0  0  0
  144.6987  136.0141  151.1965 C   0  0  0  0  0  0  0  0  0  0  0  0
  145.2899  137.1136  152.0997 C   0  0  0  0  0  0  0  0  0  0  0  0
  145.7788  136.4796  153.4214 C   0  0  2  0  0  0  0  0  0  0  0  0
  149.3590  141.5646  156.0864 C   0  0  0  0  0  0  0  0  0  0  0  0
  150.0576  142.4448  156.8352 N   0  3  0  0  0  0  0  0  0  0  0  0
  153.5166  142.6117  161.3050 H   0  0  0  0  0  0  0  0  0  0  0  0
  151.8575  142.0861  161.0417 H   0  0  0  0  0  0  0  0  0  0  0  0
  152.2434  143.8056  161.0768 H   0  0  0  0  0  0  0  0  0  0  0  0
  153.6240  143.5468  159.0013 H   0  0  0  0  0  0  0  0  0  0  0  0
  153.2869  141.8477  158.9366 H   0  0  0  0  0  0  0  0  0  0  0  0
  151.2035  144.8679  157.3938 H   0  0  0  0  0  0  0  0  0  0  0  0
  150.1337  144.5052  158.7125 H   0  0  0  0  0  0  0  0  0  0  0  0
  151.5948  146.4337  159.2977 H   0  0  0  0  0  0  0  0  0  0  0  0
  153.0336  145.4453  159.0682 H   0  0  0  0  0  0  0  0  0  0  0  0
  151.9154  145.0860  160.3836 H   0  0  0  0  0  0  0  0  0  0  0  0
  151.9611  140.3579  158.6677 H   0  0  0  0  0  0  0  0  0  0  0  0
  150.7249  138.7000  157.3351 H   0  0  0  0  0  0  0  0  0  0  0  0
  148.9819  138.2373  155.8588 H   0  0  0  0  0  0  0  0  0  0  0  0
  145.7222  137.9320  155.0414 H   0  0  0  0  0  0  0  0  0  0  0  0
  148.0581  136.6425  155.8303 H   0  0  0  0  0  0  0  0  0  0  0  0
  146.4581  136.0213  156.1821 H   0  0  0  0  0  0  0  0  0  0  0  0
  148.4159  134.8331  154.3380 H   0  0  0  0  0  0  0  0  0  0  0  0
  146.8693  134.1856  154.8888 H   0  0  0  0  0  0  0  0  0  0  0  0
  146.9929  133.5621  152.1742 H   0  0  0  0  0  0  0  0  0  0  0  0
  145.4069  133.8137  152.8861 H   0  0  0  0  0  0  0  0  0  0  0  0
  146.5484  135.2166  150.4101 H   0  0  0  0  0  0  0  0  0  0  0  0
  145.2403  134.0595  150.4191 H   0  0  0  0  0  0  0  0  0  0  0  0
  144.4155  136.4343  150.2312 H   0  0  0  0  0  0  0  0  0  0  0  0
  143.7836  135.6270  151.6462 H   0  0  0  0  0  0  0  0  0  0  0  0
  146.1088  137.6033  151.5692 H   0  0  0  0  0  0  0  0  0  0  0  0
  144.5371  137.8799  152.2908 H   0  0  0  0  0  0  0  0  0  0  0  0
  144.9147  136.0157  153.9028 H   0  0  0  0  0  0  0  0  0  0  0  0
  148.6393  142.0080  155.4148 H   0  0  0  0  0  0  0  0  0  0  0  0
  147.4969  135.8580  152.6244 H   0  0  0  0  0  0  0  0  0  0  0  0
  149.8692  143.4382  156.7012 H   0  0  0  0  0  0  0  0  0  0  0  0
  1  2  1  0  0  0  0
  1 25  1  0  0  0  0
  1 26  1  0  0  0  0
  1 27  1  0  0  0  0
  2  3  1  0  0  0  0
  2 28  1  0  0  0  0
  2 29  1  0  0  0  0
  3  4  1  0  0  0  0
  3  6  1  0  0  0  0
  4  5  1  0  0  0  0
  4 30  1  0  0  0  0
  4 31  1  0  0  0  0
  5 32  1  0  0  0  0
  5 33  1  0  0  0  0
  5 34  1  0  0  0  0
  6 24  1  0  0  0  0
  6  7  2  0  0  0  0
  7  8  1  0  0  0  0
  7 35  1  0  0  0  0
  8  9  2  0  0  0  0
  8 36  1  0  0  0  0
  9 10  1  0  0  0  0
  9 23  1  0  0  0  0
 10 11  1  0  0  0  0
 10 37  1  0  0  0  0
 11 12  2  0  0  0  0
 11 13  1  0  0  0  0
 13 14  1  0  0  0  0
 14 22  1  0  0  0  0
 14 15  1  0  0  0  0
 14 38  1  0  0  0  0
 15 16  1  0  0  0  0
 15 39  1  0  0  0  0
 15 40  1  0  0  0  0
 16 17  1  0  0  0  0
 16 41  1  0  0  0  0
 16 42  1  0  0  0  0
 17 22  1  0  0  0  0
 17 18  1  0  0  0  0
 17 53  1  0  0  0  0
 18 19  1  0  0  0  0
 18 43  1  0  0  0  0
 18 44  1  0  0  0  0
 19 20  1  0  0  0  0
 19 45  1  0  0  0  0
 19 46  1  0  0  0  0
 20 21  1  0  0  0  0
 20 47  1  0  0  0  0
 20 48  1  0  0  0  0
 21 22  1  0  0  0  0
 21 49  1  0  0  0  0
 21 50  1  0  0  0  0
 22 51  1  0  0  0  0
 23 24  2  0  0  0  0
 23 52  1  0  0  0  0
 24 54  1  0  0  0  0
M  CHG  1  13  -1
M  CHG  1  17   1
M  CHG  1  24   1
M  END
> <s_m_source_file>
AV-unprocessed.smi

> <i_m_source_file_index>
1701

> <i_lp_mmshare_version>
43012

> <i_f3d_flags>
0

> <s_epik_input>
W0NIM11bQ0gyXU4oW0NIMl1bQ0gzXSljMVtjSF1bY0hdYyhbY0hdbjEpW05IXUMoPU8pW05IXVtDQEhdKFtDSDJdW0NIMl0yKVtDQEBIXShOMjMpW0NIMl1bQ0gyXVtDSDJdW0NIMl0z

> <s_epik_cmdline>
J2VwaWtfcHl0aG9uJywgJy1waCcsICc3LjAnLCAnLXRuJywgJzgnLCAnLW1hJywgJzIwMCcsICctbWV0YWxfYmluZGluZycsICctaW1hZScsICc8aW5maWxlLm1hZT4nLCAnLW9tYWUnLCAnPG91dGZpbGUubWFlPic=

> <r_lp_tautomer_probability>
0.999994

> <r_epik_Ionization_Penalty>
7.37095

> <r_epik_Ionization_Penalty_Charging>
7.37095

> <r_epik_Ionization_Penalty_Neutral>
3.78969e-06

> <r_epik_State_Penalty>
6.83842

> <r_epik_Charging_Adjusted_Penalty>
14.2094

> <i_epik_Tot_Q>
1

> <i_epik_Tot_abs_Q>
3

> <r_epik_Metal_State_Penalty>
2.78552

> <b_epik_Metal_Only>
1

> <s_lp_Force_Field>
OPLS_2005

> <r_lp_Energy>
49.8096

> <b_lp_Chiralities_Consistent>
1

> <s_lp_Variant>
AV-unprocessed.smi:1701-21

> <Gold.Version>
5.8.1

> <Gold.Id.Protein>
6NUR|6NUR_protein|mol2

> <Gold.PLP.Fitness>
48.6522

> <Gold.PLP.PLP>
-38.6813

> <Gold.PLP.part.hbond>
-2.0000

> <Gold.PLP.part.metal>
0.0000

> <Gold.PLP.part.buried>
-7.3063

> <Gold.PLP.part.nonpolar>
-33.2873

> <Gold.PLP.part.repulsive>
2.4963

> <Gold.PLP.ligand.clash>
0.0000

> <Gold.PLP.ligand.torsion>
1.1385

> <Gold.PLP.Chemscore.Hbond>
3.9520

> <Gold.PLP.Chemscore.CHOScore>
0.0000

> <Gold.PLP.Chemscore.Metal>
0.0000

> <Gold.Chemscore.Hbonds>
donor molecule, donor type, donor heavy atom, donor atom, acceptor molecule, acceptor atom, score
      L1  H    17    53       P1  7948  2.00
      L1  H    24    54       P1  8028  1.82

> <Gold.PLP.Chemscore.Internal.Correction>
0.3921

> <Gold.Rescore>
     Score         DG    S(hbond)    S(metal)    S(lipo)     H(rot)  DE(clash)    DE(int)     intcor
     16.95     -19.49       1.88        0.00      94.07       1.28       0.04       2.50       ----

> <Gold.Chemscore.Fitness>
16.9496

> <Gold.Chemscore.DG>
-19.4880

> <Gold.Chemscore.ZeroCoef>
-5.4800

> <Gold.Chemscore.Hbond>
1.8827

> <Gold.Chemscore.Metal>
0.0000

> <Gold.Chemscore.Lipo>
94.0696

> <Gold.Chemscore.Internal_Hbond>
0.0000

> <Gold.Chemscore.DEClash>
0.0421

> <Gold.Chemscore.DEInternal>
2.4963

> <Gold.Chemscore.Rot>
1.2838

> <Gold.Chemscore.Internal.Correction>
   9.000000E+99

> <Gold.Chemscore.Hbonds>
donor molecule, donor type, donor heavy atom, donor atom, acceptor molecule, acceptor atom, score
      L1  H    17    53       P1  7948  1.00
      L1  H    24    54       P1  8028  0.88

> <Gold.Chemscore.Hbond.Weighted>
-6.2884

> <Gold.Chemscore.Metal.Weighted>
-0.0000

> <Gold.Chemscore.Lipo.Weighted>
-11.0061

> <Gold.Chemscore.Internal_Hbond.Weighted>
0.0000

> <Gold.Chemscore.DEClash.Weighted>
0.0421

> <Gold.Chemscore.DEInternal.Weighted>
2.4963

> <Gold.Chemscore.Rot.Weighted>
3.2865

> <Gold.Chemscore.Internal.Correction.Weighted>
   9.000000E+99

> <Gold.Protein.RotatedTorsions>
[ 6907 6896 6895 6894 ] final  -38.85 input  -60.11 | X-H torsion
[ 7974 7965 7964 7962 ] final    4.13 input  175.53 | X-H torsion
[ 8008 7997 7996 7995 ] final -160.90 input   59.86 | X-H torsion
[ 10167 10162 10161 10158 ] final   81.25 input  -65.29 | X-H torsion
[ 10718 10713 10712 10709 ] final  -56.30 input   66.30 | X-H torsion
[ 10763 10752 10751 10750 ] final -178.31 input  -60.55 | X-H torsion
[ 11005 11000 10999 10996 ] final  137.30 input  -57.11 | X-H torsion

> <Gold.Protein.ActiveResidues>
 VAL166  LYS551  ARG553  GLY616  TRP617  ASP618  TYR619  PRO620  LYS621  CYS622 
 ASP623  PHE694  ASN695  SER759  ASP760  ASP761  ALA762  ILE779  LEU786  VAL792 
 PHE793  MET794  SER795  GLU796  ALA797  LYS798  CYS799  TRP800  GLU811  SER814 

> <Gold.Protein.RotatedAtoms>
  150.9975  134.9295  159.7934 H   0  0  0  0  0  0  0  0  0  0  0  0  # atno 6907 bound_to 6896
  152.5268  134.3199  159.9154 H   0  0  0  0  0  0  0  0  0  0  0  0  # atno 6908 bound_to 6896
  151.3205  133.4000  159.2688 H   0  0  0  0  0  0  0  0  0  0  0  0  # atno 6909 bound_to 6896
  146.2444  140.0581  142.8370 H   0  0  0  0  0  0  0  0  0  0  0  0  # atno 7974 bound_to 7965
  155.7843  140.0869  157.2043 H   0  0  0  0  0  0  0  0  0  0  0  0  # atno 8008 bound_to 7997
  154.3988  140.1502  156.3146 H   0  0  0  0  0  0  0  0  0  0  0  0  # atno 8009 bound_to 7997
  155.8622  140.3429  155.5767 H   0  0  0  0  0  0  0  0  0  0  0  0  # atno 8010 bound_to 7997
  139.9412  144.6088  150.8250 H   0  0  0  0  0  0  0  0  0  0  0  0  # atno 10167 bound_to 10162
  156.1300  130.4160  150.0286 H   0  0  0  0  0  0  0  0  0  0  0  0  # atno 10718 bound_to 10713
  154.5493  135.2811  155.1023 H   0  0  0  0  0  0  0  0  0  0  0  0  # atno 10763 bound_to 10752
  154.2475  135.6345  153.5232 H   0  0  0  0  0  0  0  0  0  0  0  0  # atno 10764 bound_to 10752
  152.9999  135.5575  154.6055 H   0  0  0  0  0  0  0  0  0  0  0  0  # atno 10765 bound_to 10752
  140.0105  134.9441  157.0267 H   0  0  0  0  0  0  0  0  0  0  0  0  # atno 11005 bound_to 11000
  145.0924  140.9293  143.4761 LP  0  0  0  0  0  0  0  0  0  0  0  0  # atno 17320 bound_to 7965
  145.0757  139.2998  143.5809 LP  0  0  0  0  0  0  0  0  0  0  0  0  # atno 17321 bound_to 7965
  140.7610  143.3164  151.2722 LP  0  0  0  0  0  0  0  0  0  0  0  0  # atno 17342 bound_to 10162
  139.6703  144.0032  152.2748 LP  0  0  0  0  0  0  0  0  0  0  0  0  # atno 17343 bound_to 10162
  156.8201  130.9356  151.3641 LP  0  0  0  0  0  0  0  0  0  0  0  0  # atno 17370 bound_to 10713
  157.6478  130.8859  149.9573 LP  0  0  0  0  0  0  0  0  0  0  0  0  # atno 17371 bound_to 10713
  140.4564  134.1529  155.7186 LP  0  0  0  0  0  0  0  0  0  0  0  0  # atno 17394 bound_to 11000
  141.1707  133.8614  157.1578 LP  0  0  0  0  0  0  0  0  0  0  0  0  # atno 17395 bound_to 11000

$$$$
