AV-unprocessed.smi:949|AV-procd|sdf|4247|dock2
  -GOLD-   22720 2153D 1   1.00000     0.00000
 Structure written by MMmdl.
 32 33  0  0  0  0  0  0  0  0  1 V2000
  149.2580  140.5404  157.8766 C   0  0  0  0  0  0  0  0  0  0  0  0
  150.1004  141.5517  157.0780 C   0  0  1  0  0  0  0  0  0  0  0  0
  149.3771  141.9940  155.8905 N   0  0  0  0  0  0  0  0  0  0  0  0
  148.7422  141.1066  155.0032 C   0  0  0  0  0  0  0  0  0  0  0  0
  149.1369  139.7554  154.8565 C   0  0  0  0  0  0  0  0  0  0  0  0
  148.4442  138.9383  153.9417 C   0  0  0  0  0  0  0  0  0  0  0  0
  147.4148  139.3737  153.1873 N   0  0  0  0  0  0  0  0  0  0  0  0
  147.0381  140.6615  153.3251 C   0  0  0  0  0  0  0  0  0  0  0  0
  147.6614  141.5661  154.2104 C   0  0  0  0  0  0  0  0  0  0  0  0
  147.2010  142.8832  154.2833 N   0  0  0  0  0  0  0  0  0  0  0  0
  150.4831  142.7642  157.9493 C   0  0  2  0  0  0  0  0  0  0  0  0
  151.5770  143.6526  157.3499 C   0  0  0  0  0  0  0  0  0  0  0  0
  152.1764  144.2836  158.5848 C   0  0  0  0  0  0  0  0  0  0  0  0
  152.1491  143.1161  159.5641 C   0  0  0  0  0  0  0  0  0  0  0  0
  151.0156  142.3323  159.2014 O   0  0  0  0  0  0  0  0  0  0  0  0
  149.8018  140.1754  158.7481 H   0  0  0  0  0  0  0  0  0  0  0  0
  148.9929  139.6708  157.2755 H   0  0  0  0  0  0  0  0  0  0  0  0
  148.3302  140.9908  158.2312 H   0  0  0  0  0  0  0  0  0  0  0  0
  151.0283  141.0723  156.7664 H   0  0  0  0  0  0  0  0  0  0  0  0
  149.3409  142.9841  155.6973 H   0  0  0  0  0  0  0  0  0  0  0  0
  149.9492  139.3293  155.4243 H   0  0  0  0  0  0  0  0  0  0  0  0
  148.7269  137.9041  153.8127 H   0  0  0  0  0  0  0  0  0  0  0  0
  146.2115  140.9797  152.7066 H   0  0  0  0  0  0  0  0  0  0  0  0
  147.6298  143.5501  154.9089 H   0  0  0  0  0  0  0  0  0  0  0  0
  146.5685  143.2541  153.5892 H   0  0  0  0  0  0  0  0  0  0  0  0
  149.6030  143.3744  158.1587 H   0  0  0  0  0  0  0  0  0  0  0  0
  152.3285  143.0487  156.8390 H   0  0  0  0  0  0  0  0  0  0  0  0
  151.1896  144.3856  156.6416 H   0  0  0  0  0  0  0  0  0  0  0  0
  153.1780  144.6824  158.4229 H   0  0  0  0  0  0  0  0  0  0  0  0
  151.5371  145.0921  158.9419 H   0  0  0  0  0  0  0  0  0  0  0  0
  153.0436  142.5027  159.4483 H   0  0  0  0  0  0  0  0  0  0  0  0
  152.0937  143.4428  160.6026 H   0  0  0  0  0  0  0  0  0  0  0  0
  1  2  1  0  0  0  0
  1 16  1  0  0  0  0
  1 17  1  0  0  0  0
  1 18  1  0  0  0  0
  2  3  1  0  0  0  0
  2 11  1  0  0  0  0
  2 19  1  0  0  0  0
  3  4  1  0  0  0  0
  3 20  1  0  0  0  0
  4  9  1  0  0  0  0
  4  5  2  0  0  0  0
  5  6  1  0  0  0  0
  5 21  1  0  0  0  0
  6  7  2  0  0  0  0
  6 22  1  0  0  0  0
  7  8  1  0  0  0  0
  8  9  2  0  0  0  0
  8 23  1  0  0  0  0
  9 10  1  0  0  0  0
 10 24  1  0  0  0  0
 10 25  1  0  0  0  0
 11 15  1  0  0  0  0
 11 12  1  0  0  0  0
 11 26  1  0  0  0  0
 12 13  1  0  0  0  0
 12 27  1  0  0  0  0
 12 28  1  0  0  0  0
 13 14  1  0  0  0  0
 13 29  1  0  0  0  0
 13 30  1  0  0  0  0
 14 15  1  0  0  0  0
 14 31  1  0  0  0  0
 14 32  1  0  0  0  0
M  END
> <s_m_source_file>
AV-unprocessed.smi

> <i_m_source_file_index>
949

> <i_lp_mmshare_version>
43012

> <i_f3d_flags>
0

> <s_epik_input>
TzFbQ0gyXVtDSDJdW0NIMl1bQ0BIXTFbQ0BIXShbQ0gzXSlbTkhdYzJbY0hdW2NIXW5bY0hdYzJbTkgyXQ==

> <s_epik_cmdline>
J2VwaWtfcHl0aG9uJywgJy1waCcsICc3LjAnLCAnLXRuJywgJzgnLCAnLW1hJywgJzIwMCcsICctbWV0YWxfYmluZGluZycsICctaW1hZScsICc8aW5maWxlLm1hZT4nLCAnLW9tYWUnLCAnPG91dGZpbGUubWFlPic=

> <r_epik_Ionization_Penalty>
3.88091

> <r_epik_Ionization_Penalty_Charging>
0

> <r_epik_Ionization_Penalty_Neutral>
3.88091

> <r_epik_State_Penalty>
3.88049

> <r_epik_Charging_Adjusted_Penalty>
3.88049

> <i_epik_Tot_Q>
0

> <i_epik_Tot_abs_Q>
0

> <r_epik_Metal_State_Penalty>
0.313783

> <b_epik_Metal_Only>
1

> <s_lp_Force_Field>
OPLS_2005

> <r_lp_Energy>
23.3849

> <b_lp_Chiralities_Consistent>
1

> <s_lp_Variant>
AV-unprocessed.smi:949-6

> <Gold.Version>
5.8.1

> <Gold.Id.Protein>
6NUR|6NUR_protein|mol2

> <Gold.PLP.Fitness>
41.0505

> <Gold.PLP.PLP>
-30.0161

> <Gold.PLP.part.hbond>
-2.0000

> <Gold.PLP.part.metal>
0.0000

> <Gold.PLP.part.buried>
-5.1126

> <Gold.PLP.part.nonpolar>
-25.5084

> <Gold.PLP.part.repulsive>
1.0966

> <Gold.PLP.ligand.clash>
0.0000

> <Gold.PLP.ligand.torsion>
0.3571

> <Gold.PLP.Chemscore.Hbond>
1.9500

> <Gold.PLP.Chemscore.CHOScore>
1.9609

> <Gold.PLP.Chemscore.Metal>
0.0000

> <Gold.Chemscore.Hbonds>
donor molecule, donor type, donor heavy atom, donor atom, acceptor molecule, acceptor atom, score
      L1  H     3    20       P1  8028  1.00
      L1  H    10    24       P1  8028  0.95
      L1  C     6    22       P1  7948  0.92
      L1  C     8    23       P1 10175  0.83

> <Gold.PLP.Chemscore.Internal.Correction>
0.0158

> <Gold.Rescore>
     Score         DG    S(hbond)    S(metal)    S(lipo)     H(rot)  DE(clash)    DE(int)     intcor
     16.95     -17.48       1.53        0.00      85.55       1.22       0.12       0.41       ----

> <Gold.Chemscore.Fitness>
16.9529

> <Gold.Chemscore.DG>
-17.4830

> <Gold.Chemscore.ZeroCoef>
-5.4800

> <Gold.Chemscore.Hbond>
1.5296

> <Gold.Chemscore.Metal>
0.0000

> <Gold.Chemscore.Lipo>
85.5489

> <Gold.Chemscore.Internal_Hbond>
0.0000

> <Gold.Chemscore.DEClash>
0.1205

> <Gold.Chemscore.DEInternal>
0.4096

> <Gold.Chemscore.Rot>
1.2169

> <Gold.Chemscore.Internal.Correction>
   9.000000E+99

> <Gold.Chemscore.Hbonds>
donor molecule, donor type, donor heavy atom, donor atom, acceptor molecule, acceptor atom, score
      L1  H     3    20       P1  8028  1.00
      L1  H    10    24       P1  8028  0.21

> <Gold.Chemscore.Hbond.Weighted>
-5.1089

> <Gold.Chemscore.Metal.Weighted>
-0.0000

> <Gold.Chemscore.Lipo.Weighted>
-10.0092

> <Gold.Chemscore.Internal_Hbond.Weighted>
0.0000

> <Gold.Chemscore.DEClash.Weighted>
0.1205

> <Gold.Chemscore.DEInternal.Weighted>
0.4096

> <Gold.Chemscore.Rot.Weighted>
3.1152

> <Gold.Chemscore.Internal.Correction.Weighted>
   9.000000E+99

> <Gold.Protein.RotatedTorsions>
[ 6907 6896 6895 6894 ] final -126.27 input  -60.11 | X-H torsion
[ 7974 7965 7964 7962 ] final  178.33 input  175.53 | X-H torsion
[ 8008 7997 7996 7995 ] final  132.59 input   59.86 | X-H torsion
[ 10167 10162 10161 10158 ] final   34.53 input  -65.29 | X-H torsion
[ 10718 10713 10712 10709 ] final -170.40 input   66.30 | X-H torsion
[ 10763 10752 10751 10750 ] final -178.56 input  -60.55 | X-H torsion
[ 11005 11000 10999 10996 ] final   44.39 input  -57.11 | X-H torsion

> <Gold.Protein.ActiveResidues>
 VAL166  LYS551  ARG553  GLY616  TRP617  ASP618  TYR619  PRO620  LYS621  CYS622 
 ASP623  PHE694  ASN695  SER759  ASP760  ASP761  ALA762  ILE779  LEU786  VAL792 
 PHE793  MET794  SER795  GLU796  ALA797  LYS798  CYS799  TRP800  GLU811  SER814 

> <Gold.Protein.RotatedAtoms>
  150.8952  133.7190  159.2893 H   0  0  0  0  0  0  0  0  0  0  0  0  # atno 6907 bound_to 6896
  151.4727  135.1045  159.9765 H   0  0  0  0  0  0  0  0  0  0  0  0  # atno 6908 bound_to 6896
  152.4844  133.8288  159.7148 H   0  0  0  0  0  0  0  0  0  0  0  0  # atno 6909 bound_to 6896
  144.7157  140.0381  143.6438 H   0  0  0  0  0  0  0  0  0  0  0  0  # atno 7974 bound_to 7965
  156.2984  140.2542  156.3114 H   0  0  0  0  0  0  0  0  0  0  0  0  # atno 8008 bound_to 7997
  154.9322  140.0398  157.2073 H   0  0  0  0  0  0  0  0  0  0  0  0  # atno 8009 bound_to 7997
  154.8207  140.2859  155.5793 H   0  0  0  0  0  0  0  0  0  0  0  0  # atno 8010 bound_to 7997
  140.4306  144.1329  150.6159 H   0  0  0  0  0  0  0  0  0  0  0  0  # atno 10167 bound_to 10162
  156.7256  130.9286  151.3101 H   0  0  0  0  0  0  0  0  0  0  0  0  # atno 10718 bound_to 10713
  154.5462  135.2809  155.1050 H   0  0  0  0  0  0  0  0  0  0  0  0  # atno 10763 bound_to 10752
  154.2514  135.6339  153.5245 H   0  0  0  0  0  0  0  0  0  0  0  0  # atno 10764 bound_to 10752
  152.9991  135.5583  154.6015 H   0  0  0  0  0  0  0  0  0  0  0  0  # atno 10765 bound_to 10752
  140.1556  134.4406  155.8352 H   0  0  0  0  0  0  0  0  0  0  0  0  # atno 11005 bound_to 11000
  146.0047  139.3119  143.0907 LP  0  0  0  0  0  0  0  0  0  0  0  0  # atno 17320 bound_to 7965
  145.8753  140.9396  143.0629 LP  0  0  0  0  0  0  0  0  0  0  0  0  # atno 17321 bound_to 7965
  140.4431  143.2518  151.9447 LP  0  0  0  0  0  0  0  0  0  0  0  0  # atno 17342 bound_to 10162
  139.4785  144.5635  151.8202 LP  0  0  0  0  0  0  0  0  0  0  0  0  # atno 17343 bound_to 10162
  157.6880  130.9205  150.0438 LP  0  0  0  0  0  0  0  0  0  0  0  0  # atno 17370 bound_to 10713
  156.1564  130.3643  149.9362 LP  0  0  0  0  0  0  0  0  0  0  0  0  # atno 17371 bound_to 10713
  141.2204  133.6891  156.7502 LP  0  0  0  0  0  0  0  0  0  0  0  0  # atno 17394 bound_to 11000
  140.2551  134.8510  157.3705 LP  0  0  0  0  0  0  0  0  0  0  0  0  # atno 17395 bound_to 11000

$$$$
