AV-unprocessed.smi:2083|AV-procd|sdf|8498|dock5
  -GOLD-   2272011203D 1   1.00000     0.00000
 Structure written by MMmdl.
 44 45  0  0  0  0  0  0  0  0  3 V2000
  149.4688  141.1308  155.5352 C   0  0  0  0  0  0  0  0  0  0  0  0
  150.3245  139.9273  155.3318 C   0  0  0  0  0  0  0  0  0  0  0  0
  150.0508  138.5894  155.2985 C   0  0  0  0  0  0  0  0  0  0  0  0
  151.3237  138.0028  155.0599 C   0  0  0  0  0  0  0  0  0  0  0  0
  151.5841  136.6901  154.9599 N   0  5  0  0  0  0  0  0  0  0  0  0
  150.7095  135.7809  155.4469 C   0  0  0  0  0  0  0  0  0  0  0  0
  150.6661  135.3478  156.6005 O   0  0  0  0  0  0  0  0  0  0  0  0
  149.8279  135.3454  154.5380 N   0  0  0  0  0  0  0  0  0  0  0  0
  148.7664  134.3772  154.7863 C   0  0  0  0  0  0  0  0  0  0  0  0
  147.3723  134.9422  154.4239 C   0  0  2  0  0  0  0  0  0  0  0  0
  146.3481  134.5909  155.5315 C   0  0  0  0  0  0  0  0  0  0  0  0
  146.9772  134.4737  153.0545 N   0  3  1  0  0  0  0  0  0  0  0  0
  146.9554  132.9961  152.8475 C   0  0  0  0  0  0  0  0  0  0  0  0
  146.6718  132.6358  151.3799 C   0  0  0  0  0  0  0  0  0  0  0  0
  145.3621  133.2638  150.8948 C   0  0  0  0  0  0  0  0  0  0  0  0
  145.3945  134.7819  151.1234 C   0  0  1  0  0  0  0  0  0  0  0  0
  144.0869  135.4435  150.6655 C   0  0  0  0  0  0  0  0  0  0  0  0
  145.6940  135.0869  152.6045 C   0  0  0  0  0  0  0  0  0  0  0  0
  152.2868  138.9043  154.9718 N   0  0  0  0  0  0  0  0  0  0  0  0
  151.6537  140.1416  155.1392 O   0  0  0  0  0  0  0  0  0  0  0  0
  148.9892  141.1016  156.5137 H   0  0  0  0  0  0  0  0  0  0  0  0
  148.6877  141.1806  154.7766 H   0  0  0  0  0  0  0  0  0  0  0  0
  150.0568  142.0469  155.4748 H   0  0  0  0  0  0  0  0  0  0  0  0
  149.0932  138.1064  155.4216 H   0  0  0  0  0  0  0  0  0  0  0  0
  149.8976  135.7253  153.6052 H   0  0  0  0  0  0  0  0  0  0  0  0
  149.0015  133.4827  154.2111 H   0  0  0  0  0  0  0  0  0  0  0  0
  148.7771  134.0847  155.8379 H   0  0  0  0  0  0  0  0  0  0  0  0
  147.4356  136.0314  154.3968 H   0  0  0  0  0  0  0  0  0  0  0  0
  146.6775  134.9381  156.5108 H   0  0  0  0  0  0  0  0  0  0  0  0
  146.1939  133.5139  155.6068 H   0  0  0  0  0  0  0  0  0  0  0  0
  145.3821  135.0663  155.3612 H   0  0  0  0  0  0  0  0  0  0  0  0
  147.9177  132.5523  153.0994 H   0  0  0  0  0  0  0  0  0  0  0  0
  146.2067  132.5447  153.5008 H   0  0  0  0  0  0  0  0  0  0  0  0
  147.4962  132.9797  150.7538 H   0  0  0  0  0  0  0  0  0  0  0  0
  146.6287  131.5524  151.2645 H   0  0  0  0  0  0  0  0  0  0  0  0
  145.2126  133.0409  149.8377 H   0  0  0  0  0  0  0  0  0  0  0  0
  144.5208  132.8214  151.4302 H   0  0  0  0  0  0  0  0  0  0  0  0
  146.2026  135.2004  150.5214 H   0  0  0  0  0  0  0  0  0  0  0  0
  143.2331  135.0721  151.2331 H   0  0  0  0  0  0  0  0  0  0  0  0
  143.8956  135.2460  149.6103 H   0  0  0  0  0  0  0  0  0  0  0  0
  144.1274  136.5253  150.7951 H   0  0  0  0  0  0  0  0  0  0  0  0
  144.8805  134.7195  153.2326 H   0  0  0  0  0  0  0  0  0  0  0  0
  145.7199  136.1674  152.7371 H   0  0  0  0  0  0  0  0  0  0  0  0
  147.6961  134.8189  152.4346 H   0  0  0  0  0  0  0  0  0  0  0  0
  1  2  1  0  0  0  0
  1 21  1  0  0  0  0
  1 22  1  0  0  0  0
  1 23  1  0  0  0  0
  2 20  1  0  0  0  0
  2  3  2  0  0  0  0
  3  4  1  0  0  0  0
  3 24  1  0  0  0  0
  4  5  1  0  0  0  0
  4 19  2  0  0  0  0
  5  6  1  0  0  0  0
  6  7  2  0  0  0  0
  6  8  1  0  0  0  0
  8  9  1  0  0  0  0
  8 25  1  0  0  0  0
  9 10  1  0  0  0  0
  9 26  1  0  0  0  0
  9 27  1  0  0  0  0
 10 11  1  0  0  0  0
 10 12  1  0  0  0  0
 10 28  1  0  0  0  0
 11 29  1  0  0  0  0
 11 30  1  0  0  0  0
 11 31  1  0  0  0  0
 12 18  1  0  0  0  0
 12 13  1  0  0  0  0
 12 44  1  0  0  0  0
 13 14  1  0  0  0  0
 13 32  1  0  0  0  0
 13 33  1  0  0  0  0
 14 15  1  0  0  0  0
 14 34  1  0  0  0  0
 14 35  1  0  0  0  0
 15 16  1  0  0  0  0
 15 36  1  0  0  0  0
 15 37  1  0  0  0  0
 16 17  1  0  0  0  0
 16 18  1  0  0  0  0
 16 38  1  0  0  0  0
 17 39  1  0  0  0  0
 17 40  1  0  0  0  0
 17 41  1  0  0  0  0
 18 42  1  0  0  0  0
 18 43  1  0  0  0  0
 19 20  1  0  0  0  0
M  CHG  1   5  -1
M  CHG  1  12   1
M  END
> <s_m_source_file>
AV-unprocessed.smi

> <i_m_source_file_index>
2083

> <i_lp_mmshare_version>
43012

> <i_f3d_flags>
0

> <s_epik_input>
W0NIM11jMVtjSF1jKG5vMSlbTkhdQyg9TylbTkhdW0NIMl1bQ0BIXShbQ0gzXSlOMltDSDJdW0NIMl1bQ0gyXVtDQEBIXShbQ0gzXSlbQ0gyXTI=

> <s_epik_cmdline>
J2VwaWtfcHl0aG9uJywgJy1waCcsICc3LjAnLCAnLXRuJywgJzgnLCAnLW1hJywgJzIwMCcsICctbWV0YWxfYmluZGluZycsICctaW1hZScsICc8aW5maWxlLm1hZT4nLCAnLW9tYWUnLCAnPG91dGZpbGUubWFlPic=

> <r_epik_Ionization_Penalty>
6.22434

> <r_epik_Ionization_Penalty_Charging>
6.22425

> <r_epik_Ionization_Penalty_Neutral>
9.62407e-05

> <r_epik_State_Penalty>
6.22423

> <r_epik_Charging_Adjusted_Penalty>
12.4485

> <i_epik_Tot_Q>
0

> <i_epik_Tot_abs_Q>
2

> <r_epik_Metal_State_Penalty>
2.16764

> <b_epik_Metal_Only>
1

> <s_lp_Force_Field>
OPLS_2005

> <r_lp_Energy>
12.4443

> <b_lp_Chiralities_Consistent>
1

> <s_lp_Variant>
AV-unprocessed.smi:2083-9

> <Gold.Version>
5.8.1

> <Gold.Id.Protein>
6NUR|6NUR_protein|mol2

> <Gold.PLP.Fitness>
44.2756

> <Gold.PLP.PLP>
-30.6296

> <Gold.PLP.part.hbond>
-4.0155

> <Gold.PLP.part.metal>
0.0000

> <Gold.PLP.part.buried>
-3.0787

> <Gold.PLP.part.nonpolar>
-23.8611

> <Gold.PLP.part.repulsive>
0.2841

> <Gold.PLP.ligand.clash>
0.0000

> <Gold.PLP.ligand.torsion>
1.4380

> <Gold.PLP.Chemscore.Hbond>
5.4808

> <Gold.PLP.Chemscore.CHOScore>
0.0000

> <Gold.PLP.Chemscore.Metal>
0.0000

> <Gold.Chemscore.Hbonds>
donor molecule, donor type, donor heavy atom, donor atom, acceptor molecule, acceptor atom, score
      L1  H     8    25       P1  7948  0.60
      L1  H    12    44       P1  7948  2.00
      P1  H  7989  7998       L1    20  0.96
      P1  H 10752 10763       L1     5  2.00

> <Gold.PLP.Chemscore.Internal.Correction>
0.0796

> <Gold.Rescore>
     Score         DG    S(hbond)    S(metal)    S(lipo)     H(rot)  DE(clash)    DE(int)     intcor
     15.18     -16.63       2.49        0.00      57.36       1.52       0.04       1.42       ----

> <Gold.Chemscore.Fitness>
15.1782

> <Gold.Chemscore.DG>
-16.6313

> <Gold.Chemscore.ZeroCoef>
-5.4800

> <Gold.Chemscore.Hbond>
2.4936

> <Gold.Chemscore.Metal>
0.0000

> <Gold.Chemscore.Lipo>
57.3620

> <Gold.Chemscore.Internal_Hbond>
0.0000

> <Gold.Chemscore.DEClash>
0.0368

> <Gold.Chemscore.DEInternal>
1.4163

> <Gold.Chemscore.Rot>
1.5190

> <Gold.Chemscore.Internal.Correction>
   9.000000E+99

> <Gold.Chemscore.Hbonds>
donor molecule, donor type, donor heavy atom, donor atom, acceptor molecule, acceptor atom, score
      L1  H     8    25       P1  7948  0.04
      L1  H    12    44       P1  7948  0.85
      P1  H  7989  7998       L1    20  0.14
      P1  H 10752 10763       L1     5  0.42

> <Gold.Chemscore.Hbond.Weighted>
-8.3286

> <Gold.Chemscore.Metal.Weighted>
-0.0000

> <Gold.Chemscore.Lipo.Weighted>
-6.7114

> <Gold.Chemscore.Internal_Hbond.Weighted>
0.0000

> <Gold.Chemscore.DEClash.Weighted>
0.0368

> <Gold.Chemscore.DEInternal.Weighted>
1.4163

> <Gold.Chemscore.Rot.Weighted>
3.8886

> <Gold.Chemscore.Internal.Correction.Weighted>
   9.000000E+99

> <Gold.Protein.RotatedTorsions>
[ 6907 6896 6895 6894 ] final  118.90 input  -60.11 | X-H torsion
[ 7974 7965 7964 7962 ] final -169.79 input  175.53 | X-H torsion
[ 8008 7997 7996 7995 ] final -129.23 input   59.86 | X-H torsion
[ 10167 10162 10161 10158 ] final    0.13 input  -65.29 | X-H torsion
[ 10718 10713 10712 10709 ] final   79.09 input   66.30 | X-H torsion
[ 10763 10752 10751 10750 ] final   38.84 input  -60.55 | X-H torsion
[ 11005 11000 10999 10996 ] final  -24.14 input  -57.11 | X-H torsion

> <Gold.Protein.ActiveResidues>
 VAL166  LYS551  ARG553  GLY616  TRP617  ASP618  TYR619  PRO620  LYS621  CYS622 
 ASP623  PHE694  ASN695  SER759  ASP760  ASP761  ALA762  ILE779  LEU786  VAL792 
 PHE793  MET794  SER795  GLU796  ALA797  LYS798  CYS799  TRP800  GLU811  SER814 

> <Gold.Protein.RotatedAtoms>
  152.4510  133.7630  159.6756 H   0  0  0  0  0  0  0  0  0  0  0  0  # atno 6907 bound_to 6896
  150.8422  133.7907  159.3062 H   0  0  0  0  0  0  0  0  0  0  0  0  # atno 6908 bound_to 6896
  151.5529  135.1070  160.0006 H   0  0  0  0  0  0  0  0  0  0  0  0  # atno 6909 bound_to 6896
  144.7180  140.2168  143.6321 H   0  0  0  0  0  0  0  0  0  0  0  0  # atno 7974 bound_to 7965
  155.2757  140.0442  157.3011 H   0  0  0  0  0  0  0  0  0  0  0  0  # atno 8008 bound_to 7997
  154.5626  140.2350  155.8280 H   0  0  0  0  0  0  0  0  0  0  0  0  # atno 8009 bound_to 7997
  156.2060  140.3012  155.9635 H   0  0  0  0  0  0  0  0  0  0  0  0  # atno 8010 bound_to 7997
  140.6742  143.6962  150.7988 H   0  0  0  0  0  0  0  0  0  0  0  0  # atno 10167 bound_to 10162
  157.6766  130.9898  150.1882 H   0  0  0  0  0  0  0  0  0  0  0  0  # atno 10718 bound_to 10713
  152.9987  135.6238  154.2369 H   0  0  0  0  0  0  0  0  0  0  0  0  # atno 10763 bound_to 10752
  154.2110  135.2800  155.2960 H   0  0  0  0  0  0  0  0  0  0  0  0  # atno 10764 bound_to 10752
  154.5606  135.5706  153.7063 H   0  0  0  0  0  0  0  0  0  0  0  0  # atno 10765 bound_to 10752
  140.8817  133.7649  156.0310 H   0  0  0  0  0  0  0  0  0  0  0  0  # atno 11005 bound_to 11000
  145.8538  139.2189  143.1756 LP  0  0  0  0  0  0  0  0  0  0  0  0  # atno 17320 bound_to 7965
  146.0236  140.8325  142.9911 LP  0  0  0  0  0  0  0  0  0  0  0  0  # atno 17321 bound_to 7965
  140.0653  143.5114  152.2607 LP  0  0  0  0  0  0  0  0  0  0  0  0  # atno 17342 bound_to 10162
  139.6026  144.7587  151.3136 LP  0  0  0  0  0  0  0  0  0  0  0  0  # atno 17343 bound_to 10162
  156.2599  130.3709  149.8141 LP  0  0  0  0  0  0  0  0  0  0  0  0  # atno 17370 bound_to 10713
  156.5889  130.8498  151.3403 LP  0  0  0  0  0  0  0  0  0  0  0  0  # atno 17371 bound_to 10713
  140.8453  134.3018  157.5297 LP  0  0  0  0  0  0  0  0  0  0  0  0  # atno 17394 bound_to 11000
  139.8720  134.9438  156.3864 LP  0  0  0  0  0  0  0  0  0  0  0  0  # atno 17395 bound_to 11000

$$$$
