AV-unprocessed.smi:2559|AV-procd|sdf|10034|dock9
  -GOLD-   2272014 83D 1   1.00000     0.00000
 Structure written by MMmdl.
 44 46  0  0  0  0  0  0  0  0  1 V2000
  154.8282  138.1656  160.9654 C   0  0  0  0  0  0  0  0  0  0  0  0
  153.6601  138.2304  160.0846 N   0  0  0  0  0  0  0  0  0  0  0  0
  153.1276  137.0773  159.5683 C   0  0  0  0  0  0  0  0  0  0  0  0
  153.6004  135.9671  159.8118 O   0  0  0  0  0  0  0  0  0  0  0  0
  152.0318  137.1915  158.7584 N   0  0  0  0  0  0  0  0  0  0  0  0
  151.3935  138.3287  158.3899 C   0  0  0  0  0  0  0  0  0  0  0  0
  150.3993  138.3366  157.6680 O   0  0  0  0  0  0  0  0  0  0  0  0
  152.0093  139.5438  158.9454 C   0  0  0  0  0  0  0  0  0  0  0  0
  153.0910  139.4961  159.7648 C   0  0  0  0  0  0  0  0  0  0  0  0
  153.4545  140.7680  160.1776 N   0  0  0  0  0  0  0  0  0  0  0  0
  152.5695  141.5532  159.5582 C   0  0  0  0  0  0  0  0  0  0  0  0
  152.5554  142.9419  159.6995 N   0  0  0  0  0  0  0  0  0  0  0  0
  152.8144  143.9171  158.6393 C   0  0  0  0  0  0  0  0  0  0  0  0
  151.7330  145.0108  158.5960 C   0  0  0  0  0  0  0  0  0  0  0  0
  151.6455  145.7303  159.9486 C   0  0  0  0  0  0  0  0  0  0  0  0
  151.4856  144.7046  161.0794 C   0  0  0  0  0  0  0  0  0  0  0  0
  152.5765  143.6219  160.9940 C   0  0  0  0  0  0  0  0  0  0  0  0
  151.6477  140.8875  158.8085 N   0  0  0  0  0  0  0  0  0  0  0  0
  150.5058  141.4365  158.0767 C   0  0  0  0  0  0  0  0  0  0  0  0
  150.7916  141.5771  156.5668 C   0  0  2  0  0  0  0  0  0  0  0  0
  149.6724  142.0973  155.8761 O   0  0  0  0  0  0  0  0  0  0  0  0
  151.2502  140.2701  155.8934 C   0  0  0  0  0  0  0  0  0  0  0  0
  150.7639  140.1622  154.5707 O   0  0  0  0  0  0  0  0  0  0  0  0
  151.6526  136.3289  158.3960 H   0  0  0  0  0  0  0  0  0  0  0  0
  154.6302  137.5184  161.8214 H   0  0  0  0  0  0  0  0  0  0  0  0
  155.1128  139.1416  161.3581 H   0  0  0  0  0  0  0  0  0  0  0  0
  155.6884  137.7648  160.4274 H   0  0  0  0  0  0  0  0  0  0  0  0
  153.7891  144.3737  158.8171 H   0  0  0  0  0  0  0  0  0  0  0  0
  152.8999  143.4186  157.6745 H   0  0  0  0  0  0  0  0  0  0  0  0
  151.9565  145.7276  157.8056 H   0  0  0  0  0  0  0  0  0  0  0  0
  150.7669  144.5697  158.3507 H   0  0  0  0  0  0  0  0  0  0  0  0
  152.5533  146.3129  160.1110 H   0  0  0  0  0  0  0  0  0  0  0  0
  150.8145  146.4362  159.9528 H   0  0  0  0  0  0  0  0  0  0  0  0
  151.5297  145.2054  162.0470 H   0  0  0  0  0  0  0  0  0  0  0  0
  150.5017  144.2382  161.0159 H   0  0  0  0  0  0  0  0  0  0  0  0
  152.4263  142.8931  161.7912 H   0  0  0  0  0  0  0  0  0  0  0  0
  153.5618  144.0607  161.1559 H   0  0  0  0  0  0  0  0  0  0  0  0
  149.6364  140.8044  158.2307 H   0  0  0  0  0  0  0  0  0  0  0  0
  150.2212  142.3936  158.5074 H   0  0  0  0  0  0  0  0  0  0  0  0
  151.5909  142.3067  156.4357 H   0  0  0  0  0  0  0  0  0  0  0  0
  149.6401  143.0310  156.0169 H   0  0  0  0  0  0  0  0  0  0  0  0
  152.3385  140.1997  155.8867 H   0  0  0  0  0  0  0  0  0  0  0  0
  150.8823  139.4130  156.4579 H   0  0  0  0  0  0  0  0  0  0  0  0
  149.9808  139.6332  154.5805 H   0  0  0  0  0  0  0  0  0  0  0  0
  1  2  1  0  0  0  0
  1 25  1  0  0  0  0
  1 26  1  0  0  0  0
  1 27  1  0  0  0  0
  2  9  1  0  0  0  0
  2  3  1  0  0  0  0
  3  4  2  0  0  0  0
  3  5  1  0  0  0  0
  5 24  1  0  0  0  0
  5  6  1  0  0  0  0
  6  7  2  0  0  0  0
  6  8  1  0  0  0  0
  8 18  1  0  0  0  0
  8  9  2  0  0  0  0
  9 10  1  0  0  0  0
 10 11  2  0  0  0  0
 11 12  1  0  0  0  0
 11 18  1  0  0  0  0
 12 17  1  0  0  0  0
 12 13  1  0  0  0  0
 13 14  1  0  0  0  0
 13 28  1  0  0  0  0
 13 29  1  0  0  0  0
 14 15  1  0  0  0  0
 14 30  1  0  0  0  0
 14 31  1  0  0  0  0
 15 16  1  0  0  0  0
 15 32  1  0  0  0  0
 15 33  1  0  0  0  0
 16 17  1  0  0  0  0
 16 34  1  0  0  0  0
 16 35  1  0  0  0  0
 17 36  1  0  0  0  0
 17 37  1  0  0  0  0
 18 19  1  0  0  0  0
 19 20  1  0  0  0  0
 19 38  1  0  0  0  0
 19 39  1  0  0  0  0
 20 21  1  0  0  0  0
 20 22  1  0  0  0  0
 20 40  1  0  0  0  0
 21 41  1  0  0  0  0
 22 23  1  0  0  0  0
 22 42  1  0  0  0  0
 22 43  1  0  0  0  0
 23 44  1  0  0  0  0
M  END
> <s_m_source_file>
AV-unprocessed.smi

> <i_m_source_file_index>
2559

> <i_lp_mmshare_version>
43012

> <i_f3d_flags>
0

> <s_epik_input>
Tz1jMVtuSF1jKD1PKW4oW0NIM10pYyhjMTIpbmMobjJbQ0gyXVtDQEhdKFtPSF0pW0NIMl1bT0hdKU4zW0NIMl1bQ0gyXVtDSDJdW0NIMl1bQ0gyXTM=

> <s_epik_cmdline>
J2VwaWtfcHl0aG9uJywgJy1waCcsICc3LjAnLCAnLXRuJywgJzgnLCAnLW1hJywgJzIwMCcsICctbWV0YWxfYmluZGluZycsICctaW1hZScsICc8aW5maWxlLm1hZT4nLCAnLW9tYWUnLCAnPG91dGZpbGUubWFlPic=

> <r_lp_tautomer_probability>
1

> <r_epik_Ionization_Penalty>
0.0023969

> <r_epik_Ionization_Penalty_Charging>
9.35512e-05

> <r_epik_Ionization_Penalty_Neutral>
0.00230335

> <r_epik_State_Penalty>
-0

> <r_epik_Charging_Adjusted_Penalty>
9.35512e-05

> <i_epik_Tot_Q>
0

> <i_epik_Tot_abs_Q>
0

> <r_epik_Metal_State_Penalty>
0.0757518

> <b_epik_Metal_Only>
0

> <s_lp_Force_Field>
OPLS_2005

> <r_lp_Energy>
44.2112

> <b_lp_Chiralities_Consistent>
1

> <s_lp_Variant>
AV-unprocessed.smi:2559-1

> <Gold.Version>
5.8.1

> <Gold.Id.Protein>
6NUR|6NUR_protein|mol2

> <Gold.PLP.Fitness>
52.5824

> <Gold.PLP.PLP>
-46.8998

> <Gold.PLP.part.hbond>
-2.9800

> <Gold.PLP.part.metal>
0.0000

> <Gold.PLP.part.buried>
-5.4967

> <Gold.PLP.part.nonpolar>
-39.4546

> <Gold.PLP.part.repulsive>
0.1070

> <Gold.PLP.ligand.clash>
0.0000

> <Gold.PLP.ligand.torsion>
1.9081

> <Gold.PLP.Chemscore.Hbond>
2.9913

> <Gold.PLP.Chemscore.CHOScore>
0.0000

> <Gold.PLP.Chemscore.Metal>
0.0000

> <Gold.Chemscore.Hbonds>
donor molecule, donor type, donor heavy atom, donor atom, acceptor molecule, acceptor atom, score
      L1  H    21    41       P1  8028  1.00
      P1  H  6896  6907       L1     4  1.00
      P1  H  7989  7998       L1    23  1.00

> <Gold.PLP.Chemscore.Internal.Correction>
0.5250

> <Gold.Rescore>
     Score         DG    S(hbond)    S(metal)    S(lipo)     H(rot)  DE(clash)    DE(int)     intcor
     14.16     -17.80       2.68        0.00      93.70       2.97       0.39       3.26       ----

> <Gold.Chemscore.Fitness>
14.1584

> <Gold.Chemscore.DG>
-17.8018

> <Gold.Chemscore.ZeroCoef>
-5.4800

> <Gold.Chemscore.Hbond>
2.6822

> <Gold.Chemscore.Metal>
0.0000

> <Gold.Chemscore.Lipo>
93.6986

> <Gold.Chemscore.Internal_Hbond>
0.0000

> <Gold.Chemscore.DEClash>
0.3870

> <Gold.Chemscore.DEInternal>
3.2564

> <Gold.Chemscore.Rot>
2.9685

> <Gold.Chemscore.Internal.Correction>
   9.000000E+99

> <Gold.Chemscore.Hbonds>
donor molecule, donor type, donor heavy atom, donor atom, acceptor molecule, acceptor atom, score
      L1  H    21    41       P1  8028  0.95
      P1  H  6896  6907       L1     4  0.34
      P1  H  7989  7998       L1    23  0.86

> <Gold.Chemscore.Hbond.Weighted>
-8.9584

> <Gold.Chemscore.Metal.Weighted>
-0.0000

> <Gold.Chemscore.Lipo.Weighted>
-10.9627

> <Gold.Chemscore.Internal_Hbond.Weighted>
0.0000

> <Gold.Chemscore.DEClash.Weighted>
0.3870

> <Gold.Chemscore.DEInternal.Weighted>
3.2564

> <Gold.Chemscore.Rot.Weighted>
7.5994

> <Gold.Chemscore.Internal.Correction.Weighted>
   9.000000E+99

> <Gold.Protein.RotatedTorsions>
[ 6907 6896 6895 6894 ] final   33.78 input  -60.11 | X-H torsion
[ 7974 7965 7964 7962 ] final  113.21 input  175.53 | X-H torsion
[ 8008 7997 7996 7995 ] final   55.30 input   59.86 | X-H torsion
[ 10167 10162 10161 10158 ] final  -27.74 input  -65.29 | X-H torsion
[ 10718 10713 10712 10709 ] final -143.20 input   66.30 | X-H torsion
[ 10763 10752 10751 10750 ] final   -7.95 input  -60.55 | X-H torsion
[ 11005 11000 10999 10996 ] final  108.87 input  -57.11 | X-H torsion

> <Gold.Protein.ActiveResidues>
 VAL166  LYS551  ARG553  GLY616  TRP617  ASP618  TYR619  PRO620  LYS621  CYS622 
 ASP623  PHE694  ASN695  SER759  ASP760  ASP761  ALA762  ILE779  LEU786  VAL792 
 PHE793  MET794  SER795  GLU796  ALA797  LYS798  CYS799  TRP800  GLU811  SER814 

> <Gold.Protein.RotatedAtoms>
  152.0933  134.9392  160.0571 H   0  0  0  0  0  0  0  0  0  0  0  0  # atno 6907 bound_to 6896
  152.0635  133.4068  159.4436 H   0  0  0  0  0  0  0  0  0  0  0  0  # atno 6908 bound_to 6896
  150.6837  134.3093  159.4783 H   0  0  0  0  0  0  0  0  0  0  0  0  # atno 6909 bound_to 6896
  145.2198  139.2867  143.4224 H   0  0  0  0  0  0  0  0  0  0  0  0  # atno 7974 bound_to 7965
  155.4989  140.3474  155.4367 H   0  0  0  0  0  0  0  0  0  0  0  0  # atno 8008 bound_to 7997
  156.0927  140.1415  156.9599 H   0  0  0  0  0  0  0  0  0  0  0  0  # atno 8009 bound_to 7997
  154.4645  140.0923  156.6959 H   0  0  0  0  0  0  0  0  0  0  0  0  # atno 8010 bound_to 7997
  140.7275  143.4068  151.1172 H   0  0  0  0  0  0  0  0  0  0  0  0  # atno 10167 bound_to 10162
  156.3551  130.7708  151.1867 H   0  0  0  0  0  0  0  0  0  0  0  0  # atno 10718 bound_to 10713
  153.4335  135.7012  153.6215 H   0  0  0  0  0  0  0  0  0  0  0  0  # atno 10763 bound_to 10752
  153.4619  135.3734  155.2343 H   0  0  0  0  0  0  0  0  0  0  0  0  # atno 10764 bound_to 10752
  154.8726  135.4022  154.3723 H   0  0  0  0  0  0  0  0  0  0  0  0  # atno 10765 bound_to 10752
  139.8851  134.9442  156.6039 H   0  0  0  0  0  0  0  0  0  0  0  0  # atno 11005 bound_to 11000
  146.3378  140.2500  142.8598 LP  0  0  0  0  0  0  0  0  0  0  0  0  # atno 17320 bound_to 7965
  144.9776  140.8429  143.5417 LP  0  0  0  0  0  0  0  0  0  0  0  0  # atno 17321 bound_to 7965
  139.7695  143.8515  152.3117 LP  0  0  0  0  0  0  0  0  0  0  0  0  # atno 17342 bound_to 10162
  139.8428  144.7202  150.9309 LP  0  0  0  0  0  0  0  0  0  0  0  0  # atno 17343 bound_to 10162
  157.7466  131.0416  150.4655 LP  0  0  0  0  0  0  0  0  0  0  0  0  # atno 17370 bound_to 10713
  156.4857  130.4084  149.6436 LP  0  0  0  0  0  0  0  0  0  0  0  0  # atno 17371 bound_to 10713
  140.7863  133.8619  155.8609 LP  0  0  0  0  0  0  0  0  0  0  0  0  # atno 17394 bound_to 11000
  140.9716  134.1523  157.4571 LP  0  0  0  0  0  0  0  0  0  0  0  0  # atno 17395 bound_to 11000

$$$$
