AV-unprocessed.smi:3322|AV-procd|sdf|12774|dock6
  -GOLD-   2272019113D 1   1.00000     0.00000
 Structure written by MMmdl.
 39 40  0  0  0  0  0  0  0  0  2 V2000
  145.7374  135.8753  154.5261 C   0  0  0  0  0  0  0  0  0  0  0  0
  146.4348  134.7732  153.7109 C   0  0  1  0  0  0  0  0  0  0  0  0
  146.4919  135.1859  152.2879 N   0  3  0  0  0  0  0  0  0  0  0  0
  145.3225  135.9531  151.8081 C   0  0  0  0  0  0  0  0  0  0  0  0
  144.6980  135.2874  150.5743 C   0  0  0  0  0  0  0  0  0  0  0  0
  144.8302  133.8445  150.6211 N   0  0  0  0  0  0  0  0  0  0  0  0
  143.8355  132.8935  150.7096 C   0  0  0  0  0  0  0  0  0  0  0  0
  144.4434  131.6710  150.7214 C   0  0  0  0  0  0  0  0  0  0  0  0
  145.8297  131.9813  150.6378 C   0  0  0  0  0  0  0  0  0  0  0  0
  146.0578  133.2836  150.5780 N   0  0  0  0  0  0  0  0  0  0  0  0
  147.8415  134.4918  154.2842 C   0  0  0  0  0  0  0  0  0  0  0  0
  148.2452  135.2095  155.2015 O   0  0  0  0  0  0  0  0  0  0  0  0
  148.5931  133.4777  153.7864 N   0  0  0  0  0  0  0  0  0  0  0  0
  148.1910  132.5001  152.7680 C   0  0  0  0  0  0  0  0  0  0  0  0
  148.2097  131.0957  153.4000 C   0  0  0  0  0  0  0  0  0  0  0  0
  149.5059  130.8164  153.9208 O   0  0  0  0  0  0  0  0  0  0  0  0
  149.9260  131.7604  154.9015 C   0  0  0  0  0  0  0  0  0  0  0  0
  149.9389  133.1692  154.2833 C   0  0  0  0  0  0  0  0  0  0  0  0
  145.6352  135.6015  155.5763 H   0  0  0  0  0  0  0  0  0  0  0  0
  144.7343  136.0671  154.1440 H   0  0  0  0  0  0  0  0  0  0  0  0
  146.2915  136.8140  154.4839 H   0  0  0  0  0  0  0  0  0  0  0  0
  145.8271  133.8693  153.7407 H   0  0  0  0  0  0  0  0  0  0  0  0
  147.3081  135.7676  152.1638 H   0  0  0  0  0  0  0  0  0  0  0  0
  144.5770  136.0264  152.6009 H   0  0  0  0  0  0  0  0  0  0  0  0
  145.6371  136.9696  151.5676 H   0  0  0  0  0  0  0  0  0  0  0  0
  143.6387  135.5370  150.4959 H   0  0  0  0  0  0  0  0  0  0  0  0
  145.1783  135.6495  149.6642 H   0  0  0  0  0  0  0  0  0  0  0  0
  142.7899  133.1615  150.7553 H   0  0  0  0  0  0  0  0  0  0  0  0
  143.9699  130.7022  150.7815 H   0  0  0  0  0  0  0  0  0  0  0  0
  146.6707  131.3039  150.6186 H   0  0  0  0  0  0  0  0  0  0  0  0
  147.2075  132.6774  152.3399 H   0  0  0  0  0  0  0  0  0  0  0  0
  148.8922  132.5442  151.9333 H   0  0  0  0  0  0  0  0  0  0  0  0
  147.4656  131.0157  154.1940 H   0  0  0  0  0  0  0  0  0  0  0  0
  147.9614  130.3422  152.6526 H   0  0  0  0  0  0  0  0  0  0  0  0
  149.2644  131.7204  155.7684 H   0  0  0  0  0  0  0  0  0  0  0  0
  150.9237  131.4899  155.2472 H   0  0  0  0  0  0  0  0  0  0  0  0
  150.6468  133.2081  153.4540 H   0  0  0  0  0  0  0  0  0  0  0  0
  150.3007  133.8876  155.0198 H   0  0  0  0  0  0  0  0  0  0  0  0
  146.5978  134.3564  151.7211 H   0  0  0  0  0  0  0  0  0  0  0  0
  1  2  1  0  0  0  0
  1 19  1  0  0  0  0
  1 20  1  0  0  0  0
  1 21  1  0  0  0  0
  2  3  1  0  0  0  0
  2 11  1  0  0  0  0
  2 22  1  0  0  0  0
  3  4  1  0  0  0  0
  3 23  1  0  0  0  0
  3 39  1  0  0  0  0
  4  5  1  0  0  0  0
  4 24  1  0  0  0  0
  4 25  1  0  0  0  0
  5  6  1  0  0  0  0
  5 26  1  0  0  0  0
  5 27  1  0  0  0  0
  6 10  1  0  0  0  0
  6  7  1  0  0  0  0
  7  8  2  0  0  0  0
  7 28  1  0  0  0  0
  8  9  1  0  0  0  0
  8 29  1  0  0  0  0
  9 10  2  0  0  0  0
  9 30  1  0  0  0  0
 11 12  2  0  0  0  0
 11 13  1  0  0  0  0
 13 18  1  0  0  0  0
 13 14  1  0  0  0  0
 14 15  1  0  0  0  0
 14 31  1  0  0  0  0
 14 32  1  0  0  0  0
 15 16  1  0  0  0  0
 15 33  1  0  0  0  0
 15 34  1  0  0  0  0
 16 17  1  0  0  0  0
 17 18  1  0  0  0  0
 17 35  1  0  0  0  0
 17 36  1  0  0  0  0
 18 37  1  0  0  0  0
 18 38  1  0  0  0  0
M  CHG  1   3   1
M  END
> <s_m_source_file>
AV-unprocessed.smi

> <i_m_source_file_index>
3322

> <i_lp_mmshare_version>
43012

> <i_f3d_flags>
0

> <s_epik_input>
W0NIMl0xW0NIMl1PW0NIMl1bQ0gyXU4xQyg9TylbQ0BIXShbQ0gzXSlbTkhdW0NIMl1bQ0gyXW4yW2NIXVtjSF1bY0hdbjI=

> <s_epik_cmdline>
J2VwaWtfcHl0aG9uJywgJy1waCcsICc3LjAnLCAnLXRuJywgJzgnLCAnLW1hJywgJzIwMCcsICctbWV0YWxfYmluZGluZycsICctaW1hZScsICc8aW5maWxlLm1hZT4nLCAnLW9tYWUnLCAnPG91dGZpbGUubWFlPic=

> <r_lp_tautomer_probability>
1

> <r_epik_Ionization_Penalty>
0.3254

> <r_epik_Ionization_Penalty_Charging>
0.325398

> <r_epik_Ionization_Penalty_Neutral>
2.29478e-06

> <r_epik_State_Penalty>
0.320187

> <r_epik_Charging_Adjusted_Penalty>
0.645585

> <i_epik_Tot_Q>
1

> <i_epik_Tot_abs_Q>
1

> <r_epik_Metal_State_Penalty>
0.320558

> <b_epik_Metal_Only>
0

> <s_lp_Force_Field>
OPLS_2005

> <r_lp_Energy>
25.7531

> <b_lp_Chiralities_Consistent>
1

> <s_lp_Variant>
AV-unprocessed.smi:3322-2

> <Gold.Version>
5.8.1

> <Gold.Id.Protein>
6NUR|6NUR_protein|mol2

> <Gold.PLP.Fitness>
42.1668

> <Gold.PLP.PLP>
-31.8444

> <Gold.PLP.part.hbond>
-1.0000

> <Gold.PLP.part.metal>
0.0000

> <Gold.PLP.part.buried>
-3.6667

> <Gold.PLP.part.nonpolar>
-27.1734

> <Gold.PLP.part.repulsive>
0.3553

> <Gold.PLP.ligand.clash>
0.0000

> <Gold.PLP.ligand.torsion>
0.8478

> <Gold.PLP.Chemscore.Hbond>
2.0000

> <Gold.PLP.Chemscore.CHOScore>
2.0000

> <Gold.PLP.Chemscore.Metal>
0.0000

> <Gold.Chemscore.Hbonds>
donor molecule, donor type, donor heavy atom, donor atom, acceptor molecule, acceptor atom, score
      L1  H     3    23       P1  7948  2.00
      L1  C     7    28       P1 10186  1.00
      L1  C     9    30       P1 10747  1.00

> <Gold.PLP.Chemscore.Internal.Correction>
0.0180

> <Gold.Rescore>
     Score         DG    S(hbond)    S(metal)    S(lipo)     H(rot)  DE(clash)    DE(int)     intcor
      9.41     -11.80       1.00        0.00      67.31       1.91       0.05       2.33       ----

> <Gold.Chemscore.Fitness>
9.4115

> <Gold.Chemscore.DG>
-11.8009

> <Gold.Chemscore.ZeroCoef>
-5.4800

> <Gold.Chemscore.Hbond>
0.9980

> <Gold.Chemscore.Metal>
0.0000

> <Gold.Chemscore.Lipo>
67.3146

> <Gold.Chemscore.Internal_Hbond>
0.0000

> <Gold.Chemscore.DEClash>
0.0545

> <Gold.Chemscore.DEInternal>
2.3349

> <Gold.Chemscore.Rot>
1.9095

> <Gold.Chemscore.Internal.Correction>
   9.000000E+99

> <Gold.Chemscore.Hbonds>
donor molecule, donor type, donor heavy atom, donor atom, acceptor molecule, acceptor atom, score
      L1  H     3    23       P1  7948  0.99

> <Gold.Chemscore.Hbond.Weighted>
-3.3334

> <Gold.Chemscore.Metal.Weighted>
-0.0000

> <Gold.Chemscore.Lipo.Weighted>
-7.8758

> <Gold.Chemscore.Internal_Hbond.Weighted>
0.0000

> <Gold.Chemscore.DEClash.Weighted>
0.0545

> <Gold.Chemscore.DEInternal.Weighted>
2.3349

> <Gold.Chemscore.Rot.Weighted>
4.8884

> <Gold.Chemscore.Internal.Correction.Weighted>
   9.000000E+99

> <Gold.Protein.RotatedTorsions>
[ 6907 6896 6895 6894 ] final   22.05 input  -60.11 | X-H torsion
[ 7974 7965 7964 7962 ] final  -81.63 input  175.53 | X-H torsion
[ 8008 7997 7996 7995 ] final -111.69 input   59.86 | X-H torsion
[ 10167 10162 10161 10158 ] final -137.51 input  -65.29 | X-H torsion
[ 10718 10713 10712 10709 ] final   81.26 input   66.30 | X-H torsion
[ 10763 10752 10751 10750 ] final  123.35 input  -60.55 | X-H torsion
[ 11005 11000 10999 10996 ] final  -81.23 input  -57.11 | X-H torsion

> <Gold.Protein.ActiveResidues>
 VAL166  LYS551  ARG553  GLY616  TRP617  ASP618  TYR619  PRO620  LYS621  CYS622 
 ASP623  PHE694  ASN695  SER759  ASP760  ASP761  ALA762  ILE779  LEU786  VAL792 
 PHE793  MET794  SER795  GLU796  ALA797  LYS798  CYS799  TRP800  GLU811  SER814 

> <Gold.Protein.RotatedAtoms>
  151.9212  135.0297  160.0521 H   0  0  0  0  0  0  0  0  0  0  0  0  # atno 6907 bound_to 6896
  152.2198  133.4970  159.5164 H   0  0  0  0  0  0  0  0  0  0  0  0  # atno 6908 bound_to 6896
  150.6997  134.1274  159.4100 H   0  0  0  0  0  0  0  0  0  0  0  0  # atno 6909 bound_to 6896
  145.5441  140.9506  143.1535 H   0  0  0  0  0  0  0  0  0  0  0  0  # atno 7974 bound_to 7965
  154.9936  140.0395  157.2330 H   0  0  0  0  0  0  0  0  0  0  0  0  # atno 8008 bound_to 7997
  154.7606  140.2784  155.6194 H   0  0  0  0  0  0  0  0  0  0  0  0  # atno 8009 bound_to 7997
  156.2903  140.2629  156.2384 H   0  0  0  0  0  0  0  0  0  0  0  0  # atno 8010 bound_to 7997
  139.8570  143.7125  152.2653 H   0  0  0  0  0  0  0  0  0  0  0  0  # atno 10167 bound_to 10162
  157.6828  130.9996  150.2200 H   0  0  0  0  0  0  0  0  0  0  0  0  # atno 10718 bound_to 10713
  153.6441  135.3374  155.3080 H   0  0  0  0  0  0  0  0  0  0  0  0  # atno 10763 bound_to 10752
  154.8553  135.4325  154.1973 H   0  0  0  0  0  0  0  0  0  0  0  0  # atno 10764 bound_to 10752
  153.2900  135.7016  153.7377 H   0  0  0  0  0  0  0  0  0  0  0  0  # atno 10765 bound_to 10752
  141.1667  133.7187  156.8392 H   0  0  0  0  0  0  0  0  0  0  0  0  # atno 11005 bound_to 11000
  144.7562  139.7068  143.7253 LP  0  0  0  0  0  0  0  0  0  0  0  0  # atno 17320 bound_to 7965
  146.1961  139.5229  142.9773 LP  0  0  0  0  0  0  0  0  0  0  0  0  # atno 17321 bound_to 7965
  139.7410  144.7559  151.0653 LP  0  0  0  0  0  0  0  0  0  0  0  0  # atno 17342 bound_to 10162
  140.7780  143.4973  150.9817 LP  0  0  0  0  0  0  0  0  0  0  0  0  # atno 17343 bound_to 10162
  156.2854  130.3738  149.7894 LP  0  0  0  0  0  0  0  0  0  0  0  0  # atno 17370 bound_to 10713
  156.5570  130.8367  151.3317 LP  0  0  0  0  0  0  0  0  0  0  0  0  # atno 17371 bound_to 10713
  140.1995  134.8907  157.3153 LP  0  0  0  0  0  0  0  0  0  0  0  0  # atno 17394 bound_to 11000
  140.2202  134.4032  155.7569 LP  0  0  0  0  0  0  0  0  0  0  0  0  # atno 17395 bound_to 11000

$$$$
