AV-unprocessed.smi:1444|AV-procd|sdf|5881|dock2
  -GOLD-   22720 5563D 1   1.00000     0.00000
 Structure written by MMmdl.
 43 44  0  0  0  0  0  0  0  0  1 V2000
  146.5172  132.9481  150.4553 C   0  0  0  0  0  0  0  0  0  0  0  0
  146.4062  134.1680  151.1806 O   0  0  0  0  0  0  0  0  0  0  0  0
  145.1673  134.5335  151.6726 C   0  0  0  0  0  0  0  0  0  0  0  0
  144.1036  133.7399  151.3906 N   0  0  0  0  0  0  0  0  0  0  0  0
  142.8945  134.0894  151.8747 C   0  0  0  0  0  0  0  0  0  0  0  0
  142.6832  135.2343  152.6637 C   0  0  0  0  0  0  0  0  0  0  0  0
  143.7847  136.0596  152.9574 C   0  0  0  0  0  0  0  0  0  0  0  0
  145.0598  135.7138  152.4457 C   0  0  0  0  0  0  0  0  0  0  0  0
  146.2479  136.4611  152.6842 N   0  0  0  0  0  0  0  0  0  0  0  0
  146.4523  137.4975  153.5155 C   0  0  0  0  0  0  0  0  0  0  0  0
  145.6045  138.0073  154.2470 O   0  0  0  0  0  0  0  0  0  0  0  0
  147.7216  137.9248  153.4457 N   0  0  0  0  0  0  0  0  0  0  0  0
  148.2931  139.0272  154.2162 C   0  0  2  0  0  0  0  0  0  0  0  0
  147.7526  140.3383  153.6237 C   0  0  0  0  0  0  0  0  0  0  0  0
  149.8361  138.8896  154.2130 C   0  0  0  0  0  0  0  0  0  0  0  0
  150.5240  139.1594  155.4793 N   0  0  0  0  0  0  0  0  0  0  0  0
  150.8555  140.5739  155.6543 C   0  0  0  0  0  0  0  0  0  0  0  0
  151.6043  140.8329  156.9735 C   0  0  0  0  0  0  0  0  0  0  0  0
  152.7856  140.0402  157.0159 O   0  0  0  0  0  0  0  0  0  0  0  0
  152.5139  138.6493  156.8864 C   0  0  0  0  0  0  0  0  0  0  0  0
  151.7637  138.3913  155.5681 C   0  0  0  0  0  0  0  0  0  0  0  0
  147.5531  132.8034  150.1492 H   0  0  0  0  0  0  0  0  0  0  0  0
  145.9047  132.9622  149.5527 H   0  0  0  0  0  0  0  0  0  0  0  0
  146.2323  132.0923  151.0689 H   0  0  0  0  0  0  0  0  0  0  0  0
  142.0719  133.4337  151.6303 H   0  0  0  0  0  0  0  0  0  0  0  0
  141.6988  135.4723  153.0387 H   0  0  0  0  0  0  0  0  0  0  0  0
  143.6244  136.9277  153.5760 H   0  0  0  0  0  0  0  0  0  0  0  0
  147.0363  136.1964  152.1120 H   0  0  0  0  0  0  0  0  0  0  0  0
  148.3459  137.4469  152.8124 H   0  0  0  0  0  0  0  0  0  0  0  0
  147.9341  138.9547  155.2446 H   0  0  0  0  0  0  0  0  0  0  0  0
  147.9007  141.1760  154.3026 H   0  0  0  0  0  0  0  0  0  0  0  0
  146.6769  140.2757  153.4533 H   0  0  0  0  0  0  0  0  0  0  0  0
  148.2262  140.5743  152.6702 H   0  0  0  0  0  0  0  0  0  0  0  0
  150.0473  137.8564  153.9321 H   0  0  0  0  0  0  0  0  0  0  0  0
  150.2696  139.4918  153.4132 H   0  0  0  0  0  0  0  0  0  0  0  0
  151.4725  140.9145  154.8213 H   0  0  0  0  0  0  0  0  0  0  0  0
  149.9620  141.1898  155.6436 H   0  0  0  0  0  0  0  0  0  0  0  0
  151.8790  141.8849  157.0536 H   0  0  0  0  0  0  0  0  0  0  0  0
  150.9700  140.6006  157.8304 H   0  0  0  0  0  0  0  0  0  0  0  0
  153.4552  138.0999  156.9010 H   0  0  0  0  0  0  0  0  0  0  0  0
  151.9269  138.3046  157.7390 H   0  0  0  0  0  0  0  0  0  0  0  0
  151.5454  137.3257  155.4893 H   0  0  0  0  0  0  0  0  0  0  0  0
  152.4146  138.6391  154.7280 H   0  0  0  0  0  0  0  0  0  0  0  0
  1  2  1  0  0  0  0
  1 22  1  0  0  0  0
  1 23  1  0  0  0  0
  1 24  1  0  0  0  0
  2  3  1  0  0  0  0
  3  8  1  0  0  0  0
  3  4  2  0  0  0  0
  4  5  1  0  0  0  0
  5  6  2  0  0  0  0
  5 25  1  0  0  0  0
  6  7  1  0  0  0  0
  6 26  1  0  0  0  0
  7  8  2  0  0  0  0
  7 27  1  0  0  0  0
  8  9  1  0  0  0  0
  9 10  1  0  0  0  0
  9 28  1  0  0  0  0
 10 11  2  0  0  0  0
 10 12  1  0  0  0  0
 12 13  1  0  0  0  0
 12 29  1  0  0  0  0
 13 14  1  0  0  0  0
 13 15  1  0  0  0  0
 13 30  1  0  0  0  0
 14 31  1  0  0  0  0
 14 32  1  0  0  0  0
 14 33  1  0  0  0  0
 15 16  1  0  0  0  0
 15 34  1  0  0  0  0
 15 35  1  0  0  0  0
 16 21  1  0  0  0  0
 16 17  1  0  0  0  0
 17 18  1  0  0  0  0
 17 36  1  0  0  0  0
 17 37  1  0  0  0  0
 18 19  1  0  0  0  0
 18 38  1  0  0  0  0
 18 39  1  0  0  0  0
 19 20  1  0  0  0  0
 20 21  1  0  0  0  0
 20 40  1  0  0  0  0
 20 41  1  0  0  0  0
 21 42  1  0  0  0  0
 21 43  1  0  0  0  0
M  END
> <s_m_source_file>
AV-unprocessed.smi

> <i_m_source_file_index>
1444

> <i_lp_mmshare_version>
43012

> <i_f3d_flags>
0

> <s_epik_input>
W0NIM11PYzFuW2NIXVtjSF1bY0hdYzFbTkhdQyg9TylbTkhdW0NASF0oW0NIM10pW0NIMl1OMltDSDJdW0NIMl1PW0NIMl1bQ0gyXTI=

> <s_epik_cmdline>
J2VwaWtfcHl0aG9uJywgJy1waCcsICc3LjAnLCAnLXRuJywgJzgnLCAnLW1hJywgJzIwMCcsICctbWV0YWxfYmluZGluZycsICctaW1hZScsICc8aW5maWxlLm1hZT4nLCAnLW9tYWUnLCAnPG91dGZpbGUubWFlPic=

> <r_lp_tautomer_probability>
1

> <r_epik_Ionization_Penalty>
0.266086

> <r_epik_Ionization_Penalty_Charging>
0

> <r_epik_Ionization_Penalty_Neutral>
0.266086

> <r_epik_State_Penalty>
0.257924

> <r_epik_Charging_Adjusted_Penalty>
0.257924

> <i_epik_Tot_Q>
0

> <i_epik_Tot_abs_Q>
0

> <r_epik_Metal_State_Penalty>
0.25792

> <b_epik_Metal_Only>
0

> <s_lp_Force_Field>
OPLS_2005

> <r_lp_Energy>
29.2367

> <b_lp_Chiralities_Consistent>
1

> <s_lp_Variant>
AV-unprocessed.smi:1444-1

> <Gold.Version>
5.8.1

> <Gold.Id.Protein>
6NUR|6NUR_protein|mol2

> <Gold.PLP.Fitness>
35.3427

> <Gold.PLP.PLP>
-27.0319

> <Gold.PLP.part.hbond>
-3.0000

> <Gold.PLP.part.metal>
0.0000

> <Gold.PLP.part.buried>
-1.7507

> <Gold.PLP.part.nonpolar>
-22.2693

> <Gold.PLP.part.repulsive>
0.4992

> <Gold.PLP.ligand.clash>
0.0000

> <Gold.PLP.ligand.torsion>
1.1586

> <Gold.PLP.Chemscore.Hbond>
2.9760

> <Gold.PLP.Chemscore.CHOScore>
0.5077

> <Gold.PLP.Chemscore.Metal>
0.0000

> <Gold.Chemscore.Hbonds>
donor molecule, donor type, donor heavy atom, donor atom, acceptor molecule, acceptor atom, score
      L1  H     9    28       P1  7948  0.98
      L1  H    12    29       P1  7948  1.00
      P1  H  7997  8010       L1    19  1.00
      L1  C     5    25       P1 10186  0.51

> <Gold.PLP.Chemscore.Internal.Correction>
0.1770

> <Gold.Rescore>
     Score         DG    S(hbond)    S(metal)    S(lipo)     H(rot)  DE(clash)    DE(int)     intcor
     16.05     -18.46       2.86        0.00      66.93       1.72       0.03       2.38       ----

> <Gold.Chemscore.Fitness>
16.0481

> <Gold.Chemscore.DG>
-18.4557

> <Gold.Chemscore.ZeroCoef>
-5.4800

> <Gold.Chemscore.Hbond>
2.8580

> <Gold.Chemscore.Metal>
0.0000

> <Gold.Chemscore.Lipo>
66.9278

> <Gold.Chemscore.Internal_Hbond>
0.0000

> <Gold.Chemscore.DEClash>
0.0276

> <Gold.Chemscore.DEInternal>
2.3800

> <Gold.Chemscore.Rot>
1.7189

> <Gold.Chemscore.Internal.Correction>
   9.000000E+99

> <Gold.Chemscore.Hbonds>
donor molecule, donor type, donor heavy atom, donor atom, acceptor molecule, acceptor atom, score
      L1  H     9    28       P1  7948  0.93
      L1  H    12    29       P1  7948  0.99
      P1  H  7997  8010       L1    19  0.34

> <Gold.Chemscore.Hbond.Weighted>
-9.5456

> <Gold.Chemscore.Metal.Weighted>
-0.0000

> <Gold.Chemscore.Lipo.Weighted>
-7.8305

> <Gold.Chemscore.Internal_Hbond.Weighted>
0.0000

> <Gold.Chemscore.DEClash.Weighted>
0.0276

> <Gold.Chemscore.DEInternal.Weighted>
2.3800

> <Gold.Chemscore.Rot.Weighted>
4.4004

> <Gold.Chemscore.Internal.Correction.Weighted>
   9.000000E+99

> <Gold.Protein.RotatedTorsions>
[ 6907 6896 6895 6894 ] final   96.15 input  -60.11 | X-H torsion
[ 7974 7965 7964 7962 ] final   82.20 input  175.53 | X-H torsion
[ 8008 7997 7996 7995 ] final   71.17 input   59.86 | X-H torsion
[ 10167 10162 10161 10158 ] final   78.76 input  -65.29 | X-H torsion
[ 10718 10713 10712 10709 ] final -164.32 input   66.30 | X-H torsion
[ 10763 10752 10751 10750 ] final  165.94 input  -60.55 | X-H torsion
[ 11005 11000 10999 10996 ] final  -65.86 input  -57.11 | X-H torsion

> <Gold.Protein.ActiveResidues>
 VAL166  LYS551  ARG553  GLY616  TRP617  ASP618  TYR619  PRO620  LYS621  CYS622 
 ASP623  PHE694  ASN695  SER759  ASP760  ASP761  ALA762  ILE779  LEU786  VAL792 
 PHE793  MET794  SER795  GLU796  ALA797  LYS798  CYS799  TRP800  GLU811  SER814 

> <Gold.Protein.RotatedAtoms>
  152.5437  134.0931  159.8285 H   0  0  0  0  0  0  0  0  0  0  0  0  # atno 6907 bound_to 6896
  151.1018  133.5230  159.2617 H   0  0  0  0  0  0  0  0  0  0  0  0  # atno 6908 bound_to 6896
  151.1983  135.0441  159.8915 H   0  0  0  0  0  0  0  0  0  0  0  0  # atno 6909 bound_to 6896
  145.6281  139.2399  143.2100 H   0  0  0  0  0  0  0  0  0  0  0  0  # atno 7974 bound_to 7965
  155.7499  140.3489  155.5145 H   0  0  0  0  0  0  0  0  0  0  0  0  # atno 8008 bound_to 7997
  155.9015  140.1035  157.1368 H   0  0  0  0  0  0  0  0  0  0  0  0  # atno 8009 bound_to 7997
  154.4044  140.1285  156.4428 H   0  0  0  0  0  0  0  0  0  0  0  0  # atno 8010 bound_to 7997
  139.9675  144.5917  150.8015 H   0  0  0  0  0  0  0  0  0  0  0  0  # atno 10167 bound_to 10162
  156.6373  130.8954  151.2989 H   0  0  0  0  0  0  0  0  0  0  0  0  # atno 10718 bound_to 10713
  154.3315  135.2754  155.2469 H   0  0  0  0  0  0  0  0  0  0  0  0  # atno 10763 bound_to 10752
  154.4779  135.5866  153.6371 H   0  0  0  0  0  0  0  0  0  0  0  0  # atno 10764 bound_to 10752
  152.9866  135.6104  154.3508 H   0  0  0  0  0  0  0  0  0  0  0  0  # atno 10765 bound_to 10752
  141.1466  133.6689  156.6051 H   0  0  0  0  0  0  0  0  0  0  0  0  # atno 11005 bound_to 11000
  146.1378  140.7099  142.9381 LP  0  0  0  0  0  0  0  0  0  0  0  0  # atno 17320 bound_to 7965
  144.7204  140.4354  143.7012 LP  0  0  0  0  0  0  0  0  0  0  0  0  # atno 17321 bound_to 7965
  140.7533  143.3005  151.3092 LP  0  0  0  0  0  0  0  0  0  0  0  0  # atno 17342 bound_to 10162
  139.6506  144.0369  152.2623 LP  0  0  0  0  0  0  0  0  0  0  0  0  # atno 17343 bound_to 10162
  157.7182  130.9524  150.1335 LP  0  0  0  0  0  0  0  0  0  0  0  0  # atno 17370 bound_to 10713
  156.2187  130.3672  149.8582 LP  0  0  0  0  0  0  0  0  0  0  0  0  # atno 17371 bound_to 10713
  140.3658  134.7648  157.4565 LP  0  0  0  0  0  0  0  0  0  0  0  0  # atno 17394 bound_to 11000
  140.0749  134.5811  155.8602 LP  0  0  0  0  0  0  0  0  0  0  0  0  # atno 17395 bound_to 11000

$$$$
