AV-unprocessed.smi:103|AV-procd|sdf|991|dock3
  -GOLD-   2262017563D 1   1.00000     0.00000
 Structure written by MMmdl.
 53 55  0  0  0  0  0  0  0  0  1 V2000
  141.4487  135.0445  160.1702 C   0  0  0  0  0  0  0  0  0  0  0  0
  142.6466  134.6109  159.3362 C   0  0  0  0  0  0  0  0  0  0  0  0
  142.5788  133.6554  158.5625 O   0  0  0  0  0  0  0  0  0  0  0  0
  143.7250  135.3805  159.5512 O   0  0  0  0  0  0  0  0  0  0  0  0
  145.0051  134.9356  159.1315 C   0  0  0  0  0  0  0  0  0  0  0  0
  145.8030  136.1307  158.5816 C   0  0  2  0  0  0  0  0  0  0  0  0
  145.6141  136.1666  157.1643 O   0  0  0  0  0  0  0  0  0  0  0  0
  146.8231  135.9690  156.4970 C   0  0  2  0  0  0  0  0  0  0  0  0
  146.5962  135.1250  155.2772 N   0  0  0  0  0  0  0  0  0  0  0  0
  145.4311  134.9299  154.5634 C   0  0  0  0  0  0  0  0  0  0  0  0
  143.8172  135.5842  154.9689 S   0  0  0  0  0  0  0  0  0  0  0  0
  142.8482  135.1357  153.4727 C   0  0  0  0  0  0  0  0  0  0  0  0
  143.3101  134.8199  156.1186 O   0  0  0  0  0  0  0  0  0  0  0  0
  143.9535  137.0472  155.0447 O   0  0  0  0  0  0  0  0  0  0  0  0
  145.4894  134.1005  153.5575 N   0  0  0  0  0  0  0  0  0  0  0  0
  146.8299  133.7453  153.5223 C   0  0  0  0  0  0  0  0  0  0  0  0
  147.6051  132.9133  152.6757 C   0  0  0  0  0  0  0  0  0  0  0  0
  147.0886  132.2466  151.6340 N   0  0  0  0  0  0  0  0  0  0  0  0
  148.9287  132.7870  152.9274 N   0  0  0  0  0  0  0  0  0  0  0  0
  149.4674  133.4416  153.9605 C   0  0  0  0  0  0  0  0  0  0  0  0
  148.8690  134.2490  154.8394 N   0  0  0  0  0  0  0  0  0  0  0  0
  147.5338  134.3792  154.5865 C   0  0  0  0  0  0  0  0  0  0  0  0
  147.7934  135.3342  157.5012 C   0  0  2  0  0  0  0  0  0  0  0  0
  147.6272  133.9182  157.5717 O   0  0  0  0  0  0  0  0  0  0  0  0
  148.6486  133.1202  157.9296 C   0  0  0  0  0  0  0  0  0  0  0  0
  148.1848  131.7113  158.2720 C   0  0  0  0  0  0  0  0  0  0  0  0
  149.8378  133.4351  157.9689 O   0  0  0  0  0  0  0  0  0  0  0  0
  147.3264  136.0178  158.7719 C   0  0  2  0  0  0  0  0  0  0  0  0
  147.7512  135.3170  159.9359 O   0  0  0  0  0  0  0  0  0  0  0  0
  147.6128  135.8756  161.1497 C   0  0  0  0  0  0  0  0  0  0  0  0
  147.4757  134.8365  162.2543 C   0  0  0  0  0  0  0  0  0  0  0  0
  147.5847  137.0819  161.3932 O   0  0  0  0  0  0  0  0  0  0  0  0
  141.3098  136.1239  160.1039 H   0  0  0  0  0  0  0  0  0  0  0  0
  141.6000  134.7774  161.2162 H   0  0  0  0  0  0  0  0  0  0  0  0
  140.5395  134.5578  159.8158 H   0  0  0  0  0  0  0  0  0  0  0  0
  145.5124  134.5003  159.9929 H   0  0  0  0  0  0  0  0  0  0  0  0
  144.9243  134.1541  158.3760 H   0  0  0  0  0  0  0  0  0  0  0  0
  145.4401  137.0544  159.0335 H   0  0  0  0  0  0  0  0  0  0  0  0
  147.1653  136.9345  156.1262 H   0  0  0  0  0  0  0  0  0  0  0  0
  141.8217  135.4826  153.5877 H   0  0  0  0  0  0  0  0  0  0  0  0
  142.8546  134.0536  153.3438 H   0  0  0  0  0  0  0  0  0  0  0  0
  143.2947  135.6069  152.5972 H   0  0  0  0  0  0  0  0  0  0  0  0
  146.1039  132.3263  151.4243 H   0  0  0  0  0  0  0  0  0  0  0  0
  147.6850  131.6688  151.0596 H   0  0  0  0  0  0  0  0  0  0  0  0
  150.5282  133.2982  154.1054 H   0  0  0  0  0  0  0  0  0  0  0  0
  148.8209  135.6100  157.2631 H   0  0  0  0  0  0  0  0  0  0  0  0
  147.6008  131.2964  157.4498 H   0  0  0  0  0  0  0  0  0  0  0  0
  147.5635  131.7249  159.1678 H   0  0  0  0  0  0  0  0  0  0  0  0
  149.0398  131.0593  158.4522 H   0  0  0  0  0  0  0  0  0  0  0  0
  147.7510  137.0235  158.7694 H   0  0  0  0  0  0  0  0  0  0  0  0
  148.2457  134.0710  162.1554 H   0  0  0  0  0  0  0  0  0  0  0  0
  146.4988  134.3558  162.2001 H   0  0  0  0  0  0  0  0  0  0  0  0
  147.5782  135.3036  163.2340 H   0  0  0  0  0  0  0  0  0  0  0  0
  1  2  1  0  0  0  0
  1 33  1  0  0  0  0
  1 34  1  0  0  0  0
  1 35  1  0  0  0  0
  2  3  2  0  0  0  0
  2  4  1  0  0  0  0
  4  5  1  0  0  0  0
  5  6  1  0  0  0  0
  5 36  1  0  0  0  0
  5 37  1  0  0  0  0
  6 28  1  0  0  0  0
  6  7  1  0  0  0  0
  6 38  1  0  0  0  0
  7  8  1  0  0  0  0
  8  9  1  0  0  0  0
  8 23  1  0  0  0  0
  8 39  1  0  0  0  0
  9 22  1  0  0  0  0
  9 10  1  0  0  0  0
 10 11  1  0  0  0  0
 10 15  2  0  0  0  0
 11 12  1  0  0  0  0
 11 13  2  0  0  0  0
 11 14  2  0  0  0  0
 12 40  1  0  0  0  0
 12 41  1  0  0  0  0
 12 42  1  0  0  0  0
 15 16  1  0  0  0  0
 16 22  2  0  0  0  0
 16 17  1  0  0  0  0
 17 18  1  0  0  0  0
 17 19  2  0  0  0  0
 18 43  1  0  0  0  0
 18 44  1  0  0  0  0
 19 20  1  0  0  0  0
 20 21  2  0  0  0  0
 20 45  1  0  0  0  0
 21 22  1  0  0  0  0
 23 24  1  0  0  0  0
 23 28  1  0  0  0  0
 23 46  1  0  0  0  0
 24 25  1  0  0  0  0
 25 26  1  0  0  0  0
 25 27  2  0  0  0  0
 26 47  1  0  0  0  0
 26 48  1  0  0  0  0
 26 49  1  0  0  0  0
 28 29  1  0  0  0  0
 28 50  1  0  0  0  0
 29 30  1  0  0  0  0
 30 31  1  0  0  0  0
 30 32  2  0  0  0  0
 31 51  1  0  0  0  0
 31 52  1  0  0  0  0
 31 53  1  0  0  0  0
M  END
> <s_m_source_file>
AV-unprocessed.smi

> <i_m_source_file_index>
103

> <i_lp_mmshare_version>
43012

> <i_f3d_flags>
0

> <s_epik_input>
W0NIM11DKD1PKU9bQ0gyXVtDQEBIXTFPW0NASF0oW0NAQEhdKE9DKD1PKVtDSDNdKVtDQEhdMU9DKD1PKVtDSDNdKW4oYyhuMilTKD1PKSg9TylbQ0gzXSljKGMyMyluW2NIXW5jM1tOSDJd

> <s_epik_cmdline>
J2VwaWtfcHl0aG9uJywgJy1waCcsICc3LjAnLCAnLXRuJywgJzgnLCAnLW1hJywgJzIwMCcsICctbWV0YWxfYmluZGluZycsICctaW1hZScsICc8aW5maWxlLm1hZT4nLCAnLW9tYWUnLCAnPG91dGZpbGUubWFlPic=

> <r_lp_tautomer_probability>
1

> <r_epik_Ionization_Penalty>
1.51338e-05

> <r_epik_Ionization_Penalty_Charging>
0

> <r_epik_Ionization_Penalty_Neutral>
1.51338e-05

> <r_epik_State_Penalty>
-0

> <r_epik_Charging_Adjusted_Penalty>
0

> <i_epik_Tot_Q>
0

> <i_epik_Tot_abs_Q>
0

> <r_epik_Metal_State_Penalty>
-0

> <b_epik_Metal_Only>
0

> <s_epik_Chemistry_Notes>
This compound has an ester and may undergo hydrolysis at high or low pH. This compound contains an acetal/aminal-like group ( X-CH(R)-Y where X, Y are N, S, or O) that may be acid/base labile, releasing an aldehyde.

> <s_lp_Force_Field>
OPLS_2005

> <r_lp_Energy>
16.3317

> <b_lp_Chiralities_Consistent>
1

> <s_lp_Variant>
AV-unprocessed.smi:103-15

> <Gold.Version>
5.8.1

> <Gold.Id.Protein>
6NUR|6NUR_protein|mol2

> <Gold.PLP.Fitness>
37.9270

> <Gold.PLP.PLP>
-28.5210

> <Gold.PLP.part.hbond>
-6.0000

> <Gold.PLP.part.metal>
0.0000

> <Gold.PLP.part.buried>
-5.7021

> <Gold.PLP.part.nonpolar>
-16.6613

> <Gold.PLP.part.repulsive>
0.6083

> <Gold.PLP.ligand.clash>
0.0000

> <Gold.PLP.ligand.torsion>
3.7517

> <Gold.PLP.Chemscore.Hbond>
4.8240

> <Gold.PLP.Chemscore.CHOScore>
0.0000

> <Gold.PLP.Chemscore.Metal>
0.0000

> <Gold.Chemscore.Hbonds>
donor molecule, donor type, donor heavy atom, donor atom, acceptor molecule, acceptor atom, score
      L1  H    18    44       P1 10747  1.00
      P1  H  6896  6909       L1    27  1.00
      P1  H  6931  6943       L1    32  1.00
      P1  H  6934  6947       L1    32  0.86
      P1  H 11000 11005       L1     3  1.00

> <Gold.PLP.Chemscore.Internal.Correction>
2.4374

> <Gold.Rescore>
     Score         DG    S(hbond)    S(metal)    S(lipo)     H(rot)  DE(clash)    DE(int)     intcor
      5.87     -13.42       4.76        0.00      24.84       4.25       0.12       7.44       ----

> <Gold.Chemscore.Fitness>
5.8678

> <Gold.Chemscore.DG>
-13.4230

> <Gold.Chemscore.ZeroCoef>
-5.4800

> <Gold.Chemscore.Hbond>
4.7622

> <Gold.Chemscore.Metal>
0.0000

> <Gold.Chemscore.Lipo>
24.8371

> <Gold.Chemscore.Internal_Hbond>
0.0000

> <Gold.Chemscore.DEClash>
0.1165

> <Gold.Chemscore.DEInternal>
7.4387

> <Gold.Chemscore.Rot>
4.2456

> <Gold.Chemscore.Internal.Correction>
   9.000000E+99

> <Gold.Chemscore.Hbonds>
donor molecule, donor type, donor heavy atom, donor atom, acceptor molecule, acceptor atom, score
      L1  H    18    44       P1 10747  1.00
      P1  H  6896  6909       L1    27  1.00
      P1  H  6931  6943       L1    32  0.94
      P1  H  6934  6947       L1    32  0.81
      P1  H 11000 11005       L1     3  0.44

> <Gold.Chemscore.Hbond.Weighted>
-15.9057

> <Gold.Chemscore.Metal.Weighted>
-0.0000

> <Gold.Chemscore.Lipo.Weighted>
-2.9059

> <Gold.Chemscore.Internal_Hbond.Weighted>
0.0000

> <Gold.Chemscore.DEClash.Weighted>
0.1165

> <Gold.Chemscore.DEInternal.Weighted>
7.4387

> <Gold.Chemscore.Rot.Weighted>
10.8687

> <Gold.Chemscore.Internal.Correction.Weighted>
   9.000000E+99

> <Gold.Protein.RotatedTorsions>
[ 6907 6896 6895 6894 ] final   -8.16 input  -60.11 | X-H torsion
[ 7974 7965 7964 7962 ] final  -39.49 input  175.53 | X-H torsion
[ 8008 7997 7996 7995 ] final   37.87 input   59.86 | X-H torsion
[ 10167 10162 10161 10158 ] final -116.15 input  -65.29 | X-H torsion
[ 10718 10713 10712 10709 ] final -140.12 input   66.30 | X-H torsion
[ 10763 10752 10751 10750 ] final  117.41 input  -60.55 | X-H torsion
[ 11005 11000 10999 10996 ] final -126.22 input  -57.11 | X-H torsion

> <Gold.Protein.ActiveResidues>
 VAL166  LYS551  ARG553  GLY616  TRP617  ASP618  TYR619  PRO620  LYS621  CYS622 
 ASP623  PHE694  ASN695  SER759  ASP760  ASP761  ALA762  ILE779  LEU786  VAL792 
 PHE793  MET794  SER795  GLU796  ALA797  LYS798  CYS799  TRP800  GLU811  SER814 

> <Gold.Protein.RotatedAtoms>
  151.4381  135.1017  159.9661 H   0  0  0  0  0  0  0  0  0  0  0  0  # atno 6907 bound_to 6896
  152.4932  133.8554  159.7233 H   0  0  0  0  0  0  0  0  0  0  0  0  # atno 6908 bound_to 6896
  150.9107  133.6942  159.2883 H   0  0  0  0  0  0  0  0  0  0  0  0  # atno 6909 bound_to 6896
  146.0392  140.6631  142.9095 H   0  0  0  0  0  0  0  0  0  0  0  0  # atno 7974 bound_to 7965
  155.2108  140.3323  155.4329 H   0  0  0  0  0  0  0  0  0  0  0  0  # atno 8008 bound_to 7997
  156.2371  140.1877  156.7138 H   0  0  0  0  0  0  0  0  0  0  0  0  # atno 8009 bound_to 7997
  154.6079  140.0613  156.9441 H   0  0  0  0  0  0  0  0  0  0  0  0  # atno 8010 bound_to 7997
  140.0823  143.4776  152.1918 H   0  0  0  0  0  0  0  0  0  0  0  0  # atno 10167 bound_to 10162
  156.3186  130.7522  151.1614 H   0  0  0  0  0  0  0  0  0  0  0  0  # atno 10718 bound_to 10713
  153.5519  135.3538  155.2763 H   0  0  0  0  0  0  0  0  0  0  0  0  # atno 10763 bound_to 10752
  154.8706  135.4116  154.2927 H   0  0  0  0  0  0  0  0  0  0  0  0  # atno 10764 bound_to 10752
  153.3655  135.7062  153.6747 H   0  0  0  0  0  0  0  0  0  0  0  0  # atno 10765 bound_to 10752
  140.9699  134.0820  157.3880 H   0  0  0  0  0  0  0  0  0  0  0  0  # atno 11005 bound_to 11000
  144.7066  140.3876  143.7113 LP  0  0  0  0  0  0  0  0  0  0  0  0  # atno 17320 bound_to 7965
  145.6913  139.1640  143.2645 LP  0  0  0  0  0  0  0  0  0  0  0  0  # atno 17321 bound_to 7965
  139.5772  144.7493  151.3733 LP  0  0  0  0  0  0  0  0  0  0  0  0  # atno 17342 bound_to 10162
  140.7071  143.7485  150.7501 LP  0  0  0  0  0  0  0  0  0  0  0  0  # atno 17343 bound_to 10162
  157.7407  131.0513  150.5148 LP  0  0  0  0  0  0  0  0  0  0  0  0  # atno 17370 bound_to 10713
  156.5298  130.4182  149.6207 LP  0  0  0  0  0  0  0  0  0  0  0  0  # atno 17371 bound_to 10713
  139.8908  135.0114  156.6758 LP  0  0  0  0  0  0  0  0  0  0  0  0  # atno 17394 bound_to 11000
  140.7344  133.9031  155.8234 LP  0  0  0  0  0  0  0  0  0  0  0  0  # atno 17395 bound_to 11000

$$$$
