AV-unprocessed.smi:2069|AV-procd|sdf|8433|dock1
  -GOLD-   2272011133D 1   1.00000     0.00000
 Structure written by MMmdl.
 39 40  0  0  0  0  0  0  0  0  2 V2000
  150.9567  142.6166  156.2275 C   0  0  0  0  0  0  0  0  0  0  0  0
  150.6287  141.4425  155.3697 C   0  0  0  0  0  0  0  0  0  0  0  0
  151.5486  140.5558  154.9705 N   0  0  0  0  0  0  0  0  0  0  0  0
  151.0041  139.5516  154.1824 N   0  0  0  0  0  0  0  0  0  0  0  0
  149.6847  139.7108  154.0107 C   0  0  0  0  0  0  0  0  0  0  0  0
  148.8759  138.8258  153.2495 N   0  0  0  0  0  0  0  0  0  0  0  0
  147.5349  138.7979  153.1552 C   0  0  0  0  0  0  0  0  0  0  0  0
  146.7632  139.5526  153.7474 O   0  0  0  0  0  0  0  0  0  0  0  0
  147.1261  137.8368  152.3131 N   0  0  0  0  0  0  0  0  0  0  0  0
  145.7336  137.5331  151.9889 C   0  0  0  0  0  0  0  0  0  0  0  0
  145.5403  136.1198  151.3764 C   0  0  2  0  0  0  0  0  0  0  0  0
  144.0383  135.7463  151.3110 C   0  0  0  0  0  0  0  0  0  0  0  0
  146.3690  135.1177  152.1261 N   0  3  0  0  0  0  0  0  0  0  0  0
  146.2123  135.1284  153.6074 C   0  0  0  0  0  0  0  0  0  0  0  0
  147.1326  134.0897  154.2719 C   0  0  0  0  0  0  0  0  0  0  0  0
  146.8679  132.7993  153.7430 O   0  0  0  0  0  0  0  0  0  0  0  0
  147.1229  132.7482  152.3475 C   0  0  0  0  0  0  0  0  0  0  0  0
  146.1890  133.7290  151.6203 C   0  0  0  0  0  0  0  0  0  0  0  0
  148.9943  141.1148  154.8066 S   0  0  0  0  0  0  0  0  0  0  0  0
  152.0365  142.7291  156.3296 H   0  0  0  0  0  0  0  0  0  0  0  0
  150.5233  142.4853  157.2190 H   0  0  0  0  0  0  0  0  0  0  0  0
  150.5521  143.5269  155.7852 H   0  0  0  0  0  0  0  0  0  0  0  0
  149.3796  138.1404  152.7062 H   0  0  0  0  0  0  0  0  0  0  0  0
  147.8304  137.2649  151.8699 H   0  0  0  0  0  0  0  0  0  0  0  0
  145.1875  137.6333  152.9247 H   0  0  0  0  0  0  0  0  0  0  0  0
  145.3158  138.2878  151.3202 H   0  0  0  0  0  0  0  0  0  0  0  0
  145.8987  136.1395  150.3458 H   0  0  0  0  0  0  0  0  0  0  0  0
  143.4615  136.4844  150.7553 H   0  0  0  0  0  0  0  0  0  0  0  0
  143.6020  135.6727  152.3078 H   0  0  0  0  0  0  0  0  0  0  0  0
  143.8693  134.8039  150.7906 H   0  0  0  0  0  0  0  0  0  0  0  0
  146.4753  136.1019  154.0200 H   0  0  0  0  0  0  0  0  0  0  0  0
  145.1717  134.9290  153.8681 H   0  0  0  0  0  0  0  0  0  0  0  0
  148.1822  134.3489  154.1241 H   0  0  0  0  0  0  0  0  0  0  0  0
  146.9601  134.0709  155.3482 H   0  0  0  0  0  0  0  0  0  0  0  0
  148.1699  132.9793  152.1439 H   0  0  0  0  0  0  0  0  0  0  0  0
  146.9472  131.7317  151.9952 H   0  0  0  0  0  0  0  0  0  0  0  0
  145.1515  133.4216  151.7617 H   0  0  0  0  0  0  0  0  0  0  0  0
  146.3931  133.6664  150.5534 H   0  0  0  0  0  0  0  0  0  0  0  0
  147.3321  135.3694  151.9542 H   0  0  0  0  0  0  0  0  0  0  0  0
  1  2  1  0  0  0  0
  1 20  1  0  0  0  0
  1 21  1  0  0  0  0
  1 22  1  0  0  0  0
  2 19  1  0  0  0  0
  2  3  2  0  0  0  0
  3  4  1  0  0  0  0
  4  5  2  0  0  0  0
  5  6  1  0  0  0  0
  5 19  1  0  0  0  0
  6  7  1  0  0  0  0
  6 23  1  0  0  0  0
  7  8  2  0  0  0  0
  7  9  1  0  0  0  0
  9 10  1  0  0  0  0
  9 24  1  0  0  0  0
 10 11  1  0  0  0  0
 10 25  1  0  0  0  0
 10 26  1  0  0  0  0
 11 12  1  0  0  0  0
 11 13  1  0  0  0  0
 11 27  1  0  0  0  0
 12 28  1  0  0  0  0
 12 29  1  0  0  0  0
 12 30  1  0  0  0  0
 13 18  1  0  0  0  0
 13 14  1  0  0  0  0
 13 39  1  0  0  0  0
 14 15  1  0  0  0  0
 14 31  1  0  0  0  0
 14 32  1  0  0  0  0
 15 16  1  0  0  0  0
 15 33  1  0  0  0  0
 15 34  1  0  0  0  0
 16 17  1  0  0  0  0
 17 18  1  0  0  0  0
 17 35  1  0  0  0  0
 17 36  1  0  0  0  0
 18 37  1  0  0  0  0
 18 38  1  0  0  0  0
M  CHG  1  13   1
M  END
> <s_m_source_file>
AV-unprocessed.smi

> <i_m_source_file_index>
2069

> <i_lp_mmshare_version>
43012

> <i_f3d_flags>
0

> <s_epik_input>
W0NIM11jMW5uYyhzMSlbTkhdQyg9TylbTkhdW0NIMl1bQ0BIXShbQ0gzXSlOMltDSDJdW0NIMl1PW0NIMl1bQ0gyXTI=

> <s_epik_cmdline>
J2VwaWtfcHl0aG9uJywgJy1waCcsICc3LjAnLCAnLXRuJywgJzgnLCAnLW1hJywgJzIwMCcsICctbWV0YWxfYmluZGluZycsICctaW1hZScsICc8aW5maWxlLm1hZT4nLCAnLW9tYWUnLCAnPG91dGZpbGUubWFlPic=

> <r_lp_tautomer_probability>
1

> <r_epik_Ionization_Penalty>
0.70016

> <r_epik_Ionization_Penalty_Charging>
0.695697

> <r_epik_Ionization_Penalty_Neutral>
0.00446266

> <r_epik_State_Penalty>
0.717972

> <r_epik_Charging_Adjusted_Penalty>
1.41367

> <i_epik_Tot_Q>
1

> <i_epik_Tot_abs_Q>
1

> <r_epik_Metal_State_Penalty>
1.06969

> <b_epik_Metal_Only>
0

> <s_lp_Force_Field>
OPLS_2005

> <r_lp_Energy>
19.5762

> <b_lp_Chiralities_Consistent>
1

> <s_lp_Variant>
AV-unprocessed.smi:2069-3

> <Gold.Version>
5.8.1

> <Gold.Id.Protein>
6NUR|6NUR_protein|mol2

> <Gold.PLP.Fitness>
41.1443

> <Gold.PLP.PLP>
-30.9170

> <Gold.PLP.part.hbond>
-5.9395

> <Gold.PLP.part.metal>
0.0000

> <Gold.PLP.part.buried>
-4.2957

> <Gold.PLP.part.nonpolar>
-21.9269

> <Gold.PLP.part.repulsive>
0.5078

> <Gold.PLP.ligand.clash>
0.0000

> <Gold.PLP.ligand.torsion>
0.3323

> <Gold.PLP.Chemscore.Hbond>
3.6110

> <Gold.PLP.Chemscore.CHOScore>
0.0000

> <Gold.PLP.Chemscore.Metal>
0.0000

> <Gold.Chemscore.Hbonds>
donor molecule, donor type, donor heavy atom, donor atom, acceptor molecule, acceptor atom, score
      L1  H     6    23       P1  7948  0.65
      L1  H     9    24       P1  7948  0.93
      L1  H    13    39       P1  7948  2.00

> <Gold.PLP.Chemscore.Internal.Correction>
0.0589

> <Gold.Rescore>
     Score         DG    S(hbond)    S(metal)    S(lipo)     H(rot)  DE(clash)    DE(int)     intcor
     14.79     -16.42       2.66        0.00      53.77       1.65       0.16       1.47       ----

> <Gold.Chemscore.Fitness>
14.7915

> <Gold.Chemscore.DG>
-16.4219

> <Gold.Chemscore.ZeroCoef>
-5.4800

> <Gold.Chemscore.Hbond>
2.6552

> <Gold.Chemscore.Metal>
0.0000

> <Gold.Chemscore.Lipo>
53.7721

> <Gold.Chemscore.Internal_Hbond>
0.0000

> <Gold.Chemscore.DEClash>
0.1639

> <Gold.Chemscore.DEInternal>
1.4666

> <Gold.Chemscore.Rot>
1.6476

> <Gold.Chemscore.Internal.Correction>
   9.000000E+99

> <Gold.Chemscore.Hbonds>
donor molecule, donor type, donor heavy atom, donor atom, acceptor molecule, acceptor atom, score
      L1  H     6    23       P1  7948  0.56
      L1  H     9    24       P1  7948  0.87
      L1  H    13    39       P1  7948  1.00

> <Gold.Chemscore.Hbond.Weighted>
-8.8685

> <Gold.Chemscore.Metal.Weighted>
-0.0000

> <Gold.Chemscore.Lipo.Weighted>
-6.2913

> <Gold.Chemscore.Internal_Hbond.Weighted>
0.0000

> <Gold.Chemscore.DEClash.Weighted>
0.1639

> <Gold.Chemscore.DEInternal.Weighted>
1.4666

> <Gold.Chemscore.Rot.Weighted>
4.2179

> <Gold.Chemscore.Internal.Correction.Weighted>
   9.000000E+99

> <Gold.Protein.RotatedTorsions>
[ 6907 6896 6895 6894 ] final   69.79 input  -60.11 | X-H torsion
[ 7974 7965 7964 7962 ] final   71.85 input  175.53 | X-H torsion
[ 8008 7997 7996 7995 ] final  141.97 input   59.86 | X-H torsion
[ 10167 10162 10161 10158 ] final   62.27 input  -65.29 | X-H torsion
[ 10718 10713 10712 10709 ] final  -60.57 input   66.30 | X-H torsion
[ 10763 10752 10751 10750 ] final   56.99 input  -60.55 | X-H torsion
[ 11005 11000 10999 10996 ] final   -4.78 input  -57.11 | X-H torsion

> <Gold.Protein.ActiveResidues>
 VAL166  LYS551  ARG553  GLY616  TRP617  ASP618  TYR619  PRO620  LYS621  CYS622 
 ASP623  PHE694  ASN695  SER759  ASP760  ASP761  ALA762  ILE779  LEU786  VAL792 
 PHE793  MET794  SER795  GLU796  ALA797  LYS798  CYS799  TRP800  GLU811  SER814 

> <Gold.Protein.RotatedAtoms>
  152.4708  134.4964  159.9711 H   0  0  0  0  0  0  0  0  0  0  0  0  # atno 6907 bound_to 6896
  151.4991  133.3502  159.2874 H   0  0  0  0  0  0  0  0  0  0  0  0  # atno 6908 bound_to 6896
  150.8717  134.8120  159.7221 H   0  0  0  0  0  0  0  0  0  0  0  0  # atno 6909 bound_to 6896
  145.7606  139.2799  143.1378 H   0  0  0  0  0  0  0  0  0  0  0  0  # atno 7974 bound_to 7965
  156.2957  140.2301  156.4652 H   0  0  0  0  0  0  0  0  0  0  0  0  # atno 8008 bound_to 7997
  154.7983  140.0450  157.1274 H   0  0  0  0  0  0  0  0  0  0  0  0  # atno 8009 bound_to 7997
  154.9563  140.3048  155.5055 H   0  0  0  0  0  0  0  0  0  0  0  0  # atno 8010 bound_to 7997
  140.1458  144.4510  150.6786 H   0  0  0  0  0  0  0  0  0  0  0  0  # atno 10167 bound_to 10162
  156.0981  130.4190  150.0873 H   0  0  0  0  0  0  0  0  0  0  0  0  # atno 10718 bound_to 10713
  152.9842  135.5657  154.5319 H   0  0  0  0  0  0  0  0  0  0  0  0  # atno 10763 bound_to 10752
  154.4789  135.2788  155.1588 H   0  0  0  0  0  0  0  0  0  0  0  0  # atno 10764 bound_to 10752
  154.3105  135.6289  153.5517 H   0  0  0  0  0  0  0  0  0  0  0  0  # atno 10765 bound_to 10752
  140.6840  133.9129  155.8574 H   0  0  0  0  0  0  0  0  0  0  0  0  # atno 11005 bound_to 11000
  146.0267  140.8297  142.9896 LP  0  0  0  0  0  0  0  0  0  0  0  0  # atno 17320 bound_to 7965
  144.6831  140.2709  143.7306 LP  0  0  0  0  0  0  0  0  0  0  0  0  # atno 17321 bound_to 7965
  140.6733  143.2294  151.5571 LP  0  0  0  0  0  0  0  0  0  0  0  0  # atno 17342 bound_to 10162
  139.5450  144.2546  152.1424 LP  0  0  0  0  0  0  0  0  0  0  0  0  # atno 17343 bound_to 10162
  156.8867  130.9575  151.3593 LP  0  0  0  0  0  0  0  0  0  0  0  0  # atno 17370 bound_to 10713
  157.6146  130.8609  149.9007 LP  0  0  0  0  0  0  0  0  0  0  0  0  # atno 17371 bound_to 10713
  141.0295  134.0776  157.4031 LP  0  0  0  0  0  0  0  0  0  0  0  0  # atno 17394 bound_to 11000
  139.8943  135.0135  156.6944 LP  0  0  0  0  0  0  0  0  0  0  0  0  # atno 17395 bound_to 11000

$$$$
