AV-unprocessed.smi:1449|AV-procd|sdf|5896|dock9
  -GOLD-   22720 5583D 1   1.00000     0.00000
 Structure written by MMmdl.
 34 35  0  0  0  0  0  0  0  0  1 V2000
  143.4714  145.3266  154.3507 C   0  0  0  0  0  0  0  0  0  0  0  0
  144.1008  144.4749  155.3014 O   0  0  0  0  0  0  0  0  0  0  0  0
  145.1140  143.6445  154.8681 C   0  0  0  0  0  0  0  0  0  0  0  0
  145.4741  143.6746  153.5065 C   0  0  0  0  0  0  0  0  0  0  0  0
  146.5059  142.8296  153.0548 C   0  0  0  0  0  0  0  0  0  0  0  0
  147.1539  141.9833  153.9862 C   0  0  0  0  0  0  0  0  0  0  0  0
  148.1938  141.0720  153.6579 N   0  0  0  0  0  0  0  0  0  0  0  0
  148.8937  140.2556  154.4704 C   0  0  0  0  0  0  0  0  0  0  0  0
  148.7014  140.1341  155.6780 O   0  0  0  0  0  0  0  0  0  0  0  0
  149.8359  139.5287  153.8433 N   0  0  0  0  0  0  0  0  0  0  0  0
  150.7645  138.5543  154.4185 C   0  0  1  0  0  0  0  0  0  0  0  0
  151.9306  139.2619  155.1339 C   0  0  0  0  0  0  0  0  0  0  0  0
  152.6639  138.2402  156.0118 C   0  0  0  0  0  0  0  0  0  0  0  0
  151.3988  137.0242  156.5414 S   0  0  0  0  0  0  0  0  0  0  0  0
  151.8132  135.6840  156.0996 O   0  0  0  0  0  0  0  0  0  0  0  0
  151.0235  137.2785  157.9404 O   0  0  0  0  0  0  0  0  0  0  0  0
  150.0696  137.6425  155.4426 C   0  0  0  0  0  0  0  0  0  0  0  0
  146.7106  142.0208  155.3243 C   0  0  0  0  0  0  0  0  0  0  0  0
  145.7222  142.8279  155.7637 N   0  0  0  0  0  0  0  0  0  0  0  0
  142.6999  145.9135  154.8488 H   0  0  0  0  0  0  0  0  0  0  0  0
  142.9897  144.7523  153.5581 H   0  0  0  0  0  0  0  0  0  0  0  0
  144.1824  146.0248  153.9068 H   0  0  0  0  0  0  0  0  0  0  0  0
  144.9639  144.3316  152.8176 H   0  0  0  0  0  0  0  0  0  0  0  0
  146.7643  142.8410  152.0077 H   0  0  0  0  0  0  0  0  0  0  0  0
  148.4086  141.0020  152.6739 H   0  0  0  0  0  0  0  0  0  0  0  0
  149.8985  139.6516  152.8428 H   0  0  0  0  0  0  0  0  0  0  0  0
  151.1961  137.9355  153.6297 H   0  0  0  0  0  0  0  0  0  0  0  0
  152.6089  139.7418  154.4279 H   0  0  0  0  0  0  0  0  0  0  0  0
  151.5328  140.0486  155.7768 H   0  0  0  0  0  0  0  0  0  0  0  0
  153.4212  137.7077  155.4360 H   0  0  0  0  0  0  0  0  0  0  0  0
  153.1415  138.6919  156.8814 H   0  0  0  0  0  0  0  0  0  0  0  0
  149.3660  138.2046  156.0579 H   0  0  0  0  0  0  0  0  0  0  0  0
  149.5405  136.8054  154.9867 H   0  0  0  0  0  0  0  0  0  0  0  0
  147.1649  141.3842  156.0697 H   0  0  0  0  0  0  0  0  0  0  0  0
  1  2  1  0  0  0  0
  1 20  1  0  0  0  0
  1 21  1  0  0  0  0
  1 22  1  0  0  0  0
  2  3  1  0  0  0  0
  3 19  1  0  0  0  0
  3  4  2  0  0  0  0
  4  5  1  0  0  0  0
  4 23  1  0  0  0  0
  5  6  2  0  0  0  0
  5 24  1  0  0  0  0
  6  7  1  0  0  0  0
  6 18  1  0  0  0  0
  7  8  1  0  0  0  0
  7 25  1  0  0  0  0
  8  9  2  0  0  0  0
  8 10  1  0  0  0  0
 10 11  1  0  0  0  0
 10 26  1  0  0  0  0
 11 17  1  0  0  0  0
 11 12  1  0  0  0  0
 11 27  1  0  0  0  0
 12 13  1  0  0  0  0
 12 28  1  0  0  0  0
 12 29  1  0  0  0  0
 13 14  1  0  0  0  0
 13 30  1  0  0  0  0
 13 31  1  0  0  0  0
 14 15  2  0  0  0  0
 14 16  2  0  0  0  0
 14 17  1  0  0  0  0
 17 32  1  0  0  0  0
 17 33  1  0  0  0  0
 18 19  2  0  0  0  0
 18 34  1  0  0  0  0
M  END
> <s_m_source_file>
AV-unprocessed.smi

> <i_m_source_file_index>
1449

> <i_lp_mmshare_version>
43012

> <i_f3d_flags>
0

> <s_epik_input>
W0NIM11PYzFbY0hdW2NIXWMoW2NIXW4xKVtOSF1DKD1PKVtOSF1bQ0BASF0oW0NIMl0yKVtDSDJdW0NIMl1TMig9Tyk9Tw==

> <s_epik_cmdline>
J2VwaWtfcHl0aG9uJywgJy1waCcsICc3LjAnLCAnLXRuJywgJzgnLCAnLW1hJywgJzIwMCcsICctbWV0YWxfYmluZGluZycsICctaW1hZScsICc8aW5maWxlLm1hZT4nLCAnLW9tYWUnLCAnPG91dGZpbGUubWFlPic=

> <r_lp_tautomer_probability>
1

> <r_epik_Ionization_Penalty>
7.6506e-05

> <r_epik_Ionization_Penalty_Charging>
0

> <r_epik_Ionization_Penalty_Neutral>
7.6506e-05

> <r_epik_State_Penalty>
-0

> <r_epik_Charging_Adjusted_Penalty>
0

> <i_epik_Tot_Q>
0

> <i_epik_Tot_abs_Q>
0

> <r_epik_Metal_State_Penalty>
-0

> <b_epik_Metal_Only>
0

> <s_lp_Force_Field>
OPLS_2005

> <r_lp_Energy>
18.5668

> <b_lp_Chiralities_Consistent>
1

> <s_lp_Variant>
AV-unprocessed.smi:1449-2

> <Gold.Version>
5.8.1

> <Gold.Id.Protein>
6NUR|6NUR_protein|mol2

> <Gold.PLP.Fitness>
36.3469

> <Gold.PLP.PLP>
-29.3246

> <Gold.PLP.part.hbond>
-3.0000

> <Gold.PLP.part.metal>
0.0000

> <Gold.PLP.part.buried>
-6.0066

> <Gold.PLP.part.nonpolar>
-20.7083

> <Gold.PLP.part.repulsive>
0.6848

> <Gold.PLP.ligand.clash>
0.7269

> <Gold.PLP.ligand.torsion>
0.2398

> <Gold.PLP.Chemscore.Hbond>
2.7426

> <Gold.PLP.Chemscore.CHOScore>
0.0000

> <Gold.PLP.Chemscore.Metal>
0.0000

> <Gold.Chemscore.Hbonds>
donor molecule, donor type, donor heavy atom, donor atom, acceptor molecule, acceptor atom, score
      L1  H     7    25       P1  7957  0.67
      L1  H    10    26       P1  7957  1.00
      P1  H 10752 10764       L1    15  1.00

> <Gold.PLP.Chemscore.Internal.Correction>
0.0011

> <Gold.Rescore>
     Score         DG    S(hbond)    S(metal)    S(lipo)     H(rot)  DE(clash)    DE(int)     intcor
     14.43     -18.76       2.84        0.00      61.07       1.31       1.65       2.68       ----

> <Gold.Chemscore.Fitness>
14.4282

> <Gold.Chemscore.DG>
-18.7613

> <Gold.Chemscore.ZeroCoef>
-5.4800

> <Gold.Chemscore.Hbond>
2.8421

> <Gold.Chemscore.Metal>
0.0000

> <Gold.Chemscore.Lipo>
61.0652

> <Gold.Chemscore.Internal_Hbond>
0.0000

> <Gold.Chemscore.DEClash>
1.6514

> <Gold.Chemscore.DEInternal>
2.6818

> <Gold.Chemscore.Rot>
1.3109

> <Gold.Chemscore.Internal.Correction>
   9.000000E+99

> <Gold.Chemscore.Hbonds>
donor molecule, donor type, donor heavy atom, donor atom, acceptor molecule, acceptor atom, score
      L1  H     7    25       P1  7957  0.64
      L1  H    10    26       P1  7957  1.00
      P1  H 10752 10764       L1    15  0.98

> <Gold.Chemscore.Hbond.Weighted>
-9.4926

> <Gold.Chemscore.Metal.Weighted>
-0.0000

> <Gold.Chemscore.Lipo.Weighted>
-7.1446

> <Gold.Chemscore.Internal_Hbond.Weighted>
0.0000

> <Gold.Chemscore.DEClash.Weighted>
1.6514

> <Gold.Chemscore.DEInternal.Weighted>
2.6818

> <Gold.Chemscore.Rot.Weighted>
3.3559

> <Gold.Chemscore.Internal.Correction.Weighted>
   9.000000E+99

> <Gold.Protein.RotatedTorsions>
[ 6907 6896 6895 6894 ] final  -15.44 input  -60.11 | X-H torsion
[ 7974 7965 7964 7962 ] final -110.17 input  175.53 | X-H torsion
[ 8008 7997 7996 7995 ] final   45.17 input   59.86 | X-H torsion
[ 10167 10162 10161 10158 ] final   -3.75 input  -65.29 | X-H torsion
[ 10718 10713 10712 10709 ] final -152.21 input   66.30 | X-H torsion
[ 10763 10752 10751 10750 ] final  -40.31 input  -60.55 | X-H torsion
[ 11005 11000 10999 10996 ] final   31.53 input  -57.11 | X-H torsion

> <Gold.Protein.ActiveResidues>
 VAL166  LYS551  ARG553  GLY616  TRP617  ASP618  TYR619  PRO620  LYS621  CYS622 
 ASP623  PHE694  ASN695  SER759  ASP760  ASP761  ALA762  ILE779  LEU786  VAL792 
 PHE793  MET794  SER795  GLU796  ALA797  LYS798  CYS799  TRP800  GLU811  SER814 

> <Gold.Protein.RotatedAtoms>
  151.3239  135.0825  159.9314 H   0  0  0  0  0  0  0  0  0  0  0  0  # atno 6907 bound_to 6896
  152.5250  133.9611  159.7728 H   0  0  0  0  0  0  0  0  0  0  0  0  # atno 6908 bound_to 6896
  150.9937  133.6071  159.2734 H   0  0  0  0  0  0  0  0  0  0  0  0  # atno 6909 bound_to 6896
  145.1715  140.8928  143.3532 H   0  0  0  0  0  0  0  0  0  0  0  0  # atno 7974 bound_to 7965
  155.3315  140.3403  155.4239 H   0  0  0  0  0  0  0  0  0  0  0  0  # atno 8008 bound_to 7997
  156.1859  140.1680  156.8223 H   0  0  0  0  0  0  0  0  0  0  0  0  # atno 8009 bound_to 7997
  154.5386  140.0730  156.8453 H   0  0  0  0  0  0  0  0  0  0  0  0  # atno 8010 bound_to 7997
  140.6902  143.6504  150.8355 H   0  0  0  0  0  0  0  0  0  0  0  0  # atno 10167 bound_to 10162
  156.4695  130.8251  151.2481 H   0  0  0  0  0  0  0  0  0  0  0  0  # atno 10718 bound_to 10713
  153.9438  135.6758  153.4744 H   0  0  0  0  0  0  0  0  0  0  0  0  # atno 10763 bound_to 10752
  153.0918  135.4871  154.8701 H   0  0  0  0  0  0  0  0  0  0  0  0  # atno 10764 bound_to 10752
  154.7362  135.3150  154.8765 H   0  0  0  0  0  0  0  0  0  0  0  0  # atno 10765 bound_to 10752
  140.2829  134.2952  155.7796 H   0  0  0  0  0  0  0  0  0  0  0  0  # atno 11005 bound_to 11000
  145.0228  139.3409  143.6064 LP  0  0  0  0  0  0  0  0  0  0  0  0  # atno 17320 bound_to 7965
  146.3468  139.9535  142.8726 LP  0  0  0  0  0  0  0  0  0  0  0  0  # atno 17321 bound_to 7965
  140.0216  143.5537  152.2798 LP  0  0  0  0  0  0  0  0  0  0  0  0  # atno 17342 bound_to 10162
  139.6297  144.7642  151.2563 LP  0  0  0  0  0  0  0  0  0  0  0  0  # atno 17343 bound_to 10162
  157.7492  131.0081  150.3215 LP  0  0  0  0  0  0  0  0  0  0  0  0  # atno 17370 bound_to 10713
  156.3633  130.3851  149.7233 LP  0  0  0  0  0  0  0  0  0  0  0  0  # atno 17371 bound_to 10713
  141.2159  133.7537  156.9508 LP  0  0  0  0  0  0  0  0  0  0  0  0  # atno 17394 bound_to 11000
  140.1267  134.9382  157.2279 LP  0  0  0  0  0  0  0  0  0  0  0  0  # atno 17395 bound_to 11000

$$$$
