#       Name:                AV-unprocessed.smi:1232
#       Creating user name   scv26
#       Creation time:       Fri Mar 27 04:24:15 2020


#       File generated by GOLD software.
#

@<TRIPOS>MOLECULE
AV-unprocessed.smi:1232
    61    62     1
SMALL
NO_CHARGES


@<TRIPOS>ATOM
      1 ****        -3.8257  -4.2958   0.6195 C.3            1 S1                 0.0000
      2 ****        -3.1913  -3.9268  -0.7176 C.2            1 S1                 0.0000
      3 ****        -2.7410  -4.8145  -1.4398 O.2            1 S1                 0.0000
      4 ****        -3.1611  -2.6163  -1.0210 N.am           1 S1                 0.0000
      5 ****        -2.6528  -1.9630  -2.2360 C.3            1 S1                 0.0000
      6 ****        -1.1316  -1.7397  -2.1518 C.2            1 S1                 0.0000
      7 ****        -0.3804  -2.6706  -1.8600 O.2            1 S1                 0.0000
      8 ****        -0.6902  -0.5029  -2.4333 N.am           1 S1                 0.0000
      9 ****         0.7049  -0.0751  -2.4292 C.3            1 S1                 0.0000
     10 ****         1.1200   0.5918  -1.1286 C.ar           1 S1                 0.0000
     11 ****         1.5725   1.9257  -1.1147 C.ar           1 S1                 0.0000
     12 ****         1.9546   2.5052   0.1102 C.ar           1 S1                 0.0000
     13 ****         1.8798   1.7326   1.2940 C.ar           1 S1                 0.0000
     14 ****         2.2670   2.2901   2.5324 N.3            1 S1                 0.0000
     15 ****         1.9484   1.5460   3.7497 C.3            1 S1                 0.0000
     16 ****         2.1861   2.4218   4.9910 C.3            1 S1                 0.0000
     17 ****         3.5204   2.9187   4.9792 O.3            1 S1                 0.0000
     18 ****         3.7787   3.7362   3.8411 C.3            1 S1                 0.0000
     19 ****         5.2006   4.2945   3.9623 C.3            1 S1                 0.0000
     20 ****         3.5949   2.8984   2.5609 C.3            1 S1                 0.0000
     21 ****         1.4382   0.4504   1.2760 N.ar           1 S1                 0.0000
     22 ****         1.0744  -0.1009   0.0991 C.ar           1 S1                 0.0000
     23 ****        -3.1678  -2.5917  -3.5692 C.3            1 S1                 0.0000
     24 ****        -2.6573  -1.8473  -4.8190 C.3            1 S1                 0.0000
     25 ****        -4.7064  -2.6681  -3.6189 C.3            1 S1                 0.0000
     26 ****        -3.9747  -3.4176   1.2490 H              1 S1                 0.0000
     27 ****        -3.1883  -4.9963   1.1596 H              1 S1                 0.0000
     28 ****        -4.7936  -4.7697   0.4558 H              1 S1                 0.0000
     29 ****        -3.5521  -1.9915  -0.3311 H              1 S1                 0.0000
     30 ****        -3.0980  -0.9677  -2.1884 H              1 S1                 0.0000
     31 ****        -1.3766   0.1980  -2.6725 H              1 S1                 0.0000
     32 ****         1.3737  -0.9141  -2.6274 H              1 S1                 0.0000
     33 ****         0.8421   0.6210  -3.2572 H              1 S1                 0.0000
     34 ****         1.6241   2.5023  -2.0266 H              1 S1                 0.0000
     35 ****         2.2867   3.5326   0.1281 H              1 S1                 0.0000
     36 ****         0.9078   1.2196   3.7326 H              1 S1                 0.0000
     37 ****         2.5710   0.6516   3.8007 H              1 S1                 0.0000
     38 ****         1.4772   3.2508   5.0250 H              1 S1                 0.0000
     39 ****         2.0337   1.8362   5.8976 H              1 S1                 0.0000
     40 ****         3.0776   4.5727   3.8354 H              1 S1                 0.0000
     41 ****         5.4422   4.9395   3.1171 H              1 S1                 0.0000
     42 ****         5.9385   3.4924   3.9931 H              1 S1                 0.0000
     43 ****         5.3113   4.8844   4.8724 H              1 S1                 0.0000
     44 ****         4.3421   2.1048   2.5209 H              1 S1                 0.0000
     45 ****         3.7643   3.5352   1.6938 H              1 S1                 0.0000
     46 ****         0.7406  -1.1267   0.1430 H              1 S1                 0.0000
     47 ****        -2.7871  -3.6093  -3.6504 H              1 S1                 0.0000
     48 ****        -2.9446  -0.7956  -4.7996 H              1 S1                 0.0000
     49 ****        -3.0668  -2.2851  -5.7298 H              1 S1                 0.0000
     50 ****        -1.5718  -1.8976  -4.9075 H              1 S1                 0.0000
     51 ****        -5.1539  -1.6774  -3.5362 H              1 S1                 0.0000
     52 ****        -5.1114  -3.2835  -2.8162 H              1 S1                 0.0000
     53 ****        -5.0473  -3.1077  -4.5567 H              1 S1                 0.0000
     54 ****        -2.7924  -5.7699  -1.1489 LP             1 S1                 0.0000
     55 ****        -2.3235  -4.5810  -2.3180 LP             1 S1                 0.0000
     56 ****        -0.7573  -3.5784  -1.6760 LP             1 S1                 0.0000
     57 ****         0.6066  -2.5189  -1.8070 LP             1 S1                 0.0000
     58 ****         1.6175   3.0495   2.5709 LP             1 S1                 0.0000
     59 ****         4.1527   2.1441   4.9698 LP             1 S1                 0.0000
     60 ****         3.6697   3.4609   5.8061 LP             1 S1                 0.0000
     61 ****         1.3829  -0.0789   2.1226 LP             1 S1                 0.0000
@<TRIPOS>BOND
    1    1    2 1     
    2    1   26 1     
    3    1   27 1     
    4    1   28 1     
    5    2    3 2     
    6    2    4 am    
    7    4    5 1     
    8    4   29 1     
    9    5    6 1     
   10    5   23 1     
   11    5   30 1     
   12    6    7 2     
   13    6    8 am    
   14    8    9 1     
   15    8   31 1     
   16    9   10 1     
   17    9   32 1     
   18    9   33 1     
   19   10   22 ar    
   20   10   11 ar    
   21   11   12 ar    
   22   11   34 1     
   23   12   13 ar    
   24   12   35 1     
   25   13   14 1     
   26   13   21 ar    
   27   14   20 1     
   28   14   15 1     
   29   15   16 1     
   30   15   36 1     
   31   15   37 1     
   32   16   17 1     
   33   16   38 1     
   34   16   39 1     
   35   17   18 1     
   36   18   19 1     
   37   18   20 1     
   38   18   40 1     
   39   19   41 1     
   40   19   42 1     
   41   19   43 1     
   42   20   44 1     
   43   20   45 1     
   44   21   22 ar    
   45   22   46 1     
   46   23   24 1     
   47   23   25 1     
   48   23   47 1     
   49   24   48 1     
   50   24   49 1     
   51   24   50 1     
   52   25   51 1     
   53   25   52 1     
   54   25   53 1     
   55    3   54 1     
   56    3   55 1     
   57    7   56 1     
   58    7   57 1     
   59   14   58 1     
   60   17   59 1     
   61   17   60 1     
   62   21   61 1     
@<TRIPOS>SUBSTRUCTURE
      1 S1             1
@<TRIPOS>SET
LONE_PAIRS      STATIC     ATOMS    <user>   **** ""
8 54 55 56 57 58 59 60 61
DONOR_HYDROGENS      STATIC     ATOMS    <user>   **** ""
2 29 31
ATOM$BLUE        STATIC     ATOMS    COLORGROUP SYSTEM
8 54 55 56 57 58 59 60 61
ATOM$RED        STATIC     ATOMS    COLORGROUP SYSTEM
2 29 31
