AV-unprocessed.smi:1151|AV-procd|sdf|4896|dock4
  -GOLD-   22720 3473D 1   1.00000     0.00000
 Structure written by MMmdl.
 35 36  0  0  0  0  0  0  0  0  1 V2000
  150.5262  141.6369  155.8732 C   0  0  0  0  0  0  0  0  0  0  0  0
  149.9954  140.3738  155.2868 C   0  0  0  0  0  0  0  0  0  0  0  0
  148.6930  140.0913  155.1988 N   0  0  0  0  0  0  0  0  0  0  0  0
  148.4514  138.8462  154.6101 C   0  0  0  0  0  0  0  0  0  0  0  0
  147.0425  138.3551  154.4407 C   0  0  0  0  0  0  0  0  0  0  0  0
  146.5518  138.3845  152.9785 C   0  0  0  0  0  0  0  0  0  0  0  0
  146.2672  137.0543  152.4480 N   0  0  0  0  0  0  0  0  0  0  0  0
  145.0810  136.4314  152.5177 C   0  0  0  0  0  0  0  0  0  0  0  0
  144.1015  136.9084  153.0916 O   0  0  0  0  0  0  0  0  0  0  0  0
  144.9841  135.0702  151.8166 C   0  0  1  0  0  0  0  0  0  0  0  0
  143.6330  134.3906  152.0948 C   0  0  0  0  0  0  0  0  0  0  0  0
  143.5652  133.0057  151.4312 C   0  0  0  0  0  0  0  0  0  0  0  0
  144.0574  133.0006  149.9762 C   0  0  0  0  0  0  0  0  0  0  0  0
  143.7644  132.0594  149.2425 O   0  0  0  0  0  0  0  0  0  0  0  0
  144.8317  134.0120  149.5454 N   0  0  0  0  0  0  0  0  0  0  0  0
  145.1763  135.2213  150.2931 C   0  0  0  0  0  0  0  0  0  0  0  0
  149.5998  138.1849  154.2515 C   0  0  0  0  0  0  0  0  0  0  0  0
  151.0275  139.1003  154.6473 S   0  0  0  0  0  0  0  0  0  0  0  0
  149.7644  142.4170  155.8544 H   0  0  0  0  0  0  0  0  0  0  0  0
  151.3898  141.9805  155.3036 H   0  0  0  0  0  0  0  0  0  0  0  0
  150.8312  141.4683  156.9060 H   0  0  0  0  0  0  0  0  0  0  0  0
  146.9525  137.3391  154.8264 H   0  0  0  0  0  0  0  0  0  0  0  0
  146.3712  138.9569  155.0543 H   0  0  0  0  0  0  0  0  0  0  0  0
  145.6266  138.9586  152.9204 H   0  0  0  0  0  0  0  0  0  0  0  0
  147.2744  138.8984  152.3429 H   0  0  0  0  0  0  0  0  0  0  0  0
  147.0186  136.5901  151.9587 H   0  0  0  0  0  0  0  0  0  0  0  0
  145.7743  134.4227  152.2018 H   0  0  0  0  0  0  0  0  0  0  0  0
  143.4751  134.2865  153.1692 H   0  0  0  0  0  0  0  0  0  0  0  0
  142.8143  135.0088  151.7217 H   0  0  0  0  0  0  0  0  0  0  0  0
  144.1842  132.3036  151.9906 H   0  0  0  0  0  0  0  0  0  0  0  0
  142.5450  132.6222  151.4718 H   0  0  0  0  0  0  0  0  0  0  0  0
  145.1678  133.9627  148.5944 H   0  0  0  0  0  0  0  0  0  0  0  0
  144.5585  136.0323  149.9040 H   0  0  0  0  0  0  0  0  0  0  0  0
  146.2110  135.4844  150.0702 H   0  0  0  0  0  0  0  0  0  0  0  0
  149.6907  137.2137  153.7878 H   0  0  0  0  0  0  0  0  0  0  0  0
  1  2  1  0  0  0  0
  1 19  1  0  0  0  0
  1 20  1  0  0  0  0
  1 21  1  0  0  0  0
  2 18  1  0  0  0  0
  2  3  2  0  0  0  0
  3  4  1  0  0  0  0
  4  5  1  0  0  0  0
  4 17  2  0  0  0  0
  5  6  1  0  0  0  0
  5 22  1  0  0  0  0
  5 23  1  0  0  0  0
  6  7  1  0  0  0  0
  6 24  1  0  0  0  0
  6 25  1  0  0  0  0
  7  8  1  0  0  0  0
  7 26  1  0  0  0  0
  8  9  2  0  0  0  0
  8 10  1  0  0  0  0
 10 16  1  0  0  0  0
 10 11  1  0  0  0  0
 10 27  1  0  0  0  0
 11 12  1  0  0  0  0
 11 28  1  0  0  0  0
 11 29  1  0  0  0  0
 12 13  1  0  0  0  0
 12 30  1  0  0  0  0
 12 31  1  0  0  0  0
 13 14  2  0  0  0  0
 13 15  1  0  0  0  0
 15 16  1  0  0  0  0
 15 32  1  0  0  0  0
 16 33  1  0  0  0  0
 16 34  1  0  0  0  0
 17 18  1  0  0  0  0
 17 35  1  0  0  0  0
M  END
> <s_m_source_file>
AV-unprocessed.smi

> <i_m_source_file_index>
1151

> <i_lp_mmshare_version>
43012

> <i_f3d_flags>
0

> <s_epik_input>
W0NIM11jMW5jKFtjSF1zMSlbQ0gyXVtDSDJdW05IXUMoPU8pW0NAQEhdMltDSDJdW0NIMl1DKD1PKVtOSF1bQ0gyXTI=

> <s_epik_cmdline>
J2VwaWtfcHl0aG9uJywgJy1waCcsICc3LjAnLCAnLXRuJywgJzgnLCAnLW1hJywgJzIwMCcsICctbWV0YWxfYmluZGluZycsICctaW1hZScsICc8aW5maWxlLm1hZT4nLCAnLW9tYWUnLCAnPG91dGZpbGUubWFlPic=

> <r_epik_Ionization_Penalty>
0.00105008

> <r_epik_Ionization_Penalty_Charging>
0

> <r_epik_Ionization_Penalty_Neutral>
0.00105008

> <r_epik_State_Penalty>
0.000686749

> <r_epik_Charging_Adjusted_Penalty>
0.000686749

> <i_epik_Tot_Q>
0

> <i_epik_Tot_abs_Q>
0

> <r_epik_Metal_State_Penalty>
-0

> <b_epik_Metal_Only>
0

> <s_lp_Force_Field>
OPLS_2005

> <r_lp_Energy>
7.51238

> <b_lp_Chiralities_Consistent>
1

> <s_lp_Variant>
AV-unprocessed.smi:1151-2

> <Gold.Version>
5.8.1

> <Gold.Id.Protein>
6NUR|6NUR_protein|mol2

> <Gold.PLP.Fitness>
38.5781

> <Gold.PLP.PLP>
-29.4619

> <Gold.PLP.part.hbond>
-2.6911

> <Gold.PLP.part.metal>
0.0000

> <Gold.PLP.part.buried>
-2.9953

> <Gold.PLP.part.nonpolar>
-24.6303

> <Gold.PLP.part.repulsive>
0.5919

> <Gold.PLP.ligand.clash>
0.0000

> <Gold.PLP.ligand.torsion>
0.7687

> <Gold.PLP.Chemscore.Hbond>
2.5451

> <Gold.PLP.Chemscore.CHOScore>
1.0000

> <Gold.PLP.Chemscore.Metal>
0.0000

> <Gold.Chemscore.Hbonds>
donor molecule, donor type, donor heavy atom, donor atom, acceptor molecule, acceptor atom, score
      L1  H     7    26       P1  7948  0.96
      L1  H    15    32       P1  7921  0.77
      P1  H 10785 10796       L1    14  0.77
      L1  C    17    35       P1  7948  1.00

> <Gold.PLP.Chemscore.Internal.Correction>
0.0184

> <Gold.Rescore>
     Score         DG    S(hbond)    S(metal)    S(lipo)     H(rot)  DE(clash)    DE(int)     intcor
     15.31     -16.75       2.47        0.00      63.02       1.70       0.64       0.81       ----

> <Gold.Chemscore.Fitness>
15.3075

> <Gold.Chemscore.DG>
-16.7509

> <Gold.Chemscore.ZeroCoef>
-5.4800

> <Gold.Chemscore.Hbond>
2.4681

> <Gold.Chemscore.Metal>
0.0000

> <Gold.Chemscore.Lipo>
63.0231

> <Gold.Chemscore.Internal_Hbond>
0.0000

> <Gold.Chemscore.DEClash>
0.6369

> <Gold.Chemscore.DEInternal>
0.8065

> <Gold.Chemscore.Rot>
1.6978

> <Gold.Chemscore.Internal.Correction>
   9.000000E+99

> <Gold.Chemscore.Hbonds>
donor molecule, donor type, donor heavy atom, donor atom, acceptor molecule, acceptor atom, score
      L1  H     7    26       P1  7948  0.91
      L1  H    15    32       P1  7921  0.73
      P1  H 10785 10796       L1    14  0.74

> <Gold.Chemscore.Hbond.Weighted>
-8.2435

> <Gold.Chemscore.Metal.Weighted>
-0.0000

> <Gold.Chemscore.Lipo.Weighted>
-7.3737

> <Gold.Chemscore.Internal_Hbond.Weighted>
0.0000

> <Gold.Chemscore.DEClash.Weighted>
0.6369

> <Gold.Chemscore.DEInternal.Weighted>
0.8065

> <Gold.Chemscore.Rot.Weighted>
4.3463

> <Gold.Chemscore.Internal.Correction.Weighted>
   9.000000E+99

> <Gold.Protein.RotatedTorsions>
[ 6907 6896 6895 6894 ] final   65.45 input  -60.11 | X-H torsion
[ 7974 7965 7964 7962 ] final  -39.40 input  175.53 | X-H torsion
[ 8008 7997 7996 7995 ] final -110.03 input   59.86 | X-H torsion
[ 10167 10162 10161 10158 ] final  -20.62 input  -65.29 | X-H torsion
[ 10718 10713 10712 10709 ] final   99.85 input   66.30 | X-H torsion
[ 10763 10752 10751 10750 ] final   17.58 input  -60.55 | X-H torsion
[ 11005 11000 10999 10996 ] final  -31.57 input  -57.11 | X-H torsion

> <Gold.Protein.ActiveResidues>
 VAL166  LYS551  ARG553  GLY616  TRP617  ASP618  TYR619  PRO620  LYS621  CYS622 
 ASP623  PHE694  ASN695  SER759  ASP760  ASP761  ALA762  ILE779  LEU786  VAL792 
 PHE793  MET794  SER795  GLU796  ALA797  LYS798  CYS799  TRP800  GLU811  SER814 

> <Gold.Protein.RotatedAtoms>
  152.4408  134.5594  159.9889 H   0  0  0  0  0  0  0  0  0  0  0  0  # atno 6907 bound_to 6896
  151.5692  133.3386  159.2994 H   0  0  0  0  0  0  0  0  0  0  0  0  # atno 6908 bound_to 6896
  150.8314  134.7603  159.6921 H   0  0  0  0  0  0  0  0  0  0  0  0  # atno 6909 bound_to 6896
  146.0400  140.6621  142.9092 H   0  0  0  0  0  0  0  0  0  0  0  0  # atno 7974 bound_to 7965
  154.9683  140.0398  157.2223 H   0  0  0  0  0  0  0  0  0  0  0  0  # atno 8008 bound_to 7997
  154.7824  140.2821  155.6031 H   0  0  0  0  0  0  0  0  0  0  0  0  # atno 8009 bound_to 7997
  156.2938  140.2589  156.2653 H   0  0  0  0  0  0  0  0  0  0  0  0  # atno 8010 bound_to 7997
  140.7277  143.4705  151.0253 H   0  0  0  0  0  0  0  0  0  0  0  0  # atno 10167 bound_to 10162
  157.6867  131.0682  150.5012 H   0  0  0  0  0  0  0  0  0  0  0  0  # atno 10718 bound_to 10713
  153.1326  135.6743  153.9154 H   0  0  0  0  0  0  0  0  0  0  0  0  # atno 10763 bound_to 10752
  153.8636  135.3078  155.3440 H   0  0  0  0  0  0  0  0  0  0  0  0  # atno 10764 bound_to 10752
  154.7720  135.4934  153.9750 H   0  0  0  0  0  0  0  0  0  0  0  0  # atno 10765 bound_to 10752
  140.9479  133.7238  156.1175 H   0  0  0  0  0  0  0  0  0  0  0  0  # atno 11005 bound_to 11000
  144.7070  140.3890  143.7110 LP  0  0  0  0  0  0  0  0  0  0  0  0  # atno 17320 bound_to 7965
  145.6900  139.1637  143.2652 LP  0  0  0  0  0  0  0  0  0  0  0  0  # atno 17321 bound_to 7965
  139.8397  143.7581  152.3180 LP  0  0  0  0  0  0  0  0  0  0  0  0  # atno 17342 bound_to 10162
  139.7725  144.7472  151.0204 LP  0  0  0  0  0  0  0  0  0  0  0  0  # atno 17343 bound_to 10162
  156.5333  130.4190  149.6190 LP  0  0  0  0  0  0  0  0  0  0  0  0  # atno 17370 bound_to 10713
  156.3050  130.7197  151.2077 LP  0  0  0  0  0  0  0  0  0  0  0  0  # atno 17371 bound_to 10713
  140.7643  134.3904  157.5520 LP  0  0  0  0  0  0  0  0  0  0  0  0  # atno 17394 bound_to 11000
  139.8839  134.8981  156.2739 LP  0  0  0  0  0  0  0  0  0  0  0  0  # atno 17395 bound_to 11000

$$$$
