AV-unprocessed.smi:890|AV-procd|sdf|4057|dock3
  -GOLD-   22720 1543D 1   1.00000     0.00000
 Structure written by MMmdl.
 52 55  0  0  0  0  0  0  0  0  2 V2000
  149.9744  134.5039  155.8193 O   0  0  0  0  0  0  0  0  0  0  0  0
  149.5614  134.9696  154.7577 C   0  0  0  0  0  0  0  0  0  0  0  0
  148.9633  134.2698  153.7794 N   0  0  0  0  0  0  0  0  0  0  0  0
  148.7135  132.8687  153.7122 C   0  0  0  0  0  0  0  0  0  0  0  0
  149.5387  131.9134  154.3552 C   0  0  0  0  0  0  0  0  0  0  0  0
  149.2079  130.5496  154.2682 C   0  0  0  0  0  0  0  0  0  0  0  0
  148.0562  130.1871  153.5488 C   0  0  0  0  0  0  0  0  0  0  0  0
  147.2523  131.0843  152.9434 N   0  0  0  0  0  0  0  0  0  0  0  0
  147.5606  132.4020  153.0239 C   0  0  0  0  0  0  0  0  0  0  0  0
  146.7165  133.3139  152.3549 N   0  0  0  0  0  0  0  0  0  0  0  0
  146.7092  133.1447  150.9041 C   0  0  0  0  0  0  0  0  0  0  0  0
  145.2700  133.3868  150.4439 C   0  0  0  0  0  0  0  0  0  0  0  0
  144.4476  133.0189  151.6725 C   0  0  0  0  0  0  0  0  0  0  0  0
  145.3409  133.4911  152.8177 C   0  0  0  0  0  0  0  0  0  0  0  0
  149.6755  136.2638  154.4258 N   0  0  0  0  0  0  0  0  0  0  0  0
  150.2787  137.2958  155.2642 C   0  0  2  0  0  0  0  0  0  0  0  0
  149.1830  138.2053  155.8445 C   0  0  0  0  0  0  0  0  0  0  0  0
  149.7926  139.3501  156.6714 C   0  0  0  0  0  0  0  0  0  0  0  0
  150.7523  140.1410  155.8614 N   0  3  1  0  0  0  0  0  0  0  0  0
  151.2735  141.3123  156.5992 C   0  0  0  0  0  0  0  0  0  0  0  0
  151.4280  141.0793  158.0842 C   0  0  0  0  0  0  0  0  0  0  0  0
  150.2779  141.9128  157.5640 C   0  0  0  0  0  0  0  0  0  0  0  0
  151.8435  139.2940  155.3195 C   0  0  0  0  0  0  0  0  0  0  0  0
  151.2817  138.1478  154.4626 C   0  0  0  0  0  0  0  0  0  0  0  0
  148.7474  134.7816  152.9364 H   0  0  0  0  0  0  0  0  0  0  0  0
  150.4079  132.1998  154.9265 H   0  0  0  0  0  0  0  0  0  0  0  0
  149.8203  129.8001  154.7470 H   0  0  0  0  0  0  0  0  0  0  0  0
  147.7694  129.1497  153.4608 H   0  0  0  0  0  0  0  0  0  0  0  0
  147.4001  133.8386  150.4245 H   0  0  0  0  0  0  0  0  0  0  0  0
  147.0184  132.1316  150.6410 H   0  0  0  0  0  0  0  0  0  0  0  0
  145.1282  134.4426  150.2094 H   0  0  0  0  0  0  0  0  0  0  0  0
  145.0040  132.8054  149.5608 H   0  0  0  0  0  0  0  0  0  0  0  0
  143.4607  133.4824  151.6833 H   0  0  0  0  0  0  0  0  0  0  0  0
  144.3178  131.9368  151.7231 H   0  0  0  0  0  0  0  0  0  0  0  0
  145.1081  132.9807  153.7524 H   0  0  0  0  0  0  0  0  0  0  0  0
  145.1863  134.5561  152.9937 H   0  0  0  0  0  0  0  0  0  0  0  0
  149.3114  136.5569  153.5308 H   0  0  0  0  0  0  0  0  0  0  0  0
  150.8010  136.8148  156.0940 H   0  0  0  0  0  0  0  0  0  0  0  0
  148.5806  138.6241  155.0365 H   0  0  0  0  0  0  0  0  0  0  0  0
  148.5030  137.6228  156.4674 H   0  0  0  0  0  0  0  0  0  0  0  0
  148.9960  140.0010  157.0334 H   0  0  0  0  0  0  0  0  0  0  0  0
  150.2995  138.9505  157.5512 H   0  0  0  0  0  0  0  0  0  0  0  0
  151.9764  141.9482  156.0635 H   0  0  0  0  0  0  0  0  0  0  0  0
  151.1941  140.0926  158.4796 H   0  0  0  0  0  0  0  0  0  0  0  0
  152.2330  141.6050  158.5939 H   0  0  0  0  0  0  0  0  0  0  0  0
  150.3257  142.9871  157.7306 H   0  0  0  0  0  0  0  0  0  0  0  0
  149.2808  141.4786  157.6142 H   0  0  0  0  0  0  0  0  0  0  0  0
  152.5149  139.9048  154.7148 H   0  0  0  0  0  0  0  0  0  0  0  0
  152.4367  138.8914  156.1423 H   0  0  0  0  0  0  0  0  0  0  0  0
  152.1037  137.5279  154.1028 H   0  0  0  0  0  0  0  0  0  0  0  0
  150.7956  138.5601  153.5771 H   0  0  0  0  0  0  0  0  0  0  0  0
  150.2397  140.5015  155.0693 H   0  0  0  0  0  0  0  0  0  0  0  0
  1  2  2  0  0  0  0
  2  3  1  0  0  0  0
  2 15  1  0  0  0  0
  3  4  1  0  0  0  0
  3 25  1  0  0  0  0
  4  9  1  0  0  0  0
  4  5  2  0  0  0  0
  5  6  1  0  0  0  0
  5 26  1  0  0  0  0
  6  7  2  0  0  0  0
  6 27  1  0  0  0  0
  7  8  1  0  0  0  0
  7 28  1  0  0  0  0
  8  9  2  0  0  0  0
  9 10  1  0  0  0  0
 10 14  1  0  0  0  0
 10 11  1  0  0  0  0
 11 12  1  0  0  0  0
 11 29  1  0  0  0  0
 11 30  1  0  0  0  0
 12 13  1  0  0  0  0
 12 31  1  0  0  0  0
 12 32  1  0  0  0  0
 13 14  1  0  0  0  0
 13 33  1  0  0  0  0
 13 34  1  0  0  0  0
 14 35  1  0  0  0  0
 14 36  1  0  0  0  0
 15 16  1  0  0  0  0
 15 37  1  0  0  0  0
 16 24  1  0  0  0  0
 16 17  1  0  0  0  0
 16 38  1  0  0  0  0
 17 18  1  0  0  0  0
 17 39  1  0  0  0  0
 17 40  1  0  0  0  0
 18 19  1  0  0  0  0
 18 41  1  0  0  0  0
 18 42  1  0  0  0  0
 19 20  1  0  0  0  0
 19 23  1  0  0  0  0
 19 52  1  0  0  0  0
 20 22  1  0  0  0  0
 20 21  1  0  0  0  0
 20 43  1  0  0  0  0
 21 22  1  0  0  0  0
 21 44  1  0  0  0  0
 21 45  1  0  0  0  0
 22 46  1  0  0  0  0
 22 47  1  0  0  0  0
 23 24  1  0  0  0  0
 23 48  1  0  0  0  0
 23 49  1  0  0  0  0
 24 50  1  0  0  0  0
 24 51  1  0  0  0  0
M  CHG  1  19   1
M  END
> <s_m_source_file>
AV-unprocessed.smi

> <i_m_source_file_index>
890

> <i_lp_mmshare_version>
43012

> <i_f3d_flags>
0

> <s_epik_input>
W0NIMl0xW0NIMl1bQ0hdMU4oW0NIMl1bQ0gyXTIpW0NIMl1bQ0gyXVtDSF0yW05IXUMoPU8pW05IXWMzW2NIXVtjSF1bY0hdbmMzTjRbQ0gyXVtDSDJdW0NIMl1bQ0gyXTQ=

> <s_epik_cmdline>
J2VwaWtfcHl0aG9uJywgJy1waCcsICc3LjAnLCAnLXRuJywgJzgnLCAnLW1hJywgJzIwMCcsICctbWV0YWxfYmluZGluZycsICctaW1hZScsICc8aW5maWxlLm1hZT4nLCAnLW9tYWUnLCAnPG91dGZpbGUubWFlPic=

> <r_lp_tautomer_probability>
1

> <r_epik_Ionization_Penalty>
0.193768

> <r_epik_Ionization_Penalty_Charging>
0.115549

> <r_epik_Ionization_Penalty_Neutral>
0.078219

> <r_epik_State_Penalty>
0.174811

> <r_epik_Charging_Adjusted_Penalty>
0.29036

> <i_epik_Tot_Q>
1

> <i_epik_Tot_abs_Q>
1

> <r_epik_Metal_State_Penalty>
0.169761

> <b_epik_Metal_Only>
0

> <s_lp_Force_Field>
OPLS_2005

> <r_lp_Energy>
54.8622

> <b_lp_Chiralities_Consistent>
1

> <s_lp_Variant>
AV-unprocessed.smi:890-1

> <Gold.Version>
5.8.1

> <Gold.Id.Protein>
6NUR|6NUR_protein|mol2

> <Gold.PLP.Fitness>
43.4167

> <Gold.PLP.PLP>
-38.2405

> <Gold.PLP.part.hbond>
-2.1086

> <Gold.PLP.part.metal>
0.0000

> <Gold.PLP.part.buried>
-5.1817

> <Gold.PLP.part.nonpolar>
-30.9658

> <Gold.PLP.part.repulsive>
0.4147

> <Gold.PLP.ligand.clash>
0.0000

> <Gold.PLP.ligand.torsion>
1.0209

> <Gold.PLP.Chemscore.Hbond>
1.9420

> <Gold.PLP.Chemscore.CHOScore>
0.0000

> <Gold.PLP.Chemscore.Metal>
0.0000

> <Gold.Chemscore.Hbonds>
donor molecule, donor type, donor heavy atom, donor atom, acceptor molecule, acceptor atom, score
      L1  H     3    25       P1  7948  0.90
      L1  H    15    37       P1  7948  0.99

> <Gold.PLP.Chemscore.Internal.Correction>
1.3920

> <Gold.Rescore>
     Score         DG    S(hbond)    S(metal)    S(lipo)     H(rot)  DE(clash)    DE(int)     intcor
     14.77     -16.90       1.42        0.00      86.05       1.33       0.02       2.10       ----

> <Gold.Chemscore.Fitness>
14.7723

> <Gold.Chemscore.DG>
-16.8970

> <Gold.Chemscore.ZeroCoef>
-5.4800

> <Gold.Chemscore.Hbond>
1.4229

> <Gold.Chemscore.Metal>
0.0000

> <Gold.Chemscore.Lipo>
86.0470

> <Gold.Chemscore.Internal_Hbond>
0.0000

> <Gold.Chemscore.DEClash>
0.0232

> <Gold.Chemscore.DEInternal>
2.1014

> <Gold.Chemscore.Rot>
1.3294

> <Gold.Chemscore.Internal.Correction>
   9.000000E+99

> <Gold.Chemscore.Hbonds>
donor molecule, donor type, donor heavy atom, donor atom, acceptor molecule, acceptor atom, score
      L1  H     3    25       P1  7948  0.17
      L1  H    15    37       P1  7948  0.88

> <Gold.Chemscore.Hbond.Weighted>
-4.7526

> <Gold.Chemscore.Metal.Weighted>
-0.0000

> <Gold.Chemscore.Lipo.Weighted>
-10.0675

> <Gold.Chemscore.Internal_Hbond.Weighted>
0.0000

> <Gold.Chemscore.DEClash.Weighted>
0.0232

> <Gold.Chemscore.DEInternal.Weighted>
2.1014

> <Gold.Chemscore.Rot.Weighted>
3.4032

> <Gold.Chemscore.Internal.Correction.Weighted>
   9.000000E+99

> <Gold.Protein.RotatedTorsions>
[ 6907 6896 6895 6894 ] final   -9.05 input  -60.11 | X-H torsion
[ 7974 7965 7964 7962 ] final    5.70 input  175.53 | X-H torsion
[ 8008 7997 7996 7995 ] final  139.34 input   59.86 | X-H torsion
[ 10167 10162 10161 10158 ] final -171.93 input  -65.29 | X-H torsion
[ 10718 10713 10712 10709 ] final   95.78 input   66.30 | X-H torsion
[ 10763 10752 10751 10750 ] final  -48.60 input  -60.55 | X-H torsion
[ 11005 11000 10999 10996 ] final   28.50 input  -57.11 | X-H torsion

> <Gold.Protein.ActiveResidues>
 VAL166  LYS551  ARG553  GLY616  TRP617  ASP618  TYR619  PRO620  LYS621  CYS622 
 ASP623  PHE694  ASN695  SER759  ASP760  ASP761  ALA762  ILE779  LEU786  VAL792 
 PHE793  MET794  SER795  GLU796  ALA797  LYS798  CYS799  TRP800  GLU811  SER814 

> <Gold.Protein.RotatedAtoms>
  151.4240  135.1001  159.9622 H   0  0  0  0  0  0  0  0  0  0  0  0  # atno 6907 bound_to 6896
  152.4979  133.8680  159.7294 H   0  0  0  0  0  0  0  0  0  0  0  0  # atno 6908 bound_to 6896
  150.9203  133.6831  159.2861 H   0  0  0  0  0  0  0  0  0  0  0  0  # atno 6909 bound_to 6896
  146.2439  140.0344  142.8387 H   0  0  0  0  0  0  0  0  0  0  0  0  # atno 7974 bound_to 7965
  156.2990  140.2370  156.4221 H   0  0  0  0  0  0  0  0  0  0  0  0  # atno 8008 bound_to 7997
  154.8346  140.0431  157.1520 H   0  0  0  0  0  0  0  0  0  0  0  0  # atno 8009 bound_to 7997
  154.9170  140.2998  155.5240 H   0  0  0  0  0  0  0  0  0  0  0  0  # atno 8010 bound_to 7997
  139.5773  144.1502  152.1468 H   0  0  0  0  0  0  0  0  0  0  0  0  # atno 10167 bound_to 10162
  157.6935  131.0556  150.4390 H   0  0  0  0  0  0  0  0  0  0  0  0  # atno 10718 bound_to 10713
  154.0805  135.6592  153.4837 H   0  0  0  0  0  0  0  0  0  0  0  0  # atno 10763 bound_to 10752
  153.0358  135.5178  154.7479 H   0  0  0  0  0  0  0  0  0  0  0  0  # atno 10764 bound_to 10752
  154.6572  135.3009  154.9880 H   0  0  0  0  0  0  0  0  0  0  0  0  # atno 10765 bound_to 10752
  140.3149  134.2608  155.7727 H   0  0  0  0  0  0  0  0  0  0  0  0  # atno 11005 bound_to 11000
  145.1126  140.9414  143.4648 LP  0  0  0  0  0  0  0  0  0  0  0  0  # atno 17320 bound_to 7965
  145.0561  139.3142  143.5904 LP  0  0  0  0  0  0  0  0  0  0  0  0  # atno 17321 bound_to 7965
  140.1048  144.5508  150.6964 LP  0  0  0  0  0  0  0  0  0  0  0  0  # atno 17342 bound_to 10162
  140.7055  143.2465  151.4739 LP  0  0  0  0  0  0  0  0  0  0  0  0  # atno 17343 bound_to 10162
  156.4751  130.4061  149.6495 LP  0  0  0  0  0  0  0  0  0  0  0  0  # atno 17370 bound_to 10713
  156.3561  130.7457  151.2423 LP  0  0  0  0  0  0  0  0  0  0  0  0  # atno 17371 bound_to 10713
  141.2100  133.7733  156.9961 LP  0  0  0  0  0  0  0  0  0  0  0  0  # atno 17394 bound_to 11000
  140.0992  134.9545  157.1897 LP  0  0  0  0  0  0  0  0  0  0  0  0  # atno 17395 bound_to 11000

$$$$
