AV-unprocessed.smi:1534|AV-procd|sdf|6169|dock10
  -GOLD-   22720 6323D 1   1.00000     0.00000
 Structure written by MMmdl.
 37 38  0  0  0  0  0  0  0  0  2 V2000
  146.4569  136.9088  153.2770 O   0  0  0  0  0  0  0  0  0  0  0  0
  145.7099  137.8303  152.9559 C   0  0  0  0  0  0  0  0  0  0  0  0
  144.5139  137.6434  152.3740 N   0  0  0  0  0  0  0  0  0  0  0  0
  143.9767  136.3542  151.9517 C   0  0  0  0  0  0  0  0  0  0  0  0
  144.7387  135.7553  150.7518 C   0  0  0  0  0  0  0  0  0  0  0  0
  144.7236  134.2357  150.7164 C   0  0  0  0  0  0  0  0  0  0  0  0
  145.8925  133.4700  150.9174 C   0  0  0  0  0  0  0  0  0  0  0  0
  145.8061  132.0621  150.8967 C   0  0  0  0  0  0  0  0  0  0  0  0
  144.5544  131.4499  150.6787 C   0  0  0  0  0  0  0  0  0  0  0  0
  143.4189  132.2622  150.4832 C   0  0  0  0  0  0  0  0  0  0  0  0
  143.5431  133.6071  150.5076 N   0  3  0  0  0  0  0  0  0  0  0  0
  146.0383  139.1180  153.1614 N   0  0  0  0  0  0  0  0  0  0  0  0
  147.2607  139.6467  153.7686 C   0  0  1  0  0  0  0  0  0  0  0  0
  147.4024  141.1700  153.5707 C   0  0  0  0  0  0  0  0  0  0  0  0
  148.4673  141.7032  154.5401 C   0  0  0  0  0  0  0  0  0  0  0  0
  148.5030  140.5449  155.9624 S   0  0  0  0  0  0  0  0  0  0  0  0
  149.8205  139.8923  156.0052 O   0  0  0  0  0  0  0  0  0  0  0  0
  147.9392  141.1965  157.1541 O   0  0  0  0  0  0  0  0  0  0  0  0
  147.2778  139.3720  155.2761 C   0  0  0  0  0  0  0  0  0  0  0  0
  143.9544  138.4582  152.1682 H   0  0  0  0  0  0  0  0  0  0  0  0
  143.9689  135.6525  152.7872 H   0  0  0  0  0  0  0  0  0  0  0  0
  142.9342  136.5127  151.6744 H   0  0  0  0  0  0  0  0  0  0  0  0
  144.3105  136.1308  149.8210 H   0  0  0  0  0  0  0  0  0  0  0  0
  145.7729  136.1008  150.7660 H   0  0  0  0  0  0  0  0  0  0  0  0
  146.8434  133.9534  151.0893 H   0  0  0  0  0  0  0  0  0  0  0  0
  146.6893  131.4590  151.0491 H   0  0  0  0  0  0  0  0  0  0  0  0
  144.4670  130.3733  150.6617 H   0  0  0  0  0  0  0  0  0  0  0  0
  142.4232  131.8803  150.3104 H   0  0  0  0  0  0  0  0  0  0  0  0
  145.3311  139.8021  152.9331 H   0  0  0  0  0  0  0  0  0  0  0  0
  148.1372  139.1551  153.3416 H   0  0  0  0  0  0  0  0  0  0  0  0
  147.6415  141.4280  152.5386 H   0  0  0  0  0  0  0  0  0  0  0  0
  146.4503  141.6497  153.8030 H   0  0  0  0  0  0  0  0  0  0  0  0
  149.4547  141.6983  154.0780 H   0  0  0  0  0  0  0  0  0  0  0  0
  148.2516  142.7145  154.8857 H   0  0  0  0  0  0  0  0  0  0  0  0
  146.3121  139.5967  155.7307 H   0  0  0  0  0  0  0  0  0  0  0  0
  147.5540  138.3480  155.5275 H   0  0  0  0  0  0  0  0  0  0  0  0
  142.7083  134.1765  150.3656 H   0  0  0  0  0  0  0  0  0  0  0  0
  1  2  2  0  0  0  0
  2  3  1  0  0  0  0
  2 12  1  0  0  0  0
  3  4  1  0  0  0  0
  3 20  1  0  0  0  0
  4  5  1  0  0  0  0
  4 21  1  0  0  0  0
  4 22  1  0  0  0  0
  5  6  1  0  0  0  0
  5 23  1  0  0  0  0
  5 24  1  0  0  0  0
  6 11  1  0  0  0  0
  6  7  2  0  0  0  0
  7  8  1  0  0  0  0
  7 25  1  0  0  0  0
  8  9  2  0  0  0  0
  8 26  1  0  0  0  0
  9 10  1  0  0  0  0
  9 27  1  0  0  0  0
 10 11  2  0  0  0  0
 10 28  1  0  0  0  0
 11 37  1  0  0  0  0
 12 13  1  0  0  0  0
 12 29  1  0  0  0  0
 13 19  1  0  0  0  0
 13 14  1  0  0  0  0
 13 30  1  0  0  0  0
 14 15  1  0  0  0  0
 14 31  1  0  0  0  0
 14 32  1  0  0  0  0
 15 16  1  0  0  0  0
 15 33  1  0  0  0  0
 15 34  1  0  0  0  0
 16 17  2  0  0  0  0
 16 18  2  0  0  0  0
 16 19  1  0  0  0  0
 19 35  1  0  0  0  0
 19 36  1  0  0  0  0
M  CHG  1  11   1
M  END
> <s_m_source_file>
AV-unprocessed.smi

> <i_m_source_file_index>
1534

> <i_lp_mmshare_version>
43012

> <i_f3d_flags>
0

> <s_epik_input>
Tz1TMSg9TylbQ0gyXVtDSDJdW0NASF0oW0NIMl0xKVtOSF1DKD1PKVtOSF1bQ0gyXVtDSDJdYzJbY0hdW2NIXVtjSF1bY0hdbjI=

> <s_epik_cmdline>
J2VwaWtfcHl0aG9uJywgJy1waCcsICc3LjAnLCAnLXRuJywgJzgnLCAnLW1hJywgJzIwMCcsICctbWV0YWxfYmluZGluZycsICctaW1hZScsICc8aW5maWxlLm1hZT4nLCAnLW9tYWUnLCAnPG91dGZpbGUubWFlPic=

> <r_epik_Ionization_Penalty>
1.58466

> <r_epik_Ionization_Penalty_Charging>
1.58462

> <r_epik_Ionization_Penalty_Neutral>
3.4911e-05

> <r_epik_State_Penalty>
1.6815

> <r_epik_Charging_Adjusted_Penalty>
3.26612

> <i_epik_Tot_Q>
1

> <i_epik_Tot_abs_Q>
1

> <r_epik_Metal_State_Penalty>
1.72144

> <b_epik_Metal_Only>
0

> <s_lp_Force_Field>
OPLS_2005

> <r_lp_Energy>
19.4727

> <b_lp_Chiralities_Consistent>
1

> <s_lp_Variant>
AV-unprocessed.smi:1534-4

> <Gold.Version>
5.8.1

> <Gold.Id.Protein>
6NUR|6NUR_protein|mol2

> <Gold.PLP.Fitness>
42.9333

> <Gold.PLP.PLP>
-31.8899

> <Gold.PLP.part.hbond>
-4.0000

> <Gold.PLP.part.metal>
0.0000

> <Gold.PLP.part.buried>
-4.8359

> <Gold.PLP.part.nonpolar>
-24.2926

> <Gold.PLP.part.repulsive>
1.4021

> <Gold.PLP.ligand.clash>
0.0000

> <Gold.PLP.ligand.torsion>
0.3877

> <Gold.PLP.Chemscore.Hbond>
3.9357

> <Gold.PLP.Chemscore.CHOScore>
0.0000

> <Gold.PLP.Chemscore.Metal>
0.0000

> <Gold.Chemscore.Hbonds>
donor molecule, donor type, donor heavy atom, donor atom, acceptor molecule, acceptor atom, score
      L1  H     3    20       P1 10175  0.96
      L1  H    11    37       P1 10186  2.00
      L1  H    12    29       P1 10175  1.00

> <Gold.PLP.Chemscore.Internal.Correction>
0.0115

> <Gold.Rescore>
     Score         DG    S(hbond)    S(metal)    S(lipo)     H(rot)  DE(clash)    DE(int)     intcor
     17.68     -18.73       2.74        0.00      74.95       1.82       0.48       0.58       ----

> <Gold.Chemscore.Fitness>
17.6778

> <Gold.Chemscore.DG>
-18.7344

> <Gold.Chemscore.ZeroCoef>
-5.4800

> <Gold.Chemscore.Hbond>
2.7392

> <Gold.Chemscore.Metal>
0.0000

> <Gold.Chemscore.Lipo>
74.9538

> <Gold.Chemscore.Internal_Hbond>
0.0000

> <Gold.Chemscore.DEClash>
0.4765

> <Gold.Chemscore.DEInternal>
0.5800

> <Gold.Chemscore.Rot>
1.8220

> <Gold.Chemscore.Internal.Correction>
   9.000000E+99

> <Gold.Chemscore.Hbonds>
donor molecule, donor type, donor heavy atom, donor atom, acceptor molecule, acceptor atom, score
      L1  H     3    20       P1 10175  0.87
      L1  H    11    37       P1 10186  0.80
      L1  H    12    29       P1 10175  0.99

> <Gold.Chemscore.Hbond.Weighted>
-9.1490

> <Gold.Chemscore.Metal.Weighted>
-0.0000

> <Gold.Chemscore.Lipo.Weighted>
-8.7696

> <Gold.Chemscore.Internal_Hbond.Weighted>
0.0000

> <Gold.Chemscore.DEClash.Weighted>
0.4765

> <Gold.Chemscore.DEInternal.Weighted>
0.5800

> <Gold.Chemscore.Rot.Weighted>
4.6642

> <Gold.Chemscore.Internal.Correction.Weighted>
   9.000000E+99

> <Gold.Protein.RotatedTorsions>
[ 6907 6896 6895 6894 ] final  -53.06 input  -60.11 | X-H torsion
[ 7974 7965 7964 7962 ] final   96.83 input  175.53 | X-H torsion
[ 8008 7997 7996 7995 ] final  175.55 input   59.86 | X-H torsion
[ 10167 10162 10161 10158 ] final -125.28 input  -65.29 | X-H torsion
[ 10718 10713 10712 10709 ] final  178.98 input   66.30 | X-H torsion
[ 10763 10752 10751 10750 ] final  -82.42 input  -60.55 | X-H torsion
[ 11005 11000 10999 10996 ] final -101.91 input  -57.11 | X-H torsion

> <Gold.Protein.ActiveResidues>
 VAL166  LYS551  ARG553  GLY616  TRP617  ASP618  TYR619  PRO620  LYS621  CYS622 
 ASP623  PHE694  ASN695  SER759  ASP760  ASP761  ALA762  ILE779  LEU786  VAL792 
 PHE793  MET794  SER795  GLU796  ALA797  LYS798  CYS799  TRP800  GLU811  SER814 

> <Gold.Protein.RotatedAtoms>
  150.8461  134.7770  159.6970 H   0  0  0  0  0  0  0  0  0  0  0  0  # atno 6907 bound_to 6896
  152.4537  134.5335  159.9828 H   0  0  0  0  0  0  0  0  0  0  0  0  # atno 6908 bound_to 6896
  151.5465  133.3386  159.2981 H   0  0  0  0  0  0  0  0  0  0  0  0  # atno 6909 bound_to 6896
  145.4336  139.2308  143.3131 H   0  0  0  0  0  0  0  0  0  0  0  0  # atno 7974 bound_to 7965
  156.0858  140.1406  156.9654 H   0  0  0  0  0  0  0  0  0  0  0  0  # atno 8008 bound_to 7997
  154.4612  140.0942  156.6946 H   0  0  0  0  0  0  0  0  0  0  0  0  # atno 8009 bound_to 7997
  155.5000  140.3450  155.4372 H   0  0  0  0  0  0  0  0  0  0  0  0  # atno 8010 bound_to 7997
  139.9837  143.5714  152.2368 H   0  0  0  0  0  0  0  0  0  0  0  0  # atno 10167 bound_to 10162
  156.8825  130.9820  151.3060 H   0  0  0  0  0  0  0  0  0  0  0  0  # atno 10718 bound_to 10713
  154.5756  135.5592  153.7136 H   0  0  0  0  0  0  0  0  0  0  0  0  # atno 10763 bound_to 10752
  153.0063  135.6307  154.2054 H   0  0  0  0  0  0  0  0  0  0  0  0  # atno 10764 bound_to 10752
  154.1995  135.2878  155.2975 H   0  0  0  0  0  0  0  0  0  0  0  0  # atno 10765 bound_to 10752
  141.1211  133.8516  157.1292 H   0  0  0  0  0  0  0  0  0  0  0  0  # atno 11005 bound_to 11000
  146.2594  140.5075  142.8860 LP  0  0  0  0  0  0  0  0  0  0  0  0  # atno 17320 bound_to 7965
  144.8167  140.6480  143.6380 LP  0  0  0  0  0  0  0  0  0  0  0  0  # atno 17321 bound_to 7965
  139.6390  144.7653  151.2377 LP  0  0  0  0  0  0  0  0  0  0  0  0  # atno 17342 bound_to 10162
  140.7480  143.6348  150.8389 LP  0  0  0  0  0  0  0  0  0  0  0  0  # atno 17343 bound_to 10162
  157.6132  130.8598  149.8985 LP  0  0  0  0  0  0  0  0  0  0  0  0  # atno 17370 bound_to 10713
  156.0670  130.3691  150.0857 LP  0  0  0  0  0  0  0  0  0  0  0  0  # atno 17371 bound_to 10713
  140.0170  134.9963  157.0513 LP  0  0  0  0  0  0  0  0  0  0  0  0  # atno 17394 bound_to 11000
  140.4503  134.1589  155.7181 LP  0  0  0  0  0  0  0  0  0  0  0  0  # atno 17395 bound_to 11000

$$$$
