AV-unprocessed.smi:1049|AV-procd|sdf|4611|dock1
  -GOLD-   22720 3103D 1   1.00000     0.00000
 Structure written by MMmdl.
 41 42  0  0  0  0  0  0  0  0  2 V2000
  154.4892  140.9064  161.9271 C   0  0  0  0  0  0  0  0  0  0  0  0
  153.3040  141.6039  161.2451 C   0  0  1  0  0  0  0  0  0  0  0  0
  152.9992  142.9702  161.8975 C   0  0  0  0  0  0  0  0  0  0  0  0
  151.8952  143.7355  161.1440 C   0  0  0  0  0  0  0  0  0  0  0  0
  152.2037  143.8019  159.6380 C   0  0  0  0  0  0  0  0  0  0  0  0
  152.3697  142.4297  159.1287 N   0  0  0  0  0  0  0  0  0  0  0  0
  151.4951  141.7515  158.3424 C   0  0  0  0  0  0  0  0  0  0  0  0
  151.7874  140.7154  157.7434 O   0  0  0  0  0  0  0  0  0  0  0  0
  150.2726  142.3027  158.2500 N   0  0  0  0  0  0  0  0  0  0  0  0
  149.1649  141.7635  157.4702 C   0  0  0  0  0  0  0  0  0  0  0  0
  149.6160  141.3636  156.0543 C   0  0  0  0  0  0  0  0  0  0  0  0
  148.5148  141.4038  155.0359 C   0  0  0  0  0  0  0  0  0  0  0  0
  147.8035  142.4876  154.7003 N   0  3  0  0  0  0  0  0  0  0  0  0
  146.8615  142.1716  153.7604 C   0  0  0  0  0  0  0  0  0  0  0  0
  146.9907  140.8290  153.5214 C   0  0  0  0  0  0  0  0  0  0  0  0
  148.0043  140.3796  154.3290 N   0  0  0  0  0  0  0  0  0  0  0  0
  148.4903  138.9986  154.4140 C   0  0  0  0  0  0  0  0  0  0  0  0
  149.8113  138.9617  154.2406 F   0  0  0  0  0  0  0  0  0  0  0  0
  148.1582  138.4568  155.5863 F   0  0  0  0  0  0  0  0  0  0  0  0
  153.5419  141.7788  159.7296 C   0  0  0  0  0  0  0  0  0  0  0  0
  155.4031  141.4939  161.8327 H   0  0  0  0  0  0  0  0  0  0  0  0
  154.6753  139.9275  161.4848 H   0  0  0  0  0  0  0  0  0  0  0  0
  154.2974  140.7567  162.9899 H   0  0  0  0  0  0  0  0  0  0  0  0
  152.4281  140.9661  161.3751 H   0  0  0  0  0  0  0  0  0  0  0  0
  152.7116  142.8359  162.9408 H   0  0  0  0  0  0  0  0  0  0  0  0
  153.9063  143.5764  161.9045 H   0  0  0  0  0  0  0  0  0  0  0  0
  150.9351  143.2411  161.2987 H   0  0  0  0  0  0  0  0  0  0  0  0
  151.7954  144.7416  161.5521 H   0  0  0  0  0  0  0  0  0  0  0  0
  151.4310  144.3755  159.1269 H   0  0  0  0  0  0  0  0  0  0  0  0
  153.1281  144.3575  159.4728 H   0  0  0  0  0  0  0  0  0  0  0  0
  150.0994  143.1544  158.7644 H   0  0  0  0  0  0  0  0  0  0  0  0
  148.7256  140.9126  157.9940 H   0  0  0  0  0  0  0  0  0  0  0  0
  148.3893  142.5275  157.4112 H   0  0  0  0  0  0  0  0  0  0  0  0
  150.4092  142.0294  155.7160 H   0  0  0  0  0  0  0  0  0  0  0  0
  150.0108  140.3471  156.0392 H   0  0  0  0  0  0  0  0  0  0  0  0
  146.1856  142.9055  153.3465 H   0  0  0  0  0  0  0  0  0  0  0  0
  146.4454  140.1750  152.8563 H   0  0  0  0  0  0  0  0  0  0  0  0
  148.0300  138.4014  153.6261 H   0  0  0  0  0  0  0  0  0  0  0  0
  154.4256  142.3946  159.5546 H   0  0  0  0  0  0  0  0  0  0  0  0
  153.7631  140.8133  159.2722 H   0  0  0  0  0  0  0  0  0  0  0  0
  147.9458  143.4111  155.0901 H   0  0  0  0  0  0  0  0  0  0  0  0
  1  2  1  0  0  0  0
  1 21  1  0  0  0  0
  1 22  1  0  0  0  0
  1 23  1  0  0  0  0
  2 20  1  0  0  0  0
  2  3  1  0  0  0  0
  2 24  1  0  0  0  0
  3  4  1  0  0  0  0
  3 25  1  0  0  0  0
  3 26  1  0  0  0  0
  4  5  1  0  0  0  0
  4 27  1  0  0  0  0
  4 28  1  0  0  0  0
  5  6  1  0  0  0  0
  5 29  1  0  0  0  0
  5 30  1  0  0  0  0
  6  7  1  0  0  0  0
  6 20  1  0  0  0  0
  7  8  2  0  0  0  0
  7  9  1  0  0  0  0
  9 10  1  0  0  0  0
  9 31  1  0  0  0  0
 10 11  1  0  0  0  0
 10 32  1  0  0  0  0
 10 33  1  0  0  0  0
 11 12  1  0  0  0  0
 11 34  1  0  0  0  0
 11 35  1  0  0  0  0
 12 16  1  0  0  0  0
 12 13  2  0  0  0  0
 13 14  1  0  0  0  0
 13 41  1  0  0  0  0
 14 15  2  0  0  0  0
 14 36  1  0  0  0  0
 15 16  1  0  0  0  0
 15 37  1  0  0  0  0
 16 17  1  0  0  0  0
 17 18  1  0  0  0  0
 17 19  1  0  0  0  0
 17 38  1  0  0  0  0
 20 39  1  0  0  0  0
 20 40  1  0  0  0  0
M  CHG  1  13   1
M  END
> <s_m_source_file>
AV-unprocessed.smi

> <i_m_source_file_index>
1049

> <i_lp_mmshare_version>
43012

> <i_f3d_flags>
0

> <s_epik_input>
W0NIM11bQ0BASF0xW0NIMl1bQ0gyXVtDSDJdTihbQ0gyXTEpQyg9TylbTkhdW0NIMl1bQ0gyXWMybltjSF1bY0hdbjJbQ0hdKEYpRg==

> <s_epik_cmdline>
J2VwaWtfcHl0aG9uJywgJy1waCcsICc3LjAnLCAnLXRuJywgJzgnLCAnLW1hJywgJzIwMCcsICctbWV0YWxfYmluZGluZycsICctaW1hZScsICc8aW5maWxlLm1hZT4nLCAnLW9tYWUnLCAnPG91dGZpbGUubWFlPic=

> <r_lp_tautomer_probability>
1

> <r_epik_Ionization_Penalty>
1.09766

> <r_epik_Ionization_Penalty_Charging>
0

> <r_epik_Ionization_Penalty_Neutral>
1.09766

> <r_epik_State_Penalty>
1.15444

> <r_epik_Charging_Adjusted_Penalty>
1.15444

> <i_epik_Tot_Q>
1

> <i_epik_Tot_abs_Q>
1

> <r_epik_Metal_State_Penalty>
1.24204

> <b_epik_Metal_Only>
0

> <s_lp_Force_Field>
OPLS_2005

> <r_lp_Energy>
35.939

> <b_lp_Chiralities_Consistent>
1

> <s_lp_Variant>
AV-unprocessed.smi:1049-4

> <Gold.Version>
5.8.1

> <Gold.Id.Protein>
6NUR|6NUR_protein|mol2

> <Gold.PLP.Fitness>
50.3768

> <Gold.PLP.PLP>
-44.5904

> <Gold.PLP.part.hbond>
-1.0000

> <Gold.PLP.part.metal>
0.0000

> <Gold.PLP.part.buried>
-4.7471

> <Gold.PLP.part.nonpolar>
-38.6924

> <Gold.PLP.part.repulsive>
0.2641

> <Gold.PLP.ligand.clash>
0.0000

> <Gold.PLP.ligand.torsion>
0.5416

> <Gold.PLP.Chemscore.Hbond>
2.0000

> <Gold.PLP.Chemscore.CHOScore>
0.2599

> <Gold.PLP.Chemscore.Metal>
0.0000

> <Gold.Chemscore.Hbonds>
donor molecule, donor type, donor heavy atom, donor atom, acceptor molecule, acceptor atom, score
      L1  H    13    41       P1  8028  2.00
      L1  C    15    37       P1 10175  0.27

> <Gold.PLP.Chemscore.Internal.Correction>
0.0898

> <Gold.Rescore>
     Score         DG    S(hbond)    S(metal)    S(lipo)     H(rot)  DE(clash)    DE(int)     intcor
     13.80     -15.72       0.94        0.00      95.72       1.61       0.05       1.88       ----

> <Gold.Chemscore.Fitness>
13.7965

> <Gold.Chemscore.DG>
-15.7194

> <Gold.Chemscore.ZeroCoef>
-5.4800

> <Gold.Chemscore.Hbond>
0.9428

> <Gold.Chemscore.Metal>
0.0000

> <Gold.Chemscore.Lipo>
95.7229

> <Gold.Chemscore.Internal_Hbond>
0.0000

> <Gold.Chemscore.DEClash>
0.0473

> <Gold.Chemscore.DEInternal>
1.8756

> <Gold.Chemscore.Rot>
1.6051

> <Gold.Chemscore.Internal.Correction>
   9.000000E+99

> <Gold.Chemscore.Hbonds>
donor molecule, donor type, donor heavy atom, donor atom, acceptor molecule, acceptor atom, score
      L1  H    13    41       P1  8028  0.64

> <Gold.Chemscore.Hbond.Weighted>
-3.1490

> <Gold.Chemscore.Metal.Weighted>
-0.0000

> <Gold.Chemscore.Lipo.Weighted>
-11.1996

> <Gold.Chemscore.Internal_Hbond.Weighted>
0.0000

> <Gold.Chemscore.DEClash.Weighted>
0.0473

> <Gold.Chemscore.DEInternal.Weighted>
1.8756

> <Gold.Chemscore.Rot.Weighted>
4.1092

> <Gold.Chemscore.Internal.Correction.Weighted>
   9.000000E+99

> <Gold.Protein.RotatedTorsions>
[ 6907 6896 6895 6894 ] final   41.77 input  -60.11 | X-H torsion
[ 7974 7965 7964 7962 ] final  168.93 input  175.53 | X-H torsion
[ 8008 7997 7996 7995 ] final   16.90 input   59.86 | X-H torsion
[ 10167 10162 10161 10158 ] final   73.11 input  -65.29 | X-H torsion
[ 10718 10713 10712 10709 ] final  -98.19 input   66.30 | X-H torsion
[ 10763 10752 10751 10750 ] final  152.87 input  -60.55 | X-H torsion
[ 11005 11000 10999 10996 ] final  114.70 input  -57.11 | X-H torsion

> <Gold.Protein.ActiveResidues>
 VAL166  LYS551  ARG553  GLY616  TRP617  ASP618  TYR619  PRO620  LYS621  CYS622 
 ASP623  PHE694  ASN695  SER759  ASP760  ASP761  ALA762  ILE779  LEU786  VAL792 
 PHE793  MET794  SER795  GLU796  ALA797  LYS798  CYS799  TRP800  GLU811  SER814 

> <Gold.Protein.RotatedAtoms>
  152.1994  134.8601  160.0509 H   0  0  0  0  0  0  0  0  0  0  0  0  # atno 6907 bound_to 6896
  151.9460  133.3647  159.3990 H   0  0  0  0  0  0  0  0  0  0  0  0  # atno 6908 bound_to 6896
  150.6951  134.4314  159.5294 H   0  0  0  0  0  0  0  0  0  0  0  0  # atno 6909 bound_to 6896
  144.7372  139.8980  143.6407 H   0  0  0  0  0  0  0  0  0  0  0  0  # atno 7974 bound_to 7965
  154.8837  140.2976  155.5410 H   0  0  0  0  0  0  0  0  0  0  0  0  # atno 8008 bound_to 7997
  156.3022  140.2437  156.3777 H   0  0  0  0  0  0  0  0  0  0  0  0  # atno 8009 bound_to 7997
  154.8691  140.0402  157.1702 H   0  0  0  0  0  0  0  0  0  0  0  0  # atno 8010 bound_to 7997
  140.0280  144.5488  150.7529 H   0  0  0  0  0  0  0  0  0  0  0  0  # atno 10167 bound_to 10162
  156.0101  130.5227  150.6486 H   0  0  0  0  0  0  0  0  0  0  0  0  # atno 10718 bound_to 10713
  154.1271  135.2829  155.3194 H   0  0  0  0  0  0  0  0  0  0  0  0  # atno 10763 bound_to 10752
  154.6382  135.5411  153.7762 H   0  0  0  0  0  0  0  0  0  0  0  0  # atno 10764 bound_to 10752
  153.0293  135.6479  154.1422 H   0  0  0  0  0  0  0  0  0  0  0  0  # atno 10765 bound_to 10752
  139.8988  134.9572  156.6932 H   0  0  0  0  0  0  0  0  0  0  0  0  # atno 11005 bound_to 11000
  146.1093  139.4096  143.0298 LP  0  0  0  0  0  0  0  0  0  0  0  0  # atno 17320 bound_to 7965
  145.7466  140.9988  143.1272 LP  0  0  0  0  0  0  0  0  0  0  0  0  # atno 17321 bound_to 7965
  140.7314  143.2694  151.3937 LP  0  0  0  0  0  0  0  0  0  0  0  0  # atno 17342 bound_to 10162
  139.6095  144.1127  152.2284 LP  0  0  0  0  0  0  0  0  0  0  0  0  # atno 17343 bound_to 10162
  157.4252  131.0842  151.1093 LP  0  0  0  0  0  0  0  0  0  0  0  0  # atno 17370 bound_to 10713
  157.1682  130.6256  149.5632 LP  0  0  0  0  0  0  0  0  0  0  0  0  # atno 17371 bound_to 10713
  140.7208  133.9142  155.8146 LP  0  0  0  0  0  0  0  0  0  0  0  0  # atno 17394 bound_to 11000
  141.0229  134.0864  157.4101 LP  0  0  0  0  0  0  0  0  0  0  0  0  # atno 17395 bound_to 11000

$$$$
