AV-unprocessed.smi:454|AV-procd|sdf|2612|dock9
  -GOLD-   2262023 13D 1   1.00000     0.00000
 Structure written by MMmdl.
 43 44  0  0  0  0  0  0  0  0  1 V2000
  147.1098  144.9766  162.6395 C   0  0  0  0  0  0  0  0  0  0  0  0
  148.2724  144.4846  161.9966 O   0  0  0  0  0  0  0  0  0  0  0  0
  148.8539  145.4376  161.1221 C   0  0  0  0  0  0  0  0  0  0  0  0
  149.9541  144.7592  160.2994 C   0  0  0  0  0  0  0  0  0  0  0  0
  151.1842  144.6184  161.0655 N   0  0  0  0  0  0  0  0  0  0  0  0
  151.9187  143.4260  161.0220 C   0  0  0  0  0  0  0  0  0  0  0  0
  152.5907  143.0049  162.1901 C   0  0  0  0  0  0  0  0  0  0  0  0
  153.3367  141.8107  162.1530 C   0  0  0  0  0  0  0  0  0  0  0  0
  153.3862  141.0918  160.9437 C   0  0  0  0  0  0  0  0  0  0  0  0
  154.3205  139.5725  160.8281 S   0  0  0  0  0  0  0  0  0  0  0  0
  153.9643  138.9062  159.5654 O   0  0  0  0  0  0  0  0  0  0  0  0
  155.7294  139.8728  161.1275 O   0  0  0  0  0  0  0  0  0  0  0  0
  153.6909  138.6116  162.1348 N   0  0  0  0  0  0  0  0  0  0  0  0
  154.5573  138.2934  163.2841 C   0  0  0  0  0  0  0  0  0  0  0  0
  155.1320  136.8673  163.1804 C   0  0  0  0  0  0  0  0  0  0  0  0
  154.0569  135.8911  163.0268 N   0  0  0  0  0  0  0  0  0  0  0  0
  154.6260  134.5528  162.9567 C   0  0  0  0  0  0  0  0  0  0  0  0
  153.3235  136.1697  161.7948 C   0  0  0  0  0  0  0  0  0  0  0  0
  152.6857  137.5716  161.8498 C   0  0  0  0  0  0  0  0  0  0  0  0
  152.6752  141.5793  159.8299 C   0  0  0  0  0  0  0  0  0  0  0  0
  151.9613  142.7250  159.8627 N   0  0  0  0  0  0  0  0  0  0  0  0
  146.7052  144.2107  163.3010 H   0  0  0  0  0  0  0  0  0  0  0  0
  146.3377  145.2366  161.9139 H   0  0  0  0  0  0  0  0  0  0  0  0
  147.3351  145.8573  163.2423 H   0  0  0  0  0  0  0  0  0  0  0  0
  148.0871  145.8257  160.4499 H   0  0  0  0  0  0  0  0  0  0  0  0
  149.2570  146.2842  161.6806 H   0  0  0  0  0  0  0  0  0  0  0  0
  149.6159  143.7819  159.9530 H   0  0  0  0  0  0  0  0  0  0  0  0
  150.1644  145.3608  159.4144 H   0  0  0  0  0  0  0  0  0  0  0  0
  151.4007  145.3142  161.7646 H   0  0  0  0  0  0  0  0  0  0  0  0
  152.5385  143.5846  163.1001 H   0  0  0  0  0  0  0  0  0  0  0  0
  153.8654  141.4661  163.0294 H   0  0  0  0  0  0  0  0  0  0  0  0
  155.3629  139.0223  163.3672 H   0  0  0  0  0  0  0  0  0  0  0  0
  153.9659  138.3829  164.1963 H   0  0  0  0  0  0  0  0  0  0  0  0
  155.8258  136.7932  162.3432 H   0  0  0  0  0  0  0  0  0  0  0  0
  155.7015  136.6407  164.0827 H   0  0  0  0  0  0  0  0  0  0  0  0
  153.8373  133.8071  162.8498 H   0  0  0  0  0  0  0  0  0  0  0  0
  155.1779  134.3230  163.8687 H   0  0  0  0  0  0  0  0  0  0  0  0
  155.3078  134.4528  162.1106 H   0  0  0  0  0  0  0  0  0  0  0  0
  153.9904  136.0839  160.9370 H   0  0  0  0  0  0  0  0  0  0  0  0
  152.5409  135.4219  161.6612 H   0  0  0  0  0  0  0  0  0  0  0  0
  151.9301  137.5982  162.6356 H   0  0  0  0  0  0  0  0  0  0  0  0
  152.1671  137.7889  160.9166 H   0  0  0  0  0  0  0  0  0  0  0  0
  152.6892  141.0523  158.8874 H   0  0  0  0  0  0  0  0  0  0  0  0
  1  2  1  0  0  0  0
  1 22  1  0  0  0  0
  1 23  1  0  0  0  0
  1 24  1  0  0  0  0
  2  3  1  0  0  0  0
  3  4  1  0  0  0  0
  3 25  1  0  0  0  0
  3 26  1  0  0  0  0
  4  5  1  0  0  0  0
  4 27  1  0  0  0  0
  4 28  1  0  0  0  0
  5  6  1  0  0  0  0
  5 29  1  0  0  0  0
  6 21  1  0  0  0  0
  6  7  2  0  0  0  0
  7  8  1  0  0  0  0
  7 30  1  0  0  0  0
  8  9  2  0  0  0  0
  8 31  1  0  0  0  0
  9 10  1  0  0  0  0
  9 20  1  0  0  0  0
 10 11  2  0  0  0  0
 10 12  2  0  0  0  0
 10 13  1  0  0  0  0
 13 19  1  0  0  0  0
 13 14  1  0  0  0  0
 14 15  1  0  0  0  0
 14 32  1  0  0  0  0
 14 33  1  0  0  0  0
 15 16  1  0  0  0  0
 15 34  1  0  0  0  0
 15 35  1  0  0  0  0
 16 17  1  0  0  0  0
 16 18  1  0  0  0  0
 17 36  1  0  0  0  0
 17 37  1  0  0  0  0
 17 38  1  0  0  0  0
 18 19  1  0  0  0  0
 18 39  1  0  0  0  0
 18 40  1  0  0  0  0
 19 41  1  0  0  0  0
 19 42  1  0  0  0  0
 20 21  2  0  0  0  0
 20 43  1  0  0  0  0
M  END
> <s_m_source_file>
AV-unprocessed.smi

> <i_m_source_file_index>
454

> <i_lp_mmshare_version>
43012

> <i_f3d_flags>
0

> <s_epik_input>
W0NIM11PW0NIMl1bQ0gyXVtOSF1jMVtjSF1bY0hdYyhbY0hdbjEpUyg9TykoPU8pTjJbQ0gyXVtDSDJdTihbQ0gzXSlbQ0gyXVtDSDJdMg==

> <s_epik_cmdline>
J2VwaWtfcHl0aG9uJywgJy1waCcsICc3LjAnLCAnLXRuJywgJzgnLCAnLW1hJywgJzIwMCcsICctbWV0YWxfYmluZGluZycsICctaW1hZScsICc8aW5maWxlLm1hZT4nLCAnLW9tYWUnLCAnPG91dGZpbGUubWFlPic=

> <r_lp_tautomer_probability>
1

> <r_epik_Ionization_Penalty>
0.0786276

> <r_epik_Ionization_Penalty_Charging>
0

> <r_epik_Ionization_Penalty_Neutral>
0.0786276

> <r_epik_State_Penalty>
0.0691961

> <r_epik_Charging_Adjusted_Penalty>
0.0691961

> <i_epik_Tot_Q>
0

> <i_epik_Tot_abs_Q>
0

> <r_epik_Metal_State_Penalty>
0.0691754

> <b_epik_Metal_Only>
0

> <s_lp_Force_Field>
OPLS_2005

> <r_lp_Energy>
0.101834

> <b_lp_Chiralities_Consistent>
1

> <s_lp_Variant>
AV-unprocessed.smi:454-1

> <Gold.Version>
5.8.1

> <Gold.Id.Protein>
6NUR|6NUR_protein|mol2

> <Gold.PLP.Fitness>
50.0533

> <Gold.PLP.PLP>
-45.1028

> <Gold.PLP.part.hbond>
-4.0000

> <Gold.PLP.part.metal>
0.0000

> <Gold.PLP.part.buried>
-7.4137

> <Gold.PLP.part.nonpolar>
-34.0021

> <Gold.PLP.part.repulsive>
0.2760

> <Gold.PLP.ligand.clash>
0.0000

> <Gold.PLP.ligand.torsion>
2.5788

> <Gold.PLP.Chemscore.Hbond>
2.0000

> <Gold.PLP.Chemscore.CHOScore>
0.0000

> <Gold.PLP.Chemscore.Metal>
0.0000

> <Gold.Chemscore.Hbonds>
donor molecule, donor type, donor heavy atom, donor atom, acceptor molecule, acceptor atom, score
      P1  H  6933  6944       L1     2  0.47

> <Gold.PLP.Chemscore.Internal.Correction>
4.1080

> <Gold.Rescore>
     Score         DG    S(hbond)    S(metal)    S(lipo)     H(rot)  DE(clash)    DE(int)     intcor
     15.35     -18.42       1.94        0.00      85.62       1.40       0.08       2.99       ----

> <Gold.Chemscore.Fitness>
15.3537

> <Gold.Chemscore.DG>
-18.4153

> <Gold.Chemscore.ZeroCoef>
-5.4800

> <Gold.Chemscore.Hbond>
1.9444

> <Gold.Chemscore.Metal>
0.0000

> <Gold.Chemscore.Lipo>
85.6207

> <Gold.Chemscore.Internal_Hbond>
0.0000

> <Gold.Chemscore.DEClash>
0.0764

> <Gold.Chemscore.DEInternal>
2.9852

> <Gold.Chemscore.Rot>
1.3970

> <Gold.Chemscore.Internal.Correction>
   9.000000E+99

> <Gold.Chemscore.Hbonds>
donor molecule, donor type, donor heavy atom, donor atom, acceptor molecule, acceptor atom, score
      P1  H  6933  6944       L1     2  0.43

> <Gold.Chemscore.Hbond.Weighted>
-6.4941

> <Gold.Chemscore.Metal.Weighted>
-0.0000

> <Gold.Chemscore.Lipo.Weighted>
-10.0176

> <Gold.Chemscore.Internal_Hbond.Weighted>
0.0000

> <Gold.Chemscore.DEClash.Weighted>
0.0764

> <Gold.Chemscore.DEInternal.Weighted>
2.9852

> <Gold.Chemscore.Rot.Weighted>
3.5764

> <Gold.Chemscore.Internal.Correction.Weighted>
   9.000000E+99

> <Gold.Protein.RotatedTorsions>
[ 6907 6896 6895 6894 ] final   58.13 input  -60.11 | X-H torsion
[ 7974 7965 7964 7962 ] final  -18.91 input  175.53 | X-H torsion
[ 8008 7997 7996 7995 ] final   98.99 input   59.86 | X-H torsion
[ 10167 10162 10161 10158 ] final   23.61 input  -65.29 | X-H torsion
[ 10718 10713 10712 10709 ] final  167.15 input   66.30 | X-H torsion
[ 10763 10752 10751 10750 ] final -107.29 input  -60.55 | X-H torsion
[ 11005 11000 10999 10996 ] final   70.47 input  -57.11 | X-H torsion

> <Gold.Protein.ActiveResidues>
 VAL166  LYS551  ARG553  GLY616  TRP617  ASP618  TYR619  PRO620  LYS621  CYS622 
 ASP623  PHE694  ASN695  SER759  ASP760  ASP761  ALA762  ILE779  LEU786  VAL792 
 PHE793  MET794  SER795  GLU796  ALA797  LYS798  CYS799  TRP800  GLU811  SER814 

> <Gold.Protein.RotatedAtoms>
  152.3796  134.6611  160.0147 H   0  0  0  0  0  0  0  0  0  0  0  0  # atno 6907 bound_to 6896
  151.6878  133.3306  159.3243 H   0  0  0  0  0  0  0  0  0  0  0  0  # atno 6908 bound_to 6896
  150.7737  134.6661  159.6410 H   0  0  0  0  0  0  0  0  0  0  0  0  # atno 6909 bound_to 6896
  146.1868  140.3988  142.8473 H   0  0  0  0  0  0  0  0  0  0  0  0  # atno 7974 bound_to 7965
  156.1060  140.3235  155.8007 H   0  0  0  0  0  0  0  0  0  0  0  0  # atno 8008 bound_to 7997
  155.4755  140.0550  157.2991 H   0  0  0  0  0  0  0  0  0  0  0  0  # atno 8009 bound_to 7997
  154.4728  140.2019  155.9967 H   0  0  0  0  0  0  0  0  0  0  0  0  # atno 8010 bound_to 7997
  140.5255  143.9930  150.6438 H   0  0  0  0  0  0  0  0  0  0  0  0  # atno 10167 bound_to 10162
  157.0556  131.0325  151.2665 H   0  0  0  0  0  0  0  0  0  0  0  0  # atno 10718 bound_to 10713
  154.8066  135.4680  154.0407 H   0  0  0  0  0  0  0  0  0  0  0  0  # atno 10763 bound_to 10752
  153.1871  135.6849  153.8407 H   0  0  0  0  0  0  0  0  0  0  0  0  # atno 10764 bound_to 10752
  153.7938  135.3239  155.3359 H   0  0  0  0  0  0  0  0  0  0  0  0  # atno 10765 bound_to 10752
  139.9596  134.7084  156.0676 H   0  0  0  0  0  0  0  0  0  0  0  0  # atno 11005 bound_to 11000
  144.8412  140.6860  143.6228 LP  0  0  0  0  0  0  0  0  0  0  0  0  # atno 17320 bound_to 7965
  145.3914  139.1616  143.4227 LP  0  0  0  0  0  0  0  0  0  0  0  0  # atno 17321 bound_to 7965
  140.3291  143.3089  152.0706 LP  0  0  0  0  0  0  0  0  0  0  0  0  # atno 17342 bound_to 10162
  139.4937  144.6522  151.6651 LP  0  0  0  0  0  0  0  0  0  0  0  0  # atno 17343 bound_to 10162
  157.4996  130.7871  149.7590 LP  0  0  0  0  0  0  0  0  0  0  0  0  # atno 17370 bound_to 10713
  155.9994  130.3889  150.2665 LP  0  0  0  0  0  0  0  0  0  0  0  0  # atno 17371 bound_to 10713
  141.1271  133.6596  156.3367 LP  0  0  0  0  0  0  0  0  0  0  0  0  # atno 17394 bound_to 11000
  140.5531  134.6008  157.5413 LP  0  0  0  0  0  0  0  0  0  0  0  0  # atno 17395 bound_to 11000

$$$$
