#       Name:                AV-unprocessed.smi:1056
#       Creating user name   scv26
#       Creation time:       Fri Mar 27 03:14:18 2020


#       File generated by GOLD software.
#

@<TRIPOS>MOLECULE
AV-unprocessed.smi:1056
    50    52     1
SMALL
NO_CHARGES


@<TRIPOS>ATOM
      1 ****        -1.3087   5.1570  -1.7455 C.3            1 S1                 0.0000
      2 ****        -1.2880   3.9010  -0.8905 C.ar           1 S1                 0.0000
      3 ****        -1.9485   3.9252   0.3588 C.ar           1 S1                 0.0000
      4 ****        -1.9126   2.7619   1.1181 C.ar           1 S1                 0.0000
      5 ****        -2.4573   2.4680   2.3702 N.pl3          1 S1                 1.0000
      6 ****        -2.1597   1.1820   2.7053 C.2            1 S1                 0.0000
      7 ****        -1.4277   0.6521   1.6872 N.pl3          1 S1                 0.0000
      8 ****        -0.8604  -0.6938   1.5327 C.3            1 S1                 0.0000
      9 ****         0.6525  -0.7511   1.8335 C.3            1 S1                 0.0000
     10 ****         0.8858  -0.2725   3.1422 O.3            1 S1                 0.0000
     11 ****         1.2257  -2.1804   1.7430 C.3            1 S1                 0.0000
     12 ****         1.1057  -2.7676   0.3845 N.4            1 S1                 1.0000
     13 ****         2.0754  -2.2200  -0.5941 C.3            1 S1                 0.0000
     14 ****         1.7351  -2.7171  -2.0103 C.3            1 S1                 0.0000
     15 ****         1.3972  -4.1379  -2.0509 N.am           1 S1                 0.0000
     16 ****         1.1000  -4.8981  -0.9843 C.2            1 S1                 0.0000
     17 ****         0.8123  -6.0866  -1.0974 O.2            1 S1                 0.0000
     18 ****         1.1266  -4.2527   0.4097 C.3            1 S1                 0.0000
     19 ****        -1.2510   1.6005   0.6739 C.ar           1 S1                 0.0000
     20 ****        -0.5952   1.5587  -0.5541 C.ar           1 S1                 0.0000
     21 ****        -0.6180   2.7334  -1.3398 C.ar           1 S1                 0.0000
     22 ****         0.0926   2.7205  -2.6824 C.3            1 S1                 0.0000
     23 ****        -1.9214   5.9376  -1.2931 H              1 S1                 0.0000
     24 ****        -1.7189   4.9450  -2.7332 H              1 S1                 0.0000
     25 ****        -0.3000   5.5524  -1.8668 H              1 S1                 0.0000
     26 ****        -2.4598   4.8110   0.7072 H              1 S1                 0.0000
     27 ****        -2.4515   0.6753   3.6142 H              1 S1                 0.0000
     28 ****        -1.4057  -1.3561   2.2069 H              1 S1                 0.0000
     29 ****        -1.0756  -1.0377   0.5202 H              1 S1                 0.0000
     30 ****         1.1894  -0.0861   1.1582 H              1 S1                 0.0000
     31 ****         0.5923   0.6246   3.1930 H              1 S1                 0.0000
     32 ****         2.2732  -2.1961   2.0490 H              1 S1                 0.0000
     33 ****         0.6908  -2.8109   2.4555 H              1 S1                 0.0000
     34 ****         2.0748  -1.1308  -0.5887 H              1 S1                 0.0000
     35 ****         3.0819  -2.5372  -0.3159 H              1 S1                 0.0000
     36 ****         0.8767  -2.1648  -2.3944 H              1 S1                 0.0000
     37 ****         2.5638  -2.5216  -2.6913 H              1 S1                 0.0000
     38 ****         1.3806  -4.5779  -2.9604 H              1 S1                 0.0000
     39 ****         2.0266  -4.5950   0.9228 H              1 S1                 0.0000
     40 ****         0.2725  -4.6170   0.9823 H              1 S1                 0.0000
     41 ****        -0.0876   0.6699  -0.8977 H              1 S1                 0.0000
     42 ****         0.6081   1.7749  -2.8530 H              1 S1                 0.0000
     43 ****         0.8355   3.5171  -2.7318 H              1 S1                 0.0000
     44 ****        -0.6220   2.8628  -3.4934 H              1 S1                 0.0000
     45 ****         0.1881  -2.5157   0.0466 H              1 S1                 0.0000
     46 ****        -2.9958   3.0960   2.9538 H              1 S1                 0.0000
     47 ****         1.8632  -0.3192   3.3485 LP             1 S1                 0.0000
     48 ****         0.3794  -0.8302   3.7999 LP             1 S1                 0.0000
     49 ****         0.7950  -6.5130  -2.0018 LP             1 S1                 0.0000
     50 ****         0.5954  -6.6281  -0.2851 LP             1 S1                 0.0000
@<TRIPOS>BOND
    1    1    2 1     
    2    1   23 1     
    3    1   24 1     
    4    1   25 1     
    5    2   21 ar    
    6    2    3 ar    
    7    3    4 ar    
    8    3   26 1     
    9    4   19 ar    
   10    4    5 1     
   11    5    6 2     
   12    5   46 1     
   13    6    7 1     
   14    6   27 1     
   15    7    8 1     
   16    7   19 1     
   17    8    9 1     
   18    8   28 1     
   19    8   29 1     
   20    9   10 1     
   21    9   11 1     
   22    9   30 1     
   23   10   31 1     
   24   11   12 1     
   25   11   32 1     
   26   11   33 1     
   27   12   18 1     
   28   12   13 1     
   29   12   45 1     
   30   13   14 1     
   31   13   34 1     
   32   13   35 1     
   33   14   15 1     
   34   14   36 1     
   35   14   37 1     
   36   15   16 am    
   37   15   38 1     
   38   16   17 2     
   39   16   18 1     
   40   18   39 1     
   41   18   40 1     
   42   19   20 ar    
   43   20   21 ar    
   44   20   41 1     
   45   21   22 1     
   46   22   42 1     
   47   22   43 1     
   48   22   44 1     
   49   10   47 1     
   50   10   48 1     
   51   17   49 1     
   52   17   50 1     
@<TRIPOS>SUBSTRUCTURE
      1 S1             1
@<TRIPOS>SET
LONE_PAIRS      STATIC     ATOMS    <user>   **** ""
4 47 48 49 50
DONOR_HYDROGENS      STATIC     ATOMS    <user>   **** ""
4 46 31 45 38
ATOM$BLUE        STATIC     ATOMS    COLORGROUP SYSTEM
4 47 48 49 50
ATOM$RED        STATIC     ATOMS    COLORGROUP SYSTEM
4 46 31 45 38
