AV-unprocessed.smi:3032|AV-procd|sdf|11558|dock2
  -GOLD-   2272016523D 1   1.00000     0.00000
 Structure written by MMmdl.
 37 38  0  0  0  0  0  0  0  0  1 V2000
  153.5622  141.2942  160.3350 C   0  0  0  0  0  0  0  0  0  0  0  0
  152.5254  142.1550  159.5994 C   0  0  1  0  0  0  0  0  0  0  0  0
  153.0532  143.5802  159.3453 C   0  0  0  0  0  0  0  0  0  0  0  0
  152.0215  144.4401  158.5978 C   0  0  0  0  0  0  0  0  0  0  0  0
  151.5894  143.7747  157.2818 C   0  0  0  0  0  0  0  0  0  0  0  0
  151.0416  142.3543  157.5311 C   0  0  1  0  0  0  0  0  0  0  0  0
  150.6307  141.6770  156.2178 C   0  0  0  0  0  0  0  0  0  0  0  0
  151.2135  140.6619  155.8357 O   0  0  0  0  0  0  0  0  0  0  0  0
  149.6056  142.2340  155.5525 N   0  0  0  0  0  0  0  0  0  0  0  0
  148.9830  141.6904  154.3473 C   0  0  0  0  0  0  0  0  0  0  0  0
  148.8005  140.1618  154.4260 C   0  0  0  0  0  0  0  0  0  0  0  0
  147.9457  139.5937  153.3364 C   0  0  0  0  0  0  0  0  0  0  0  0
  148.3001  138.5088  152.6441 N   0  0  0  0  0  0  0  0  0  0  0  0
  147.3660  138.2542  151.7045 N   0  0  0  0  0  0  0  0  0  0  0  0
  146.4889  139.2347  151.9115 C   0  0  0  0  0  0  0  0  0  0  0  0
  146.7919  140.1050  152.9212 N   0  0  0  0  0  0  0  0  0  0  0  0
  152.0893  141.4989  158.2751 C   0  0  0  0  0  0  0  0  0  0  0  0
  149.1313  137.9473  152.7626 H   0  0  0  0  0  0  0  0  0  0  0  0
  154.4734  141.1823  159.7466 H   0  0  0  0  0  0  0  0  0  0  0  0
  153.1719  140.2964  160.5370 H   0  0  0  0  0  0  0  0  0  0  0  0
  153.8357  141.7406  161.2912 H   0  0  0  0  0  0  0  0  0  0  0  0
  151.6471  142.2312  160.2419 H   0  0  0  0  0  0  0  0  0  0  0  0
  153.3090  144.0583  160.2915 H   0  0  0  0  0  0  0  0  0  0  0  0
  153.9752  143.5339  158.7643 H   0  0  0  0  0  0  0  0  0  0  0  0
  151.1480  144.5972  159.2317 H   0  0  0  0  0  0  0  0  0  0  0  0
  152.4385  145.4272  158.3954 H   0  0  0  0  0  0  0  0  0  0  0  0
  150.8321  144.3900  156.7939 H   0  0  0  0  0  0  0  0  0  0  0  0
  152.4423  143.7374  156.6019 H   0  0  0  0  0  0  0  0  0  0  0  0
  150.1574  142.4387  158.1658 H   0  0  0  0  0  0  0  0  0  0  0  0
  149.1962  143.0734  155.9363 H   0  0  0  0  0  0  0  0  0  0  0  0
  148.0115  142.1681  154.2197 H   0  0  0  0  0  0  0  0  0  0  0  0
  149.5657  141.9492  153.4616 H   0  0  0  0  0  0  0  0  0  0  0  0
  149.7760  139.6745  154.3947 H   0  0  0  0  0  0  0  0  0  0  0  0
  148.3585  139.8952  155.3864 H   0  0  0  0  0  0  0  0  0  0  0  0
  145.5951  139.3274  151.3124 H   0  0  0  0  0  0  0  0  0  0  0  0
  152.9650  141.3451  157.6417 H   0  0  0  0  0  0  0  0  0  0  0  0
  151.6802  140.5077  158.4763 H   0  0  0  0  0  0  0  0  0  0  0  0
  1  2  1  0  0  0  0
  1 19  1  0  0  0  0
  1 20  1  0  0  0  0
  1 21  1  0  0  0  0
  2 17  1  0  0  0  0
  2  3  1  0  0  0  0
  2 22  1  0  0  0  0
  3  4  1  0  0  0  0
  3 23  1  0  0  0  0
  3 24  1  0  0  0  0
  4  5  1  0  0  0  0
  4 25  1  0  0  0  0
  4 26  1  0  0  0  0
  5  6  1  0  0  0  0
  5 27  1  0  0  0  0
  5 28  1  0  0  0  0
  6  7  1  0  0  0  0
  6 17  1  0  0  0  0
  6 29  1  0  0  0  0
  7  8  2  0  0  0  0
  7  9  1  0  0  0  0
  9 10  1  0  0  0  0
  9 30  1  0  0  0  0
 10 11  1  0  0  0  0
 10 31  1  0  0  0  0
 10 32  1  0  0  0  0
 11 33  1  0  0  0  0
 11 34  1  0  0  0  0
 11 12  1  0  0  0  0
 12 16  2  0  0  0  0
 12 13  1  0  0  0  0
 13 18  1  0  0  0  0
 13 14  1  0  0  0  0
 14 15  2  0  0  0  0
 15 16  1  0  0  0  0
 15 35  1  0  0  0  0
 17 36  1  0  0  0  0
 17 37  1  0  0  0  0
M  END
> <s_m_source_file>
AV-unprocessed.smi

> <i_m_source_file_index>
3032

> <i_lp_mmshare_version>
43012

> <i_f3d_flags>
0

> <s_epik_input>
W0NIM11bQ0BASF0xW0NIMl1bQ0gyXVtDSDJdW0NASF0oW0NIMl0xKUMoPU8pW05IXVtDSDJdW0NIMl1jMm5uW2NIXVtuSF0y

> <s_epik_cmdline>
J2VwaWtfcHl0aG9uJywgJy1waCcsICc3LjAnLCAnLXRuJywgJzgnLCAnLW1hJywgJzIwMCcsICctbWV0YWxfYmluZGluZycsICctaW1hZScsICc8aW5maWxlLm1hZT4nLCAnLW9tYWUnLCAnPG91dGZpbGUubWFlPic=

> <r_lp_tautomer_probability>
0.948284

> <r_epik_Ionization_Penalty>
0.000474052

> <r_epik_Ionization_Penalty_Charging>
0

> <r_epik_Ionization_Penalty_Neutral>
0.000474052

> <r_epik_State_Penalty>
0.271807

> <r_epik_Charging_Adjusted_Penalty>
0.271807

> <i_epik_Tot_Q>
0

> <i_epik_Tot_abs_Q>
0

> <r_epik_Metal_State_Penalty>
0.397201

> <b_epik_Metal_Only>
0

> <s_lp_Force_Field>
OPLS_2005

> <r_lp_Energy>
10.7407

> <b_lp_Chiralities_Consistent>
1

> <s_lp_Variant>
AV-unprocessed.smi:3032-2

> <Gold.Version>
5.8.1

> <Gold.Id.Protein>
6NUR|6NUR_protein|mol2

> <Gold.PLP.Fitness>
46.6247

> <Gold.PLP.PLP>
-35.2077

> <Gold.PLP.part.hbond>
-4.1874

> <Gold.PLP.part.metal>
0.0000

> <Gold.PLP.part.buried>
0.2215

> <Gold.PLP.part.nonpolar>
-36.3615

> <Gold.PLP.part.repulsive>
6.1932

> <Gold.PLP.ligand.clash>
0.0000

> <Gold.PLP.ligand.torsion>
0.3979

> <Gold.PLP.Chemscore.Hbond>
2.3322

> <Gold.PLP.Chemscore.CHOScore>
1.7329

> <Gold.PLP.Chemscore.Metal>
0.0000

> <Gold.Chemscore.Hbonds>
donor molecule, donor type, donor heavy atom, donor atom, acceptor molecule, acceptor atom, score
      L1  H     9    30       P1  8028  0.90
      L1  H    13    18       P1  7948  0.24
      P1  H  7954  7966       L1    14  1.00
      P1  H  7989  7998       L1     8  0.11
      L1  C    15    35       P1 10171  1.00
      L1  C    15    35       P1 10175  0.71

> <Gold.PLP.Chemscore.Internal.Correction>
0.0177

> <Gold.Rescore>
     Score         DG    S(hbond)    S(metal)    S(lipo)     H(rot)  DE(clash)    DE(int)     intcor
     11.15     -15.25       1.39        0.00      93.06       2.25       2.29       1.81       ----

> <Gold.Chemscore.Fitness>
11.1499

> <Gold.Chemscore.DG>
-15.2477

> <Gold.Chemscore.ZeroCoef>
-5.4800

> <Gold.Chemscore.Hbond>
1.3894

> <Gold.Chemscore.Metal>
0.0000

> <Gold.Chemscore.Lipo>
93.0555

> <Gold.Chemscore.Internal_Hbond>
0.0000

> <Gold.Chemscore.DEClash>
2.2895

> <Gold.Chemscore.DEInternal>
1.8083

> <Gold.Chemscore.Rot>
2.2501

> <Gold.Chemscore.Internal.Correction>
   9.000000E+99

> <Gold.Chemscore.Hbonds>
donor molecule, donor type, donor heavy atom, donor atom, acceptor molecule, acceptor atom, score
      L1  H     9    30       P1  8028  0.88
      L1  H    13    18       P1  7948  0.24
      P1  H  7954  7966       L1    14  0.77
      P1  H  7989  7998       L1     8  0.08

> <Gold.Chemscore.Hbond.Weighted>
-4.6405

> <Gold.Chemscore.Metal.Weighted>
-0.0000

> <Gold.Chemscore.Lipo.Weighted>
-10.8875

> <Gold.Chemscore.Internal_Hbond.Weighted>
0.0000

> <Gold.Chemscore.DEClash.Weighted>
2.2895

> <Gold.Chemscore.DEInternal.Weighted>
1.8083

> <Gold.Chemscore.Rot.Weighted>
5.7603

> <Gold.Chemscore.Internal.Correction.Weighted>
   9.000000E+99

> <Gold.Protein.RotatedTorsions>
[ 6907 6896 6895 6894 ] final  179.44 input  -60.11 | X-H torsion
[ 7974 7965 7964 7962 ] final -100.38 input  175.53 | X-H torsion
[ 8008 7997 7996 7995 ] final -137.33 input   59.86 | X-H torsion
[ 10167 10162 10161 10158 ] final   91.80 input  -65.29 | X-H torsion
[ 10718 10713 10712 10709 ] final -100.02 input   66.30 | X-H torsion
[ 10763 10752 10751 10750 ] final -177.22 input  -60.55 | X-H torsion
[ 11005 11000 10999 10996 ] final  105.26 input  -57.11 | X-H torsion

> <Gold.Protein.ActiveResidues>
 VAL166  LYS551  ARG553  GLY616  TRP617  ASP618  TYR619  PRO620  LYS621  CYS622 
 ASP623  PHE694  ASN695  SER759  ASP760  ASP761  ALA762  ILE779  LEU786  VAL792 
 PHE793  MET794  SER795  GLU796  ALA797  LYS798  CYS799  TRP800  GLU811  SER814 

> <Gold.Protein.RotatedAtoms>
  151.6716  133.3314  159.3197 H   0  0  0  0  0  0  0  0  0  0  0  0  # atno 6907 bound_to 6896
  150.7865  134.6857  159.6478 H   0  0  0  0  0  0  0  0  0  0  0  0  # atno 6908 bound_to 6896
  152.3935  134.6406  160.0150 H   0  0  0  0  0  0  0  0  0  0  0  0  # atno 6909 bound_to 6896
  145.2953  140.9363  143.2854 H   0  0  0  0  0  0  0  0  0  0  0  0  # atno 7974 bound_to 7965
  155.4100  140.0511  157.3032 H   0  0  0  0  0  0  0  0  0  0  0  0  # atno 8008 bound_to 7997
  154.4951  140.2135  155.9425 H   0  0  0  0  0  0  0  0  0  0  0  0  # atno 8009 bound_to 7997
  156.1394  140.3157  155.8477 H   0  0  0  0  0  0  0  0  0  0  0  0  # atno 8010 bound_to 7997
  139.8339  144.6674  150.9366 H   0  0  0  0  0  0  0  0  0  0  0  0  # atno 10167 bound_to 10162
  156.0151  130.5309  150.6756 H   0  0  0  0  0  0  0  0  0  0  0  0  # atno 10718 bound_to 10713
  154.5628  135.2821  155.0903 H   0  0  0  0  0  0  0  0  0  0  0  0  # atno 10763 bound_to 10752
  154.2305  135.6375  153.5177 H   0  0  0  0  0  0  0  0  0  0  0  0  # atno 10764 bound_to 10752
  153.0034  135.5536  154.6227 H   0  0  0  0  0  0  0  0  0  0  0  0  # atno 10765 bound_to 10752
  139.8800  134.9329  156.5487 H   0  0  0  0  0  0  0  0  0  0  0  0  # atno 11005 bound_to 11000
  144.9138  139.4495  143.6574 LP  0  0  0  0  0  0  0  0  0  0  0  0  # atno 17320 bound_to 7965
  146.3171  139.7961  142.8975 LP  0  0  0  0  0  0  0  0  0  0  0  0  # atno 17321 bound_to 7965
  140.7804  143.3975  151.1204 LP  0  0  0  0  0  0  0  0  0  0  0  0  # atno 17342 bound_to 10162
  139.7627  143.8611  152.3104 LP  0  0  0  0  0  0  0  0  0  0  0  0  # atno 17343 bound_to 10162
  157.4469  131.0868  151.0886 LP  0  0  0  0  0  0  0  0  0  0  0  0  # atno 17370 bound_to 10713
  157.1413  130.6144  149.5556 LP  0  0  0  0  0  0  0  0  0  0  0  0  # atno 17371 bound_to 10713
  140.8256  133.8319  155.8936 LP  0  0  0  0  0  0  0  0  0  0  0  0  # atno 17394 bound_to 11000
  140.9377  134.1941  157.4820 LP  0  0  0  0  0  0  0  0  0  0  0  0  # atno 17395 bound_to 11000

$$$$
