AV-unprocessed.smi:2975|AV-procd|sdf|11358|dock8
  -GOLD-   2272016273D 1   1.00000     0.00000
 Structure written by MMmdl.
 40 42  0  0  0  0  0  0  0  0  2 V2000
  151.8938  137.3719  156.0814 C   0  0  0  0  0  0  0  0  0  0  0  0
  151.6281  137.6501  154.5961 C   0  0  1  0  0  0  0  0  0  0  0  0
  151.3611  136.4229  153.9499 O   0  0  0  0  0  0  0  0  0  0  0  0
  150.5038  138.6260  154.4316 C   0  0  0  0  0  0  0  0  0  0  0  0
  149.3760  138.4148  153.6945 N   0  3  0  0  0  0  0  0  0  0  0  0
  148.5291  139.5180  153.7941 C   0  0  0  0  0  0  0  0  0  0  0  0
  147.2814  139.7620  153.2287 C   0  0  0  0  0  0  0  0  0  0  0  0
  146.6754  140.9963  153.5420 C   0  0  0  0  0  0  0  0  0  0  0  0
  147.3079  141.9304  154.3878 C   0  0  0  0  0  0  0  0  0  0  0  0
  148.5738  141.6716  154.9542 C   0  0  0  0  0  0  0  0  0  0  0  0
  149.1681  140.4502  154.6365 C   0  0  0  0  0  0  0  0  0  0  0  0
  150.3857  139.8623  155.0006 N   0  0  0  0  0  0  0  0  0  0  0  0
  151.2937  140.5973  155.8935 C   0  0  0  0  0  0  0  0  0  0  0  0
  150.5670  141.1315  157.1331 C   0  0  0  0  0  0  0  0  0  0  0  0
  151.3471  142.1746  157.6991 O   0  0  0  0  0  0  0  0  0  0  0  0
  152.2043  141.8620  158.7331 C   0  0  0  0  0  0  0  0  0  0  0  0
  152.6188  140.5433  159.0511 C   0  0  0  0  0  0  0  0  0  0  0  0
  153.5026  140.3118  160.1233 C   0  0  0  0  0  0  0  0  0  0  0  0
  153.9802  141.3895  160.8911 C   0  0  0  0  0  0  0  0  0  0  0  0
  153.5720  142.7008  160.5859 C   0  0  0  0  0  0  0  0  0  0  0  0
  152.6896  142.9337  159.5132 C   0  0  0  0  0  0  0  0  0  0  0  0
  152.3054  144.2013  159.2295 F   0  0  0  0  0  0  0  0  0  0  0  0
  152.1475  138.2887  156.6138 H   0  0  0  0  0  0  0  0  0  0  0  0
  152.7250  136.6778  156.2094 H   0  0  0  0  0  0  0  0  0  0  0  0
  151.0199  136.9375  156.5681 H   0  0  0  0  0  0  0  0  0  0  0  0
  152.5313  138.0604  154.1460 H   0  0  0  0  0  0  0  0  0  0  0  0
  151.2775  136.5835  153.0222 H   0  0  0  0  0  0  0  0  0  0  0  0
  146.7939  139.0460  152.5831 H   0  0  0  0  0  0  0  0  0  0  0  0
  145.7057  141.2304  153.1267 H   0  0  0  0  0  0  0  0  0  0  0  0
  146.8119  142.8647  154.6076 H   0  0  0  0  0  0  0  0  0  0  0  0
  149.0463  142.3941  155.6029 H   0  0  0  0  0  0  0  0  0  0  0  0
  152.0991  139.9249  156.1877 H   0  0  0  0  0  0  0  0  0  0  0  0
  151.7656  141.4071  155.3369 H   0  0  0  0  0  0  0  0  0  0  0  0
  149.5814  141.5073  156.8539 H   0  0  0  0  0  0  0  0  0  0  0  0
  150.4345  140.3255  157.8561 H   0  0  0  0  0  0  0  0  0  0  0  0
  152.2736  139.6901  158.4874 H   0  0  0  0  0  0  0  0  0  0  0  0
  153.8148  139.3044  160.3567 H   0  0  0  0  0  0  0  0  0  0  0  0
  154.6577  141.2108  161.7132 H   0  0  0  0  0  0  0  0  0  0  0  0
  153.9365  143.5297  161.1742 H   0  0  0  0  0  0  0  0  0  0  0  0
  149.2029  137.5697  153.1653 H   0  0  0  0  0  0  0  0  0  0  0  0
  1  2  1  0  0  0  0
  1 23  1  0  0  0  0
  1 24  1  0  0  0  0
  1 25  1  0  0  0  0
  2  3  1  0  0  0  0
  2  4  1  0  0  0  0
  2 26  1  0  0  0  0
  3 27  1  0  0  0  0
  4 12  1  0  0  0  0
  4  5  2  0  0  0  0
  5  6  1  0  0  0  0
  5 40  1  0  0  0  0
  6 11  2  0  0  0  0
  6  7  1  0  0  0  0
  7  8  2  0  0  0  0
  7 28  1  0  0  0  0
  8  9  1  0  0  0  0
  8 29  1  0  0  0  0
  9 10  2  0  0  0  0
  9 30  1  0  0  0  0
 10 11  1  0  0  0  0
 10 31  1  0  0  0  0
 11 12  1  0  0  0  0
 12 13  1  0  0  0  0
 13 14  1  0  0  0  0
 13 32  1  0  0  0  0
 13 33  1  0  0  0  0
 14 15  1  0  0  0  0
 14 34  1  0  0  0  0
 14 35  1  0  0  0  0
 15 16  1  0  0  0  0
 16 21  1  0  0  0  0
 16 17  2  0  0  0  0
 17 18  1  0  0  0  0
 17 36  1  0  0  0  0
 18 19  2  0  0  0  0
 18 37  1  0  0  0  0
 19 20  1  0  0  0  0
 19 38  1  0  0  0  0
 20 21  2  0  0  0  0
 20 39  1  0  0  0  0
 21 22  1  0  0  0  0
M  CHG  1   5   1
M  END
> <s_m_source_file>
AV-unprocessed.smi

> <i_m_source_file_index>
2975

> <i_lp_mmshare_version>
43012

> <i_f3d_flags>
0

> <s_epik_input>
W2NIXTFbY0hdW2NIXVtjSF1jKGMxMiluKGMobjIpW0NASF0oW0NIM10pW09IXSlbQ0gyXVtDSDJdT2MzW2NIXVtjSF1bY0hdW2NIXWMzRg==

> <s_epik_cmdline>
J2VwaWtfcHl0aG9uJywgJy1waCcsICc3LjAnLCAnLXRuJywgJzgnLCAnLW1hJywgJzIwMCcsICctbWV0YWxfYmluZGluZycsICctaW1hZScsICc8aW5maWxlLm1hZT4nLCAnLW9tYWUnLCAnPG91dGZpbGUubWFlPic=

> <r_lp_tautomer_probability>
1

> <r_epik_Ionization_Penalty>
1.61121

> <r_epik_Ionization_Penalty_Charging>
1.61119

> <r_epik_Ionization_Penalty_Neutral>
2.92192e-05

> <r_epik_State_Penalty>
1.71016

> <r_epik_Charging_Adjusted_Penalty>
3.32134

> <i_epik_Tot_Q>
1

> <i_epik_Tot_abs_Q>
1

> <r_epik_Metal_State_Penalty>
5.76893

> <b_epik_Metal_Only>
0

> <s_lp_Force_Field>
OPLS_2005

> <r_lp_Energy>
20.882

> <b_lp_Chiralities_Consistent>
1

> <s_lp_Variant>
AV-unprocessed.smi:2975-4

> <Gold.Version>
5.8.1

> <Gold.Id.Protein>
6NUR|6NUR_protein|mol2

> <Gold.PLP.Fitness>
63.1182

> <Gold.PLP.PLP>
-52.4883

> <Gold.PLP.part.hbond>
-4.2835

> <Gold.PLP.part.metal>
0.0000

> <Gold.PLP.part.buried>
0.7831

> <Gold.PLP.part.nonpolar>
-49.3574

> <Gold.PLP.part.repulsive>
0.1490

> <Gold.PLP.ligand.clash>
0.0000

> <Gold.PLP.ligand.torsion>
0.6983

> <Gold.PLP.Chemscore.Hbond>
4.0000

> <Gold.PLP.Chemscore.CHOScore>
0.0000

> <Gold.PLP.Chemscore.Metal>
0.0000

> <Gold.Chemscore.Hbonds>
donor molecule, donor type, donor heavy atom, donor atom, acceptor molecule, acceptor atom, score
      L1  H     3    27       P1  7949  0.98
      L1  H     5    40       P1  7948  2.00
      P1  H 10752 10765       L1     3  0.75

> <Gold.PLP.Chemscore.Internal.Correction>
0.0266

> <Gold.Rescore>
     Score         DG    S(hbond)    S(metal)    S(lipo)     H(rot)  DE(clash)    DE(int)     intcor
     21.10     -22.89       2.55        0.00     125.68       2.28       1.23       0.55       ----

> <Gold.Chemscore.Fitness>
21.1001

> <Gold.Chemscore.DG>
-22.8872

> <Gold.Chemscore.ZeroCoef>
-5.4800

> <Gold.Chemscore.Hbond>
2.5547

> <Gold.Chemscore.Metal>
0.0000

> <Gold.Chemscore.Lipo>
125.6804

> <Gold.Chemscore.Internal_Hbond>
0.0000

> <Gold.Chemscore.DEClash>
1.2322

> <Gold.Chemscore.DEInternal>
0.5549

> <Gold.Chemscore.Rot>
2.2774

> <Gold.Chemscore.Internal.Correction>
   9.000000E+99

> <Gold.Chemscore.Hbonds>
donor molecule, donor type, donor heavy atom, donor atom, acceptor molecule, acceptor atom, score
      L1  H     3    27       P1  7949  0.65
      L1  H     5    40       P1  7948  0.99
      P1  H 10752 10765       L1     3  0.08

> <Gold.Chemscore.Hbond.Weighted>
-8.5328

> <Gold.Chemscore.Metal.Weighted>
-0.0000

> <Gold.Chemscore.Lipo.Weighted>
-14.7046

> <Gold.Chemscore.Internal_Hbond.Weighted>
0.0000

> <Gold.Chemscore.DEClash.Weighted>
1.2322

> <Gold.Chemscore.DEInternal.Weighted>
0.5549

> <Gold.Chemscore.Rot.Weighted>
5.8302

> <Gold.Chemscore.Internal.Correction.Weighted>
   9.000000E+99

> <Gold.Protein.RotatedTorsions>
[ 6907 6896 6895 6894 ] final  137.99 input  -60.11 | X-H torsion
[ 7974 7965 7964 7962 ] final    2.00 input  175.53 | X-H torsion
[ 8008 7997 7996 7995 ] final   26.64 input   59.86 | X-H torsion
[ 10167 10162 10161 10158 ] final   58.89 input  -65.29 | X-H torsion
[ 10718 10713 10712 10709 ] final  -98.95 input   66.30 | X-H torsion
[ 10763 10752 10751 10750 ] final  175.07 input  -60.55 | X-H torsion
[ 11005 11000 10999 10996 ] final  -72.09 input  -57.11 | X-H torsion

> <Gold.Protein.ActiveResidues>
 VAL166  LYS551  ARG553  GLY616  TRP617  ASP618  TYR619  PRO620  LYS621  CYS622 
 ASP623  PHE694  ASN695  SER759  ASP760  ASP761  ALA762  ILE779  LEU786  VAL792 
 PHE793  MET794  SER795  GLU796  ALA797  LYS798  CYS799  TRP800  GLU811  SER814 

> <Gold.Protein.RotatedAtoms>
  152.2717  133.5389  159.5443 H   0  0  0  0  0  0  0  0  0  0  0  0  # atno 6907 bound_to 6896
  150.7162  134.0688  159.3866 H   0  0  0  0  0  0  0  0  0  0  0  0  # atno 6908 bound_to 6896
  151.8602  135.0527  160.0519 H   0  0  0  0  0  0  0  0  0  0  0  0  # atno 6909 bound_to 6896
  146.2442  140.0902  142.8352 H   0  0  0  0  0  0  0  0  0  0  0  0  # atno 7974 bound_to 7965
  155.0304  140.3158  155.4760 H   0  0  0  0  0  0  0  0  0  0  0  0  # atno 8008 bound_to 7997
  156.2875  140.2181  156.5368 H   0  0  0  0  0  0  0  0  0  0  0  0  # atno 8009 bound_to 7997
  154.7375  140.0476  157.0769 H   0  0  0  0  0  0  0  0  0  0  0  0  # atno 8010 bound_to 7997
  140.1823  144.4169  150.6609 H   0  0  0  0  0  0  0  0  0  0  0  0  # atno 10167 bound_to 10162
  156.0121  130.5261  150.6598 H   0  0  0  0  0  0  0  0  0  0  0  0  # atno 10718 bound_to 10713
  154.4626  135.2768  155.1702 H   0  0  0  0  0  0  0  0  0  0  0  0  # atno 10763 bound_to 10752
  154.3483  135.6155  153.5634 H   0  0  0  0  0  0  0  0  0  0  0  0  # atno 10764 bound_to 10752
  152.9856  135.5805  154.4991 H   0  0  0  0  0  0  0  0  0  0  0  0  # atno 10765 bound_to 10752
  141.1603  133.6836  156.7006 H   0  0  0  0  0  0  0  0  0  0  0  0  # atno 11005 bound_to 11000
  145.0657  140.9119  143.4912 LP  0  0  0  0  0  0  0  0  0  0  0  0  # atno 17320 bound_to 7965
  145.1026  139.2812  143.5678 LP  0  0  0  0  0  0  0  0  0  0  0  0  # atno 17321 bound_to 7965
  140.6511  143.2225  151.6075 LP  0  0  0  0  0  0  0  0  0  0  0  0  # atno 17342 bound_to 10162
  139.5291  144.2971  152.1105 LP  0  0  0  0  0  0  0  0  0  0  0  0  # atno 17343 bound_to 10162
  157.4343  131.0853  151.1008 LP  0  0  0  0  0  0  0  0  0  0  0  0  # atno 17370 bound_to 10713
  157.1571  130.6209  149.5599 LP  0  0  0  0  0  0  0  0  0  0  0  0  # atno 17371 bound_to 10713
  140.2962  134.8201  157.4059 LP  0  0  0  0  0  0  0  0  0  0  0  0  # atno 17394 bound_to 11000
  140.1303  134.5104  155.8111 LP  0  0  0  0  0  0  0  0  0  0  0  0  # atno 17395 bound_to 11000

$$$$
