AV-unprocessed.smi:837|AV-procd|sdf|3901|dock10
  -GOLD-   22720 1363D 1   1.00000     0.00000
 Structure written by MMmdl.
 48 50  0  0  0  0  0  0  0  0  2 V2000
  148.9655  140.5454  154.3028 C   0  0  0  0  0  0  0  0  0  0  0  0
  149.9075  141.0161  155.4328 C   0  0  1  0  0  0  0  0  0  0  0  0
  149.0821  141.6448  156.5781 C   0  0  0  0  0  0  0  0  0  0  0  0
  149.9784  142.1995  157.6948 C   0  0  0  0  0  0  0  0  0  0  0  0
  150.9111  141.1156  158.2495 C   0  0  0  0  0  0  0  0  0  0  0  0
  151.7521  140.4846  157.1263 C   0  0  0  0  0  0  0  0  0  0  0  0
  150.9002  139.9237  155.9555 C   0  0  2  0  0  0  0  0  0  0  0  0
  151.7990  139.5058  154.8933 N   0  5  0  0  0  0  0  0  0  0  0  0
  151.6808  138.1701  154.7106 C   0  0  0  0  0  0  0  0  0  0  0  0
  152.3054  137.4796  153.9061 O   0  0  0  0  0  0  0  0  0  0  0  0
  150.7613  137.6482  155.5439 N   0  0  0  0  0  0  0  0  0  0  0  0
  150.4028  136.2250  155.6198 C   0  0  0  0  0  0  0  0  0  0  0  0
  148.9130  135.9525  155.3650 C   0  0  0  0  0  0  0  0  0  0  0  0
  148.0371  136.5341  156.0075 O   0  0  0  0  0  0  0  0  0  0  0  0
  148.6411  135.0569  154.4036 N   0  0  0  0  0  0  0  0  0  0  0  0
  147.3018  134.6532  153.9926 C   0  0  0  0  0  0  0  0  0  0  0  0
  147.3453  133.5081  152.9676 C   0  0  0  0  0  0  0  0  0  0  0  0
  146.0394  133.3745  152.2089 C   0  0  0  0  0  0  0  0  0  0  0  0
  144.9708  134.2621  152.4503 C   0  0  0  0  0  0  0  0  0  0  0  0
  143.7788  134.1033  151.7174 C   0  0  0  0  0  0  0  0  0  0  0  0
  143.7071  133.0612  150.7713 C   0  0  0  0  0  0  0  0  0  0  0  0
  144.7246  132.2061  150.5311 N   0  0  0  0  0  0  0  0  0  0  0  0
  145.8638  132.3646  151.2388 C   0  0  0  0  0  0  0  0  0  0  0  0
  150.2377  138.5982  156.3267 C   0  0  0  0  0  0  0  0  0  0  0  0
  149.3773  138.4527  157.1963 O   0  0  0  0  0  0  0  0  0  0  0  0
  148.2790  139.7696  154.6429 H   0  0  0  0  0  0  0  0  0  0  0  0
  149.5219  140.1498  153.4530 H   0  0  0  0  0  0  0  0  0  0  0  0
  148.3615  141.3737  153.9318 H   0  0  0  0  0  0  0  0  0  0  0  0
  150.5133  141.8196  155.0097 H   0  0  0  0  0  0  0  0  0  0  0  0
  148.4630  142.4520  156.1853 H   0  0  0  0  0  0  0  0  0  0  0  0
  148.3907  140.9117  156.9940 H   0  0  0  0  0  0  0  0  0  0  0  0
  150.5719  143.0290  157.3082 H   0  0  0  0  0  0  0  0  0  0  0  0
  149.3630  142.6066  158.4976 H   0  0  0  0  0  0  0  0  0  0  0  0
  151.5705  141.5472  159.0029 H   0  0  0  0  0  0  0  0  0  0  0  0
  150.3267  140.3516  158.7620 H   0  0  0  0  0  0  0  0  0  0  0  0
  152.4398  141.2409  156.7439 H   0  0  0  0  0  0  0  0  0  0  0  0
  152.3822  139.7002  157.5496 H   0  0  0  0  0  0  0  0  0  0  0  0
  150.9880  135.6548  154.8965 H   0  0  0  0  0  0  0  0  0  0  0  0
  150.6743  135.8250  156.5981 H   0  0  0  0  0  0  0  0  0  0  0  0
  149.4177  134.6264  153.9229 H   0  0  0  0  0  0  0  0  0  0  0  0
  146.7155  134.3633  154.8665 H   0  0  0  0  0  0  0  0  0  0  0  0
  146.8041  135.5213  153.5594 H   0  0  0  0  0  0  0  0  0  0  0  0
  148.1552  133.6730  152.2555 H   0  0  0  0  0  0  0  0  0  0  0  0
  147.5617  132.5611  153.4646 H   0  0  0  0  0  0  0  0  0  0  0  0
  145.0623  135.0514  153.1821 H   0  0  0  0  0  0  0  0  0  0  0  0
  142.9398  134.7646  151.8763 H   0  0  0  0  0  0  0  0  0  0  0  0
  142.8083  132.9110  150.1917 H   0  0  0  0  0  0  0  0  0  0  0  0
  146.6589  131.6664  151.0224 H   0  0  0  0  0  0  0  0  0  0  0  0
  1  2  1  0  0  0  0
  1 26  1  0  0  0  0
  1 27  1  0  0  0  0
  1 28  1  0  0  0  0
  2  7  1  0  0  0  0
  2  3  1  0  0  0  0
  2 29  1  0  0  0  0
  3  4  1  0  0  0  0
  3 30  1  0  0  0  0
  3 31  1  0  0  0  0
  4  5  1  0  0  0  0
  4 32  1  0  0  0  0
  4 33  1  0  0  0  0
  5  6  1  0  0  0  0
  5 34  1  0  0  0  0
  5 35  1  0  0  0  0
  6  7  1  0  0  0  0
  6 36  1  0  0  0  0
  6 37  1  0  0  0  0
  7 24  1  0  0  0  0
  7  8  1  0  0  0  0
  8  9  1  0  0  0  0
  9 10  2  0  0  0  0
  9 11  1  0  0  0  0
 11 12  1  0  0  0  0
 11 24  1  0  0  0  0
 12 13  1  0  0  0  0
 12 38  1  0  0  0  0
 12 39  1  0  0  0  0
 13 14  2  0  0  0  0
 13 15  1  0  0  0  0
 15 16  1  0  0  0  0
 15 40  1  0  0  0  0
 16 17  1  0  0  0  0
 16 41  1  0  0  0  0
 16 42  1  0  0  0  0
 17 18  1  0  0  0  0
 17 43  1  0  0  0  0
 17 44  1  0  0  0  0
 18 23  1  0  0  0  0
 18 19  2  0  0  0  0
 19 20  1  0  0  0  0
 19 45  1  0  0  0  0
 20 21  2  0  0  0  0
 20 46  1  0  0  0  0
 21 22  1  0  0  0  0
 21 47  1  0  0  0  0
 22 23  2  0  0  0  0
 23 48  1  0  0  0  0
 24 25  2  0  0  0  0
M  CHG  1   8  -1
M  END
> <s_m_source_file>
AV-unprocessed.smi

> <i_m_source_file_index>
837

> <i_lp_mmshare_version>
43012

> <i_f3d_flags>
0

> <s_epik_input>
W0NIMl0xW0NIMl1bQ0gyXVtDSDJdW0NAQEhdKFtDSDNdKVtDQEBdMTJbTkhdQyg9TylOKEMyPU8pW0NIMl1DKD1PKVtOSF1bQ0gyXVtDSDJdYzNbY0hdW2NIXVtjSF1uW2NIXTM=

> <s_epik_cmdline>
J2VwaWtfcHl0aG9uJywgJy1waCcsICc3LjAnLCAnLXRuJywgJzgnLCAnLW1hJywgJzIwMCcsICctbWV0YWxfYmluZGluZycsICctaW1hZScsICc8aW5maWxlLm1hZT4nLCAnLW9tYWUnLCAnPG91dGZpbGUubWFlPic=

> <r_lp_tautomer_probability>
1

> <r_epik_Ionization_Penalty>
6.03002

> <r_epik_Ionization_Penalty_Charging>
6.01728

> <r_epik_Ionization_Penalty_Neutral>
0.0127382

> <r_epik_State_Penalty>
6.02713

> <r_epik_Charging_Adjusted_Penalty>
12.0444

> <i_epik_Tot_Q>
-1

> <i_epik_Tot_abs_Q>
1

> <r_epik_Metal_State_Penalty>
1.99078

> <b_epik_Metal_Only>
1

> <s_lp_Force_Field>
OPLS_2005

> <r_lp_Energy>
14.5441

> <b_lp_Chiralities_Consistent>
1

> <s_lp_Variant>
AV-unprocessed.smi:837-10

> <Gold.Version>
5.8.1

> <Gold.Id.Protein>
6NUR|6NUR_protein|mol2

> <Gold.PLP.Fitness>
47.6401

> <Gold.PLP.PLP>
-36.4003

> <Gold.PLP.part.hbond>
-3.0000

> <Gold.PLP.part.metal>
0.0000

> <Gold.PLP.part.buried>
-4.5184

> <Gold.PLP.part.nonpolar>
-30.0072

> <Gold.PLP.part.repulsive>
0.8238

> <Gold.PLP.ligand.clash>
0.0000

> <Gold.PLP.ligand.torsion>
0.1375

> <Gold.PLP.Chemscore.Hbond>
1.8320

> <Gold.PLP.Chemscore.CHOScore>
1.9964

> <Gold.PLP.Chemscore.Metal>
0.0000

> <Gold.Chemscore.Hbonds>
donor molecule, donor type, donor heavy atom, donor atom, acceptor molecule, acceptor atom, score
      P1  H  7989  7998       L1     8  1.00
      P1  H 10752 10765       L1    10  0.85
      L1  C    21    47       P1 10186  1.00
      L1  C    23    48       P1 10747  0.91

> <Gold.PLP.Chemscore.Internal.Correction>
0.0296

> <Gold.Rescore>
     Score         DG    S(hbond)    S(metal)    S(lipo)     H(rot)  DE(clash)    DE(int)     intcor
     13.18     -15.90       1.56        0.00      84.01       1.81       0.29       2.43       ----

> <Gold.Chemscore.Fitness>
13.1843

> <Gold.Chemscore.DG>
-15.8956

> <Gold.Chemscore.ZeroCoef>
-5.4800

> <Gold.Chemscore.Hbond>
1.5622

> <Gold.Chemscore.Metal>
0.0000

> <Gold.Chemscore.Lipo>
84.0071

> <Gold.Chemscore.Internal_Hbond>
0.0000

> <Gold.Chemscore.DEClash>
0.2851

> <Gold.Chemscore.DEInternal>
2.4263

> <Gold.Chemscore.Rot>
1.8090

> <Gold.Chemscore.Internal.Correction>
   9.000000E+99

> <Gold.Chemscore.Hbonds>
donor molecule, donor type, donor heavy atom, donor atom, acceptor molecule, acceptor atom, score
      P1  H  7989  7998       L1     8  0.52
      P1  H 10752 10765       L1    10  0.83

> <Gold.Chemscore.Hbond.Weighted>
-5.2178

> <Gold.Chemscore.Metal.Weighted>
-0.0000

> <Gold.Chemscore.Lipo.Weighted>
-9.8288

> <Gold.Chemscore.Internal_Hbond.Weighted>
0.0000

> <Gold.Chemscore.DEClash.Weighted>
0.2851

> <Gold.Chemscore.DEInternal.Weighted>
2.4263

> <Gold.Chemscore.Rot.Weighted>
4.6310

> <Gold.Chemscore.Internal.Correction.Weighted>
   9.000000E+99

> <Gold.Protein.RotatedTorsions>
[ 6907 6896 6895 6894 ] final  124.99 input  -60.11 | X-H torsion
[ 7974 7965 7964 7962 ] final -127.05 input  175.53 | X-H torsion
[ 8008 7997 7996 7995 ] final -133.64 input   59.86 | X-H torsion
[ 10167 10162 10161 10158 ] final   33.55 input  -65.29 | X-H torsion
[ 10718 10713 10712 10709 ] final   -5.17 input   66.30 | X-H torsion
[ 10763 10752 10751 10750 ] final  146.24 input  -60.55 | X-H torsion
[ 11005 11000 10999 10996 ] final -156.53 input  -57.11 | X-H torsion

> <Gold.Protein.ActiveResidues>
 VAL166  LYS551  ARG553  GLY616  TRP617  ASP618  TYR619  PRO620  LYS621  CYS622 
 ASP623  PHE694  ASN695  SER759  ASP760  ASP761  ALA762  ILE779  LEU786  VAL792 
 PHE793  MET794  SER795  GLU796  ALA797  LYS798  CYS799  TRP800  GLU811  SER814 

> <Gold.Protein.RotatedAtoms>
  152.4030  133.6847  159.6332 H   0  0  0  0  0  0  0  0  0  0  0  0  # atno 6907 bound_to 6896
  150.7919  133.8757  159.3280 H   0  0  0  0  0  0  0  0  0  0  0  0  # atno 6908 bound_to 6896
  151.6518  135.1002  160.0213 H   0  0  0  0  0  0  0  0  0  0  0  0  # atno 6909 bound_to 6896
  144.9810  140.7640  143.4612 H   0  0  0  0  0  0  0  0  0  0  0  0  # atno 7974 bound_to 7965
  155.3489  140.0476  157.3046 H   0  0  0  0  0  0  0  0  0  0  0  0  # atno 8008 bound_to 7997
  154.5238  140.2234  155.8892 H   0  0  0  0  0  0  0  0  0  0  0  0  # atno 8009 bound_to 7997
  156.1717  140.3094  155.8992 H   0  0  0  0  0  0  0  0  0  0  0  0  # atno 8010 bound_to 7997
  140.4397  144.1205  150.6172 H   0  0  0  0  0  0  0  0  0  0  0  0  # atno 10167 bound_to 10162
  156.7505  130.5238  149.5805 H   0  0  0  0  0  0  0  0  0  0  0  0  # atno 10718 bound_to 10713
  154.0186  135.2908  155.3384 H   0  0  0  0  0  0  0  0  0  0  0  0  # atno 10763 bound_to 10752
  154.7060  135.5169  153.8599 H   0  0  0  0  0  0  0  0  0  0  0  0  # atno 10764 bound_to 10752
  153.0691  135.6641  154.0410 H   0  0  0  0  0  0  0  0  0  0  0  0  # atno 10765 bound_to 10752
  140.6745  134.4211  157.5230 H   0  0  0  0  0  0  0  0  0  0  0  0  # atno 11005 bound_to 11000
  145.2421  139.2068  143.4987 LP  0  0  0  0  0  0  0  0  0  0  0  0  # atno 17320 bound_to 7965
  146.3408  140.2318  142.8593 LP  0  0  0  0  0  0  0  0  0  0  0  0  # atno 17321 bound_to 7965
  140.4333  143.2558  151.9568 LP  0  0  0  0  0  0  0  0  0  0  0  0  # atno 17342 bound_to 10162
  139.4789  144.5724  151.8067 LP  0  0  0  0  0  0  0  0  0  0  0  0  # atno 17343 bound_to 10162
  156.1404  130.6241  151.0460 LP  0  0  0  0  0  0  0  0  0  0  0  0  # atno 17370 bound_to 10713
  157.6779  131.0845  150.7446 LP  0  0  0  0  0  0  0  0  0  0  0  0  # atno 17371 bound_to 10713
  139.8971  134.8644  156.2059 LP  0  0  0  0  0  0  0  0  0  0  0  0  # atno 17394 bound_to 11000
  141.0366  133.6960  156.1523 LP  0  0  0  0  0  0  0  0  0  0  0  0  # atno 17395 bound_to 11000

$$$$
