#       Name:                AV-unprocessed.smi:2386
#       Creating user name   scv26
#       Creation time:       Fri Mar 27 13:09:45 2020


#       File generated by GOLD software.
#

@<TRIPOS>MOLECULE
AV-unprocessed.smi:2386
    48    49     1
SMALL
NO_CHARGES


@<TRIPOS>ATOM
      1 ****        -4.1406   4.4922   1.2990 C.3            1 S1                 0.0000
      2 ****        -4.5210   3.0274   1.3487 C.ar           1 S1                 0.0000
      3 ****        -5.8718   2.6291   1.3315 C.ar           1 S1                 0.0000
      4 ****        -6.1574   1.2529   1.3770 C.ar           1 S1                 0.0000
      5 ****        -5.0882   0.3382   1.4363 C.ar           1 S1                 0.0000
      6 ****        -3.7601   0.8209   1.4470 C.ar           1 S1                 0.0000
      7 ****        -2.7551  -0.1812   1.5048 N.am           1 S1                 0.0000
      8 ****        -1.4201  -0.0207   1.4924 C.2            1 S1                 0.0000
      9 ****        -0.8325   1.0604   1.4416 O.2            1 S1                 0.0000
     10 ****        -0.7881  -1.2026   1.5378 N.am           1 S1                 0.0000
     11 ****         0.6599  -1.3770   1.5152 C.3            1 S1                 0.0000
     12 ****         1.2146  -1.3013   0.0837 C.3            1 S1                 0.0000
     13 ****         2.7405  -1.4884   0.0415 C.3            1 S1                 0.0000
     14 ****         3.3173  -1.5774  -1.2992 N.3            1 S1                 0.0000
     15 ****         3.2037  -0.3256  -2.0454 C.3            1 S1                 0.0000
     16 ****         3.8471  -0.4264  -3.4397 C.3            1 S1                 0.0000
     17 ****         5.2088  -0.8222  -3.3132 O.3            1 S1                 0.0000
     18 ****         5.3570  -2.0642  -2.6340 C.3            1 S1                 0.0000
     19 ****         4.7225  -1.9644  -1.2362 C.3            1 S1                 0.0000
     20 ****        -3.4954   2.1505   1.4036 N.ar           1 S1                 0.0000
     21 ****        -5.0001   5.1295   1.5085 H              1 S1                 0.0000
     22 ****        -3.7572   4.7481   0.3111 H              1 S1                 0.0000
     23 ****        -3.3678   4.7136   2.0358 H              1 S1                 0.0000
     24 ****        -6.6692   3.3560   1.2842 H              1 S1                 0.0000
     25 ****        -7.1792   0.9036   1.3660 H              1 S1                 0.0000
     26 ****        -5.2908  -0.7223   1.4714 H              1 S1                 0.0000
     27 ****        -3.0924  -1.1312   1.5480 H              1 S1                 0.0000
     28 ****        -1.3469  -2.0421   1.5806 H              1 S1                 0.0000
     29 ****         1.1381  -0.6298   2.1510 H              1 S1                 0.0000
     30 ****         0.8902  -2.3489   1.9521 H              1 S1                 0.0000
     31 ****         0.7374  -2.0658  -0.5307 H              1 S1                 0.0000
     32 ****         0.9454  -0.3390  -0.3516 H              1 S1                 0.0000
     33 ****         3.2218  -0.6827   0.5981 H              1 S1                 0.0000
     34 ****         2.9750  -2.4065   0.5819 H              1 S1                 0.0000
     35 ****         2.1568  -0.0503  -2.1672 H              1 S1                 0.0000
     36 ****         3.6781   0.4828  -1.4871 H              1 S1                 0.0000
     37 ****         3.3093  -1.1435  -4.0618 H              1 S1                 0.0000
     38 ****         3.8016   0.5366  -3.9485 H              1 S1                 0.0000
     39 ****         4.8916  -2.8626  -3.2138 H              1 S1                 0.0000
     40 ****         6.4176  -2.3024  -2.5535 H              1 S1                 0.0000
     41 ****         5.2791  -1.2396  -0.6402 H              1 S1                 0.0000
     42 ****         4.8194  -2.9247  -0.7286 H              1 S1                 0.0000
     43 ****        -1.3550   1.9123   1.4055 LP             1 S1                 0.0000
     44 ****         0.1672   1.0864   1.4366 LP             1 S1                 0.0000
     45 ****         2.7902  -2.2770  -1.7816 LP             1 S1                 0.0000
     46 ****         5.7012  -0.1172  -2.8026 LP             1 S1                 0.0000
     47 ****         5.6037  -0.9083  -4.2279 LP             1 S1                 0.0000
     48 ****        -2.5506   2.4780   1.4122 LP             1 S1                 0.0000
@<TRIPOS>BOND
    1    1    2 1     
    2    1   21 1     
    3    1   22 1     
    4    1   23 1     
    5    2   20 ar    
    6    2    3 ar    
    7    3    4 ar    
    8    3   24 1     
    9    4    5 ar    
   10    4   25 1     
   11    5    6 ar    
   12    5   26 1     
   13    6    7 1     
   14    6   20 ar    
   15    7    8 am    
   16    7   27 1     
   17    8    9 2     
   18    8   10 am    
   19   10   11 1     
   20   10   28 1     
   21   11   12 1     
   22   11   29 1     
   23   11   30 1     
   24   12   13 1     
   25   12   31 1     
   26   12   32 1     
   27   13   14 1     
   28   13   33 1     
   29   13   34 1     
   30   14   19 1     
   31   14   15 1     
   32   15   16 1     
   33   15   35 1     
   34   15   36 1     
   35   16   17 1     
   36   16   37 1     
   37   16   38 1     
   38   17   18 1     
   39   18   19 1     
   40   18   39 1     
   41   18   40 1     
   42   19   41 1     
   43   19   42 1     
   44    9   43 1     
   45    9   44 1     
   46   14   45 1     
   47   17   46 1     
   48   17   47 1     
   49   20   48 1     
@<TRIPOS>SUBSTRUCTURE
      1 S1             1
@<TRIPOS>SET
LONE_PAIRS      STATIC     ATOMS    <user>   **** ""
6 43 44 45 46 47 48
DONOR_HYDROGENS      STATIC     ATOMS    <user>   **** ""
2 27 28
ATOM$BLUE        STATIC     ATOMS    COLORGROUP SYSTEM
6 43 44 45 46 47 48
ATOM$RED        STATIC     ATOMS    COLORGROUP SYSTEM
2 27 28
