AV-unprocessed.smi:2246|AV-procd|sdf|9085|dock1
  -GOLD-   2272012283D 1   1.00000     0.00000
 Structure written by MMmdl.
 28 29  0  0  0  0  0  0  0  0  2 V2000
  150.6774  139.5868  154.2146 O   0  0  0  0  0  0  0  0  0  0  0  0
  150.5798  140.0566  155.3478 C   0  0  0  0  0  0  0  0  0  0  0  0
  151.3202  139.4721  156.5495 C   0  0  2  0  0  0  0  0  0  0  0  0
  150.8652  138.0881  156.8293 N   0  0  0  0  0  0  0  0  0  0  0  0
  150.0793  137.8457  157.9768 C   0  0  0  0  0  0  0  0  0  0  0  0
  149.5951  136.6257  158.2767 C   0  0  0  0  0  0  0  0  0  0  0  0
  148.6345  136.3723  159.6902 Cl  0  0  0  0  0  0  0  0  0  0  0  0
  149.8972  135.5263  157.3652 C   0  0  0  0  0  0  0  0  0  0  0  0
  149.4881  134.3942  157.6190 O   0  0  0  0  0  0  0  0  0  0  0  0
  150.6308  135.8125  156.2511 N   0  5  0  0  0  0  0  0  0  0  0  0
  151.1043  137.0621  155.9548 C   0  0  0  0  0  0  0  0  0  0  0  0
  151.7427  137.2850  154.9262 O   0  0  0  0  0  0  0  0  0  0  0  0
  150.9704  140.4672  157.6780 C   0  0  0  0  0  0  0  0  0  0  0  0
  149.9405  141.4489  157.1030 C   0  0  0  0  0  0  0  0  0  0  0  0
  149.8504  141.1244  155.6906 N   0  0  0  0  0  0  0  0  0  0  0  0
  149.0151  141.9256  154.7976 C   0  0  0  0  0  0  0  0  0  0  0  0
  147.5136  141.6332  154.9762 C   0  0  0  0  0  0  0  0  0  0  0  0
  146.8248  142.3569  154.0946 F   0  0  0  0  0  0  0  0  0  0  0  0
  147.2414  140.3452  154.7682 F   0  0  0  0  0  0  0  0  0  0  0  0
  147.1177  141.9715  156.2035 F   0  0  0  0  0  0  0  0  0  0  0  0
  152.3911  139.5377  156.3527 H   0  0  0  0  0  0  0  0  0  0  0  0
  149.8814  138.7088  158.5939 H   0  0  0  0  0  0  0  0  0  0  0  0
  150.6088  139.9867  158.5878 H   0  0  0  0  0  0  0  0  0  0  0  0
  151.8696  141.0145  157.9642 H   0  0  0  0  0  0  0  0  0  0  0  0
  148.9662  141.3151  157.5743 H   0  0  0  0  0  0  0  0  0  0  0  0
  150.2506  142.4845  157.2480 H   0  0  0  0  0  0  0  0  0  0  0  0
  149.2061  142.9828  154.9874 H   0  0  0  0  0  0  0  0  0  0  0  0
  149.3104  141.7458  153.7627 H   0  0  0  0  0  0  0  0  0  0  0  0
  1  2  2  0  0  0  0
  2 15  1  0  0  0  0
  2  3  1  0  0  0  0
  3  4  1  0  0  0  0
  3 13  1  0  0  0  0
  3 21  1  0  0  0  0
  4 11  1  0  0  0  0
  4  5  1  0  0  0  0
  5  6  2  0  0  0  0
  5 22  1  0  0  0  0
  6  7  1  0  0  0  0
  6  8  1  0  0  0  0
  8  9  2  0  0  0  0
  8 10  1  0  0  0  0
 10 11  1  0  0  0  0
 11 12  2  0  0  0  0
 13 14  1  0  0  0  0
 13 23  1  0  0  0  0
 13 24  1  0  0  0  0
 14 15  1  0  0  0  0
 14 25  1  0  0  0  0
 14 26  1  0  0  0  0
 15 16  1  0  0  0  0
 16 17  1  0  0  0  0
 16 27  1  0  0  0  0
 16 28  1  0  0  0  0
 17 18  1  0  0  0  0
 17 19  1  0  0  0  0
 17 20  1  0  0  0  0
M  CHG  1  10  -1
M  END
> <s_m_source_file>
AV-unprocessed.smi

> <i_m_source_file_index>
2246

> <i_lp_mmshare_version>
43012

> <i_f3d_flags>
0

> <s_epik_input>
RkMoRikoRilbQ0gyXU4xW0NIMl1bQ0gyXVtDQEBIXShDMT1PKW4yW2NIXWMoQ2wpYyg9TylbbkhdYzI9Tw==

> <s_epik_cmdline>
J2VwaWtfcHl0aG9uJywgJy1waCcsICc3LjAnLCAnLXRuJywgJzgnLCAnLW1hJywgJzIwMCcsICctbWV0YWxfYmluZGluZycsICctaW1hZScsICc8aW5maWxlLm1hZT4nLCAnLW9tYWUnLCAnPG91dGZpbGUubWFlPic=

> <r_epik_Ionization_Penalty>
1.33611

> <r_epik_Ionization_Penalty_Charging>
6.88308e-09

> <r_epik_Ionization_Penalty_Neutral>
1.33611

> <r_epik_State_Penalty>
1.41295

> <r_epik_Charging_Adjusted_Penalty>
1.41295

> <i_epik_Tot_Q>
-1

> <i_epik_Tot_abs_Q>
1

> <r_epik_Metal_State_Penalty>
0.00581136

> <b_epik_Metal_Only>
0

> <s_lp_Force_Field>
OPLS_2005

> <r_lp_Energy>
31.0989

> <b_lp_Chiralities_Consistent>
1

> <s_lp_Variant>
AV-unprocessed.smi:2246-4

> <Gold.Version>
5.8.1

> <Gold.Id.Protein>
6NUR|6NUR_protein|mol2

> <Gold.PLP.Fitness>
35.9747

> <Gold.PLP.PLP>
-27.5716

> <Gold.PLP.part.hbond>
-3.0000

> <Gold.PLP.part.metal>
0.0000

> <Gold.PLP.part.buried>
-1.9065

> <Gold.PLP.part.nonpolar>
-22.6098

> <Gold.PLP.part.repulsive>
0.2336

> <Gold.PLP.ligand.clash>
0.0000

> <Gold.PLP.ligand.torsion>
0.2982

> <Gold.PLP.Chemscore.Hbond>
2.9520

> <Gold.PLP.Chemscore.CHOScore>
0.0000

> <Gold.PLP.Chemscore.Metal>
0.0000

> <Gold.Chemscore.Hbonds>
donor molecule, donor type, donor heavy atom, donor atom, acceptor molecule, acceptor atom, score
      P1  H  6896  6908       L1     9  0.67
      P1  H  7989  7998       L1     1  0.95
      P1  H 10752 10765       L1    12  0.84

> <Gold.PLP.Chemscore.Internal.Correction>
0.1435

> <Gold.Rescore>
     Score         DG    S(hbond)    S(metal)    S(lipo)     H(rot)  DE(clash)    DE(int)     intcor
      8.24     -11.08       1.52        0.00      36.21       1.45       0.21       2.63       ----

> <Gold.Chemscore.Fitness>
8.2446

> <Gold.Chemscore.DG>
-11.0810

> <Gold.Chemscore.ZeroCoef>
-5.4800

> <Gold.Chemscore.Hbond>
1.5180

> <Gold.Chemscore.Metal>
0.0000

> <Gold.Chemscore.Lipo>
36.2113

> <Gold.Chemscore.Internal_Hbond>
0.0000

> <Gold.Chemscore.DEClash>
0.2089

> <Gold.Chemscore.DEInternal>
2.6274

> <Gold.Chemscore.Rot>
1.4476

> <Gold.Chemscore.Internal.Correction>
   9.000000E+99

> <Gold.Chemscore.Hbonds>
donor molecule, donor type, donor heavy atom, donor atom, acceptor molecule, acceptor atom, score
      P1  H  6896  6908       L1     9  0.19
      P1  H  7989  7998       L1     1  0.22
      P1  H 10752 10765       L1    12  0.42

> <Gold.Chemscore.Hbond.Weighted>
-5.0701

> <Gold.Chemscore.Metal.Weighted>
-0.0000

> <Gold.Chemscore.Lipo.Weighted>
-4.2367

> <Gold.Chemscore.Internal_Hbond.Weighted>
0.0000

> <Gold.Chemscore.DEClash.Weighted>
0.2089

> <Gold.Chemscore.DEInternal.Weighted>
2.6274

> <Gold.Chemscore.Rot.Weighted>
3.7059

> <Gold.Chemscore.Internal.Correction.Weighted>
   9.000000E+99

> <Gold.Protein.RotatedTorsions>
[ 6907 6896 6895 6894 ] final  122.48 input  -60.11 | X-H torsion
[ 7974 7965 7964 7962 ] final   59.06 input  175.53 | X-H torsion
[ 8008 7997 7996 7995 ] final   33.15 input   59.86 | X-H torsion
[ 10167 10162 10161 10158 ] final   14.68 input  -65.29 | X-H torsion
[ 10718 10713 10712 10709 ] final -160.80 input   66.30 | X-H torsion
[ 10763 10752 10751 10750 ] final -177.29 input  -60.55 | X-H torsion
[ 11005 11000 10999 10996 ] final -137.10 input  -57.11 | X-H torsion

> <Gold.Protein.ActiveResidues>
 VAL166  LYS551  ARG553  GLY616  TRP617  ASP618  TYR619  PRO620  LYS621  CYS622 
 ASP623  PHE694  ASN695  SER759  ASP760  ASP761  ALA762  ILE779  LEU786  VAL792 
 PHE793  MET794  SER795  GLU796  ALA797  LYS798  CYS799  TRP800  GLU811  SER814 

> <Gold.Protein.RotatedAtoms>
  152.4240  133.7163  159.6507 H   0  0  0  0  0  0  0  0  0  0  0  0  # atno 6907 bound_to 6896
  150.8116  133.8401  159.3186 H   0  0  0  0  0  0  0  0  0  0  0  0  # atno 6908 bound_to 6896
  151.6110  135.1042  160.0132 H   0  0  0  0  0  0  0  0  0  0  0  0  # atno 6909 bound_to 6896
  145.9113  139.3656  143.0534 H   0  0  0  0  0  0  0  0  0  0  0  0  # atno 7974 bound_to 7965
  155.1339  140.3260  155.4467 H   0  0  0  0  0  0  0  0  0  0  0  0  # atno 8008 bound_to 7997
  156.2626  140.2005  156.6407 H   0  0  0  0  0  0  0  0  0  0  0  0  # atno 8009 bound_to 7997
  154.6592  140.0549  157.0029 H   0  0  0  0  0  0  0  0  0  0  0  0  # atno 8010 bound_to 7997
  140.5919  143.8778  150.6882 H   0  0  0  0  0  0  0  0  0  0  0  0  # atno 10167 bound_to 10162
  156.5872  130.8755  151.2880 H   0  0  0  0  0  0  0  0  0  0  0  0  # atno 10718 bound_to 10713
  154.5620  135.2821  155.0910 H   0  0  0  0  0  0  0  0  0  0  0  0  # atno 10763 bound_to 10752
  154.2315  135.6373  153.5181 H   0  0  0  0  0  0  0  0  0  0  0  0  # atno 10764 bound_to 10752
  153.0032  135.5538  154.6217 H   0  0  0  0  0  0  0  0  0  0  0  0  # atno 10765 bound_to 10752
  140.8743  134.2012  157.4631 H   0  0  0  0  0  0  0  0  0  0  0  0  # atno 11005 bound_to 11000
  145.8668  140.9443  143.0671 LP  0  0  0  0  0  0  0  0  0  0  0  0  # atno 17320 bound_to 7965
  144.6743  140.0602  143.7476 LP  0  0  0  0  0  0  0  0  0  0  0  0  # atno 17321 bound_to 7965
  140.2303  143.3741  152.1571 LP  0  0  0  0  0  0  0  0  0  0  0  0  # atno 17342 bound_to 10162
  139.5233  144.7070  151.5324 LP  0  0  0  0  0  0  0  0  0  0  0  0  # atno 17343 bound_to 10162
  157.7312  130.9697  150.1870 LP  0  0  0  0  0  0  0  0  0  0  0  0  # atno 17370 bound_to 10713
  156.2580  130.3708  149.8160 LP  0  0  0  0  0  0  0  0  0  0  0  0  # atno 17371 bound_to 10713
  139.8714  134.9788  156.5013 LP  0  0  0  0  0  0  0  0  0  0  0  0  # atno 17394 bound_to 11000
  140.8536  133.8113  155.9194 LP  0  0  0  0  0  0  0  0  0  0  0  0  # atno 17395 bound_to 11000

$$$$
