AV-unprocessed.smi:95|AV-procd|sdf|855|dock3
  -GOLD-   2262017303D 1   1.00000     0.00000
 Structure written by MMmdl.
 41 44  0  0  0  0  0  0  0  0  1 V2000
  150.1514  139.7365  156.1203 O   0  0  0  0  0  0  0  0  0  0  0  0
  149.8041  138.9268  156.9822 C   0  0  0  0  0  0  0  0  0  0  0  0
  148.4552  138.3799  157.0747 C   0  0  0  0  0  0  0  0  0  0  0  0
  147.5317  138.7297  156.1634 F   0  0  0  0  0  0  0  0  0  0  0  0
  148.1163  137.5250  158.0636 C   0  0  0  0  0  0  0  0  0  0  0  0
  148.9981  137.1200  159.0491 N   0  0  0  0  0  0  0  0  0  0  0  0
  148.5290  136.1455  160.1044 C   0  0  2  0  0  0  0  0  0  0  0  0
  147.0734  135.6784  159.9092 C   0  0  0  0  0  0  0  0  0  0  0  0
  146.4071  136.0897  161.2120 C   0  0  0  0  0  0  0  0  0  0  0  0
  147.5866  136.2236  162.1687 C   0  0  0  0  0  0  0  0  0  0  0  0
  148.6121  136.7648  161.3506 O   0  0  0  0  0  0  0  0  0  0  0  0
  150.3411  137.5621  159.0122 C   0  0  0  0  0  0  0  0  0  0  0  0
  151.1574  137.1868  159.8556 O   0  0  0  0  0  0  0  0  0  0  0  0
  150.6976  138.4588  157.9758 N   0  0  0  0  0  0  0  0  0  0  0  0
  152.0480  139.0018  157.9623 C   0  0  0  0  0  0  0  0  0  0  0  0
  152.2037  140.3702  158.6160 C   0  0  0  0  0  0  0  0  0  0  0  0
  152.9730  140.5088  159.7883 C   0  0  0  0  0  0  0  0  0  0  0  0
  153.0869  141.7849  160.3690 C   0  0  0  0  0  0  0  0  0  0  0  0
  152.4249  142.8711  159.7611 C   0  0  0  0  0  0  0  0  0  0  0  0
  152.5200  144.1627  160.3186 C   0  0  0  0  0  0  0  0  0  0  0  0
  151.8545  145.2422  159.7089 C   0  0  0  0  0  0  0  0  0  0  0  0
  151.0960  145.0291  158.5435 C   0  0  0  0  0  0  0  0  0  0  0  0
  151.0036  143.7382  157.9881 C   0  0  0  0  0  0  0  0  0  0  0  0
  151.6622  142.6411  158.5831 C   0  0  0  0  0  0  0  0  0  0  0  0
  151.5603  141.4094  158.0355 N   0  0  0  0  0  0  0  0  0  0  0  0
  147.1033  137.1503  158.0822 H   0  0  0  0  0  0  0  0  0  0  0  0
  149.2278  135.3082  160.0734 H   0  0  0  0  0  0  0  0  0  0  0  0
  146.6032  136.1227  159.0313 H   0  0  0  0  0  0  0  0  0  0  0  0
  147.0692  134.5944  159.7914 H   0  0  0  0  0  0  0  0  0  0  0  0
  145.9130  137.0546  161.0947 H   0  0  0  0  0  0  0  0  0  0  0  0
  145.6633  135.3704  161.5550 H   0  0  0  0  0  0  0  0  0  0  0  0
  147.3680  136.8676  163.0205 H   0  0  0  0  0  0  0  0  0  0  0  0
  147.8959  135.2468  162.5437 H   0  0  0  0  0  0  0  0  0  0  0  0
  152.7207  138.2845  158.4330 H   0  0  0  0  0  0  0  0  0  0  0  0
  152.3658  139.0295  156.9183 H   0  0  0  0  0  0  0  0  0  0  0  0
  153.4680  139.6576  160.2327 H   0  0  0  0  0  0  0  0  0  0  0  0
  153.6723  141.9231  161.2663 H   0  0  0  0  0  0  0  0  0  0  0  0
  153.1016  144.3302  161.2133 H   0  0  0  0  0  0  0  0  0  0  0  0
  151.9254  146.2323  160.1348 H   0  0  0  0  0  0  0  0  0  0  0  0
  150.5842  145.8563  158.0742 H   0  0  0  0  0  0  0  0  0  0  0  0
  150.4179  143.5883  157.0928 H   0  0  0  0  0  0  0  0  0  0  0  0
  1  2  2  0  0  0  0
  2 14  1  0  0  0  0
  2  3  1  0  0  0  0
  3  4  1  0  0  0  0
  3  5  2  0  0  0  0
  5  6  1  0  0  0  0
  5 26  1  0  0  0  0
  6  7  1  0  0  0  0
  6 12  1  0  0  0  0
  7 11  1  0  0  0  0
  7  8  1  0  0  0  0
  7 27  1  0  0  0  0
  8  9  1  0  0  0  0
  8 28  1  0  0  0  0
  8 29  1  0  0  0  0
  9 10  1  0  0  0  0
  9 30  1  0  0  0  0
  9 31  1  0  0  0  0
 10 11  1  0  0  0  0
 10 32  1  0  0  0  0
 10 33  1  0  0  0  0
 12 13  2  0  0  0  0
 12 14  1  0  0  0  0
 14 15  1  0  0  0  0
 15 16  1  0  0  0  0
 15 34  1  0  0  0  0
 15 35  1  0  0  0  0
 16 25  1  0  0  0  0
 16 17  2  0  0  0  0
 17 18  1  0  0  0  0
 17 36  1  0  0  0  0
 18 19  2  0  0  0  0
 18 37  1  0  0  0  0
 19 24  1  0  0  0  0
 19 20  1  0  0  0  0
 20 21  2  0  0  0  0
 20 38  1  0  0  0  0
 21 22  1  0  0  0  0
 21 39  1  0  0  0  0
 22 23  2  0  0  0  0
 22 40  1  0  0  0  0
 23 24  1  0  0  0  0
 23 41  1  0  0  0  0
 24 25  2  0  0  0  0
M  END
> <s_m_source_file>
AV-unprocessed.smi

> <i_m_source_file_index>
95

> <i_lp_mmshare_version>
43012

> <i_f3d_flags>
0

> <s_epik_input>
TzFbQ0gyXVtDSDJdW0NIMl1bQ0BIXTFuKFtjSF1jKEYpYzI9TyljKD1PKW4yW0NIMl1jKFtjSF1bY0hdMyluYyhjMzQpW2NIXVtjSF1bY0hdW2NIXTQ=

> <s_epik_cmdline>
J2VwaWtfcHl0aG9uJywgJy1waCcsICc3LjAnLCAnLXRuJywgJzgnLCAnLW1hJywgJzIwMCcsICctbWV0YWxfYmluZGluZycsICctaW1hZScsICc8aW5maWxlLm1hZT4nLCAnLW9tYWUnLCAnPG91dGZpbGUubWFlPic=

> <r_lp_tautomer_probability>
1

> <r_epik_Ionization_Penalty>
0.0274176

> <r_epik_Ionization_Penalty_Charging>
1.11818e-08

> <r_epik_Ionization_Penalty_Neutral>
0.0274176

> <r_epik_State_Penalty>
0.0224396

> <r_epik_Charging_Adjusted_Penalty>
0.0224396

> <i_epik_Tot_Q>
0

> <i_epik_Tot_abs_Q>
0

> <r_epik_Metal_State_Penalty>
2.28695e-05

> <b_epik_Metal_Only>
0

> <s_epik_Chemistry_Notes>
This compound contains an acetal/aminal-like group ( X-CH(R)-Y where X, Y are N, S, or O) that may be acid/base labile, releasing an aldehyde.

> <s_lp_Force_Field>
OPLS_2005

> <r_lp_Energy>
29.0351

> <b_lp_Chiralities_Consistent>
1

> <s_lp_Variant>
AV-unprocessed.smi:95-1

> <Gold.Version>
5.8.1

> <Gold.Id.Protein>
6NUR|6NUR_protein|mol2

> <Gold.PLP.Fitness>
50.9229

> <Gold.PLP.PLP>
-45.6640

> <Gold.PLP.part.hbond>
-1.9772

> <Gold.PLP.part.metal>
0.0000

> <Gold.PLP.part.buried>
-7.4895

> <Gold.PLP.part.nonpolar>
-36.6074

> <Gold.PLP.part.repulsive>
0.0021

> <Gold.PLP.ligand.clash>
0.0000

> <Gold.PLP.ligand.torsion>
0.3808

> <Gold.PLP.Chemscore.Hbond>
2.0000

> <Gold.PLP.Chemscore.CHOScore>
0.0000

> <Gold.PLP.Chemscore.Metal>
0.0000

> <Gold.Chemscore.Hbonds>
donor molecule, donor type, donor heavy atom, donor atom, acceptor molecule, acceptor atom, score
      P1  H  6896  6909       L1    13  0.98
      P1  H  6931  6943       L1    11  1.00

> <Gold.PLP.Chemscore.Internal.Correction>
0.0205

> <Gold.Rescore>
     Score         DG    S(hbond)    S(metal)    S(lipo)     H(rot)  DE(clash)    DE(int)     intcor
     19.90     -21.95       1.85        0.00     120.82       1.50       0.15       1.90       ----

> <Gold.Chemscore.Fitness>
19.9002

> <Gold.Chemscore.DG>
-21.9532

> <Gold.Chemscore.ZeroCoef>
-5.4800

> <Gold.Chemscore.Hbond>
1.8483

> <Gold.Chemscore.Metal>
0.0000

> <Gold.Chemscore.Lipo>
120.8219

> <Gold.Chemscore.Internal_Hbond>
0.0000

> <Gold.Chemscore.DEClash>
0.1483

> <Gold.Chemscore.DEInternal>
1.9048

> <Gold.Chemscore.Rot>
1.4985

> <Gold.Chemscore.Internal.Correction>
   9.000000E+99

> <Gold.Chemscore.Hbonds>
donor molecule, donor type, donor heavy atom, donor atom, acceptor molecule, acceptor atom, score
      P1  H  6896  6909       L1    13  0.81
      P1  H  6931  6943       L1    11  0.74

> <Gold.Chemscore.Hbond.Weighted>
-6.1733

> <Gold.Chemscore.Metal.Weighted>
-0.0000

> <Gold.Chemscore.Lipo.Weighted>
-14.1362

> <Gold.Chemscore.Internal_Hbond.Weighted>
0.0000

> <Gold.Chemscore.DEClash.Weighted>
0.1483

> <Gold.Chemscore.DEInternal.Weighted>
1.9048

> <Gold.Chemscore.Rot.Weighted>
3.8362

> <Gold.Chemscore.Internal.Correction.Weighted>
   9.000000E+99

> <Gold.Protein.RotatedTorsions>
[ 6907 6896 6895 6894 ] final  107.40 input  -60.11 | X-H torsion
[ 7974 7965 7964 7962 ] final -175.35 input  175.53 | X-H torsion
[ 8008 7997 7996 7995 ] final  -96.89 input   59.86 | X-H torsion
[ 10167 10162 10161 10158 ] final  172.04 input  -65.29 | X-H torsion
[ 10718 10713 10712 10709 ] final  -83.72 input   66.30 | X-H torsion
[ 10763 10752 10751 10750 ] final  -24.94 input  -60.55 | X-H torsion
[ 11005 11000 10999 10996 ] final   57.66 input  -57.11 | X-H torsion

> <Gold.Protein.ActiveResidues>
 VAL166  LYS551  ARG553  GLY616  TRP617  ASP618  TYR619  PRO620  LYS621  CYS622 
 ASP623  PHE694  ASN695  SER759  ASP760  ASP761  ALA762  ILE779  LEU786  VAL792 
 PHE793  MET794  SER795  GLU796  ALA797  LYS798  CYS799  TRP800  GLU811  SER814 

> <Gold.Protein.RotatedAtoms>
  152.5156  133.9240  159.7547 H   0  0  0  0  0  0  0  0  0  0  0  0  # atno 6907 bound_to 6896
  150.9605  133.6442  159.2762 H   0  0  0  0  0  0  0  0  0  0  0  0  # atno 6908 bound_to 6896
  151.3688  135.0924  159.9511 H   0  0  0  0  0  0  0  0  0  0  0  0  # atno 6909 bound_to 6896
  144.7128  140.1334  143.6397 H   0  0  0  0  0  0  0  0  0  0  0  0  # atno 7974 bound_to 7965
  154.7805  140.0467  157.1123 H   0  0  0  0  0  0  0  0  0  0  0  0  # atno 8008 bound_to 7997
  154.9711  140.3089  155.4968 H   0  0  0  0  0  0  0  0  0  0  0  0  # atno 8009 bound_to 7997
  156.2935  140.2253  156.4804 H   0  0  0  0  0  0  0  0  0  0  0  0  # atno 8010 bound_to 7997
  139.5064  144.3418  152.0010 H   0  0  0  0  0  0  0  0  0  0  0  0  # atno 10167 bound_to 10162
  156.0015  130.4674  150.4300 H   0  0  0  0  0  0  0  0  0  0  0  0  # atno 10718 bound_to 10713
  153.6918  135.6961  153.5088 H   0  0  0  0  0  0  0  0  0  0  0  0  # atno 10763 bound_to 10752
  153.2407  135.4307  155.0694 H   0  0  0  0  0  0  0  0  0  0  0  0  # atno 10764 bound_to 10752
  154.8370  135.3507  154.6460 H   0  0  0  0  0  0  0  0  0  0  0  0  # atno 10765 bound_to 10752
  140.0436  134.5838  155.9351 H   0  0  0  0  0  0  0  0  0  0  0  0  # atno 11005 bound_to 11000
  145.9266  139.2579  143.1350 LP  0  0  0  0  0  0  0  0  0  0  0  0  # atno 17320 bound_to 7965
  145.9565  140.8868  143.0232 LP  0  0  0  0  0  0  0  0  0  0  0  0  # atno 17321 bound_to 7965
  140.2856  144.3811  150.6105 LP  0  0  0  0  0  0  0  0  0  0  0  0  # atno 17342 bound_to 10162
  140.5985  143.2167  151.7118 LP  0  0  0  0  0  0  0  0  0  0  0  0  # atno 17343 bound_to 10162
  157.2350  131.0512  151.2470 LP  0  0  0  0  0  0  0  0  0  0  0  0  # atno 17370 bound_to 10713
  157.3675  130.7163  149.6543 LP  0  0  0  0  0  0  0  0  0  0  0  0  # atno 17371 bound_to 10713
  141.1895  133.6566  156.5373 LP  0  0  0  0  0  0  0  0  0  0  0  0  # atno 17394 bound_to 11000
  140.4029  134.7340  157.4791 LP  0  0  0  0  0  0  0  0  0  0  0  0  # atno 17395 bound_to 11000

$$$$
