AV-unprocessed.smi:626|AV-procd|sdf|3110|dock7
  -GOLD-   22720 0 33D 1   1.00000     0.00000
 Structure written by MMmdl.
 34 36  0  0  0  0  0  0  0  0  1 V2000
  154.5298  138.1671  154.5927 C   0  0  0  0  0  0  0  0  0  0  0  0
  153.3209  138.9656  154.7227 N   0  0  0  0  0  0  0  0  0  0  0  0
  152.0913  138.4543  154.8834 C   0  0  0  0  0  0  0  0  0  0  0  0
  151.8641  137.2458  154.9424 O   0  0  0  0  0  0  0  0  0  0  0  0
  150.9414  139.4567  155.0015 C   0  0  0  0  0  0  0  0  0  0  0  0
  151.1802  140.4057  156.1323 C   0  0  0  0  0  0  0  0  0  0  0  0
  151.6324  139.9816  157.3063 N   0  0  0  0  0  0  0  0  0  0  0  0
  151.6969  141.1549  158.0709 O   0  0  0  0  0  0  0  0  0  0  0  0
  151.3062  142.1599  157.2497 C   0  0  0  0  0  0  0  0  0  0  0  0
  151.1748  143.5379  157.8301 C   0  0  1  0  0  0  0  0  0  0  0  0
  150.2586  143.6493  159.0699 C   0  0  0  0  0  0  0  0  0  0  0  0
  151.1515  144.3957  160.0802 C   0  0  1  0  0  0  0  0  0  0  0  0
  152.2512  143.4436  160.5890 C   0  0  0  0  0  0  0  0  0  0  0  0
  153.1992  143.3382  159.3789 C   0  0  0  0  0  0  0  0  0  0  0  0
  152.4868  144.1985  158.3153 C   0  0  2  0  0  0  0  0  0  0  0  0
  151.9435  145.3348  159.1767 C   0  0  0  0  0  0  0  0  0  0  0  0
  150.9311  141.7407  156.0414 N   0  0  0  0  0  0  0  0  0  0  0  0
  155.3945  138.8190  154.4688 H   0  0  0  0  0  0  0  0  0  0  0  0
  154.4703  137.5109  153.7234 H   0  0  0  0  0  0  0  0  0  0  0  0
  154.6882  137.5550  155.4816 H   0  0  0  0  0  0  0  0  0  0  0  0
  153.4232  139.9694  154.6806 H   0  0  0  0  0  0  0  0  0  0  0  0
  150.8437  140.0164  154.0701 H   0  0  0  0  0  0  0  0  0  0  0  0
  149.9993  138.9275  155.1521 H   0  0  0  0  0  0  0  0  0  0  0  0
  150.7521  144.1692  157.0466 H   0  0  0  0  0  0  0  0  0  0  0  0
  149.3644  144.2268  158.8331 H   0  0  0  0  0  0  0  0  0  0  0  0
  149.9304  142.6863  159.4628 H   0  0  0  0  0  0  0  0  0  0  0  0
  150.5936  144.8846  160.8792 H   0  0  0  0  0  0  0  0  0  0  0  0
  152.7723  143.8699  161.4471 H   0  0  0  0  0  0  0  0  0  0  0  0
  151.8511  142.4742  160.8885 H   0  0  0  0  0  0  0  0  0  0  0  0
  154.1711  143.7683  159.6240 H   0  0  0  0  0  0  0  0  0  0  0  0
  153.3738  142.3104  159.0638 H   0  0  0  0  0  0  0  0  0  0  0  0
  153.1427  144.5104  157.5020 H   0  0  0  0  0  0  0  0  0  0  0  0
  151.3150  146.0372  158.6258 H   0  0  0  0  0  0  0  0  0  0  0  0
  152.7211  145.8901  159.7045 H   0  0  0  0  0  0  0  0  0  0  0  0
  1  2  1  0  0  0  0
  1 18  1  0  0  0  0
  1 19  1  0  0  0  0
  1 20  1  0  0  0  0
  2  3  1  0  0  0  0
  2 21  1  0  0  0  0
  3  4  2  0  0  0  0
  3  5  1  0  0  0  0
  5  6  1  0  0  0  0
  5 22  1  0  0  0  0
  5 23  1  0  0  0  0
  6 17  1  0  0  0  0
  6  7  2  0  0  0  0
  7  8  1  0  0  0  0
  8  9  1  0  0  0  0
  9 10  1  0  0  0  0
  9 17  2  0  0  0  0
 10 15  1  0  0  0  0
 10 11  1  0  0  0  0
 10 24  1  0  0  0  0
 11 12  1  0  0  0  0
 11 25  1  0  0  0  0
 11 26  1  0  0  0  0
 12 16  1  0  0  0  0
 12 13  1  0  0  0  0
 12 27  1  0  0  0  0
 13 14  1  0  0  0  0
 13 28  1  0  0  0  0
 13 29  1  0  0  0  0
 14 15  1  0  0  0  0
 14 30  1  0  0  0  0
 14 31  1  0  0  0  0
 15 16  1  0  0  0  0
 15 32  1  0  0  0  0
 16 33  1  0  0  0  0
 16 34  1  0  0  0  0
M  END
> <s_m_source_file>
AV-unprocessed.smi

> <i_m_source_file_index>
626

> <i_lp_mmshare_version>
43012

> <i_f3d_flags>
0

> <s_epik_input>
W0NIM11bTkhdQyg9TylbQ0gyXWMxbm9jKG4xKVtDQEhdKFtDSDJdW0NAQEhdMjMpW0NAQEhdKFtDSDJdMylbQ0gyXVtDSDJdMg==

> <s_epik_cmdline>
J2VwaWtfcHl0aG9uJywgJy1waCcsICc3LjAnLCAnLXRuJywgJzgnLCAnLW1hJywgJzIwMCcsICctbWV0YWxfYmluZGluZycsICctaW1hZScsICc8aW5maWxlLm1hZT4nLCAnLW9tYWUnLCAnPG91dGZpbGUubWFlPic=

> <r_lp_tautomer_probability>
1

> <r_epik_Ionization_Penalty>
1.02916e-07

> <r_epik_Ionization_Penalty_Charging>
0

> <r_epik_Ionization_Penalty_Neutral>
1.02916e-07

> <r_epik_State_Penalty>
-0

> <r_epik_Charging_Adjusted_Penalty>
0

> <i_epik_Tot_Q>
0

> <i_epik_Tot_abs_Q>
0

> <r_epik_Metal_State_Penalty>
-0

> <b_epik_Metal_Only>
0

> <s_lp_Force_Field>
OPLS_2005

> <r_lp_Energy>
49.0627

> <b_lp_Chiralities_Consistent>
1

> <s_lp_Variant>
AV-unprocessed.smi:626-2

> <Gold.Version>
5.8.1

> <Gold.Id.Protein>
6NUR|6NUR_protein|mol2

> <Gold.PLP.Fitness>
39.5232

> <Gold.PLP.PLP>
-37.0349

> <Gold.PLP.part.hbond>
-1.0000

> <Gold.PLP.part.metal>
0.0000

> <Gold.PLP.part.buried>
-3.0848

> <Gold.PLP.part.nonpolar>
-35.3601

> <Gold.PLP.part.repulsive>
0.6877

> <Gold.PLP.ligand.clash>
0.0000

> <Gold.PLP.ligand.torsion>
0.2849

> <Gold.PLP.Chemscore.Hbond>
0.9920

> <Gold.PLP.Chemscore.CHOScore>
0.0000

> <Gold.PLP.Chemscore.Metal>
0.0000

> <Gold.Chemscore.Hbonds>
donor molecule, donor type, donor heavy atom, donor atom, acceptor molecule, acceptor atom, score
      P1  H 10752 10765       L1     4  0.98

> <Gold.PLP.Chemscore.Internal.Correction>
0.0820

> <Gold.Rescore>
     Score         DG    S(hbond)    S(metal)    S(lipo)     H(rot)  DE(clash)    DE(int)     intcor
     14.49     -16.46       0.89        0.00     103.56       1.61       0.65       1.31       ----

> <Gold.Chemscore.Fitness>
14.4926

> <Gold.Chemscore.DG>
-16.4555

> <Gold.Chemscore.ZeroCoef>
-5.4800

> <Gold.Chemscore.Hbond>
0.8939

> <Gold.Chemscore.Metal>
0.0000

> <Gold.Chemscore.Lipo>
103.5583

> <Gold.Chemscore.Internal_Hbond>
0.0000

> <Gold.Chemscore.DEClash>
0.6488

> <Gold.Chemscore.DEInternal>
1.3141

> <Gold.Chemscore.Rot>
1.6119

> <Gold.Chemscore.Internal.Correction>
   9.000000E+99

> <Gold.Chemscore.Hbonds>
donor molecule, donor type, donor heavy atom, donor atom, acceptor molecule, acceptor atom, score
      P1  H 10752 10765       L1     4  0.91

> <Gold.Chemscore.Hbond.Weighted>
-2.9857

> <Gold.Chemscore.Metal.Weighted>
-0.0000

> <Gold.Chemscore.Lipo.Weighted>
-12.1163

> <Gold.Chemscore.Internal_Hbond.Weighted>
0.0000

> <Gold.Chemscore.DEClash.Weighted>
0.6488

> <Gold.Chemscore.DEInternal.Weighted>
1.3141

> <Gold.Chemscore.Rot.Weighted>
4.1266

> <Gold.Chemscore.Internal.Correction.Weighted>
   9.000000E+99

> <Gold.Protein.RotatedTorsions>
[ 6907 6896 6895 6894 ] final  173.99 input  -60.11 | X-H torsion
[ 7974 7965 7964 7962 ] final   71.83 input  175.53 | X-H torsion
[ 8008 7997 7996 7995 ] final  134.96 input   59.86 | X-H torsion
[ 10167 10162 10161 10158 ] final  111.12 input  -65.29 | X-H torsion
[ 10718 10713 10712 10709 ] final   40.75 input   66.30 | X-H torsion
[ 10763 10752 10751 10750 ] final  177.62 input  -60.55 | X-H torsion
[ 11005 11000 10999 10996 ] final  109.43 input  -57.11 | X-H torsion

> <Gold.Protein.ActiveResidues>
 VAL166  LYS551  ARG553  GLY616  TRP617  ASP618  TYR619  PRO620  LYS621  CYS622 
 ASP623  PHE694  ASN695  SER759  ASP760  ASP761  ALA762  ILE779  LEU786  VAL792 
 PHE793  MET794  SER795  GLU796  ALA797  LYS798  CYS799  TRP800  GLU811  SER814 

> <Gold.Protein.RotatedAtoms>
  151.7594  133.3332  159.3413 H   0  0  0  0  0  0  0  0  0  0  0  0  # atno 6907 bound_to 6896
  150.7504  134.6119  159.6100 H   0  0  0  0  0  0  0  0  0  0  0  0  # atno 6908 bound_to 6896
  152.3415  134.7130  160.0314 H   0  0  0  0  0  0  0  0  0  0  0  0  # atno 6909 bound_to 6896
  145.7610  139.2800  143.1376 H   0  0  0  0  0  0  0  0  0  0  0  0  # atno 7974 bound_to 7965
  156.3001  140.2483  156.3503 H   0  0  0  0  0  0  0  0  0  0  0  0  # atno 8008 bound_to 7997
  154.8972  140.0407  157.1892 H   0  0  0  0  0  0  0  0  0  0  0  0  # atno 8009 bound_to 7997
  154.8537  140.2910  155.5586 H   0  0  0  0  0  0  0  0  0  0  0  0  # atno 8010 bound_to 7997
  139.6636  144.7128  151.1819 H   0  0  0  0  0  0  0  0  0  0  0  0  # atno 10167 bound_to 10162
  157.3857  130.7778  149.7229 H   0  0  0  0  0  0  0  0  0  0  0  0  # atno 10718 bound_to 10713
  154.4969  135.2781  155.1452 H   0  0  0  0  0  0  0  0  0  0  0  0  # atno 10763 bound_to 10752
  154.3101  135.6231  153.5465 H   0  0  0  0  0  0  0  0  0  0  0  0  # atno 10764 bound_to 10752
  152.9896  135.5717  154.5403 H   0  0  0  0  0  0  0  0  0  0  0  0  # atno 10765 bound_to 10752
  139.8862  134.9458  156.6124 H   0  0  0  0  0  0  0  0  0  0  0  0  # atno 11005 bound_to 11000
  146.0264  140.8299  142.9897 LP  0  0  0  0  0  0  0  0  0  0  0  0  # atno 17320 bound_to 7965
  144.6830  140.2704  143.7306 LP  0  0  0  0  0  0  0  0  0  0  0  0  # atno 17321 bound_to 7965
  140.7590  143.5955  150.8752 LP  0  0  0  0  0  0  0  0  0  0  0  0  # atno 17342 bound_to 10162
  139.9615  143.6158  152.3001 LP  0  0  0  0  0  0  0  0  0  0  0  0  # atno 17343 bound_to 10162
  155.9786  130.4049  150.3637 LP  0  0  0  0  0  0  0  0  0  0  0  0  # atno 17370 bound_to 10713
  157.1747  131.0377  151.2778 LP  0  0  0  0  0  0  0  0  0  0  0  0  # atno 17371 bound_to 10713
  140.7801  133.8667  155.8561 LP  0  0  0  0  0  0  0  0  0  0  0  0  # atno 17394 bound_to 11000
  140.9768  134.1459  157.4529 LP  0  0  0  0  0  0  0  0  0  0  0  0  # atno 17395 bound_to 11000

$$$$
