#       Name:                AV-unprocessed.smi:1943
#       Creating user name   scv26
#       Creation time:       Fri Mar 27 09:59:52 2020


#       File generated by GOLD software.
#

@<TRIPOS>MOLECULE
AV-unprocessed.smi:1943
    54    55     1
SMALL
NO_CHARGES


@<TRIPOS>ATOM
      1 ****        -2.2300  -2.3705   4.2313 C.3            1 S1                 0.0000
      2 ****        -2.1758  -0.8791   4.2692 N.4            1 S1                 1.0000
      3 ****        -3.2683  -0.3686   5.1389 C.3            1 S1                 0.0000
      4 ****        -1.9956  -0.1773   2.9374 C.3            1 S1                 0.0000
      5 ****        -2.8514  -0.8733   1.8386 C.3            1 S1                 0.0000
      6 ****        -2.4715   1.3097   3.0125 C.3            1 S1                 0.0000
      7 ****        -0.4622  -0.1999   2.5906 C.3            1 S1                 0.0000
      8 ****        -0.1854   0.4072   1.2912 N.pl3          1 S1                -1.0000
      9 ****         1.0686   0.5992   0.7956 C.2            1 S1                 0.0000
     10 ****         2.1663   0.2942   1.2750 O.2            1 S1                 0.0000
     11 ****         1.0447   1.2155  -0.5744 C.ar           1 S1                 0.0000
     12 ****         1.6375   0.5043  -1.5613 N.ar           1 S1                 0.0000
     13 ****         1.6372   1.0061  -2.8018 C.ar           1 S1                 0.0000
     14 ****         2.2464   0.2446  -3.8081 N.pl3          1 S1                 0.0000
     15 ****         2.6352  -1.1519  -3.5934 C.3            1 S1                 0.0000
     16 ****         3.8692  -1.5132  -4.4371 C.3            1 S1                 0.0000
     17 ****         3.6189  -1.2234  -5.8070 O.3            1 S1                 0.0000
     18 ****         3.3694   0.1620  -6.0097 C.3            1 S1                 0.0000
     19 ****         2.1159   0.5871  -5.2265 C.3            1 S1                 0.0000
     20 ****         1.0983   2.1811  -3.1511 N.ar           1 S1                 0.0000
     21 ****         0.5158   2.9167  -2.1815 C.ar           1 S1                 0.0000
     22 ****         0.4604   2.4811  -0.8442 C.ar           1 S1                 0.0000
     23 ****        -0.2594   3.4919   0.3632 Cl             1 S1                 0.0000
     24 ****        -3.1765  -2.7228   3.8194 H              1 S1                 0.0000
     25 ****        -2.1427  -2.7751   5.2401 H              1 S1                 0.0000
     26 ****        -1.4218  -2.8121   3.6491 H              1 S1                 0.0000
     27 ****        -4.2342  -0.4369   4.6370 H              1 S1                 0.0000
     28 ****        -3.0996   0.6637   5.4451 H              1 S1                 0.0000
     29 ****        -3.3319  -0.9490   6.0599 H              1 S1                 0.0000
     30 ****        -2.8387  -0.3207   0.8971 H              1 S1                 0.0000
     31 ****        -3.8971  -0.9334   2.1414 H              1 S1                 0.0000
     32 ****        -2.5234  -1.8892   1.6101 H              1 S1                 0.0000
     33 ****        -2.3268   1.8494   2.0742 H              1 S1                 0.0000
     34 ****        -1.9594   1.8798   3.7908 H              1 S1                 0.0000
     35 ****        -3.5416   1.3821   3.2082 H              1 S1                 0.0000
     36 ****         0.0798   0.3065   3.3907 H              1 S1                 0.0000
     37 ****        -0.1059  -1.2299   2.6133 H              1 S1                 0.0000
     38 ****         2.8655  -1.3600  -2.5489 H              1 S1                 0.0000
     39 ****         1.7955  -1.7927  -3.8644 H              1 S1                 0.0000
     40 ****         4.7490  -0.9677  -4.0919 H              1 S1                 0.0000
     41 ****         4.0939  -2.5750  -4.3348 H              1 S1                 0.0000
     42 ****         4.2370   0.7487  -5.7030 H              1 S1                 0.0000
     43 ****         3.2247   0.3433  -7.0748 H              1 S1                 0.0000
     44 ****         1.2353   0.0833  -5.6264 H              1 S1                 0.0000
     45 ****         1.9653   1.6554  -5.3791 H              1 S1                 0.0000
     46 ****         0.0984   3.8683  -2.4762 H              1 S1                 0.0000
     47 ****        -1.3290  -0.6587   4.7745 H              1 S1                 0.0000
     48 ****        -0.9620   0.6989   0.7329 LP             1 S1                 0.0000
     49 ****         2.2142  -0.1672   2.1609 LP             1 S1                 0.0000
     50 ****         3.0065   0.5088   0.7770 LP             1 S1                 0.0000
     51 ****         2.0668  -0.3779  -1.3676 LP             1 S1                 0.0000
     52 ****         2.8208  -1.7449  -6.1088 LP             1 S1                 0.0000
     53 ****         4.4165  -1.4923  -6.3470 LP             1 S1                 0.0000
     54 ****         1.1266   2.5022  -4.0977 LP             1 S1                 0.0000
@<TRIPOS>BOND
    1    1    2 1     
    2    1   24 1     
    3    1   25 1     
    4    1   26 1     
    5    2    3 1     
    6    2    4 1     
    7    2   47 1     
    8    3   27 1     
    9    3   28 1     
   10    3   29 1     
   11    4    5 1     
   12    4    6 1     
   13    4    7 1     
   14    5   30 1     
   15    5   31 1     
   16    5   32 1     
   17    6   33 1     
   18    6   34 1     
   19    6   35 1     
   20    7    8 1     
   21    7   36 1     
   22    7   37 1     
   23    8    9 1     
   24    9   10 2     
   25    9   11 1     
   26   11   22 ar    
   27   11   12 ar    
   28   12   13 ar    
   29   13   14 1     
   30   13   20 ar    
   31   14   19 1     
   32   14   15 1     
   33   15   16 1     
   34   15   38 1     
   35   15   39 1     
   36   16   17 1     
   37   16   40 1     
   38   16   41 1     
   39   17   18 1     
   40   18   19 1     
   41   18   42 1     
   42   18   43 1     
   43   19   44 1     
   44   19   45 1     
   45   20   21 ar    
   46   21   22 ar    
   47   21   46 1     
   48   22   23 1     
   49    8   48 1     
   50   10   49 1     
   51   10   50 1     
   52   12   51 1     
   53   17   52 1     
   54   17   53 1     
   55   20   54 1     
@<TRIPOS>SUBSTRUCTURE
      1 S1             1
@<TRIPOS>SET
LONE_PAIRS      STATIC     ATOMS    <user>   **** ""
7 48 49 50 51 52 53 54
DONOR_HYDROGENS      STATIC     ATOMS    <user>   **** ""
1 47
ATOM$BLUE        STATIC     ATOMS    COLORGROUP SYSTEM
7 48 49 50 51 52 53 54
ATOM$RED        STATIC     ATOMS    COLORGROUP SYSTEM
1 47
