#       Name:                AV-unprocessed.smi:529
#       Creating user name   scv26
#       Creation time:       Thu Mar 26 23:33:09 2020


#       File generated by GOLD software.
#

@<TRIPOS>MOLECULE
AV-unprocessed.smi:529
    33    34     1
SMALL
NO_CHARGES


@<TRIPOS>ATOM
      1 ****        -2.7627   2.0807   2.4670 N.2            1 S1                 0.0000
      2 ****        -2.9281   2.5436   1.2779 C.2            1 S1                 0.0000
      3 ****        -3.6224   4.1737   0.8314 S.3            1 S1                 0.0000
      4 ****        -3.3857   3.8008  -0.8626 C.2            1 S1                 0.0000
      5 ****        -2.8544   2.5926  -1.0416 C.2            1 S1                 0.0000
      6 ****        -2.5947   1.8661   0.1026 N.pl3          1 S1                 0.0000
      7 ****        -1.9774   0.5397   0.0653 C.3            1 S1                 0.0000
      8 ****        -0.4459   0.5742   0.1625 C.2            1 S1                 0.0000
      9 ****         0.1741   1.6358   0.0841 O.2            1 S1                 0.0000
     10 ****         0.1547  -0.6143   0.3242 N.am           1 S1                 0.0000
     11 ****         1.5967  -0.8159   0.4377 C.3            1 S1                 0.0000
     12 ****         2.2988  -0.7203  -0.9334 C.3            1 S1                 0.0000
     13 ****         3.1883  -1.9599  -1.0425 C.3            1 S1                 0.0000
     14 ****         2.4717  -3.0127  -0.2032 C.3            1 S1                 0.0000
     15 ****         1.9060  -2.2242   0.9781 C.3            1 S1                 0.0000
     16 ****        -2.3572   1.1570   2.4307 H              1 S1                 0.0000
     17 ****        -3.6543   4.5068  -1.6343 H              1 S1                 0.0000
     18 ****        -2.6095   2.1344  -1.9888 H              1 S1                 0.0000
     19 ****        -2.3780  -0.0848   0.8653 H              1 S1                 0.0000
     20 ****        -2.2508   0.0430  -0.8667 H              1 S1                 0.0000
     21 ****        -0.4264  -1.4386   0.3736 H              1 S1                 0.0000
     22 ****         2.0102  -0.0768   1.1264 H              1 S1                 0.0000
     23 ****         1.5676  -0.7375  -1.7433 H              1 S1                 0.0000
     24 ****         2.8707   0.2021  -1.0380 H              1 S1                 0.0000
     25 ****         3.3424  -2.2767  -2.0744 H              1 S1                 0.0000
     26 ****         4.1667  -1.7498  -0.6084 H              1 S1                 0.0000
     27 ****         1.6552  -3.4490  -0.7802 H              1 S1                 0.0000
     28 ****         3.1308  -3.8229   0.1092 H              1 S1                 0.0000
     29 ****         2.6685  -2.1502   1.7546 H              1 S1                 0.0000
     30 ****         1.0423  -2.7177   1.4258 H              1 S1                 0.0000
     31 ****        -3.0018   2.5668   3.3076 LP             1 S1                 0.0000
     32 ****        -0.3204   2.4953  -0.0451 LP             1 S1                 0.0000
     33 ****         1.1720   1.6381   0.1497 LP             1 S1                 0.0000
@<TRIPOS>BOND
    1    1    2 2     
    2    1   16 1     
    3    2    6 1     
    4    2    3 1     
    5    3    4 1     
    6    4    5 2     
    7    4   17 1     
    8    5    6 1     
    9    5   18 1     
   10    6    7 1     
   11    7    8 1     
   12    7   19 1     
   13    7   20 1     
   14    8    9 2     
   15    8   10 am    
   16   10   11 1     
   17   10   21 1     
   18   11   15 1     
   19   11   12 1     
   20   11   22 1     
   21   12   13 1     
   22   12   23 1     
   23   12   24 1     
   24   13   14 1     
   25   13   25 1     
   26   13   26 1     
   27   14   15 1     
   28   14   27 1     
   29   14   28 1     
   30   15   29 1     
   31   15   30 1     
   32    1   31 1     
   33    9   32 1     
   34    9   33 1     
@<TRIPOS>SUBSTRUCTURE
      1 S1             1
@<TRIPOS>SET
LONE_PAIRS      STATIC     ATOMS    <user>   **** ""
3 31 32 33
DONOR_HYDROGENS      STATIC     ATOMS    <user>   **** ""
2 16 21
ATOM$BLUE        STATIC     ATOMS    COLORGROUP SYSTEM
3 31 32 33
ATOM$RED        STATIC     ATOMS    COLORGROUP SYSTEM
2 16 21
