AV-unprocessed.smi:203|AV-procd|sdf|1589|dock4
  -GOLD-   2262019483D 1   1.00000     0.00000
 Structure written by MMmdl.
 57 61  0  0  0  0  0  0  0  0  1 V2000
  147.3630  142.2193  159.1056 O   0  0  0  0  0  0  0  0  0  0  0  0
  148.3259  142.1869  158.3431 C   0  0  0  0  0  0  0  0  0  0  0  0
  149.1650  140.9435  158.1044 C   0  0  0  0  0  0  0  0  0  0  0  0
  150.3591  141.4635  157.2776 C   0  0  2  0  0  0  0  0  0  0  0  0
  151.7252  141.4486  158.0346 C   0  0  1  0  0  0  0  0  0  0  0  0
  151.7753  142.4691  159.2029 C   0  0  0  0  0  0  0  0  0  0  0  0
  153.1243  142.4338  159.9325 C   0  0  0  0  0  0  0  0  0  0  0  0
  153.4156  141.0101  160.4177 C   0  0  0  0  0  0  0  0  0  0  0  0
  153.3700  140.0265  159.2415 C   0  0  0  0  0  0  0  0  0  0  0  0
  152.0965  140.1092  158.5264 N   0  0  0  0  0  0  0  0  0  0  0  0
  151.9913  139.0968  157.6367 C   0  0  0  0  0  0  0  0  0  0  0  0
  152.8136  139.1306  156.5594 N   0  0  0  0  0  0  0  0  0  0  0  0
  152.7652  138.1496  155.6530 C   0  0  0  0  0  0  0  0  0  0  0  0
  151.9828  137.0679  155.6331 N   0  0  0  0  0  0  0  0  0  0  0  0
  151.1487  137.0384  156.7122 C   0  0  0  0  0  0  0  0  0  0  0  0
  151.0854  138.0051  157.7542 C   0  0  0  0  0  0  0  0  0  0  0  0
  150.1153  137.6421  158.6810 N   0  0  0  0  0  0  0  0  0  0  0  0
  149.6296  136.5255  158.2113 C   0  0  0  0  0  0  0  0  0  0  0  0
  150.1934  136.0903  157.0337 N   0  0  0  0  0  0  0  0  0  0  0  0
  149.8426  134.8891  156.2974 C   0  0  0  0  0  0  0  0  0  0  0  0
  150.4023  133.6109  156.9584 C   0  0  1  0  0  0  0  0  0  0  0  0
  149.7306  133.3425  158.1728 O   0  0  0  0  0  0  0  0  0  0  0  0
  150.3335  132.3512  156.0700 C   0  0  2  0  0  0  0  0  0  0  0  0
  148.9192  131.9704  155.6212 C   0  0  0  0  0  0  0  0  0  0  0  0
  148.9709  130.4563  155.4681 C   0  0  0  0  0  0  0  0  0  0  0  0
  150.3535  130.0703  155.9952 C   0  0  0  0  0  0  0  0  0  0  0  0
  150.7647  131.1897  156.7634 O   0  0  0  0  0  0  0  0  0  0  0  0
  149.9337  142.8714  156.8080 C   0  0  0  0  0  0  0  0  0  0  0  0
  148.7794  143.2075  157.6184 N   0  0  0  0  0  0  0  0  0  0  0  0
  149.4596  140.4754  159.0440 H   0  0  0  0  0  0  0  0  0  0  0  0
  148.5804  140.2194  157.5361 H   0  0  0  0  0  0  0  0  0  0  0  0
  150.4469  140.8542  156.3777 H   0  0  0  0  0  0  0  0  0  0  0  0
  152.4937  141.7474  157.3209 H   0  0  0  0  0  0  0  0  0  0  0  0
  151.5971  143.4816  158.8430 H   0  0  0  0  0  0  0  0  0  0  0  0
  150.9847  142.2592  159.9233 H   0  0  0  0  0  0  0  0  0  0  0  0
  153.9171  142.7671  159.2616 H   0  0  0  0  0  0  0  0  0  0  0  0
  153.1150  143.1246  160.7757 H   0  0  0  0  0  0  0  0  0  0  0  0
  154.3916  140.9694  160.9019 H   0  0  0  0  0  0  0  0  0  0  0  0
  152.6805  140.7187  161.1690 H   0  0  0  0  0  0  0  0  0  0  0  0
  154.1886  140.2406  158.5530 H   0  0  0  0  0  0  0  0  0  0  0  0
  153.5238  139.0116  159.6117 H   0  0  0  0  0  0  0  0  0  0  0  0
  153.4524  138.2446  154.8253 H   0  0  0  0  0  0  0  0  0  0  0  0
  148.8400  135.9850  158.7130 H   0  0  0  0  0  0  0  0  0  0  0  0
  148.7562  134.8392  156.2161 H   0  0  0  0  0  0  0  0  0  0  0  0
  150.2234  134.9934  155.2812 H   0  0  0  0  0  0  0  0  0  0  0  0
  151.4460  133.7800  157.2263 H   0  0  0  0  0  0  0  0  0  0  0  0
  149.0970  132.6583  158.0176 H   0  0  0  0  0  0  0  0  0  0  0  0
  150.9531  132.4812  155.1799 H   0  0  0  0  0  0  0  0  0  0  0  0
  148.1811  132.2332  156.3793 H   0  0  0  0  0  0  0  0  0  0  0  0
  148.6356  132.4752  154.6974 H   0  0  0  0  0  0  0  0  0  0  0  0
  148.1833  129.9903  156.0612 H   0  0  0  0  0  0  0  0  0  0  0  0
  148.8412  130.1416  154.4322 H   0  0  0  0  0  0  0  0  0  0  0  0
  150.3364  129.1597  156.5942 H   0  0  0  0  0  0  0  0  0  0  0  0
  151.0534  129.9243  155.1708 H   0  0  0  0  0  0  0  0  0  0  0  0
  150.7221  143.6173  156.9087 H   0  0  0  0  0  0  0  0  0  0  0  0
  149.6305  142.8545  155.7604 H   0  0  0  0  0  0  0  0  0  0  0  0
  148.3683  144.1300  157.6230 H   0  0  0  0  0  0  0  0  0  0  0  0
  1  2  2  0  0  0  0
  2 29  1  0  0  0  0
  2  3  1  0  0  0  0
  3  4  1  0  0  0  0
  3 30  1  0  0  0  0
  3 31  1  0  0  0  0
  4  5  1  0  0  0  0
  4 28  1  0  0  0  0
  4 32  1  0  0  0  0
  5 10  1  0  0  0  0
  5  6  1  0  0  0  0
  5 33  1  0  0  0  0
  6  7  1  0  0  0  0
  6 34  1  0  0  0  0
  6 35  1  0  0  0  0
  7  8  1  0  0  0  0
  7 36  1  0  0  0  0
  7 37  1  0  0  0  0
  8  9  1  0  0  0  0
  8 38  1  0  0  0  0
  8 39  1  0  0  0  0
  9 10  1  0  0  0  0
  9 40  1  0  0  0  0
  9 41  1  0  0  0  0
 10 11  1  0  0  0  0
 11 16  1  0  0  0  0
 11 12  2  0  0  0  0
 12 13  1  0  0  0  0
 13 14  2  0  0  0  0
 13 42  1  0  0  0  0
 14 15  1  0  0  0  0
 15 19  1  0  0  0  0
 15 16  2  0  0  0  0
 16 17  1  0  0  0  0
 17 18  2  0  0  0  0
 18 19  1  0  0  0  0
 18 43  1  0  0  0  0
 19 20  1  0  0  0  0
 20 21  1  0  0  0  0
 20 44  1  0  0  0  0
 20 45  1  0  0  0  0
 21 22  1  0  0  0  0
 21 23  1  0  0  0  0
 21 46  1  0  0  0  0
 22 47  1  0  0  0  0
 23 27  1  0  0  0  0
 23 24  1  0  0  0  0
 23 48  1  0  0  0  0
 24 25  1  0  0  0  0
 24 49  1  0  0  0  0
 24 50  1  0  0  0  0
 25 26  1  0  0  0  0
 25 51  1  0  0  0  0
 25 52  1  0  0  0  0
 26 27  1  0  0  0  0
 26 53  1  0  0  0  0
 26 54  1  0  0  0  0
 28 29  1  0  0  0  0
 28 55  1  0  0  0  0
 28 56  1  0  0  0  0
 29 57  1  0  0  0  0
M  END
> <s_m_source_file>
AV-unprocessed.smi

> <i_m_source_file_index>
203

> <i_lp_mmshare_version>
43012

> <i_f3d_flags>
0

> <s_epik_input>
Tz1DMVtDSDJdW0NASF0oW0NIMl1bTkhdMSlbQ0BASF0yW0NIMl1bQ0gyXVtDSDJdW0NIMl1OMmMobltjSF1uMyljKGMzNCluW2NIXW40W0NIMl1bQ0BIXShbT0hdKVtDQEBIXTVbQ0gyXVtDSDJdW0NIMl1PNQ==

> <s_epik_cmdline>
J2VwaWtfcHl0aG9uJywgJy1waCcsICc3LjAnLCAnLXRuJywgJzgnLCAnLW1hJywgJzIwMCcsICctbWV0YWxfYmluZGluZycsICctaW1hZScsICc8aW5maWxlLm1hZT4nLCAnLW9tYWUnLCAnPG91dGZpbGUubWFlPic=

> <r_lp_tautomer_probability>
1

> <r_epik_Ionization_Penalty>
0.00175146

> <r_epik_Ionization_Penalty_Charging>
0

> <r_epik_Ionization_Penalty_Neutral>
0.00175146

> <r_epik_State_Penalty>
0.00109045

> <r_epik_Charging_Adjusted_Penalty>
0.00109045

> <i_epik_Tot_Q>
0

> <i_epik_Tot_abs_Q>
0

> <r_epik_Metal_State_Penalty>
-0

> <b_epik_Metal_Only>
0

> <s_lp_Force_Field>
OPLS_2005

> <r_lp_Energy>
57.3309

> <b_lp_Chiralities_Consistent>
1

> <s_lp_Variant>
AV-unprocessed.smi:203-8

> <Gold.Version>
5.8.1

> <Gold.Id.Protein>
6NUR|6NUR_protein|mol2

> <Gold.PLP.Fitness>
48.2188

> <Gold.PLP.PLP>
-37.5843

> <Gold.PLP.part.hbond>
-6.4257

> <Gold.PLP.part.metal>
0.0000

> <Gold.PLP.part.buried>
-0.3827

> <Gold.PLP.part.nonpolar>
-31.3860

> <Gold.PLP.part.repulsive>
0.1504

> <Gold.PLP.ligand.clash>
0.0000

> <Gold.PLP.ligand.torsion>
0.4338

> <Gold.PLP.Chemscore.Hbond>
3.7492

> <Gold.PLP.Chemscore.CHOScore>
0.0000

> <Gold.PLP.Chemscore.Metal>
0.0000

> <Gold.Chemscore.Hbonds>
donor molecule, donor type, donor heavy atom, donor atom, acceptor molecule, acceptor atom, score
      L1  H    29    57       P1  8029  0.25
      P1  H  6896  6908       L1    22  1.00
      P1  H  6934  6946       L1     1  0.41
      P1  H  7997  8008       L1    12  0.94
      P1  H 10752 10764       L1    14  0.99

> <Gold.PLP.Chemscore.Internal.Correction>
0.2545

> <Gold.Rescore>
     Score         DG    S(hbond)    S(metal)    S(lipo)     H(rot)  DE(clash)    DE(int)     intcor
     17.44     -19.83       3.16        0.00      91.92       2.72       2.03       0.36       ----

> <Gold.Chemscore.Fitness>
17.4420

> <Gold.Chemscore.DG>
-19.8274

> <Gold.Chemscore.ZeroCoef>
-5.4800

> <Gold.Chemscore.Hbond>
3.1581

> <Gold.Chemscore.Metal>
0.0000

> <Gold.Chemscore.Lipo>
91.9245

> <Gold.Chemscore.Internal_Hbond>
0.0000

> <Gold.Chemscore.DEClash>
2.0252

> <Gold.Chemscore.DEInternal>
0.3602

> <Gold.Chemscore.Rot>
2.7171

> <Gold.Chemscore.Internal.Correction>
   9.000000E+99

> <Gold.Chemscore.Hbonds>
donor molecule, donor type, donor heavy atom, donor atom, acceptor molecule, acceptor atom, score
      P1  H  6896  6908       L1    22  0.29
      P1  H  6934  6946       L1     1  0.41
      P1  H  7997  8008       L1    12  0.45
      P1  H 10752 10764       L1    14  0.59

> <Gold.Chemscore.Hbond.Weighted>
-10.5480

> <Gold.Chemscore.Metal.Weighted>
-0.0000

> <Gold.Chemscore.Lipo.Weighted>
-10.7552

> <Gold.Chemscore.Internal_Hbond.Weighted>
0.0000

> <Gold.Chemscore.DEClash.Weighted>
2.0252

> <Gold.Chemscore.DEInternal.Weighted>
0.3602

> <Gold.Chemscore.Rot.Weighted>
6.9557

> <Gold.Chemscore.Internal.Correction.Weighted>
   9.000000E+99

> <Gold.Protein.RotatedTorsions>
[ 6907 6896 6895 6894 ] final  110.93 input  -60.11 | X-H torsion
[ 7974 7965 7964 7962 ] final  -23.38 input  175.53 | X-H torsion
[ 8008 7997 7996 7995 ] final  -28.40 input   59.86 | X-H torsion
[ 10167 10162 10161 10158 ] final  -85.33 input  -65.29 | X-H torsion
[ 10718 10713 10712 10709 ] final  -60.48 input   66.30 | X-H torsion
[ 10763 10752 10751 10750 ] final  -50.30 input  -60.55 | X-H torsion
[ 11005 11000 10999 10996 ] final -151.12 input  -57.11 | X-H torsion

> <Gold.Protein.ActiveResidues>
 VAL166  LYS551  ARG553  GLY616  TRP617  ASP618  TYR619  PRO620  LYS621  CYS622 
 ASP623  PHE694  ASN695  SER759  ASP760  ASP761  ALA762  ILE779  LEU786  VAL792 
 PHE793  MET794  SER795  GLU796  ALA797  LYS798  CYS799  TRP800  GLU811  SER814 

> <Gold.Protein.RotatedAtoms>
  152.4995  133.8730  159.7307 H   0  0  0  0  0  0  0  0  0  0  0  0  # atno 6907 bound_to 6896
  150.9212  133.6869  159.2838 H   0  0  0  0  0  0  0  0  0  0  0  0  # atno 6908 bound_to 6896
  151.4246  135.1006  159.9676 H   0  0  0  0  0  0  0  0  0  0  0  0  # atno 6909 bound_to 6896
  146.1620  140.4608  142.8567 H   0  0  0  0  0  0  0  0  0  0  0  0  # atno 7974 bound_to 7965
  154.4334  140.1846  156.1084 H   0  0  0  0  0  0  0  0  0  0  0  0  # atno 8008 bound_to 7997
  156.0237  140.3338  155.7040 H   0  0  0  0  0  0  0  0  0  0  0  0  # atno 8009 bound_to 7997
  155.5939  140.0633  157.2742 H   0  0  0  0  0  0  0  0  0  0  0  0  # atno 8010 bound_to 7997
  140.4048  143.2647  151.9095 H   0  0  0  0  0  0  0  0  0  0  0  0  # atno 10167 bound_to 10162
  156.0987  130.4189  150.0860 H   0  0  0  0  0  0  0  0  0  0  0  0  # atno 10718 bound_to 10713
  154.1082  135.6553  153.4880 H   0  0  0  0  0  0  0  0  0  0  0  0  # atno 10763 bound_to 10752
  153.0265  135.5241  154.7219 H   0  0  0  0  0  0  0  0  0  0  0  0  # atno 10764 bound_to 10752
  154.6391  135.2986  155.0095 H   0  0  0  0  0  0  0  0  0  0  0  0  # atno 10765 bound_to 10752
  140.7329  134.3600  157.5163 H   0  0  0  0  0  0  0  0  0  0  0  0  # atno 11005 bound_to 11000
  144.8039  140.6264  143.6460 LP  0  0  0  0  0  0  0  0  0  0  0  0  # atno 17320 bound_to 7965
  145.4565  139.1517  143.3890 LP  0  0  0  0  0  0  0  0  0  0  0  0  # atno 17321 bound_to 7965
  139.4784  144.5597  151.8258 LP  0  0  0  0  0  0  0  0  0  0  0  0  # atno 17342 bound_to 10162
  140.4701  144.1598  150.5917 LP  0  0  0  0  0  0  0  0  0  0  0  0  # atno 17343 bound_to 10162
  156.8853  130.9570  151.3595 LP  0  0  0  0  0  0  0  0  0  0  0  0  # atno 17370 bound_to 10713
  157.6154  130.8614  149.9019 LP  0  0  0  0  0  0  0  0  0  0  0  0  # atno 17371 bound_to 10713
  139.8822  134.9030  156.2846 LP  0  0  0  0  0  0  0  0  0  0  0  0  # atno 17394 bound_to 11000
  140.9905  133.7212  156.0806 LP  0  0  0  0  0  0  0  0  0  0  0  0  # atno 17395 bound_to 11000

$$$$
