#       Name:                AV-unprocessed.smi:798
#       Creating user name   scv26
#       Creation time:       Fri Mar 27 01:20:36 2020


#       File generated by GOLD software.
#

@<TRIPOS>MOLECULE
AV-unprocessed.smi:798
    40    42     1
SMALL
NO_CHARGES


@<TRIPOS>ATOM
      1 ****        -0.5886   2.7075   0.0565 O.2            1 S1                 0.0000
      2 ****        -1.0549   1.5748   0.1809 C.2            1 S1                 0.0000
      3 ****        -2.3638   1.2772   0.2592 N.am           1 S1                 0.0000
      4 ****        -3.4729   2.1636   0.2355 C.2            1 S1                 0.0000
      5 ****        -3.3585   3.4983   0.1510 N.2            1 S1                 0.0000
      6 ****        -4.5972   4.1266   0.1491 N.2            1 S1                 0.0000
      7 ****        -5.5956   3.2427   0.2331 C.2            1 S1                 0.0000
      8 ****        -5.1202   1.5558   0.3235 S.3            1 S1                 0.0000
      9 ****        -0.3062   0.4653   0.2524 N.am           1 S1                 0.0000
     10 ****         1.1568   0.4089   0.2063 C.3            1 S1                 0.0000
     11 ****         1.7579  -0.3397   1.4226 C.3            1 S1                 0.0000
     12 ****         1.0619  -1.6993   1.6479 C.3            1 S1                 0.0000
     13 ****         1.5463  -2.5264   0.4434 C.3            1 S1                 0.0000
     14 ****         2.4882  -1.5492  -0.2917 C.3            1 S1                 0.0000
     15 ****         3.1083  -0.7976   0.8805 C.3            1 S1                 0.0000
     16 ****         1.7130  -0.4076  -0.9946 C.3            1 S1                 0.0000
     17 ****         0.7055  -0.8378  -2.0847 C.3            1 S1                 0.0000
     18 ****         1.3705  -1.5220  -3.1254 O.3            1 S1                 0.0000
     19 ****        -2.5953   0.2992   0.3501 H              1 S1                 0.0000
     20 ****        -6.6192   3.5867   0.2420 H              1 S1                 0.0000
     21 ****        -0.7833  -0.4185   0.3529 H              1 S1                 0.0000
     22 ****         1.5795   1.4148   0.1696 H              1 S1                 0.0000
     23 ****         1.8127   0.2718   2.3238 H              1 S1                 0.0000
     24 ****         1.4077  -2.1520   2.5782 H              1 S1                 0.0000
     25 ****        -0.0245  -1.6369   1.7078 H              1 S1                 0.0000
     26 ****         2.0978  -3.4025   0.7869 H              1 S1                 0.0000
     27 ****         0.7274  -2.8854  -0.1779 H              1 S1                 0.0000
     28 ****         3.2101  -2.0467  -0.9400 H              1 S1                 0.0000
     29 ****         3.7557   0.0270   0.5765 H              1 S1                 0.0000
     30 ****         3.6568  -1.4433   1.5690 H              1 S1                 0.0000
     31 ****         2.4525   0.2228  -1.4925 H              1 S1                 0.0000
     32 ****        -0.0874  -1.4712  -1.6890 H              1 S1                 0.0000
     33 ****         0.2227   0.0413  -2.5123 H              1 S1                 0.0000
     34 ****         0.7373  -1.7481  -3.7895 H              1 S1                 0.0000
     35 ****        -1.2001   3.4971   0.0058 LP             1 S1                 0.0000
     36 ****         0.4016   2.8378   0.0061 LP             1 S1                 0.0000
     37 ****        -2.4854   3.9827   0.0959 LP             1 S1                 0.0000
     38 ****        -4.7257   5.1167   0.0920 LP             1 S1                 0.0000
     39 ****         1.7933  -2.3538  -2.7657 LP             1 S1                 0.0000
     40 ****         2.0761  -0.9329  -3.5191 LP             1 S1                 0.0000
@<TRIPOS>BOND
    1    1    2 2     
    2    2    3 am    
    3    2    9 am    
    4    3    4 1     
    5    3   19 1     
    6    4    8 1     
    7    4    5 2     
    8    5    6 1     
    9    6    7 2     
   10    7    8 1     
   11    7   20 1     
   12    9   10 1     
   13    9   21 1     
   14   10   16 1     
   15   10   11 1     
   16   10   22 1     
   17   11   15 1     
   18   11   12 1     
   19   11   23 1     
   20   12   13 1     
   21   12   24 1     
   22   12   25 1     
   23   13   14 1     
   24   13   26 1     
   25   13   27 1     
   26   14   15 1     
   27   14   16 1     
   28   14   28 1     
   29   15   29 1     
   30   15   30 1     
   31   16   17 1     
   32   16   31 1     
   33   17   18 1     
   34   17   32 1     
   35   17   33 1     
   36   18   34 1     
   37    1   35 1     
   38    1   36 1     
   39    5   37 1     
   40    6   38 1     
   41   18   39 1     
   42   18   40 1     
@<TRIPOS>SUBSTRUCTURE
      1 S1             1
@<TRIPOS>SET
LONE_PAIRS      STATIC     ATOMS    <user>   **** ""
6 35 36 37 38 39 40
DONOR_HYDROGENS      STATIC     ATOMS    <user>   **** ""
3 19 21 34
ATOM$BLUE        STATIC     ATOMS    COLORGROUP SYSTEM
6 35 36 37 38 39 40
ATOM$RED        STATIC     ATOMS    COLORGROUP SYSTEM
3 19 21 34
