AV-unprocessed.smi:601|AV-procd|sdf|3033|dock1
  -GOLD-   2262023543D 1   1.00000     0.00000
 Structure written by MMmdl.
 49 50  0  0  0  0  0  0  0  0  2 V2000
  151.5971  145.5339  159.8982 C   0  0  0  0  0  0  0  0  0  0  0  0
  151.7237  144.8143  158.5488 C   0  0  0  0  0  0  0  0  0  0  0  0
  150.9736  143.4740  158.4904 C   0  0  0  0  0  0  0  0  0  0  0  0
  151.1016  142.7524  157.1345 C   0  0  0  0  0  0  0  0  0  0  0  0
  150.4228  141.4475  157.1409 N   0  0  0  0  0  0  0  0  0  0  0  0
  149.0660  141.3667  157.1751 C   0  0  0  0  0  0  0  0  0  0  0  0
  148.3604  142.3713  157.2929 O   0  0  0  0  0  0  0  0  0  0  0  0
  148.3793  139.9843  157.0186 C   0  0  2  0  0  0  0  0  0  0  0  0
  147.5487  139.8205  155.7386 C   0  0  0  0  0  0  0  0  0  0  0  0
  146.1737  140.3692  156.1009 C   0  0  0  0  0  0  0  0  0  0  0  0
  146.1962  140.4697  157.6288 C   0  0  0  0  0  0  0  0  0  0  0  0
  147.3901  139.8052  158.0253 O   0  0  0  0  0  0  0  0  0  0  0  0
  151.2418  140.3075  157.0462 C   0  0  0  0  0  0  0  0  0  0  0  0
  151.9246  139.8221  158.1166 C   0  0  0  0  0  0  0  0  0  0  0  0
  151.8580  140.4569  159.3489 N   0  0  0  0  0  0  0  0  0  0  0  0
  152.7198  138.6528  157.9802 N   0  0  0  0  0  0  0  0  0  0  0  0
  153.4826  138.1615  159.1475 C   0  0  0  0  0  0  0  0  0  0  0  0
  152.5480  137.6228  160.2444 C   0  0  0  0  0  0  0  0  0  0  0  0
  153.2756  137.3952  161.5735 C   0  0  0  0  0  0  0  0  0  0  0  0
  152.7653  137.9728  156.7933 C   0  0  0  0  0  0  0  0  0  0  0  0
  153.4307  136.9389  156.7155 O   0  0  0  0  0  0  0  0  0  0  0  0
  152.0682  138.4565  155.7254 N   0  5  0  0  0  0  0  0  0  0  0  0
  151.3073  139.5818  155.7722 C   0  0  0  0  0  0  0  0  0  0  0  0
  150.6807  139.9898  154.7939 O   0  0  0  0  0  0  0  0  0  0  0  0
  152.2026  146.4404  159.9096 H   0  0  0  0  0  0  0  0  0  0  0  0
  151.9368  144.8986  160.7167 H   0  0  0  0  0  0  0  0  0  0  0  0
  150.5675  145.8256  160.1039 H   0  0  0  0  0  0  0  0  0  0  0  0
  151.3795  145.4678  157.7464 H   0  0  0  0  0  0  0  0  0  0  0  0
  152.7807  144.6295  158.3550 H   0  0  0  0  0  0  0  0  0  0  0  0
  151.3710  142.8247  159.2710 H   0  0  0  0  0  0  0  0  0  0  0  0
  149.9242  143.6347  158.7394 H   0  0  0  0  0  0  0  0  0  0  0  0
  150.7043  143.3698  156.3278 H   0  0  0  0  0  0  0  0  0  0  0  0
  152.1593  142.6174  156.9024 H   0  0  0  0  0  0  0  0  0  0  0  0
  149.1266  139.1925  157.0763 H   0  0  0  0  0  0  0  0  0  0  0  0
  147.9830  140.3129  154.8676 H   0  0  0  0  0  0  0  0  0  0  0  0
  147.4655  138.7600  155.4983 H   0  0  0  0  0  0  0  0  0  0  0  0
  146.0065  141.3506  155.6558 H   0  0  0  0  0  0  0  0  0  0  0  0
  145.3843  139.7034  155.7511 H   0  0  0  0  0  0  0  0  0  0  0  0
  146.2359  141.5120  157.9481 H   0  0  0  0  0  0  0  0  0  0  0  0
  145.3238  140.0082  158.0910 H   0  0  0  0  0  0  0  0  0  0  0  0
  151.3060  141.2909  159.4886 H   0  0  0  0  0  0  0  0  0  0  0  0
  152.2866  140.0598  160.1724 H   0  0  0  0  0  0  0  0  0  0  0  0
  154.1881  137.3817  158.8561 H   0  0  0  0  0  0  0  0  0  0  0  0
  154.1250  138.9435  159.5523 H   0  0  0  0  0  0  0  0  0  0  0  0
  151.7231  138.3181  160.4027 H   0  0  0  0  0  0  0  0  0  0  0  0
  152.0999  136.6843  159.9159 H   0  0  0  0  0  0  0  0  0  0  0  0
  152.5938  137.0033  162.3284 H   0  0  0  0  0  0  0  0  0  0  0  0
  153.6962  138.3261  161.9549 H   0  0  0  0  0  0  0  0  0  0  0  0
  154.0908  136.6804  161.4581 H   0  0  0  0  0  0  0  0  0  0  0  0
  1  2  1  0  0  0  0
  1 25  1  0  0  0  0
  1 26  1  0  0  0  0
  1 27  1  0  0  0  0
  2  3  1  0  0  0  0
  2 28  1  0  0  0  0
  2 29  1  0  0  0  0
  3  4  1  0  0  0  0
  3 30  1  0  0  0  0
  3 31  1  0  0  0  0
  4  5  1  0  0  0  0
  4 32  1  0  0  0  0
  4 33  1  0  0  0  0
  5  6  1  0  0  0  0
  5 13  1  0  0  0  0
  6  7  2  0  0  0  0
  6  8  1  0  0  0  0
  8 12  1  0  0  0  0
  8  9  1  0  0  0  0
  8 34  1  0  0  0  0
  9 10  1  0  0  0  0
  9 35  1  0  0  0  0
  9 36  1  0  0  0  0
 10 11  1  0  0  0  0
 10 37  1  0  0  0  0
 10 38  1  0  0  0  0
 11 12  1  0  0  0  0
 11 39  1  0  0  0  0
 11 40  1  0  0  0  0
 13 23  1  0  0  0  0
 13 14  2  0  0  0  0
 14 15  1  0  0  0  0
 14 16  1  0  0  0  0
 15 41  1  0  0  0  0
 15 42  1  0  0  0  0
 16 17  1  0  0  0  0
 16 20  1  0  0  0  0
 17 18  1  0  0  0  0
 17 43  1  0  0  0  0
 17 44  1  0  0  0  0
 18 19  1  0  0  0  0
 18 45  1  0  0  0  0
 18 46  1  0  0  0  0
 19 47  1  0  0  0  0
 19 48  1  0  0  0  0
 19 49  1  0  0  0  0
 20 21  2  0  0  0  0
 20 22  1  0  0  0  0
 22 23  1  0  0  0  0
 23 24  2  0  0  0  0
M  CHG  1  22  -1
M  END
> <s_m_source_file>
AV-unprocessed.smi

> <i_m_source_file_index>
601

> <i_lp_mmshare_version>
43012

> <i_f3d_flags>
0

> <s_epik_input>
TzFbQ0gyXVtDSDJdW0NIMl1bQ0BIXTFDKD1PKU4oW0NIMl1bQ0gyXVtDSDJdW0NIM10pYzJjKFtOSDJdKW4oW0NIMl1bQ0gyXVtDSDNdKWMoPU8pW25IXWMyPU8=

> <s_epik_cmdline>
J2VwaWtfcHl0aG9uJywgJy1waCcsICc3LjAnLCAnLXRuJywgJzgnLCAnLW1hJywgJzIwMCcsICctbWV0YWxfYmluZGluZycsICctaW1hZScsICc8aW5maWxlLm1hZT4nLCAnLW9tYWUnLCAnPG91dGZpbGUubWFlPic=

> <r_lp_tautomer_probability>
1

> <r_epik_Ionization_Penalty>
5.90608

> <r_epik_Ionization_Penalty_Charging>
4.55687e-07

> <r_epik_Ionization_Penalty_Neutral>
5.90608

> <r_epik_State_Penalty>
5.90604

> <r_epik_Charging_Adjusted_Penalty>
5.90604

> <i_epik_Tot_Q>
-1

> <i_epik_Tot_abs_Q>
1

> <r_epik_Metal_State_Penalty>
1.84043

> <b_epik_Metal_Only>
1

> <s_lp_Force_Field>
OPLS_2005

> <r_lp_Energy>
51.8523

> <b_lp_Chiralities_Consistent>
1

> <s_lp_Variant>
AV-unprocessed.smi:601-3

> <Gold.Version>
5.8.1

> <Gold.Id.Protein>
6NUR|6NUR_protein|mol2

> <Gold.PLP.Fitness>
40.7925

> <Gold.PLP.PLP>
-36.7674

> <Gold.PLP.part.hbond>
-3.0000

> <Gold.PLP.part.metal>
0.0000

> <Gold.PLP.part.buried>
-6.4700

> <Gold.PLP.part.nonpolar>
-27.9632

> <Gold.PLP.part.repulsive>
1.3373

> <Gold.PLP.ligand.clash>
0.0000

> <Gold.PLP.ligand.torsion>
1.7506

> <Gold.PLP.Chemscore.Hbond>
1.6880

> <Gold.PLP.Chemscore.CHOScore>
0.0000

> <Gold.PLP.Chemscore.Metal>
0.0000

> <Gold.Chemscore.Hbonds>
donor molecule, donor type, donor heavy atom, donor atom, acceptor molecule, acceptor atom, score
      P1  H  7989  7998       L1    24  1.00
      P1  H 10752 10765       L1    21  0.61

> <Gold.PLP.Chemscore.Internal.Correction>
2.4623

> <Gold.Rescore>
     Score         DG    S(hbond)    S(metal)    S(lipo)     H(rot)  DE(clash)    DE(int)     intcor
     12.09     -14.94       1.90        0.00      68.66       1.92       0.02       2.83       ----

> <Gold.Chemscore.Fitness>
12.0929

> <Gold.Chemscore.DG>
-14.9436

> <Gold.Chemscore.ZeroCoef>
-5.4800

> <Gold.Chemscore.Hbond>
1.9000

> <Gold.Chemscore.Metal>
0.0000

> <Gold.Chemscore.Lipo>
68.6592

> <Gold.Chemscore.Internal_Hbond>
0.0000

> <Gold.Chemscore.DEClash>
0.0173

> <Gold.Chemscore.DEInternal>
2.8334

> <Gold.Chemscore.Rot>
1.9201

> <Gold.Chemscore.Internal.Correction>
   9.000000E+99

> <Gold.Chemscore.Hbonds>
donor molecule, donor type, donor heavy atom, donor atom, acceptor molecule, acceptor atom, score
      P1  H  7989  7998       L1    24  0.94
      P1  H 10752 10765       L1    21  0.61

> <Gold.Chemscore.Hbond.Weighted>
-6.3459

> <Gold.Chemscore.Metal.Weighted>
-0.0000

> <Gold.Chemscore.Lipo.Weighted>
-8.0331

> <Gold.Chemscore.Internal_Hbond.Weighted>
0.0000

> <Gold.Chemscore.DEClash.Weighted>
0.0173

> <Gold.Chemscore.DEInternal.Weighted>
2.8334

> <Gold.Chemscore.Rot.Weighted>
4.9154

> <Gold.Chemscore.Internal.Correction.Weighted>
   9.000000E+99

> <Gold.Protein.RotatedTorsions>
[ 6907 6896 6895 6894 ] final  175.58 input  -60.11 | X-H torsion
[ 7974 7965 7964 7962 ] final   65.66 input  175.53 | X-H torsion
[ 8008 7997 7996 7995 ] final  -32.39 input   59.86 | X-H torsion
[ 10167 10162 10161 10158 ] final  -27.50 input  -65.29 | X-H torsion
[ 10718 10713 10712 10709 ] final -112.92 input   66.30 | X-H torsion
[ 10763 10752 10751 10750 ] final -102.37 input  -60.55 | X-H torsion
[ 11005 11000 10999 10996 ] final  -70.20 input  -57.11 | X-H torsion

> <Gold.Protein.ActiveResidues>
 VAL166  LYS551  ARG553  GLY616  TRP617  ASP618  TYR619  PRO620  LYS621  CYS622 
 ASP623  PHE694  ASN695  SER759  ASP760  ASP761  ALA762  ILE779  LEU786  VAL792 
 PHE793  MET794  SER795  GLU796  ALA797  LYS798  CYS799  TRP800  GLU811  SER814 

> <Gold.Protein.RotatedAtoms>
  151.7340  133.3319  159.3347 H   0  0  0  0  0  0  0  0  0  0  0  0  # atno 6907 bound_to 6896
  150.7601  134.6338  159.6210 H   0  0  0  0  0  0  0  0  0  0  0  0  # atno 6908 bound_to 6896
  152.3573  134.6923  160.0269 H   0  0  0  0  0  0  0  0  0  0  0  0  # atno 6909 bound_to 6896
  145.8358  139.3166  143.0960 H   0  0  0  0  0  0  0  0  0  0  0  0  # atno 7974 bound_to 7965
  154.4181  140.1739  156.1719 H   0  0  0  0  0  0  0  0  0  0  0  0  # atno 8008 bound_to 7997
  155.9753  140.3382  155.6589 H   0  0  0  0  0  0  0  0  0  0  0  0  # atno 8009 bound_to 7997
  155.6571  140.0697  157.2557 H   0  0  0  0  0  0  0  0  0  0  0  0  # atno 8010 bound_to 7997
  140.7277  143.4088  151.1141 H   0  0  0  0  0  0  0  0  0  0  0  0  # atno 10167 bound_to 10162
  156.0735  130.5946  150.8574 H   0  0  0  0  0  0  0  0  0  0  0  0  # atno 10718 bound_to 10713
  154.7729  135.4863  153.9684 H   0  0  0  0  0  0  0  0  0  0  0  0  # atno 10763 bound_to 10752
  153.1390  135.6769  153.9064 H   0  0  0  0  0  0  0  0  0  0  0  0  # atno 10764 bound_to 10752
  153.8744  135.3139  155.3421 H   0  0  0  0  0  0  0  0  0  0  0  0  # atno 10765 bound_to 10752
  141.1569  133.6784  156.6716 H   0  0  0  0  0  0  0  0  0  0  0  0  # atno 11005 bound_to 11000
  145.9520  140.8901  143.0254 LP  0  0  0  0  0  0  0  0  0  0  0  0  # atno 17320 bound_to 7965
  144.6736  140.1693  143.7415 LP  0  0  0  0  0  0  0  0  0  0  0  0  # atno 17321 bound_to 7965
  139.7718  143.8483  152.3122 LP  0  0  0  0  0  0  0  0  0  0  0  0  # atno 17342 bound_to 10162
  139.8404  144.7212  150.9338 LP  0  0  0  0  0  0  0  0  0  0  0  0  # atno 17343 bound_to 10162
  157.5819  131.0946  150.9258 LP  0  0  0  0  0  0  0  0  0  0  0  0  # atno 17370 bound_to 10713
  156.9452  130.5399  149.5281 LP  0  0  0  0  0  0  0  0  0  0  0  0  # atno 17371 bound_to 10713
  140.3171  134.8039  157.4222 LP  0  0  0  0  0  0  0  0  0  0  0  0  # atno 17394 bound_to 11000
  140.1129  134.5322  155.8250 LP  0  0  0  0  0  0  0  0  0  0  0  0  # atno 17395 bound_to 11000

$$$$
