AV-unprocessed.smi:2766|AV-procd|sdf|10646|dock5
  -GOLD-   2272015 93D 1   1.00000     0.00000
 Structure written by MMmdl.
 32 33  0  0  0  0  0  0  0  0  1 V2000
  146.5796  142.6274  153.8381 C   0  0  0  0  0  0  0  0  0  0  0  0
  147.9102  142.2101  154.0897 O   0  0  0  0  0  0  0  0  0  0  0  0
  147.9699  140.9708  154.7771 C   0  0  0  0  0  0  0  0  0  0  0  0
  148.8941  141.1082  155.9999 C   0  0  2  0  0  0  0  0  0  0  0  0
  148.4893  142.2585  156.7214 O   0  0  0  0  0  0  0  0  0  0  0  0
  150.3952  141.1621  155.5993 C   0  0  0  0  0  0  0  0  0  0  0  0
  151.3348  140.9578  156.6966 N   0  0  0  0  0  0  0  0  0  0  0  0
  152.1303  139.8848  156.9416 C   0  0  0  0  0  0  0  0  0  0  0  0
  152.1519  138.6834  156.0387 C   0  0  0  0  0  0  0  0  0  0  0  0
  150.9345  138.1506  155.9249 F   0  0  0  0  0  0  0  0  0  0  0  0
  152.5655  139.0152  154.8155 F   0  0  0  0  0  0  0  0  0  0  0  0
  152.9651  137.7473  156.5275 F   0  0  0  0  0  0  0  0  0  0  0  0
  152.9046  139.9796  158.0255 N   0  0  0  0  0  0  0  0  0  0  0  0
  152.5722  141.2197  158.5342 C   0  0  0  0  0  0  0  0  0  0  0  0
  153.0447  141.9009  159.6787 C   0  0  0  0  0  0  0  0  0  0  0  0
  152.5491  143.1810  160.0029 C   0  0  0  0  0  0  0  0  0  0  0  0
  151.5755  143.7966  159.1896 C   0  0  0  0  0  0  0  0  0  0  0  0
  151.0923  143.1353  158.0442 C   0  0  0  0  0  0  0  0  0  0  0  0
  151.5916  141.8584  157.7251 C   0  0  0  0  0  0  0  0  0  0  0  0
  148.7508  140.2437  156.6492 H   0  0  0  0  0  0  0  0  0  0  0  0
  146.5881  143.5839  153.3159 H   0  0  0  0  0  0  0  0  0  0  0  0
  146.0222  142.7555  154.7670 H   0  0  0  0  0  0  0  0  0  0  0  0
  146.0532  141.9066  153.2111 H   0  0  0  0  0  0  0  0  0  0  0  0
  146.9579  140.7230  155.1015 H   0  0  0  0  0  0  0  0  0  0  0  0
  148.3058  140.1650  154.1216 H   0  0  0  0  0  0  0  0  0  0  0  0
  148.9111  143.0144  156.3429 H   0  0  0  0  0  0  0  0  0  0  0  0
  150.5926  140.4249  154.8216 H   0  0  0  0  0  0  0  0  0  0  0  0
  150.6371  142.1208  155.1391 H   0  0  0  0  0  0  0  0  0  0  0  0
  153.7895  141.4377  160.3089 H   0  0  0  0  0  0  0  0  0  0  0  0
  152.9170  143.6927  160.8802 H   0  0  0  0  0  0  0  0  0  0  0  0
  151.1996  144.7764  159.4455 H   0  0  0  0  0  0  0  0  0  0  0  0
  150.3452  143.6019  157.4199 H   0  0  0  0  0  0  0  0  0  0  0  0
  1  2  1  0  0  0  0
  1 21  1  0  0  0  0
  1 22  1  0  0  0  0
  1 23  1  0  0  0  0
  2  3  1  0  0  0  0
  3  4  1  0  0  0  0
  3 24  1  0  0  0  0
  3 25  1  0  0  0  0
  4 20  1  0  0  0  0
  4  5  1  0  0  0  0
  4  6  1  0  0  0  0
  5 26  1  0  0  0  0
  6  7  1  0  0  0  0
  6 27  1  0  0  0  0
  6 28  1  0  0  0  0
  7 19  1  0  0  0  0
  7  8  1  0  0  0  0
  8  9  1  0  0  0  0
  8 13  2  0  0  0  0
  9 10  1  0  0  0  0
  9 11  1  0  0  0  0
  9 12  1  0  0  0  0
 13 14  1  0  0  0  0
 14 19  2  0  0  0  0
 14 15  1  0  0  0  0
 15 16  2  0  0  0  0
 15 29  1  0  0  0  0
 16 17  1  0  0  0  0
 16 30  1  0  0  0  0
 17 18  2  0  0  0  0
 17 31  1  0  0  0  0
 18 19  1  0  0  0  0
 18 32  1  0  0  0  0
M  END
> <s_m_source_file>
AV-unprocessed.smi

> <i_m_source_file_index>
2766

> <i_lp_mmshare_version>
43012

> <i_f3d_flags>
0

> <s_epik_input>
W0NIM11PW0NIMl1bQ0BASF0oW09IXSlbQ0gyXW4oYyhuMSlDKEYpKEYpRiljKGMxMilbY0hdW2NIXVtjSF1bY0hdMg==

> <s_epik_cmdline>
J2VwaWtfcHl0aG9uJywgJy1waCcsICc3LjAnLCAnLXRuJywgJzgnLCAnLW1hJywgJzIwMCcsICctbWV0YWxfYmluZGluZycsICctaW1hZScsICc8aW5maWxlLm1hZT4nLCAnLW9tYWUnLCAnPG91dGZpbGUubWFlPic=

> <r_epik_Ionization_Penalty>
0.00044827

> <r_epik_Ionization_Penalty_Charging>
0

> <r_epik_Ionization_Penalty_Neutral>
0.00044827

> <r_epik_State_Penalty>
0.000276591

> <r_epik_Charging_Adjusted_Penalty>
0.000276591

> <i_epik_Tot_Q>
0

> <i_epik_Tot_abs_Q>
0

> <r_epik_Metal_State_Penalty>
-0

> <b_epik_Metal_Only>
0

> <s_lp_Force_Field>
OPLS_2005

> <r_lp_Energy>
17.0941

> <b_lp_Chiralities_Consistent>
1

> <s_lp_Variant>
AV-unprocessed.smi:2766-2

> <Gold.Version>
5.8.1

> <Gold.Id.Protein>
6NUR|6NUR_protein|mol2

> <Gold.PLP.Fitness>
43.1575

> <Gold.PLP.PLP>
-38.5798

> <Gold.PLP.part.hbond>
-2.6579

> <Gold.PLP.part.metal>
0.0000

> <Gold.PLP.part.buried>
-4.2661

> <Gold.PLP.part.nonpolar>
-31.2919

> <Gold.PLP.part.repulsive>
0.6152

> <Gold.PLP.ligand.clash>
0.0000

> <Gold.PLP.ligand.torsion>
0.6621

> <Gold.PLP.Chemscore.Hbond>
1.9424

> <Gold.PLP.Chemscore.CHOScore>
0.0000

> <Gold.PLP.Chemscore.Metal>
0.0000

> <Gold.Chemscore.Hbonds>
donor molecule, donor type, donor heavy atom, donor atom, acceptor molecule, acceptor atom, score
      L1  H     5    26       P1  8028  1.00
      P1  H  7997  8009       L1    13  0.84

> <Gold.PLP.Chemscore.Internal.Correction>
0.0746

> <Gold.Rescore>
     Score         DG    S(hbond)    S(metal)    S(lipo)     H(rot)  DE(clash)    DE(int)     intcor
     14.03     -14.74       1.32        0.00      92.07       2.32       0.08       0.62       ----

> <Gold.Chemscore.Fitness>
14.0298

> <Gold.Chemscore.DG>
-14.7380

> <Gold.Chemscore.ZeroCoef>
-5.4800

> <Gold.Chemscore.Hbond>
1.3219

> <Gold.Chemscore.Metal>
0.0000

> <Gold.Chemscore.Lipo>
92.0748

> <Gold.Chemscore.Internal_Hbond>
0.0000

> <Gold.Chemscore.DEClash>
0.0839

> <Gold.Chemscore.DEInternal>
0.6243

> <Gold.Chemscore.Rot>
2.3164

> <Gold.Chemscore.Internal.Correction>
   9.000000E+99

> <Gold.Chemscore.Hbonds>
donor molecule, donor type, donor heavy atom, donor atom, acceptor molecule, acceptor atom, score
      L1  H     5    26       P1  8028  0.96
      P1  H  7997  8009       L1    13  0.11

> <Gold.Chemscore.Hbond.Weighted>
-4.4151

> <Gold.Chemscore.Metal.Weighted>
-0.0000

> <Gold.Chemscore.Lipo.Weighted>
-10.7728

> <Gold.Chemscore.Internal_Hbond.Weighted>
0.0000

> <Gold.Chemscore.DEClash.Weighted>
0.0839

> <Gold.Chemscore.DEInternal.Weighted>
0.6243

> <Gold.Chemscore.Rot.Weighted>
5.9299

> <Gold.Chemscore.Internal.Correction.Weighted>
   9.000000E+99

> <Gold.Protein.RotatedTorsions>
[ 6907 6896 6895 6894 ] final   14.53 input  -60.11 | X-H torsion
[ 7974 7965 7964 7962 ] final   13.83 input  175.53 | X-H torsion
[ 8008 7997 7996 7995 ] final  149.48 input   59.86 | X-H torsion
[ 10167 10162 10161 10158 ] final  111.18 input  -65.29 | X-H torsion
[ 10718 10713 10712 10709 ] final   27.24 input   66.30 | X-H torsion
[ 10763 10752 10751 10750 ] final  171.44 input  -60.55 | X-H torsion
[ 11005 11000 10999 10996 ] final  -87.31 input  -57.11 | X-H torsion

> <Gold.Protein.ActiveResidues>
 VAL166  LYS551  ARG553  GLY616  TRP617  ASP618  TYR619  PRO620  LYS621  CYS622 
 ASP623  PHE694  ASN695  SER759  ASP760  ASP761  ALA762  ILE779  LEU786  VAL792 
 PHE793  MET794  SER795  GLU796  ALA797  LYS798  CYS799  TRP800  GLU811  SER814 

> <Gold.Protein.RotatedAtoms>
  151.8037  135.0701  160.0403 H   0  0  0  0  0  0  0  0  0  0  0  0  # atno 6907 bound_to 6896
  152.3071  133.5710  159.5664 H   0  0  0  0  0  0  0  0  0  0  0  0  # atno 6908 bound_to 6896
  150.7301  134.0123  159.3716 H   0  0  0  0  0  0  0  0  0  0  0  0  # atno 6909 bound_to 6896
  146.2320  139.9131  142.8521 H   0  0  0  0  0  0  0  0  0  0  0  0  # atno 7974 bound_to 7965
  156.2753  140.2100  156.5865 H   0  0  0  0  0  0  0  0  0  0  0  0  # atno 8008 bound_to 7997
  154.7017  140.0520  157.0487 H   0  0  0  0  0  0  0  0  0  0  0  0  # atno 8009 bound_to 7997
  155.0726  140.3178  155.4629 H   0  0  0  0  0  0  0  0  0  0  0  0  # atno 8010 bound_to 7997
  139.6631  144.7128  151.1827 H   0  0  0  0  0  0  0  0  0  0  0  0  # atno 10167 bound_to 10162
  157.2175  130.6963  149.6255 H   0  0  0  0  0  0  0  0  0  0  0  0  # atno 10718 bound_to 10713
  154.4120  135.2756  155.2031 H   0  0  0  0  0  0  0  0  0  0  0  0  # atno 10763 bound_to 10752
  154.4012  135.6044  153.5902 H   0  0  0  0  0  0  0  0  0  0  0  0  # atno 10764 bound_to 10752
  152.9831  135.5927  154.4403 H   0  0  0  0  0  0  0  0  0  0  0  0  # atno 10765 bound_to 10752
  141.1618  133.7504  156.9289 H   0  0  0  0  0  0  0  0  0  0  0  0  # atno 11005 bound_to 11000
  145.2210  140.9935  143.4045 LP  0  0  0  0  0  0  0  0  0  0  0  0  # atno 17320 bound_to 7965
  144.9610  139.3980  143.6356 LP  0  0  0  0  0  0  0  0  0  0  0  0  # atno 17321 bound_to 7965
  140.7588  143.5962  150.8746 LP  0  0  0  0  0  0  0  0  0  0  0  0  # atno 17342 bound_to 10162
  139.9621  143.6151  152.2999 LP  0  0  0  0  0  0  0  0  0  0  0  0  # atno 17343 bound_to 10162
  155.9685  130.4531  150.5798 LP  0  0  0  0  0  0  0  0  0  0  0  0  # atno 17370 bound_to 10713
  157.3609  131.0749  151.1637 LP  0  0  0  0  0  0  0  0  0  0  0  0  # atno 17371 bound_to 10713
  140.1400  134.9300  157.2454 LP  0  0  0  0  0  0  0  0  0  0  0  0  # atno 17394 bound_to 11000
  140.2848  134.3308  155.7332 LP  0  0  0  0  0  0  0  0  0  0  0  0  # atno 17395 bound_to 11000

$$$$
