AV-unprocessed.smi:287|AV-procd|sdf|2191|dock3
  -GOLD-   2262021583D 1   1.00000     0.00000
 Structure written by MMmdl.
 55 58  0  0  0  0  0  0  0  0  1 V2000
  145.0191  145.2716  152.2629 C   0  0  0  0  0  0  0  0  0  0  0  0
  145.1958  144.2942  153.3741 C   0  0  0  0  0  0  0  0  0  0  0  0
  146.1275  143.3364  153.6504 C   0  0  0  0  0  0  0  0  0  0  0  0
  145.7461  142.7112  154.8755 C   0  0  0  0  0  0  0  0  0  0  0  0
  146.4912  141.5892  155.5861 C   0  0  1  0  0  0  0  0  0  0  0  0
  147.7638  141.2349  154.7999 C   0  0  0  0  0  0  0  0  0  0  0  0
  146.9356  141.9607  156.8768 O   0  0  0  0  0  0  0  0  0  0  0  0
  145.6225  140.3263  155.7863 C   0  0  0  0  0  0  0  0  0  0  0  0
  145.3629  139.6115  154.5407 N   0  0  0  0  0  0  0  0  0  0  0  0
  145.8379  138.3611  154.3647 C   0  0  0  0  0  0  0  0  0  0  0  0
  146.9956  137.9623  154.9535 N   0  0  0  0  0  0  0  0  0  0  0  0
  147.4445  136.7177  154.7662 C   0  0  0  0  0  0  0  0  0  0  0  0
  146.9016  135.7355  154.0442 N   0  0  0  0  0  0  0  0  0  0  0  0
  145.7382  136.1315  153.4498 C   0  0  0  0  0  0  0  0  0  0  0  0
  145.1447  137.4195  153.5615 C   0  0  0  0  0  0  0  0  0  0  0  0
  143.9664  137.4612  152.8275 N   0  0  0  0  0  0  0  0  0  0  0  0
  143.8708  136.2634  152.3162 C   0  0  0  0  0  0  0  0  0  0  0  0
  144.8918  135.3984  152.6414 N   0  0  0  0  0  0  0  0  0  0  0  0
  145.0459  133.9726  152.2147 C   0  0  1  0  0  0  0  0  0  0  0  0
  143.9445  133.5948  151.4563 O   0  0  0  0  0  0  0  0  0  0  0  0
  144.3264  132.5567  150.5597 C   0  0  1  0  0  0  0  0  0  0  0  0
  143.6294  132.7775  149.2042 C   0  0  0  0  0  0  0  0  0  0  0  0
  143.7409  134.1146  148.7617 O   0  0  0  0  0  0  0  0  0  0  0  0
  145.8697  132.5184  150.5282 C   0  0  2  0  0  0  0  0  0  0  0  0
  146.3218  131.3329  151.1556 O   0  0  0  0  0  0  0  0  0  0  0  0
  146.2910  133.7310  151.3502 C   0  0  1  0  0  0  0  0  0  0  0  0
  146.6192  134.8253  150.5140 O   0  0  0  0  0  0  0  0  0  0  0  0
  144.5999  143.3646  155.2590 C   0  0  0  0  0  0  0  0  0  0  0  0
  143.6865  143.2483  156.4342 C   0  0  0  0  0  0  0  0  0  0  0  0
  144.2561  144.3209  154.3518 O   0  0  0  0  0  0  0  0  0  0  0  0
  145.0601  133.3959  153.1408 H   0  0  0  0  0  0  0  0  0  0  0  0
  143.9386  131.6294  150.9847 H   0  0  0  0  0  0  0  0  0  0  0  0
  146.2799  132.5386  149.5175 H   0  0  0  0  0  0  0  0  0  0  0  0
  147.1497  133.5334  151.9936 H   0  0  0  0  0  0  0  0  0  0  0  0
  145.7992  145.1516  151.5109 H   0  0  0  0  0  0  0  0  0  0  0  0
  145.0644  146.2945  152.6368 H   0  0  0  0  0  0  0  0  0  0  0  0
  144.0547  145.1310  151.7742 H   0  0  0  0  0  0  0  0  0  0  0  0
  146.9867  143.1048  153.0385 H   0  0  0  0  0  0  0  0  0  0  0  0
  147.5228  140.8988  153.7908 H   0  0  0  0  0  0  0  0  0  0  0  0
  148.3254  140.4359  155.2856 H   0  0  0  0  0  0  0  0  0  0  0  0
  148.4263  142.0968  154.7083 H   0  0  0  0  0  0  0  0  0  0  0  0
  146.4502  142.7231  157.1523 H   0  0  0  0  0  0  0  0  0  0  0  0
  146.1511  139.6391  156.4487 H   0  0  0  0  0  0  0  0  0  0  0  0
  144.6832  140.5767  156.2822 H   0  0  0  0  0  0  0  0  0  0  0  0
  144.8157  140.1055  153.8500 H   0  0  0  0  0  0  0  0  0  0  0  0
  148.3692  136.4730  155.2671 H   0  0  0  0  0  0  0  0  0  0  0  0
  143.0426  135.9739  151.6857 H   0  0  0  0  0  0  0  0  0  0  0  0
  144.0862  132.1385  148.4483 H   0  0  0  0  0  0  0  0  0  0  0  0
  142.5769  132.4994  149.2638 H   0  0  0  0  0  0  0  0  0  0  0  0
  142.9034  134.5387  148.8688 H   0  0  0  0  0  0  0  0  0  0  0  0
  147.1895  131.1359  150.8379 H   0  0  0  0  0  0  0  0  0  0  0  0
  147.4148  135.2203  150.8363 H   0  0  0  0  0  0  0  0  0  0  0  0
  144.2500  143.2913  157.3663 H   0  0  0  0  0  0  0  0  0  0  0  0
  143.1447  142.3028  156.4085 H   0  0  0  0  0  0  0  0  0  0  0  0
  142.9543  144.0560  156.4475 H   0  0  0  0  0  0  0  0  0  0  0  0
  1  2  1  0  0  0  0
  1 35  1  0  0  0  0
  1 36  1  0  0  0  0
  1 37  1  0  0  0  0
  2 30  1  0  0  0  0
  2  3  2  0  0  0  0
  3  4  1  0  0  0  0
  3 38  1  0  0  0  0
  4  5  1  0  0  0  0
  4 28  2  0  0  0  0
  5  6  1  0  0  0  0
  5  7  1  0  0  0  0
  5  8  1  0  0  0  0
  6 39  1  0  0  0  0
  6 40  1  0  0  0  0
  6 41  1  0  0  0  0
  7 42  1  0  0  0  0
  8  9  1  0  0  0  0
  8 43  1  0  0  0  0
  8 44  1  0  0  0  0
  9 10  1  0  0  0  0
  9 45  1  0  0  0  0
 10 15  1  0  0  0  0
 10 11  2  0  0  0  0
 11 12  1  0  0  0  0
 12 13  2  0  0  0  0
 12 46  1  0  0  0  0
 13 14  1  0  0  0  0
 14 18  1  0  0  0  0
 14 15  2  0  0  0  0
 15 16  1  0  0  0  0
 16 17  2  0  0  0  0
 17 18  1  0  0  0  0
 17 47  1  0  0  0  0
 18 19  1  0  0  0  0
 19 31  1  0  0  0  0
 19 26  1  0  0  0  0
 19 20  1  0  0  0  0
 20 21  1  0  0  0  0
 21 32  1  0  0  0  0
 21 22  1  0  0  0  0
 21 24  1  0  0  0  0
 22 23  1  0  0  0  0
 22 48  1  0  0  0  0
 22 49  1  0  0  0  0
 23 50  1  0  0  0  0
 24 33  1  0  0  0  0
 24 25  1  0  0  0  0
 24 26  1  0  0  0  0
 25 51  1  0  0  0  0
 26 34  1  0  0  0  0
 26 27  1  0  0  0  0
 27 52  1  0  0  0  0
 28 29  1  0  0  0  0
 28 30  1  0  0  0  0
 29 53  1  0  0  0  0
 29 54  1  0  0  0  0
 29 55  1  0  0  0  0
M  END
> <s_m_source_file>
AV-unprocessed.smi

> <i_m_source_file_index>
287

> <i_lp_mmshare_version>
43012

> <i_f3d_flags>
0

> <s_epik_input>
W0NIM11jMVtjSF1jKGMobzEpW0NIM10pW0NAQF0oW0NIM10pKFtPSF0pW0NIMl1bTkhdYyhuW2NIXW4yKWMoYzIzKW5bY0hdbjNbQ0BASF00T1tDQEhdKFtDSDJdW09IXSlbQ0BASF0oW09IXSlbQ0BIXTRbT0hd

> <s_epik_cmdline>
J2VwaWtfcHl0aG9uJywgJy1waCcsICc3LjAnLCAnLXRuJywgJzgnLCAnLW1hJywgJzIwMCcsICctbWV0YWxfYmluZGluZycsICctaW1hZScsICc8aW5maWxlLm1hZT4nLCAnLW9tYWUnLCAnPG91dGZpbGUubWFlPic=

> <r_lp_tautomer_probability>
1

> <r_epik_Ionization_Penalty>
0.000992612

> <r_epik_Ionization_Penalty_Charging>
0

> <r_epik_Ionization_Penalty_Neutral>
0.000992612

> <r_epik_State_Penalty>
-0

> <r_epik_Charging_Adjusted_Penalty>
0

> <i_epik_Tot_Q>
0

> <i_epik_Tot_abs_Q>
0

> <r_epik_Metal_State_Penalty>
-0

> <b_epik_Metal_Only>
0

> <s_epik_Chemistry_Notes>
This compound contains an acetal/aminal-like group ( X-CH(R)-Y where X, Y are N, S, or O) that may be acid/base labile, releasing an aldehyde.

> <s_lp_Force_Field>
OPLS_2005

> <r_lp_Energy>
44.0492

> <b_lp_Chiralities_Consistent>
1

> <s_lp_Variant>
AV-unprocessed.smi:287-15

> <Gold.Version>
5.8.1

> <Gold.Id.Protein>
6NUR|6NUR_protein|mol2

> <Gold.PLP.Fitness>
50.1269

> <Gold.PLP.PLP>
-38.9681

> <Gold.PLP.part.hbond>
-6.7117

> <Gold.PLP.part.metal>
0.0000

> <Gold.PLP.part.buried>
-1.2873

> <Gold.PLP.part.nonpolar>
-32.8130

> <Gold.PLP.part.repulsive>
2.0730

> <Gold.PLP.ligand.clash>
0.0000

> <Gold.PLP.ligand.torsion>
0.4247

> <Gold.PLP.Chemscore.Hbond>
3.9760

> <Gold.PLP.Chemscore.CHOScore>
0.0000

> <Gold.PLP.Chemscore.Metal>
0.0000

> <Gold.Chemscore.Hbonds>
donor molecule, donor type, donor heavy atom, donor atom, acceptor molecule, acceptor atom, score
      L1  H     9    45       P1 10175  1.00
      L1  H    23    50       P1 10186  0.98
      L1  H    25    51       P1 10747  1.00
      L1  H    27    52       P1  7948  0.99

> <Gold.PLP.Chemscore.Internal.Correction>
0.0802

> <Gold.Rescore>
     Score         DG    S(hbond)    S(metal)    S(lipo)     H(rot)  DE(clash)    DE(int)     intcor
     10.76     -13.01       3.46        0.00      80.83       5.27       1.77       0.48       ----

> <Gold.Chemscore.Fitness>
10.7621

> <Gold.Chemscore.DG>
-13.0098

> <Gold.Chemscore.ZeroCoef>
-5.4800

> <Gold.Chemscore.Hbond>
3.4602

> <Gold.Chemscore.Metal>
0.0000

> <Gold.Chemscore.Lipo>
80.8261

> <Gold.Chemscore.Internal_Hbond>
0.0000

> <Gold.Chemscore.DEClash>
1.7685

> <Gold.Chemscore.DEInternal>
0.4792

> <Gold.Chemscore.Rot>
5.2672

> <Gold.Chemscore.Internal.Correction>
   9.000000E+99

> <Gold.Chemscore.Hbonds>
donor molecule, donor type, donor heavy atom, donor atom, acceptor molecule, acceptor atom, score
      L1  H     9    45       P1 10175  1.00
      L1  H    23    50       P1 10186  0.90
      L1  H    25    51       P1 10747  1.00
      L1  H    27    52       P1  7948  0.24

> <Gold.Chemscore.Hbond.Weighted>
-11.5571

> <Gold.Chemscore.Metal.Weighted>
-0.0000

> <Gold.Chemscore.Lipo.Weighted>
-9.4567

> <Gold.Chemscore.Internal_Hbond.Weighted>
0.0000

> <Gold.Chemscore.DEClash.Weighted>
1.7685

> <Gold.Chemscore.DEInternal.Weighted>
0.4792

> <Gold.Chemscore.Rot.Weighted>
13.4839

> <Gold.Chemscore.Internal.Correction.Weighted>
   9.000000E+99

> <Gold.Protein.RotatedTorsions>
[ 6907 6896 6895 6894 ] final  -83.06 input  -60.11 | X-H torsion
[ 7974 7965 7964 7962 ] final -108.27 input  175.53 | X-H torsion
[ 8008 7997 7996 7995 ] final -122.50 input   59.86 | X-H torsion
[ 10167 10162 10161 10158 ] final  135.09 input  -65.29 | X-H torsion
[ 10718 10713 10712 10709 ] final   25.02 input   66.30 | X-H torsion
[ 10763 10752 10751 10750 ] final  172.62 input  -60.55 | X-H torsion
[ 11005 11000 10999 10996 ] final  179.95 input  -57.11 | X-H torsion

> <Gold.Protein.ActiveResidues>
 VAL166  LYS551  ARG553  GLY616  TRP617  ASP618  TYR619  PRO620  LYS621  CYS622 
 ASP623  PHE694  ASN695  SER759  ASP760  ASP761  ALA762  ILE779  LEU786  VAL792 
 PHE793  MET794  SER795  GLU796  ALA797  LYS798  CYS799  TRP800  GLU811  SER814 

> <Gold.Protein.RotatedAtoms>
  150.6890  134.3570  159.4933 H   0  0  0  0  0  0  0  0  0  0  0  0  # atno 6907 bound_to 6896
  152.1404  134.9064  160.0563 H   0  0  0  0  0  0  0  0  0  0  0  0  # atno 6908 bound_to 6896
  152.0200  133.3860  159.4291 H   0  0  0  0  0  0  0  0  0  0  0  0  # atno 6909 bound_to 6896
  145.1949  140.9031  143.3403 H   0  0  0  0  0  0  0  0  0  0  0  0  # atno 7974 bound_to 7965
  155.1652  140.0407  157.2851 H   0  0  0  0  0  0  0  0  0  0  0  0  # atno 8008 bound_to 7997
  154.6308  140.2523  155.7409 H   0  0  0  0  0  0  0  0  0  0  0  0  # atno 8009 bound_to 7997
  156.2483  140.2875  156.0659 H   0  0  0  0  0  0  0  0  0  0  0  0  # atno 8010 bound_to 7997
  139.5231  144.6535  151.5233 H   0  0  0  0  0  0  0  0  0  0  0  0  # atno 10167 bound_to 10162
  157.1877  130.6831  149.6137 H   0  0  0  0  0  0  0  0  0  0  0  0  # atno 10718 bound_to 10713
  154.4286  135.2759  155.1927 H   0  0  0  0  0  0  0  0  0  0  0  0  # atno 10763 bound_to 10752
  154.3843  135.6080  153.5811 H   0  0  0  0  0  0  0  0  0  0  0  0  # atno 10764 bound_to 10752
  152.9835  135.5888  154.4594 H   0  0  0  0  0  0  0  0  0  0  0  0  # atno 10765 bound_to 10752
  140.4118  134.6685  157.4618 H   0  0  0  0  0  0  0  0  0  0  0  0  # atno 11005 bound_to 11000
  145.0004  139.3604  143.6170 LP  0  0  0  0  0  0  0  0  0  0  0  0  # atno 17320 bound_to 7965
  146.3429  139.9225  142.8764 LP  0  0  0  0  0  0  0  0  0  0  0  0  # atno 17321 bound_to 7965
  140.6350  143.9002  150.6639 LP  0  0  0  0  0  0  0  0  0  0  0  0  # atno 17342 bound_to 10162
  140.2319  143.3729  152.1559 LP  0  0  0  0  0  0  0  0  0  0  0  0  # atno 17343 bound_to 10162
  155.9716  130.4625  150.6149 LP  0  0  0  0  0  0  0  0  0  0  0  0  # atno 17370 bound_to 10713
  157.3891  131.0793  151.1409 LP  0  0  0  0  0  0  0  0  0  0  0  0  # atno 17371 bound_to 10713
  140.0262  134.6474  155.9170 LP  0  0  0  0  0  0  0  0  0  0  0  0  # atno 17394 bound_to 11000
  141.1818  133.6548  156.5052 LP  0  0  0  0  0  0  0  0  0  0  0  0  # atno 17395 bound_to 11000

$$$$
