AV-unprocessed.smi:601|AV-procd|sdf|3031|dock10
  -GOLD-   2262023543D 1   1.00000     0.00000
 Structure written by MMmdl.
 50 51  0  0  0  0  0  0  0  0  1 V2000
  149.1994  133.2882  154.6729 C   0  0  0  0  0  0  0  0  0  0  0  0
  149.7223  134.7090  154.9216 C   0  0  0  0  0  0  0  0  0  0  0  0
  149.7989  135.0892  156.4089 C   0  0  0  0  0  0  0  0  0  0  0  0
  148.4176  135.2546  157.0744 C   0  0  0  0  0  0  0  0  0  0  0  0
  148.4682  136.0699  158.2982 N   0  0  0  0  0  0  0  0  0  0  0  0
  148.1188  135.5468  159.5037 C   0  0  0  0  0  0  0  0  0  0  0  0
  147.7352  134.3810  159.6175 O   0  0  0  0  0  0  0  0  0  0  0  0
  148.1955  136.4388  160.7706 C   0  0  2  0  0  0  0  0  0  0  0  0
  147.7825  135.7478  162.0764 C   0  0  0  0  0  0  0  0  0  0  0  0
  146.2652  135.8762  162.1063 C   0  0  0  0  0  0  0  0  0  0  0  0
  145.9631  136.9874  161.0960 C   0  0  0  0  0  0  0  0  0  0  0  0
  147.2356  137.4873  160.6960 O   0  0  0  0  0  0  0  0  0  0  0  0
  149.0045  137.3641  158.1735 C   0  0  0  0  0  0  0  0  0  0  0  0
  148.3765  138.3427  157.4559 C   0  0  0  0  0  0  0  0  0  0  0  0
  147.1548  138.0936  156.8492 N   0  0  0  0  0  0  0  0  0  0  0  0
  148.9196  139.6250  157.3338 N   0  0  0  0  0  0  0  0  0  0  0  0
  148.2764  140.7018  156.6076 C   0  0  0  0  0  0  0  0  0  0  0  0
  149.0898  141.1541  155.3832 C   0  0  0  0  0  0  0  0  0  0  0  0
  148.1979  141.6517  154.2416 C   0  0  0  0  0  0  0  0  0  0  0  0
  150.1344  139.9471  157.9855 C   0  0  0  0  0  0  0  0  0  0  0  0
  150.6455  141.0672  157.9580 O   0  0  0  0  0  0  0  0  0  0  0  0
  150.7656  138.9281  158.6904 N   0  0  0  0  0  0  0  0  0  0  0  0
  150.2914  137.6266  158.8307 C   0  0  0  0  0  0  0  0  0  0  0  0
  150.9464  136.8093  159.4763 O   0  0  0  0  0  0  0  0  0  0  0  0
  151.6386  139.1534  159.1447 H   0  0  0  0  0  0  0  0  0  0  0  0
  149.2376  133.0446  153.6111 H   0  0  0  0  0  0  0  0  0  0  0  0
  148.1644  133.1786  154.9966 H   0  0  0  0  0  0  0  0  0  0  0  0
  149.7990  132.5491  155.2047 H   0  0  0  0  0  0  0  0  0  0  0  0
  150.7205  134.7900  154.4903 H   0  0  0  0  0  0  0  0  0  0  0  0
  149.1036  135.4296  154.3858 H   0  0  0  0  0  0  0  0  0  0  0  0
  150.3839  134.3380  156.9383 H   0  0  0  0  0  0  0  0  0  0  0  0
  150.3581  136.0212  156.4936 H   0  0  0  0  0  0  0  0  0  0  0  0
  147.7119  135.6966  156.3689 H   0  0  0  0  0  0  0  0  0  0  0  0
  148.0091  134.2720  157.3134 H   0  0  0  0  0  0  0  0  0  0  0  0
  149.2010  136.8481  160.8662 H   0  0  0  0  0  0  0  0  0  0  0  0
  148.1219  134.7145  162.1584 H   0  0  0  0  0  0  0  0  0  0  0  0
  148.2104  136.2924  162.9188 H   0  0  0  0  0  0  0  0  0  0  0  0
  145.7855  134.9452  161.8016 H   0  0  0  0  0  0  0  0  0  0  0  0
  145.9094  136.1246  163.1067 H   0  0  0  0  0  0  0  0  0  0  0  0
  145.4375  136.5876  160.2277 H   0  0  0  0  0  0  0  0  0  0  0  0
  145.3535  137.7843  161.5224 H   0  0  0  0  0  0  0  0  0  0  0  0
  146.7039  137.1927  156.9218 H   0  0  0  0  0  0  0  0  0  0  0  0
  146.6043  138.8365  156.4434 H   0  0  0  0  0  0  0  0  0  0  0  0
  147.2697  140.3781  156.3373 H   0  0  0  0  0  0  0  0  0  0  0  0
  148.1281  141.5184  157.3138 H   0  0  0  0  0  0  0  0  0  0  0  0
  149.7786  141.9486  155.6734 H   0  0  0  0  0  0  0  0  0  0  0  0
  149.7060  140.3299  155.0221 H   0  0  0  0  0  0  0  0  0  0  0  0
  148.7993  141.9734  153.3912 H   0  0  0  0  0  0  0  0  0  0  0  0
  147.5888  142.4987  154.5582 H   0  0  0  0  0  0  0  0  0  0  0  0
  147.5261  140.8652  153.8965 H   0  0  0  0  0  0  0  0  0  0  0  0
  1  2  1  0  0  0  0
  1 26  1  0  0  0  0
  1 27  1  0  0  0  0
  1 28  1  0  0  0  0
  2  3  1  0  0  0  0
  2 29  1  0  0  0  0
  2 30  1  0  0  0  0
  3  4  1  0  0  0  0
  3 31  1  0  0  0  0
  3 32  1  0  0  0  0
  4  5  1  0  0  0  0
  4 33  1  0  0  0  0
  4 34  1  0  0  0  0
  5  6  1  0  0  0  0
  5 13  1  0  0  0  0
  6  7  2  0  0  0  0
  6  8  1  0  0  0  0
  8 12  1  0  0  0  0
  8  9  1  0  0  0  0
  8 35  1  0  0  0  0
  9 10  1  0  0  0  0
  9 36  1  0  0  0  0
  9 37  1  0  0  0  0
 10 11  1  0  0  0  0
 10 38  1  0  0  0  0
 10 39  1  0  0  0  0
 11 12  1  0  0  0  0
 11 40  1  0  0  0  0
 11 41  1  0  0  0  0
 13 23  1  0  0  0  0
 13 14  2  0  0  0  0
 14 15  1  0  0  0  0
 14 16  1  0  0  0  0
 15 42  1  0  0  0  0
 15 43  1  0  0  0  0
 16 17  1  0  0  0  0
 16 20  1  0  0  0  0
 17 18  1  0  0  0  0
 17 44  1  0  0  0  0
 17 45  1  0  0  0  0
 18 19  1  0  0  0  0
 18 46  1  0  0  0  0
 18 47  1  0  0  0  0
 19 48  1  0  0  0  0
 19 49  1  0  0  0  0
 19 50  1  0  0  0  0
 20 21  2  0  0  0  0
 20 22  1  0  0  0  0
 22 25  1  0  0  0  0
 22 23  1  0  0  0  0
 23 24  2  0  0  0  0
M  END
> <s_m_source_file>
AV-unprocessed.smi

> <i_m_source_file_index>
601

> <i_lp_mmshare_version>
43012

> <i_f3d_flags>
0

> <s_epik_input>
TzFbQ0gyXVtDSDJdW0NIMl1bQ0BIXTFDKD1PKU4oW0NIMl1bQ0gyXVtDSDJdW0NIM10pYzJjKFtOSDJdKW4oW0NIMl1bQ0gyXVtDSDNdKWMoPU8pW25IXWMyPU8=

> <s_epik_cmdline>
J2VwaWtfcHl0aG9uJywgJy1waCcsICc3LjAnLCAnLXRuJywgJzgnLCAnLW1hJywgJzIwMCcsICctbWV0YWxfYmluZGluZycsICctaW1hZScsICc8aW5maWxlLm1hZT4nLCAnLW9tYWUnLCAnPG91dGZpbGUubWFlPic=

> <r_lp_tautomer_probability>
1

> <r_epik_Ionization_Penalty>
6.19718e-05

> <r_epik_Ionization_Penalty_Charging>
2.78773e-05

> <r_epik_Ionization_Penalty_Neutral>
3.40944e-05

> <r_epik_State_Penalty>
-0

> <r_epik_Charging_Adjusted_Penalty>
2.78773e-05

> <i_epik_Tot_Q>
0

> <i_epik_Tot_abs_Q>
0

> <r_epik_Metal_State_Penalty>
0.0271358

> <b_epik_Metal_Only>
0

> <s_lp_Force_Field>
OPLS_2005

> <r_lp_Energy>
42.1273

> <b_lp_Chiralities_Consistent>
1

> <s_lp_Variant>
AV-unprocessed.smi:601-1

> <Gold.Version>
5.8.1

> <Gold.Id.Protein>
6NUR|6NUR_protein|mol2

> <Gold.PLP.Fitness>
36.2084

> <Gold.PLP.PLP>
-31.2377

> <Gold.PLP.part.hbond>
-3.0000

> <Gold.PLP.part.metal>
0.0000

> <Gold.PLP.part.buried>
-5.0026

> <Gold.PLP.part.nonpolar>
-23.5956

> <Gold.PLP.part.repulsive>
0.2099

> <Gold.PLP.ligand.clash>
0.0000

> <Gold.PLP.ligand.torsion>
1.6446

> <Gold.PLP.Chemscore.Hbond>
2.0000

> <Gold.PLP.Chemscore.CHOScore>
0.0000

> <Gold.PLP.Chemscore.Metal>
0.0000

> <Gold.Chemscore.Hbonds>
donor molecule, donor type, donor heavy atom, donor atom, acceptor molecule, acceptor atom, score
      P1  H  6896  6907       L1    24  1.00
      P1  H  6934  6947       L1    12  1.00

> <Gold.PLP.Chemscore.Internal.Correction>
2.2599

> <Gold.Rescore>
     Score         DG    S(hbond)    S(metal)    S(lipo)     H(rot)  DE(clash)    DE(int)     intcor
     12.57     -14.34       1.98        0.00      62.08       1.96       0.02       1.74       ----

> <Gold.Chemscore.Fitness>
12.5748

> <Gold.Chemscore.DG>
-14.3402

> <Gold.Chemscore.ZeroCoef>
-5.4800

> <Gold.Chemscore.Hbond>
1.9807

> <Gold.Chemscore.Metal>
0.0000

> <Gold.Chemscore.Lipo>
62.0786

> <Gold.Chemscore.Internal_Hbond>
0.0000

> <Gold.Chemscore.DEClash>
0.0240

> <Gold.Chemscore.DEInternal>
1.7414

> <Gold.Chemscore.Rot>
1.9603

> <Gold.Chemscore.Internal.Correction>
   9.000000E+99

> <Gold.Chemscore.Hbonds>
donor molecule, donor type, donor heavy atom, donor atom, acceptor molecule, acceptor atom, score
      P1  H  6896  6907       L1    24  1.00
      P1  H  6934  6947       L1    12  0.52

> <Gold.Chemscore.Hbond.Weighted>
-6.6155

> <Gold.Chemscore.Metal.Weighted>
-0.0000

> <Gold.Chemscore.Lipo.Weighted>
-7.2632

> <Gold.Chemscore.Internal_Hbond.Weighted>
0.0000

> <Gold.Chemscore.DEClash.Weighted>
0.0240

> <Gold.Chemscore.DEInternal.Weighted>
1.7414

> <Gold.Chemscore.Rot.Weighted>
5.0185

> <Gold.Chemscore.Internal.Correction.Weighted>
   9.000000E+99

> <Gold.Protein.RotatedTorsions>
[ 6907 6896 6895 6894 ] final  -22.37 input  -60.11 | X-H torsion
[ 7974 7965 7964 7962 ] final  -87.05 input  175.53 | X-H torsion
[ 8008 7997 7996 7995 ] final -115.12 input   59.86 | X-H torsion
[ 10167 10162 10161 10158 ] final    6.77 input  -65.29 | X-H torsion
[ 10718 10713 10712 10709 ] final  145.16 input   66.30 | X-H torsion
[ 10763 10752 10751 10750 ] final -165.62 input  -60.55 | X-H torsion
[ 11005 11000 10999 10996 ] final  134.96 input  -57.11 | X-H torsion

> <Gold.Protein.ActiveResidues>
 VAL166  LYS551  ARG553  GLY616  TRP617  ASP618  TYR619  PRO620  LYS621  CYS622 
 ASP623  PHE694  ASN695  SER759  ASP760  ASP761  ALA762  ILE779  LEU786  VAL792 
 PHE793  MET794  SER795  GLU796  ALA797  LYS798  CYS799  TRP800  GLU811  SER814 

> <Gold.Protein.RotatedAtoms>
  151.2197  135.0513  159.8944 H   0  0  0  0  0  0  0  0  0  0  0  0  # atno 6907 bound_to 6896
  152.5416  134.0654  159.8181 H   0  0  0  0  0  0  0  0  0  0  0  0  # atno 6908 bound_to 6896
  151.0819  133.5335  159.2652 H   0  0  0  0  0  0  0  0  0  0  0  0  # atno 6909 bound_to 6896
  145.4716  140.9559  143.1913 H   0  0  0  0  0  0  0  0  0  0  0  0  # atno 7974 bound_to 7965
  155.0471  140.0392  157.2530 H   0  0  0  0  0  0  0  0  0  0  0  0  # atno 8008 bound_to 7997
  154.7168  140.2704  155.6554 H   0  0  0  0  0  0  0  0  0  0  0  0  # atno 8009 bound_to 7997
  156.2805  140.2710  156.1828 H   0  0  0  0  0  0  0  0  0  0  0  0  # atno 8010 bound_to 7997
  140.6409  143.7776  150.7427 H   0  0  0  0  0  0  0  0  0  0  0  0  # atno 10167 bound_to 10162
  157.3486  131.0947  151.1020 H   0  0  0  0  0  0  0  0  0  0  0  0  # atno 10718 bound_to 10713
  154.6914  135.2971  154.9474 H   0  0  0  0  0  0  0  0  0  0  0  0  # atno 10763 bound_to 10752
  154.0436  135.6654  153.4796 H   0  0  0  0  0  0  0  0  0  0  0  0  # atno 10764 bound_to 10752
  153.0614  135.5113  154.8008 H   0  0  0  0  0  0  0  0  0  0  0  0  # atno 10765 bound_to 10752
  139.9949  134.9501  156.9941 H   0  0  0  0  0  0  0  0  0  0  0  0  # atno 11005 bound_to 11000
  144.7942  139.6268  143.7100 LP  0  0  0  0  0  0  0  0  0  0  0  0  # atno 17320 bound_to 7965
  146.2393  139.5969  142.9502 LP  0  0  0  0  0  0  0  0  0  0  0  0  # atno 17321 bound_to 7965
  140.1407  143.4443  152.2195 LP  0  0  0  0  0  0  0  0  0  0  0  0  # atno 17342 bound_to 10162
  139.5618  144.7410  151.4133 LP  0  0  0  0  0  0  0  0  0  0  0  0  # atno 17343 bound_to 10162
  157.2204  130.6479  149.5809 LP  0  0  0  0  0  0  0  0  0  0  0  0  # atno 17370 bound_to 10713
  155.9718  130.4631  150.6169 LP  0  0  0  0  0  0  0  0  0  0  0  0  # atno 17371 bound_to 10713
  140.4838  134.1263  155.7221 LP  0  0  0  0  0  0  0  0  0  0  0  0  # atno 17394 bound_to 11000
  141.1596  133.8818  157.1884 LP  0  0  0  0  0  0  0  0  0  0  0  0  # atno 17395 bound_to 11000

$$$$
