AV-unprocessed.smi:2104|AV-procd|sdf|8586|dock5
  -GOLD-   2272011313D 1   1.00000     0.00000
 Structure written by MMmdl.
 43 44  0  0  0  0  0  0  0  0  1 V2000
  146.8424  133.8152  162.4236 C   0  0  0  0  0  0  0  0  0  0  0  0
  147.2515  135.0968  161.7829 C   0  0  0  0  0  0  0  0  0  0  0  0
  147.7108  135.4078  160.5339 C   0  0  0  0  0  0  0  0  0  0  0  0
  147.9081  136.8126  160.6064 C   0  0  0  0  0  0  0  0  0  0  0  0
  148.3914  137.5383  159.4880 N   0  0  0  0  0  0  0  0  0  0  0  0
  149.6357  137.5272  158.9805 C   0  0  0  0  0  0  0  0  0  0  0  0
  150.5761  136.8647  159.4203 O   0  0  0  0  0  0  0  0  0  0  0  0
  149.7363  138.3421  157.9210 N   0  0  0  0  0  0  0  0  0  0  0  0
  150.9594  138.5859  157.1635 C   0  0  0  0  0  0  0  0  0  0  0  0
  151.2309  140.0878  156.9951 C   0  0  0  0  0  0  0  0  0  0  0  0
  151.3631  140.6734  158.2823 O   0  0  0  0  0  0  0  0  0  0  0  0
  151.9980  141.9458  158.2918 C   0  0  1  0  0  0  0  0  0  0  0  0
  151.0481  143.0052  157.6947 C   0  0  0  0  0  0  0  0  0  0  0  0
  151.6336  144.4196  157.8148 C   0  0  0  0  0  0  0  0  0  0  0  0
  151.9757  144.7517  159.2736 C   0  0  0  0  0  0  0  0  0  0  0  0
  152.9308  143.7056  159.8675 C   0  0  0  0  0  0  0  0  0  0  0  0
  152.3571  142.2786  159.7576 C   0  0  2  0  0  0  0  0  0  0  0  0
  153.3377  141.2517  160.3488 C   0  0  0  0  0  0  0  0  0  0  0  0
  147.5960  137.3138  161.7917 N   0  0  0  0  0  0  0  0  0  0  0  0
  147.1743  136.2166  162.5520 O   0  0  0  0  0  0  0  0  0  0  0  0
  146.8196  133.0052  161.6944 H   0  0  0  0  0  0  0  0  0  0  0  0
  145.8487  133.9018  162.8634 H   0  0  0  0  0  0  0  0  0  0  0  0
  147.5406  133.5390  163.2141 H   0  0  0  0  0  0  0  0  0  0  0  0
  147.8788  134.7361  159.7049 H   0  0  0  0  0  0  0  0  0  0  0  0
  147.7184  138.1312  159.0257 H   0  0  0  0  0  0  0  0  0  0  0  0
  148.9144  138.8506  157.6294 H   0  0  0  0  0  0  0  0  0  0  0  0
  151.8045  138.1024  157.6561 H   0  0  0  0  0  0  0  0  0  0  0  0
  150.8589  138.1150  156.1854 H   0  0  0  0  0  0  0  0  0  0  0  0
  152.1366  140.2436  156.4072 H   0  0  0  0  0  0  0  0  0  0  0  0
  150.4074  140.5504  156.4513 H   0  0  0  0  0  0  0  0  0  0  0  0
  152.9223  141.9132  157.7112 H   0  0  0  0  0  0  0  0  0  0  0  0
  150.8441  142.7899  156.6461 H   0  0  0  0  0  0  0  0  0  0  0  0
  150.0876  142.9657  158.2100 H   0  0  0  0  0  0  0  0  0  0  0  0
  152.5314  144.4975  157.2002 H   0  0  0  0  0  0  0  0  0  0  0  0
  150.9252  145.1503  157.4232 H   0  0  0  0  0  0  0  0  0  0  0  0
  152.4260  145.7431  159.3335 H   0  0  0  0  0  0  0  0  0  0  0  0
  151.0606  144.7906  159.8658 H   0  0  0  0  0  0  0  0  0  0  0  0
  153.8902  143.7574  159.3507 H   0  0  0  0  0  0  0  0  0  0  0  0
  153.1304  143.9478  160.9120 H   0  0  0  0  0  0  0  0  0  0  0  0
  151.4406  142.2406  160.3486 H   0  0  0  0  0  0  0  0  0  0  0  0
  154.2715  141.2263  159.7863 H   0  0  0  0  0  0  0  0  0  0  0  0
  152.9167  140.2459  160.3371 H   0  0  0  0  0  0  0  0  0  0  0  0
  153.5798  141.4915  161.3845 H   0  0  0  0  0  0  0  0  0  0  0  0
  1  2  1  0  0  0  0
  1 21  1  0  0  0  0
  1 22  1  0  0  0  0
  1 23  1  0  0  0  0
  2 20  1  0  0  0  0
  2  3  2  0  0  0  0
  3  4  1  0  0  0  0
  3 24  1  0  0  0  0
  4  5  1  0  0  0  0
  4 19  2  0  0  0  0
  5  6  1  0  0  0  0
  5 25  1  0  0  0  0
  6  7  2  0  0  0  0
  6  8  1  0  0  0  0
  8  9  1  0  0  0  0
  8 26  1  0  0  0  0
  9 10  1  0  0  0  0
  9 27  1  0  0  0  0
  9 28  1  0  0  0  0
 10 11  1  0  0  0  0
 10 29  1  0  0  0  0
 10 30  1  0  0  0  0
 11 12  1  0  0  0  0
 12 17  1  0  0  0  0
 12 13  1  0  0  0  0
 12 31  1  0  0  0  0
 13 14  1  0  0  0  0
 13 32  1  0  0  0  0
 13 33  1  0  0  0  0
 14 15  1  0  0  0  0
 14 34  1  0  0  0  0
 14 35  1  0  0  0  0
 15 16  1  0  0  0  0
 15 36  1  0  0  0  0
 15 37  1  0  0  0  0
 16 17  1  0  0  0  0
 16 38  1  0  0  0  0
 16 39  1  0  0  0  0
 17 18  1  0  0  0  0
 17 40  1  0  0  0  0
 18 41  1  0  0  0  0
 18 42  1  0  0  0  0
 18 43  1  0  0  0  0
 19 20  1  0  0  0  0
M  END
> <s_m_source_file>
AV-unprocessed.smi

> <i_m_source_file_index>
2104

> <i_lp_mmshare_version>
43012

> <i_f3d_flags>
0

> <s_epik_input>
W0NIM11jMVtjSF1jKG5vMSlbTkhdQyg9TylbTkhdW0NIMl1bQ0gyXU9bQ0BASF0yW0NIMl1bQ0gyXVtDSDJdW0NIMl1bQ0BIXTJbQ0gzXQ==

> <s_epik_cmdline>
J2VwaWtfcHl0aG9uJywgJy1waCcsICc3LjAnLCAnLXRuJywgJzgnLCAnLW1hJywgJzIwMCcsICctbWV0YWxfYmluZGluZycsICctaW1hZScsICc8aW5maWxlLm1hZT4nLCAnLW9tYWUnLCAnPG91dGZpbGUubWFlPic=

> <r_lp_tautomer_probability>
1

> <r_epik_Ionization_Penalty>
2.94418e-05

> <r_epik_Ionization_Penalty_Charging>
0

> <r_epik_Ionization_Penalty_Neutral>
2.94418e-05

> <r_epik_State_Penalty>
-0

> <r_epik_Charging_Adjusted_Penalty>
0

> <i_epik_Tot_Q>
0

> <i_epik_Tot_abs_Q>
0

> <r_epik_Metal_State_Penalty>
0.0104148

> <b_epik_Metal_Only>
0

> <s_lp_Force_Field>
OPLS_2005

> <r_lp_Energy>
8.17473

> <b_lp_Chiralities_Consistent>
1

> <s_lp_Variant>
AV-unprocessed.smi:2104-4

> <Gold.Version>
5.8.1

> <Gold.Id.Protein>
6NUR|6NUR_protein|mol2

> <Gold.PLP.Fitness>
49.4468

> <Gold.PLP.PLP>
-42.9316

> <Gold.PLP.part.hbond>
-3.0000

> <Gold.PLP.part.metal>
0.0000

> <Gold.PLP.part.buried>
-5.6551

> <Gold.PLP.part.nonpolar>
-34.3474

> <Gold.PLP.part.repulsive>
0.2890

> <Gold.PLP.ligand.clash>
0.0000

> <Gold.PLP.ligand.torsion>
0.8715

> <Gold.PLP.Chemscore.Hbond>
2.7424

> <Gold.PLP.Chemscore.CHOScore>
0.0000

> <Gold.PLP.Chemscore.Metal>
0.0000

> <Gold.Chemscore.Hbonds>
donor molecule, donor type, donor heavy atom, donor atom, acceptor molecule, acceptor atom, score
      P1  H  6896  6907       L1     7  1.00
      P1  H  6931  6943       L1    19  0.70
      P1  H  6934  6947       L1    19  0.34

> <Gold.PLP.Chemscore.Internal.Correction>
0.0311

> <Gold.Rescore>
     Score         DG    S(hbond)    S(metal)    S(lipo)     H(rot)  DE(clash)    DE(int)     intcor
     19.79     -20.57       1.95        0.00     111.53       1.75       0.00       0.77       ----

> <Gold.Chemscore.Fitness>
19.7934

> <Gold.Chemscore.DG>
-20.5658

> <Gold.Chemscore.ZeroCoef>
-5.4800

> <Gold.Chemscore.Hbond>
1.9528

> <Gold.Chemscore.Metal>
0.0000

> <Gold.Chemscore.Lipo>
111.5343

> <Gold.Chemscore.Internal_Hbond>
0.0000

> <Gold.Chemscore.DEClash>
0.0048

> <Gold.Chemscore.DEInternal>
0.7676

> <Gold.Chemscore.Rot>
1.7524

> <Gold.Chemscore.Internal.Correction>
   9.000000E+99

> <Gold.Chemscore.Hbonds>
donor molecule, donor type, donor heavy atom, donor atom, acceptor molecule, acceptor atom, score
      P1  H  6896  6907       L1     7  1.00
      P1  H  6931  6943       L1    19  0.08
      P1  H  6934  6947       L1    19  0.02

> <Gold.Chemscore.Hbond.Weighted>
-6.5224

> <Gold.Chemscore.Metal.Weighted>
-0.0000

> <Gold.Chemscore.Lipo.Weighted>
-13.0495

> <Gold.Chemscore.Internal_Hbond.Weighted>
0.0000

> <Gold.Chemscore.DEClash.Weighted>
0.0048

> <Gold.Chemscore.DEInternal.Weighted>
0.7676

> <Gold.Chemscore.Rot.Weighted>
4.4861

> <Gold.Chemscore.Internal.Correction.Weighted>
   9.000000E+99

> <Gold.Protein.RotatedTorsions>
[ 6907 6896 6895 6894 ] final  -27.56 input  -60.11 | X-H torsion
[ 7974 7965 7964 7962 ] final  168.17 input  175.53 | X-H torsion
[ 8008 7997 7996 7995 ] final -106.08 input   59.86 | X-H torsion
[ 10167 10162 10161 10158 ] final   44.10 input  -65.29 | X-H torsion
[ 10718 10713 10712 10709 ] final -120.32 input   66.30 | X-H torsion
[ 10763 10752 10751 10750 ] final -179.83 input  -60.55 | X-H torsion
[ 11005 11000 10999 10996 ] final   78.58 input  -57.11 | X-H torsion

> <Gold.Protein.ActiveResidues>
 VAL166  LYS551  ARG553  GLY616  TRP617  ASP618  TYR619  PRO620  LYS621  CYS622 
 ASP623  PHE694  ASN695  SER759  ASP760  ASP761  ALA762  ILE779  LEU786  VAL792 
 PHE793  MET794  SER795  GLU796  ALA797  LYS798  CYS799  TRP800  GLU811  SER814 

> <Gold.Protein.RotatedAtoms>
  151.1452  135.0200  159.8643 H   0  0  0  0  0  0  0  0  0  0  0  0  # atno 6907 bound_to 6896
  152.5453  134.1452  159.8505 H   0  0  0  0  0  0  0  0  0  0  0  0  # atno 6908 bound_to 6896
  151.1532  133.4848  159.2628 H   0  0  0  0  0  0  0  0  0  0  0  0  # atno 6909 bound_to 6896
  144.7398  139.8868  143.6400 H   0  0  0  0  0  0  0  0  0  0  0  0  # atno 7974 bound_to 7965
  154.9092  140.0410  157.1937 H   0  0  0  0  0  0  0  0  0  0  0  0  # atno 8008 bound_to 7997
  154.8365  140.2907  155.5666 H   0  0  0  0  0  0  0  0  0  0  0  0  # atno 8009 bound_to 7997
  156.2990  140.2491  156.3300 H   0  0  0  0  0  0  0  0  0  0  0  0  # atno 8010 bound_to 7997
  140.3377  144.2509  150.6159 H   0  0  0  0  0  0  0  0  0  0  0  0  # atno 10167 bound_to 10162
  156.1249  130.6351  150.9526 H   0  0  0  0  0  0  0  0  0  0  0  0  # atno 10718 bound_to 10713
  154.5300  135.2799  155.1188 H   0  0  0  0  0  0  0  0  0  0  0  0  # atno 10763 bound_to 10752
  154.2712  135.6303  153.5314 H   0  0  0  0  0  0  0  0  0  0  0  0  # atno 10764 bound_to 10752
  152.9955  135.5629  154.5811 H   0  0  0  0  0  0  0  0  0  0  0  0  # atno 10765 bound_to 10752
  139.9207  134.7775  156.1668 H   0  0  0  0  0  0  0  0  0  0  0  0  # atno 11005 bound_to 11000
  146.1171  139.4184  143.0251 LP  0  0  0  0  0  0  0  0  0  0  0  0  # atno 17320 bound_to 7965
  145.7359  141.0026  143.1327 LP  0  0  0  0  0  0  0  0  0  0  0  0  # atno 17321 bound_to 7965
  140.5338  143.2237  151.8196 LP  0  0  0  0  0  0  0  0  0  0  0  0  # atno 17342 bound_to 10162
  139.4845  144.4687  151.9452 LP  0  0  0  0  0  0  0  0  0  0  0  0  # atno 17343 bound_to 10162
  157.6431  131.0907  150.8209 LP  0  0  0  0  0  0  0  0  0  0  0  0  # atno 17370 bound_to 10713
  156.8301  130.5013  149.5332 LP  0  0  0  0  0  0  0  0  0  0  0  0  # atno 17371 bound_to 10713
  141.0725  133.6790  156.2169 LP  0  0  0  0  0  0  0  0  0  0  0  0  # atno 17394 bound_to 11000
  140.6484  134.5093  157.5575 LP  0  0  0  0  0  0  0  0  0  0  0  0  # atno 17395 bound_to 11000

$$$$
