AV-unprocessed.smi:943|AV-procd|sdf|4230|dock7
  -GOLD-   22720 2133D 1   1.00000     0.00000
 Structure written by MMmdl.
 43 44  0  0  0  0  0  0  0  0  1 V2000
  150.2098  139.7165  156.5307 C   0  0  0  0  0  0  0  0  0  0  0  0
  149.6858  141.1535  156.3681 C   0  0  1  0  0  0  0  0  0  0  0  0
  150.8391  142.1768  156.5071 C   0  0  0  0  0  0  0  0  0  0  0  0
  151.2254  142.5897  157.9481 C   0  0  0  0  0  0  0  0  0  0  0  0
  151.9796  143.9358  157.9365 C   0  0  0  0  0  0  0  0  0  0  0  0
  152.3722  144.3868  159.3525 C   0  0  0  0  0  0  0  0  0  0  0  0
  153.2056  143.3125  160.0661 C   0  0  0  0  0  0  0  0  0  0  0  0
  152.4641  141.9681  160.0912 C   0  0  0  0  0  0  0  0  0  0  0  0
  152.0699  141.5190  158.6744 C   0  0  0  0  0  0  0  0  0  0  0  0
  148.9446  141.2943  155.0304 C   0  0  0  0  0  0  0  0  0  0  0  0
  149.5561  141.1907  153.9666 O   0  0  0  0  0  0  0  0  0  0  0  0
  147.6286  141.5402  155.0999 N   0  0  0  0  0  0  0  0  0  0  0  0
  146.7636  141.7246  153.9436 C   0  0  0  0  0  0  0  0  0  0  0  0
  146.3255  143.1905  153.8249 C   0  0  0  0  0  0  0  0  0  0  0  0
  145.3943  143.5954  154.9276 C   0  0  0  0  0  0  0  0  0  0  0  0
  144.1339  144.1252  154.7875 C   0  0  0  0  0  0  0  0  0  0  0  0
  143.3850  144.4512  156.3280 S   0  0  0  0  0  0  0  0  0  0  0  0
  144.8362  143.8446  157.1076 C   0  0  0  0  0  0  0  0  0  0  0  0
  145.7847  143.4399  156.2623 N   0  0  0  0  0  0  0  0  0  0  0  0
  149.4056  138.9863  156.4322 H   0  0  0  0  0  0  0  0  0  0  0  0
  150.6587  139.5747  157.5142 H   0  0  0  0  0  0  0  0  0  0  0  0
  150.9694  139.4782  155.7850 H   0  0  0  0  0  0  0  0  0  0  0  0
  148.9731  141.3227  157.1758 H   0  0  0  0  0  0  0  0  0  0  0  0
  151.7235  141.7737  156.0118 H   0  0  0  0  0  0  0  0  0  0  0  0
  150.5769  143.0750  155.9454 H   0  0  0  0  0  0  0  0  0  0  0  0
  150.3108  142.7423  158.5224 H   0  0  0  0  0  0  0  0  0  0  0  0
  152.8769  143.8505  157.3221 H   0  0  0  0  0  0  0  0  0  0  0  0
  151.3619  144.7050  157.4717 H   0  0  0  0  0  0  0  0  0  0  0  0
  152.9337  145.3201  159.3023 H   0  0  0  0  0  0  0  0  0  0  0  0
  151.4726  144.5977  159.9319 H   0  0  0  0  0  0  0  0  0  0  0  0
  154.1630  143.1933  159.5571 H   0  0  0  0  0  0  0  0  0  0  0  0
  153.4327  143.6323  161.0835 H   0  0  0  0  0  0  0  0  0  0  0  0
  153.0886  141.2083  160.5620 H   0  0  0  0  0  0  0  0  0  0  0  0
  151.5688  142.0567  160.7078 H   0  0  0  0  0  0  0  0  0  0  0  0
  151.5171  140.5828  158.7484 H   0  0  0  0  0  0  0  0  0  0  0  0
  152.9693  141.3029  158.0962 H   0  0  0  0  0  0  0  0  0  0  0  0
  147.2017  141.6101  156.0122 H   0  0  0  0  0  0  0  0  0  0  0  0
  147.2968  141.4201  153.0415 H   0  0  0  0  0  0  0  0  0  0  0  0
  145.8905  141.0769  154.0387 H   0  0  0  0  0  0  0  0  0  0  0  0
  147.2057  143.8349  153.8292 H   0  0  0  0  0  0  0  0  0  0  0  0
  145.8450  143.3479  152.8582 H   0  0  0  0  0  0  0  0  0  0  0  0
  143.6013  144.3410  153.8730 H   0  0  0  0  0  0  0  0  0  0  0  0
  144.9882  143.7871  158.1753 H   0  0  0  0  0  0  0  0  0  0  0  0
  1  2  1  0  0  0  0
  1 20  1  0  0  0  0
  1 21  1  0  0  0  0
  1 22  1  0  0  0  0
  2  3  1  0  0  0  0
  2 10  1  0  0  0  0
  2 23  1  0  0  0  0
  3  4  1  0  0  0  0
  3 24  1  0  0  0  0
  3 25  1  0  0  0  0
  4  9  1  0  0  0  0
  4  5  1  0  0  0  0
  4 26  1  0  0  0  0
  5  6  1  0  0  0  0
  5 27  1  0  0  0  0
  5 28  1  0  0  0  0
  6  7  1  0  0  0  0
  6 29  1  0  0  0  0
  6 30  1  0  0  0  0
  7  8  1  0  0  0  0
  7 31  1  0  0  0  0
  7 32  1  0  0  0  0
  8  9  1  0  0  0  0
  8 33  1  0  0  0  0
  8 34  1  0  0  0  0
  9 35  1  0  0  0  0
  9 36  1  0  0  0  0
 10 11  2  0  0  0  0
 10 12  1  0  0  0  0
 12 13  1  0  0  0  0
 12 37  1  0  0  0  0
 13 14  1  0  0  0  0
 13 38  1  0  0  0  0
 13 39  1  0  0  0  0
 14 15  1  0  0  0  0
 14 40  1  0  0  0  0
 14 41  1  0  0  0  0
 15 19  1  0  0  0  0
 15 16  2  0  0  0  0
 16 17  1  0  0  0  0
 16 42  1  0  0  0  0
 17 18  1  0  0  0  0
 18 19  2  0  0  0  0
 18 43  1  0  0  0  0
M  END
> <s_m_source_file>
AV-unprocessed.smi

> <i_m_source_file_index>
943

> <i_lp_mmshare_version>
43012

> <i_f3d_flags>
0

> <s_epik_input>
W0NIMl0xW0NIMl1bQ0gyXVtDSDJdW0NIMl1bQ0hdMVtDSDJdW0NAQEhdKFtDSDNdKUMoPU8pW05IXVtDSDJdW0NIMl1jMltjSF1zW2NIXW4y

> <s_epik_cmdline>
J2VwaWtfcHl0aG9uJywgJy1waCcsICc3LjAnLCAnLXRuJywgJzgnLCAnLW1hJywgJzIwMCcsICctbWV0YWxfYmluZGluZycsICctaW1hZScsICc8aW5maWxlLm1hZT4nLCAnLW9tYWUnLCAnPG91dGZpbGUubWFlPic=

> <r_lp_tautomer_probability>
1

> <r_epik_Ionization_Penalty>
0.000194757

> <r_epik_Ionization_Penalty_Charging>
0

> <r_epik_Ionization_Penalty_Neutral>
0.000194757

> <r_epik_State_Penalty>
-0

> <r_epik_Charging_Adjusted_Penalty>
0

> <i_epik_Tot_Q>
0

> <i_epik_Tot_abs_Q>
0

> <r_epik_Metal_State_Penalty>
-0

> <b_epik_Metal_Only>
0

> <s_lp_Force_Field>
OPLS_2005

> <r_lp_Energy>
6.44142

> <b_lp_Chiralities_Consistent>
1

> <s_lp_Variant>
AV-unprocessed.smi:943-2

> <Gold.Version>
5.8.1

> <Gold.Id.Protein>
6NUR|6NUR_protein|mol2

> <Gold.PLP.Fitness>
45.8939

> <Gold.PLP.PLP>
-40.9202

> <Gold.PLP.part.hbond>
-2.0000

> <Gold.PLP.part.metal>
0.0000

> <Gold.PLP.part.buried>
-4.3660

> <Gold.PLP.part.nonpolar>
-35.4580

> <Gold.PLP.part.repulsive>
0.9605

> <Gold.PLP.ligand.clash>
0.0000

> <Gold.PLP.ligand.torsion>
0.5835

> <Gold.PLP.Chemscore.Hbond>
1.0496

> <Gold.PLP.Chemscore.CHOScore>
0.9581

> <Gold.PLP.Chemscore.Metal>
0.0000

> <Gold.Chemscore.Hbonds>
donor molecule, donor type, donor heavy atom, donor atom, acceptor molecule, acceptor atom, score
      P1  H  7989  7998       L1    11  0.26
      P1  H  8011  8017       L1    11  0.77
      L1  C    16    42       P1 10174  0.53

> <Gold.PLP.Chemscore.Internal.Correction>
0.1175

> <Gold.Rescore>
     Score         DG    S(hbond)    S(metal)    S(lipo)     H(rot)  DE(clash)    DE(int)     intcor
     15.91     -18.12       1.03        0.00     113.09       1.58       0.59       1.63       ----

> <Gold.Chemscore.Fitness>
15.9079

> <Gold.Chemscore.DG>
-18.1237

> <Gold.Chemscore.ZeroCoef>
-5.4800

> <Gold.Chemscore.Hbond>
1.0340

> <Gold.Chemscore.Metal>
0.0000

> <Gold.Chemscore.Lipo>
113.0945

> <Gold.Chemscore.Internal_Hbond>
0.0000

> <Gold.Chemscore.DEClash>
0.5904

> <Gold.Chemscore.DEInternal>
1.6255

> <Gold.Chemscore.Rot>
1.5789

> <Gold.Chemscore.Internal.Correction>
   9.000000E+99

> <Gold.Chemscore.Hbonds>
donor molecule, donor type, donor heavy atom, donor atom, acceptor molecule, acceptor atom, score
      P1  H  7989  7998       L1    11  0.26
      P1  H  8011  8017       L1    11  0.73

> <Gold.Chemscore.Hbond.Weighted>
-3.4535

> <Gold.Chemscore.Metal.Weighted>
-0.0000

> <Gold.Chemscore.Lipo.Weighted>
-13.2321

> <Gold.Chemscore.Internal_Hbond.Weighted>
0.0000

> <Gold.Chemscore.DEClash.Weighted>
0.5904

> <Gold.Chemscore.DEInternal.Weighted>
1.6255

> <Gold.Chemscore.Rot.Weighted>
4.0419

> <Gold.Chemscore.Internal.Correction.Weighted>
   9.000000E+99

> <Gold.Protein.RotatedTorsions>
[ 6907 6896 6895 6894 ] final    0.62 input  -60.11 | X-H torsion
[ 7974 7965 7964 7962 ] final   -3.49 input  175.53 | X-H torsion
[ 8008 7997 7996 7995 ] final  142.91 input   59.86 | X-H torsion
[ 10167 10162 10161 10158 ] final  168.35 input  -65.29 | X-H torsion
[ 10718 10713 10712 10709 ] final  152.06 input   66.30 | X-H torsion
[ 10763 10752 10751 10750 ] final   88.72 input  -60.55 | X-H torsion
[ 11005 11000 10999 10996 ] final -153.25 input  -57.11 | X-H torsion

> <Gold.Protein.ActiveResidues>
 VAL166  LYS551  ARG553  GLY616  TRP617  ASP618  TYR619  PRO620  LYS621  CYS622 
 ASP623  PHE694  ASN695  SER759  ASP760  ASP761  ALA762  ILE779  LEU786  VAL792 
 PHE793  MET794  SER795  GLU796  ALA797  LYS798  CYS799  TRP800  GLU811  SER814 

> <Gold.Protein.RotatedAtoms>
  151.5793  135.1059  160.0013 H   0  0  0  0  0  0  0  0  0  0  0  0  # atno 6907 bound_to 6896
  152.4362  133.7361  159.6625 H   0  0  0  0  0  0  0  0  0  0  0  0  # atno 6908 bound_to 6896
  150.8260  133.8101  159.3141 H   0  0  0  0  0  0  0  0  0  0  0  0  # atno 6909 bound_to 6896
  146.2388  140.1729  142.8332 H   0  0  0  0  0  0  0  0  0  0  0  0  # atno 7974 bound_to 7965
  156.2940  140.2276  156.4805 H   0  0  0  0  0  0  0  0  0  0  0  0  # atno 8008 bound_to 7997
  154.7857  140.0457  157.1183 H   0  0  0  0  0  0  0  0  0  0  0  0  # atno 8009 bound_to 7997
  154.9705  140.3066  155.4993 H   0  0  0  0  0  0  0  0  0  0  0  0  # atno 8010 bound_to 7997
  139.4966  144.3824  151.9607 H   0  0  0  0  0  0  0  0  0  0  0  0  # atno 10167 bound_to 10162
  157.2627  131.0801  151.1654 H   0  0  0  0  0  0  0  0  0  0  0  0  # atno 10718 bound_to 10713
  153.1797  135.4497  155.0011 H   0  0  0  0  0  0  0  0  0  0  0  0  # atno 10763 bound_to 10752
  154.8022  135.3260  154.7525 H   0  0  0  0  0  0  0  0  0  0  0  0  # atno 10764 bound_to 10752
  153.7991  135.6964  153.4913 H   0  0  0  0  0  0  0  0  0  0  0  0  # atno 10765 bound_to 10752
  140.7102  134.3841  157.5198 H   0  0  0  0  0  0  0  0  0  0  0  0  # atno 11005 bound_to 11000
  144.9997  140.8621  143.5289 LP  0  0  0  0  0  0  0  0  0  0  0  0  # atno 17320 bound_to 7965
  145.1746  139.2385  143.5324 LP  0  0  0  0  0  0  0  0  0  0  0  0  # atno 17321 bound_to 7965
  140.3261  144.3371  150.5998 LP  0  0  0  0  0  0  0  0  0  0  0  0  # atno 17342 bound_to 10162
  140.5683  143.2183  151.7644 LP  0  0  0  0  0  0  0  0  0  0  0  0  # atno 17343 bound_to 10162
  157.3158  130.6912  149.6241 LP  0  0  0  0  0  0  0  0  0  0  0  0  # atno 17370 bound_to 10713
  155.9664  130.4350  150.5073 LP  0  0  0  0  0  0  0  0  0  0  0  0  # atno 17371 bound_to 10713
  139.8873  134.8885  156.2533 LP  0  0  0  0  0  0  0  0  0  0  0  0  # atno 17394 bound_to 11000
  141.0091  133.7106  156.1082 LP  0  0  0  0  0  0  0  0  0  0  0  0  # atno 17395 bound_to 11000

$$$$
