#       Name:                AV-unprocessed.smi:2519
#       Creating user name   scv26
#       Creation time:       Fri Mar 27 13:54:21 2020


#       File generated by GOLD software.
#

@<TRIPOS>MOLECULE
AV-unprocessed.smi:2519
    48    49     1
SMALL
NO_CHARGES


@<TRIPOS>ATOM
      1 ****        -4.5706   4.9955  -1.0279 C.3            1 S1                 0.0000
      2 ****        -4.0298   3.6574  -0.8479 N.am           1 S1                 0.0000
      3 ****        -4.7693   2.5370  -0.8042 C.2            1 S1                 0.0000
      4 ****        -5.9968   2.5391  -0.9094 O.2            1 S1                 0.0000
      5 ****        -4.0100   1.2528  -0.5931 C.ar           1 S1                 0.0000
      6 ****        -4.7082   0.0505  -0.3425 C.ar           1 S1                 0.0000
      7 ****        -3.9720  -1.1328  -0.1561 C.ar           1 S1                 0.0000
      8 ****        -2.5677  -1.0786  -0.2252 C.ar           1 S1                 0.0000
      9 ****        -1.9359   0.1576  -0.4787 C.ar           1 S1                 0.0000
     10 ****        -0.5179   0.1131  -0.5232 N.am           1 S1                 0.0000
     11 ****         0.3460   1.1326  -0.7024 C.2            1 S1                 0.0000
     12 ****         0.0188   2.3009  -0.9045 O.2            1 S1                 0.0000
     13 ****         1.6425   0.7757  -0.6409 N.am           1 S1                 0.0000
     14 ****         2.8294   1.6210  -0.7898 C.3            1 S1                 0.0000
     15 ****         4.0353   0.9252  -0.1334 C.3            1 S1                 0.0000
     16 ****         5.3199   1.7482  -0.3094 C.3            1 S1                 0.0000
     17 ****         5.5964   2.0387  -1.7929 C.3            1 S1                 0.0000
     18 ****         4.4017   2.7468  -2.4657 C.3            1 S1                 0.0000
     19 ****         4.6741   3.0608  -3.9511 C.3            1 S1                 0.0000
     20 ****         4.8648   1.9391  -4.6462 F              1 S1                 0.0000
     21 ****         3.6414   3.7220  -4.4742 F              1 S1                 0.0000
     22 ****         5.7583   3.8280  -4.0641 F              1 S1                 0.0000
     23 ****         3.1176   1.9107  -2.2790 C.3            1 S1                 0.0000
     24 ****        -2.6569   1.2906  -0.6593 N.ar           1 S1                 0.0000
     25 ****        -3.7595   5.7233  -1.0562 H              1 S1                 0.0000
     26 ****        -5.2368   5.2582  -0.2052 H              1 S1                 0.0000
     27 ****        -5.1261   5.0673  -1.9639 H              1 S1                 0.0000
     28 ****        -3.0280   3.5673  -0.7507 H              1 S1                 0.0000
     29 ****        -5.7872   0.0268  -0.2918 H              1 S1                 0.0000
     30 ****        -4.4762  -2.0681   0.0374 H              1 S1                 0.0000
     31 ****        -1.9863  -1.9780  -0.0822 H              1 S1                 0.0000
     32 ****        -0.1080  -0.7969  -0.3743 H              1 S1                 0.0000
     33 ****         1.8259  -0.2015  -0.4637 H              1 S1                 0.0000
     34 ****         2.6668   2.5649  -0.2662 H              1 S1                 0.0000
     35 ****         3.8441   0.7667   0.9288 H              1 S1                 0.0000
     36 ****         4.1778  -0.0635  -0.5725 H              1 S1                 0.0000
     37 ****         5.2310   2.6875   0.2379 H              1 S1                 0.0000
     38 ****         6.1644   1.2151   0.1283 H              1 S1                 0.0000
     39 ****         6.4942   2.6510  -1.8798 H              1 S1                 0.0000
     40 ****         5.8112   1.1033  -2.3113 H              1 S1                 0.0000
     41 ****         4.2523   3.6997  -1.9552 H              1 S1                 0.0000
     42 ****         3.2125   0.9698  -2.8227 H              1 S1                 0.0000
     43 ****         2.2735   2.4363  -2.7261 H              1 S1                 0.0000
     44 ****        -6.4865   3.4021  -1.0337 LP             1 S1                 0.0000
     45 ****        -6.5034   1.6779  -0.8705 LP             1 S1                 0.0000
     46 ****        -0.9490   2.5492  -0.9452 LP             1 S1                 0.0000
     47 ****         0.7206   3.0025  -1.0281 LP             1 S1                 0.0000
     48 ****        -2.1899   2.1559  -0.8417 LP             1 S1                 0.0000
@<TRIPOS>BOND
    1    1    2 1     
    2    1   25 1     
    3    1   26 1     
    4    1   27 1     
    5    2    3 am    
    6    2   28 1     
    7    3    4 2     
    8    3    5 1     
    9    5   24 ar    
   10    5    6 ar    
   11    6    7 ar    
   12    6   29 1     
   13    7    8 ar    
   14    7   30 1     
   15    8    9 ar    
   16    8   31 1     
   17    9   10 1     
   18    9   24 ar    
   19   10   11 am    
   20   10   32 1     
   21   11   12 2     
   22   11   13 am    
   23   13   14 1     
   24   13   33 1     
   25   14   23 1     
   26   14   15 1     
   27   14   34 1     
   28   15   16 1     
   29   15   35 1     
   30   15   36 1     
   31   16   17 1     
   32   16   37 1     
   33   16   38 1     
   34   17   18 1     
   35   17   39 1     
   36   17   40 1     
   37   18   19 1     
   38   18   23 1     
   39   18   41 1     
   40   19   20 1     
   41   19   21 1     
   42   19   22 1     
   43   23   42 1     
   44   23   43 1     
   45    4   44 1     
   46    4   45 1     
   47   12   46 1     
   48   12   47 1     
   49   24   48 1     
@<TRIPOS>SUBSTRUCTURE
      1 S1             1
@<TRIPOS>SET
LONE_PAIRS      STATIC     ATOMS    <user>   **** ""
5 44 45 46 47 48
DONOR_HYDROGENS      STATIC     ATOMS    <user>   **** ""
3 28 32 33
ATOM$BLUE        STATIC     ATOMS    COLORGROUP SYSTEM
5 44 45 46 47 48
ATOM$RED        STATIC     ATOMS    COLORGROUP SYSTEM
3 28 32 33
