AV-unprocessed.smi:384|AV-procd|sdf|2470|dock5
  -GOLD-   2262022413D 1   1.00000     0.00000
 Structure written by MMmdl.
 33 34  0  0  0  0  0  0  0  0  3 V2000
  146.3226  131.5508  149.7501 C   0  0  0  0  0  0  0  0  0  0  0  0
  145.5772  131.8460  151.0636 C   0  0  1  0  0  0  0  0  0  0  0  0
  146.5001  131.9058  152.2971 C   0  0  0  0  0  0  0  0  0  0  0  0
  147.2672  133.1443  152.3083 N   0  0  0  0  0  0  0  0  0  0  0  0
  148.1984  133.2005  153.3528 C   0  0  0  0  0  0  0  0  0  0  0  0
  148.5087  132.0976  154.1809 C   0  0  0  0  0  0  0  0  0  0  0  0
  149.4599  132.2522  155.2101 C   0  0  0  0  0  0  0  0  0  0  0  0
  150.0896  133.5046  155.3995 C   0  0  0  0  0  0  0  0  0  0  0  0
  151.1048  133.7018  156.4890 C   0  0  0  0  0  0  0  0  0  0  0  0
  151.2715  132.7879  157.3267 O   0  0  0  0  0  0  0  0  0  0  0  0
  151.7504  134.7727  156.5226 O   0  5  0  0  0  0  0  0  0  0  0  0
  149.7390  134.5683  154.5371 C   0  0  0  0  0  0  0  0  0  0  0  0
  148.8224  134.3798  153.5622 N   0  3  0  0  0  0  0  0  0  0  0  0
  146.4185  134.3245  152.2278 C   0  0  0  0  0  0  0  0  0  0  0  0
  145.5410  134.2540  150.9661 C   0  0  2  0  0  0  0  0  0  0  0  0
  144.5521  135.4218  150.8894 C   0  0  0  0  0  0  0  0  0  0  0  0
  144.7915  133.0384  150.9806 O   0  0  0  0  0  0  0  0  0  0  0  0
  146.8127  130.5778  149.7942 H   0  0  0  0  0  0  0  0  0  0  0  0
  147.0927  132.2906  149.5340 H   0  0  0  0  0  0  0  0  0  0  0  0
  145.6308  131.5321  148.9077 H   0  0  0  0  0  0  0  0  0  0  0  0
  144.8729  131.0277  151.2161 H   0  0  0  0  0  0  0  0  0  0  0  0
  145.8961  131.8507  153.2040 H   0  0  0  0  0  0  0  0  0  0  0  0
  147.1723  131.0467  152.3108 H   0  0  0  0  0  0  0  0  0  0  0  0
  148.0276  131.1415  154.0349 H   0  0  0  0  0  0  0  0  0  0  0  0
  149.6973  131.4106  155.8444 H   0  0  0  0  0  0  0  0  0  0  0  0
  150.1597  135.5620  154.5957 H   0  0  0  0  0  0  0  0  0  0  0  0
  145.7886  134.3878  153.1162 H   0  0  0  0  0  0  0  0  0  0  0  0
  147.0374  135.2227  152.2054 H   0  0  0  0  0  0  0  0  0  0  0  0
  146.1724  134.2872  150.0779 H   0  0  0  0  0  0  0  0  0  0  0  0
  145.0748  136.3784  150.8696 H   0  0  0  0  0  0  0  0  0  0  0  0
  143.8772  135.4262  151.7458 H   0  0  0  0  0  0  0  0  0  0  0  0
  143.9438  135.3576  149.9869 H   0  0  0  0  0  0  0  0  0  0  0  0
  148.5902  135.1680  152.9577 H   0  0  0  0  0  0  0  0  0  0  0  0
  1  2  1  0  0  0  0
  1 18  1  0  0  0  0
  1 19  1  0  0  0  0
  1 20  1  0  0  0  0
  2 17  1  0  0  0  0
  2  3  1  0  0  0  0
  2 21  1  0  0  0  0
  3  4  1  0  0  0  0
  3 22  1  0  0  0  0
  3 23  1  0  0  0  0
  4  5  1  0  0  0  0
  4 14  1  0  0  0  0
  5 13  1  0  0  0  0
  5  6  2  0  0  0  0
  6  7  1  0  0  0  0
  6 24  1  0  0  0  0
  7  8  2  0  0  0  0
  7 25  1  0  0  0  0
  8  9  1  0  0  0  0
  8 12  1  0  0  0  0
  9 10  2  0  0  0  0
  9 11  1  0  0  0  0
 12 13  2  0  0  0  0
 12 26  1  0  0  0  0
 13 33  1  0  0  0  0
 14 15  1  0  0  0  0
 14 27  1  0  0  0  0
 14 28  1  0  0  0  0
 15 16  1  0  0  0  0
 15 17  1  0  0  0  0
 15 29  1  0  0  0  0
 16 30  1  0  0  0  0
 16 31  1  0  0  0  0
 16 32  1  0  0  0  0
M  CHG  1  11  -1
M  CHG  1  13   1
M  END
> <s_m_source_file>
AV-unprocessed.smi

> <i_m_source_file_index>
384

> <i_lp_mmshare_version>
43012

> <i_f3d_flags>
0

> <s_epik_input>
W0NIM11bQ0BASF0xW0NIMl1OKFtDSDJdW0NASF0oTzEpW0NIM10pYzJbY0hdW2NIXWMoW2NIXW4yKUMoPU8pW09IXQ==

> <s_epik_cmdline>
J2VwaWtfcHl0aG9uJywgJy1waCcsICc3LjAnLCAnLXRuJywgJzgnLCAnLW1hJywgJzIwMCcsICctbWV0YWxfYmluZGluZycsICctaW1hZScsICc8aW5maWxlLm1hZT4nLCAnLW9tYWUnLCAnPG91dGZpbGUubWFlPic=

> <r_epik_Ionization_Penalty>
2.35185

> <r_epik_Ionization_Penalty_Charging>
2.35185

> <r_epik_Ionization_Penalty_Neutral>
3.18713e-12

> <r_epik_State_Penalty>
2.50619

> <r_epik_Charging_Adjusted_Penalty>
4.85804

> <i_epik_Tot_Q>
0

> <i_epik_Tot_abs_Q>
2

> <r_epik_Metal_State_Penalty>
6.59026

> <b_epik_Metal_Only>
0

> <s_lp_Force_Field>
OPLS_2005

> <r_lp_Energy>
19.8992

> <b_lp_Chiralities_Consistent>
1

> <s_lp_Variant>
AV-unprocessed.smi:384-6

> <Gold.Version>
5.8.1

> <Gold.Id.Protein>
6NUR|6NUR_protein|mol2

> <Gold.PLP.Fitness>
43.6589

> <Gold.PLP.PLP>
-26.7795

> <Gold.PLP.part.hbond>
-2.9147

> <Gold.PLP.part.metal>
0.0000

> <Gold.PLP.part.buried>
3.0054

> <Gold.PLP.part.nonpolar>
-25.8805

> <Gold.PLP.part.repulsive>
0.2894

> <Gold.PLP.ligand.clash>
0.0010

> <Gold.PLP.ligand.torsion>
0.3641

> <Gold.PLP.Chemscore.Hbond>
5.8400

> <Gold.PLP.Chemscore.CHOScore>
0.0000

> <Gold.PLP.Chemscore.Metal>
0.0000

> <Gold.Chemscore.Hbonds>
donor molecule, donor type, donor heavy atom, donor atom, acceptor molecule, acceptor atom, score
      L1  H    13    33       P1  7948  2.00
      P1  H  6896  6908       L1    10  1.98
      P1  H 10752 10765       L1    11  1.45

> <Gold.PLP.Chemscore.Internal.Correction>
0.0886

> <Gold.Rescore>
     Score         DG    S(hbond)    S(metal)    S(lipo)     H(rot)  DE(clash)    DE(int)     intcor
     15.98     -18.06       2.32        0.00      63.21       1.00       1.61       0.47       ----

> <Gold.Chemscore.Fitness>
15.9784

> <Gold.Chemscore.DG>
-18.0637

> <Gold.Chemscore.ZeroCoef>
-5.4800

> <Gold.Chemscore.Hbond>
2.3196

> <Gold.Chemscore.Metal>
0.0000

> <Gold.Chemscore.Lipo>
63.2147

> <Gold.Chemscore.Internal_Hbond>
0.0000

> <Gold.Chemscore.DEClash>
1.6114

> <Gold.Chemscore.DEInternal>
0.4738

> <Gold.Chemscore.Rot>
1.0000

> <Gold.Chemscore.Internal.Correction>
   9.000000E+99

> <Gold.Chemscore.Hbonds>
donor molecule, donor type, donor heavy atom, donor atom, acceptor molecule, acceptor atom, score
      L1  H    13    33       P1  7948  0.62
      P1  H  6896  6908       L1    10  0.86
      P1  H 10752 10765       L1    11  0.69

> <Gold.Chemscore.Hbond.Weighted>
-7.7475

> <Gold.Chemscore.Metal.Weighted>
-0.0000

> <Gold.Chemscore.Lipo.Weighted>
-7.3961

> <Gold.Chemscore.Internal_Hbond.Weighted>
0.0000

> <Gold.Chemscore.DEClash.Weighted>
1.6114

> <Gold.Chemscore.DEInternal.Weighted>
0.4738

> <Gold.Chemscore.Rot.Weighted>
2.5600

> <Gold.Chemscore.Internal.Correction.Weighted>
   9.000000E+99

> <Gold.Protein.RotatedTorsions>
[ 6907 6896 6895 6894 ] final   74.30 input  -60.11 | X-H torsion
[ 7974 7965 7964 7962 ] final  103.00 input  175.53 | X-H torsion
[ 8008 7997 7996 7995 ] final  -89.50 input   59.86 | X-H torsion
[ 10167 10162 10161 10158 ] final  -41.72 input  -65.29 | X-H torsion
[ 10718 10713 10712 10709 ] final  142.88 input   66.30 | X-H torsion
[ 10763 10752 10751 10750 ] final -141.53 input  -60.55 | X-H torsion
[ 11005 11000 10999 10996 ] final -115.23 input  -57.11 | X-H torsion

> <Gold.Protein.ActiveResidues>
 VAL166  LYS551  ARG553  GLY616  TRP617  ASP618  TYR619  PRO620  LYS621  CYS622 
 ASP623  PHE694  ASN695  SER759  ASP760  ASP761  ALA762  ILE779  LEU786  VAL792 
 PHE793  MET794  SER795  GLU796  ALA797  LYS798  CYS799  TRP800  GLU811  SER814 

> <Gold.Protein.RotatedAtoms>
  152.4969  134.4291  159.9506 H   0  0  0  0  0  0  0  0  0  0  0  0  # atno 6907 bound_to 6896
  151.4269  133.3675  159.2771 H   0  0  0  0  0  0  0  0  0  0  0  0  # atno 6908 bound_to 6896
  150.9183  134.8623  159.7531 H   0  0  0  0  0  0  0  0  0  0  0  0  # atno 6909 bound_to 6896
  145.3516  139.2438  143.3555 H   0  0  0  0  0  0  0  0  0  0  0  0  # atno 7974 bound_to 7965
  154.6873  140.0541  157.0328 H   0  0  0  0  0  0  0  0  0  0  0  0  # atno 8008 bound_to 7997
  155.0866  140.3215  155.4567 H   0  0  0  0  0  0  0  0  0  0  0  0  # atno 8009 bound_to 7997
  156.2716  140.2055  156.5994 H   0  0  0  0  0  0  0  0  0  0  0  0  # atno 8010 bound_to 7997
  140.6993  143.3078  151.3107 H   0  0  0  0  0  0  0  0  0  0  0  0  # atno 10167 bound_to 10162
  157.3754  131.0985  151.0789 H   0  0  0  0  0  0  0  0  0  0  0  0  # atno 10718 bound_to 10713
  154.8542  135.3522  154.5883 H   0  0  0  0  0  0  0  0  0  0  0  0  # atno 10763 bound_to 10752
  153.6493  135.6995  153.5219 H   0  0  0  0  0  0  0  0  0  0  0  0  # atno 10764 bound_to 10752
  153.2907  135.4235  155.1122 H   0  0  0  0  0  0  0  0  0  0  0  0  # atno 10765 bound_to 10752
  141.0501  133.9700  157.2850 H   0  0  0  0  0  0  0  0  0  0  0  0  # atno 11005 bound_to 11000
  146.2965  140.4134  142.8720 LP  0  0  0  0  0  0  0  0  0  0  0  0  # atno 17320 bound_to 7965
  144.8713  140.7276  143.6045 LP  0  0  0  0  0  0  0  0  0  0  0  0  # atno 17321 bound_to 7965
  139.6490  144.0397  152.2612 LP  0  0  0  0  0  0  0  0  0  0  0  0  # atno 17342 bound_to 10162
  139.9927  144.6350  150.7800 LP  0  0  0  0  0  0  0  0  0  0  0  0  # atno 17343 bound_to 10162
  157.1877  130.6338  149.5693 LP  0  0  0  0  0  0  0  0  0  0  0  0  # atno 17370 bound_to 10713
  155.9764  130.4732  150.6526 LP  0  0  0  0  0  0  0  0  0  0  0  0  # atno 17371 bound_to 10713
  139.9343  135.0197  156.8506 LP  0  0  0  0  0  0  0  0  0  0  0  0  # atno 17394 bound_to 11000
  140.6071  134.0117  155.7561 LP  0  0  0  0  0  0  0  0  0  0  0  0  # atno 17395 bound_to 11000

$$$$
