#       Name:                AV-unprocessed.smi:3343
#       Creating user name   scv26
#       Creation time:       Fri Mar 27 19:30:20 2020


#       File generated by GOLD software.
#

@<TRIPOS>MOLECULE
AV-unprocessed.smi:3343
    47    48     1
SMALL
NO_CHARGES


@<TRIPOS>ATOM
      1 ****        -3.0683   0.6391   1.1810 C.3            1 S1                 0.0000
      2 ****        -2.2680  -0.5359   1.7790 C.3            1 S1                 0.0000
      3 ****        -0.7552  -0.3825   1.5613 C.2            1 S1                 0.0000
      4 ****        -0.2307   0.7314   1.5837 O.2            1 S1                 0.0000
      5 ****        -0.0672  -1.5161   1.3504 N.am           1 S1                 0.0000
      6 ****         1.3667  -1.5999   1.0928 C.3            1 S1                 0.0000
      7 ****         1.6672  -1.6827  -0.4167 C.3            1 S1                 0.0000
      8 ****         1.3251  -0.4923  -1.1950 N.3            1 S1                 0.0000
      9 ****         2.1858   0.6529  -0.8830 C.3            1 S1                 0.0000
     10 ****         1.7934   1.8932  -1.7072 C.3            1 S1                 0.0000
     11 ****         1.8721   1.6273  -3.1422 N.3            1 S1                 0.0000
     12 ****         1.5052   2.7985  -3.9231 C.3            1 S1                 0.0000
     13 ****         1.0209   0.4824  -3.4588 C.3            1 S1                 0.0000
     14 ****         1.4147  -0.7556  -2.6315 C.3            1 S1                 0.0000
     15 ****        -2.5539  -0.7409   3.1938 N.pl3          1 S1                 0.0000
     16 ****        -2.7071  -1.8752   3.8807 C.2            1 S1                 0.0000
     17 ****        -2.9138  -1.6970   5.1778 N.2            1 S1                 0.0000
     18 ****        -2.8593  -0.3332   5.2316 C.2            1 S1                 0.0000
     19 ****        -2.6352   0.2882   4.0742 N.2            1 S1                 0.0000
     20 ****        -2.8761   0.7397   0.1122 H              1 S1                 0.0000
     21 ****        -2.8171   1.5909   1.6510 H              1 S1                 0.0000
     22 ****        -4.1400   0.4821   1.3064 H              1 S1                 0.0000
     23 ****        -2.5876  -1.4390   1.2558 H              1 S1                 0.0000
     24 ****        -0.5793  -2.3861   1.3479 H              1 S1                 0.0000
     25 ****         1.9083  -0.7835   1.5717 H              1 S1                 0.0000
     26 ****         1.7263  -2.5101   1.5728 H              1 S1                 0.0000
     27 ****         2.7236  -1.9155  -0.5577 H              1 S1                 0.0000
     28 ****         1.1215  -2.5385  -0.8164 H              1 S1                 0.0000
     29 ****         2.1152   0.9054   0.1741 H              1 S1                 0.0000
     30 ****         3.2300   0.4002  -1.0739 H              1 S1                 0.0000
     31 ****         0.7825   2.2044  -1.4383 H              1 S1                 0.0000
     32 ****         2.4540   2.7217  -1.4493 H              1 S1                 0.0000
     33 ****         1.5909   2.5932  -4.9906 H              1 S1                 0.0000
     34 ****         2.1627   3.6372  -3.6923 H              1 S1                 0.0000
     35 ****         0.4785   3.1041  -3.7172 H              1 S1                 0.0000
     36 ****        -0.0251   0.7300  -3.2700 H              1 S1                 0.0000
     37 ****         1.0996   0.2473  -4.5208 H              1 S1                 0.0000
     38 ****         2.4280  -1.0650  -2.8934 H              1 S1                 0.0000
     39 ****         0.7573  -1.5846  -2.8961 H              1 S1                 0.0000
     40 ****        -2.6632  -2.8526   3.4227 H              1 S1                 0.0000
     41 ****        -2.9825   0.2181   6.1521 H              1 S1                 0.0000
     42 ****        -0.7903   1.5444   1.7445 LP             1 S1                 0.0000
     43 ****         0.7548   0.8229   1.4411 LP             1 S1                 0.0000
     44 ****         0.3845  -0.2656  -0.9424 LP             1 S1                 0.0000
     45 ****         2.8176   1.4106  -3.3852 LP             1 S1                 0.0000
     46 ****        -3.0655  -2.3662   5.9053 LP             1 S1                 0.0000
     47 ****        -2.5485   1.2688   3.8984 LP             1 S1                 0.0000
@<TRIPOS>BOND
    1    1    2 1     
    2    1   20 1     
    3    1   21 1     
    4    1   22 1     
    5    2    3 1     
    6    2   15 1     
    7    2   23 1     
    8    3    4 2     
    9    3    5 am    
   10    5    6 1     
   11    5   24 1     
   12    6    7 1     
   13    6   25 1     
   14    6   26 1     
   15    7    8 1     
   16    7   27 1     
   17    7   28 1     
   18    8   14 1     
   19    8    9 1     
   20    9   10 1     
   21    9   29 1     
   22    9   30 1     
   23   10   11 1     
   24   10   31 1     
   25   10   32 1     
   26   11   12 1     
   27   11   13 1     
   28   12   33 1     
   29   12   34 1     
   30   12   35 1     
   31   13   14 1     
   32   13   36 1     
   33   13   37 1     
   34   14   38 1     
   35   14   39 1     
   36   15   19 1     
   37   15   16 1     
   38   16   17 2     
   39   16   40 1     
   40   17   18 1     
   41   18   19 2     
   42   18   41 1     
   43    4   42 1     
   44    4   43 1     
   45    8   44 1     
   46   11   45 1     
   47   17   46 1     
   48   19   47 1     
@<TRIPOS>SUBSTRUCTURE
      1 S1             1
@<TRIPOS>SET
LONE_PAIRS      STATIC     ATOMS    <user>   **** ""
6 42 43 44 45 46 47
DONOR_HYDROGENS      STATIC     ATOMS    <user>   **** ""
1 24
ATOM$BLUE        STATIC     ATOMS    COLORGROUP SYSTEM
6 42 43 44 45 46 47
ATOM$RED        STATIC     ATOMS    COLORGROUP SYSTEM
1 24
