#       Name:                AV-unprocessed.smi:1232
#       Creating user name   scv26
#       Creation time:       Fri Mar 27 04:24:32 2020


#       File generated by GOLD software.
#

@<TRIPOS>MOLECULE
AV-unprocessed.smi:1232
    61    62     1
SMALL
NO_CHARGES


@<TRIPOS>ATOM
      1 ****        -3.9886  -2.9132   1.2560 C.3            1 S1                 0.0000
      2 ****        -2.9203  -3.3797   0.2732 C.2            1 S1                 0.0000
      3 ****        -2.3055  -4.4227   0.4885 O.2            1 S1                 0.0000
      4 ****        -2.7153  -2.5856  -0.7931 N.am           1 S1                 0.0000
      5 ****        -1.7915  -2.7772  -1.9203 C.3            1 S1                 0.0000
      6 ****        -0.3760  -2.2840  -1.5682 C.2            1 S1                 0.0000
      7 ****         0.1801  -2.6655  -0.5380 O.2            1 S1                 0.0000
      8 ****         0.2060  -1.4504  -2.4452 N.am           1 S1                 0.0000
      9 ****         1.5441  -0.8863  -2.3005 C.3            1 S1                 0.0000
     10 ****         1.6444   0.2498  -1.2919 C.ar           1 S1                 0.0000
     11 ****         0.5731   1.1346  -1.0484 C.ar           1 S1                 0.0000
     12 ****         0.7390   2.1666  -0.1054 C.ar           1 S1                 0.0000
     13 ****         1.9747   2.2916   0.5734 C.ar           1 S1                 0.0000
     14 ****         2.1635   3.3161   1.5272 N.3            1 S1                 0.0000
     15 ****         3.5176   3.5456   2.0278 C.3            1 S1                 0.0000
     16 ****         3.5813   4.8634   2.8171 C.3            1 S1                 0.0000
     17 ****         2.6042   4.8497   3.8523 O.3            1 S1                 0.0000
     18 ****         1.2798   4.7407   3.3382 C.3            1 S1                 0.0000
     19 ****         0.2996   4.8282   4.5129 C.3            1 S1                 0.0000
     20 ****         1.1406   3.4140   2.5660 C.3            1 S1                 0.0000
     21 ****         3.0064   1.4474   0.3248 N.ar           1 S1                 0.0000
     22 ****         2.8418   0.4592  -0.5796 C.ar           1 S1                 0.0000
     23 ****        -1.8656  -4.1898  -2.5809 C.3            1 S1                 0.0000
     24 ****        -0.9234  -4.3335  -3.7925 C.3            1 S1                 0.0000
     25 ****        -3.2998  -4.5561  -3.0101 C.3            1 S1                 0.0000
     26 ****        -3.8701  -1.8527   1.4808 H              1 S1                 0.0000
     27 ****        -3.9219  -3.4684   2.1922 H              1 S1                 0.0000
     28 ****        -4.9822  -3.0694   0.8350 H              1 S1                 0.0000
     29 ****        -3.2792  -1.7497  -0.8396 H              1 S1                 0.0000
     30 ****        -2.1670  -2.0804  -2.6718 H              1 S1                 0.0000
     31 ****        -0.3124  -1.1930  -3.2727 H              1 S1                 0.0000
     32 ****         2.2476  -1.6782  -2.0373 H              1 S1                 0.0000
     33 ****         1.8587  -0.5067  -3.2728 H              1 S1                 0.0000
     34 ****        -0.3637   1.0339  -1.5759 H              1 S1                 0.0000
     35 ****        -0.0741   2.8540   0.0730 H              1 S1                 0.0000
     36 ****         3.8119   2.7127   2.6682 H              1 S1                 0.0000
     37 ****         4.2260   3.5877   1.1994 H              1 S1                 0.0000
     38 ****         4.5685   4.9861   3.2624 H              1 S1                 0.0000
     39 ****         3.4199   5.7194   2.1598 H              1 S1                 0.0000
     40 ****         1.0881   5.5781   2.6647 H              1 S1                 0.0000
     41 ****        -0.7326   4.7606   4.1686 H              1 S1                 0.0000
     42 ****         0.4114   5.7738   5.0438 H              1 S1                 0.0000
     43 ****         0.4678   4.0225   5.2279 H              1 S1                 0.0000
     44 ****         0.1365   3.3524   2.1491 H              1 S1                 0.0000
     45 ****         1.2522   2.5690   3.2470 H              1 S1                 0.0000
     46 ****         3.6946  -0.1846  -0.7370 H              1 S1                 0.0000
     47 ****        -1.5398  -4.9361  -1.8569 H              1 S1                 0.0000
     48 ****        -1.1423  -3.5863  -4.5557 H              1 S1                 0.0000
     49 ****        -1.0257  -5.3162  -4.2535 H              1 S1                 0.0000
     50 ****         0.1239  -4.2272  -3.5091 H              1 S1                 0.0000
     51 ****        -3.6886  -3.8431  -3.7375 H              1 S1                 0.0000
     52 ****        -3.9875  -4.5773  -2.1653 H              1 S1                 0.0000
     53 ****        -3.3312  -5.5449  -3.4681 H              1 S1                 0.0000
     54 ****        -2.5068  -4.9621   1.3061 LP             1 S1                 0.0000
     55 ****        -1.6042  -4.7315  -0.1541 LP             1 S1                 0.0000
     56 ****        -0.2877  -3.3002   0.0770 LP             1 S1                 0.0000
     57 ****         1.0995  -2.3406  -0.3164 LP             1 S1                 0.0000
     58 ****         2.0176   4.1060   0.9315 LP             1 S1                 0.0000
     59 ****         2.6778   5.6982   4.3763 LP             1 S1                 0.0000
     60 ****         2.7820   4.0704   4.4531 LP             1 S1                 0.0000
     61 ****         3.8770   1.5555   0.8048 LP             1 S1                 0.0000
@<TRIPOS>BOND
    1    1    2 1     
    2    1   26 1     
    3    1   27 1     
    4    1   28 1     
    5    2    3 2     
    6    2    4 am    
    7    4    5 1     
    8    4   29 1     
    9    5    6 1     
   10    5   23 1     
   11    5   30 1     
   12    6    7 2     
   13    6    8 am    
   14    8    9 1     
   15    8   31 1     
   16    9   10 1     
   17    9   32 1     
   18    9   33 1     
   19   10   22 ar    
   20   10   11 ar    
   21   11   12 ar    
   22   11   34 1     
   23   12   13 ar    
   24   12   35 1     
   25   13   14 1     
   26   13   21 ar    
   27   14   20 1     
   28   14   15 1     
   29   15   16 1     
   30   15   36 1     
   31   15   37 1     
   32   16   17 1     
   33   16   38 1     
   34   16   39 1     
   35   17   18 1     
   36   18   19 1     
   37   18   20 1     
   38   18   40 1     
   39   19   41 1     
   40   19   42 1     
   41   19   43 1     
   42   20   44 1     
   43   20   45 1     
   44   21   22 ar    
   45   22   46 1     
   46   23   24 1     
   47   23   25 1     
   48   23   47 1     
   49   24   48 1     
   50   24   49 1     
   51   24   50 1     
   52   25   51 1     
   53   25   52 1     
   54   25   53 1     
   55    3   54 1     
   56    3   55 1     
   57    7   56 1     
   58    7   57 1     
   59   14   58 1     
   60   17   59 1     
   61   17   60 1     
   62   21   61 1     
@<TRIPOS>SUBSTRUCTURE
      1 S1             1
@<TRIPOS>SET
LONE_PAIRS      STATIC     ATOMS    <user>   **** ""
8 54 55 56 57 58 59 60 61
DONOR_HYDROGENS      STATIC     ATOMS    <user>   **** ""
2 29 31
ATOM$BLUE        STATIC     ATOMS    COLORGROUP SYSTEM
8 54 55 56 57 58 59 60 61
ATOM$RED        STATIC     ATOMS    COLORGROUP SYSTEM
2 29 31
