AV-unprocessed.smi:240|AV-procd|sdf|1832|dock10
  -GOLD-   2262020433D 1   1.00000     0.00000
 Structure written by MMmdl.
 55 59  0  0  0  0  0  0  0  0  1 V2000
  146.2020  134.8321  153.2397 O   0  0  0  0  0  0  0  0  0  0  0  0
  145.2527  133.8289  152.9441 C   0  0  2  0  0  0  0  0  0  0  0  0
  145.7711  132.8629  151.8788 C   0  0  0  0  0  0  0  0  0  0  0  0
  144.5082  132.2238  151.2907 C   0  0  0  0  0  0  0  0  0  0  0  0
  143.3543  133.1985  151.5775 C   0  0  0  0  0  0  0  0  0  0  0  0
  143.9755  134.4009  152.3126 C   0  0  1  0  0  0  0  0  0  0  0  0
  143.0259  135.1837  153.2703 C   0  0  2  0  0  0  0  0  0  0  0  0
  141.5503  134.7111  153.2074 C   0  0  0  0  0  0  0  0  0  0  0  0
  140.7484  135.4627  154.1114 O   0  0  0  0  0  0  0  0  0  0  0  0
  140.7425  136.8470  153.7914 C   0  0  0  0  0  0  0  0  0  0  0  0
  142.1713  137.3907  153.9154 C   0  0  0  0  0  0  0  0  0  0  0  0
  143.0765  136.6371  153.0557 N   0  0  0  0  0  0  0  0  0  0  0  0
  144.2972  137.2185  153.0266 C   0  0  0  0  0  0  0  0  0  0  0  0
  145.0606  136.9877  151.9304 N   0  0  0  0  0  0  0  0  0  0  0  0
  146.2783  137.5302  151.8378 C   0  0  0  0  0  0  0  0  0  0  0  0
  146.9072  138.3245  152.7068 N   0  0  0  0  0  0  0  0  0  0  0  0
  146.1346  138.5701  153.8040 C   0  0  0  0  0  0  0  0  0  0  0  0
  144.8270  138.0618  154.0445 C   0  0  0  0  0  0  0  0  0  0  0  0
  144.3547  138.5297  155.2646 N   0  0  0  0  0  0  0  0  0  0  0  0
  145.3280  139.2700  155.7203 C   0  0  0  0  0  0  0  0  0  0  0  0
  146.4324  139.3573  154.9028 N   0  0  0  0  0  0  0  0  0  0  0  0
  147.6520  140.1087  155.1606 C   0  0  0  0  0  0  0  0  0  0  0  0
  147.4709  141.6472  155.1059 C   0  0  2  0  0  0  0  0  0  0  0  0
  148.7357  142.2686  155.2441 O   0  0  0  0  0  0  0  0  0  0  0  0
  146.5202  142.2048  156.1660 C   0  0  0  0  0  0  0  0  0  0  0  0
  145.2001  142.2960  155.4167 C   0  0  0  0  0  0  0  0  0  0  0  0
  145.6081  142.7661  154.1441 O   0  0  0  0  0  0  0  0  0  0  0  0
  146.8097  142.0931  153.7851 C   0  0  0  0  0  0  0  0  0  0  0  0
  145.7631  135.6689  153.2484 H   0  0  0  0  0  0  0  0  0  0  0  0
  145.0313  133.2625  153.8476 H   0  0  0  0  0  0  0  0  0  0  0  0
  146.2922  133.4149  151.0950 H   0  0  0  0  0  0  0  0  0  0  0  0
  146.4663  132.1258  152.2818 H   0  0  0  0  0  0  0  0  0  0  0  0
  144.6212  132.0292  150.2239 H   0  0  0  0  0  0  0  0  0  0  0  0
  144.3110  131.2680  151.7770 H   0  0  0  0  0  0  0  0  0  0  0  0
  142.8588  133.5133  150.6588 H   0  0  0  0  0  0  0  0  0  0  0  0
  142.6032  132.6966  152.1854 H   0  0  0  0  0  0  0  0  0  0  0  0
  144.3173  135.0881  151.5370 H   0  0  0  0  0  0  0  0  0  0  0  0
  143.3643  134.9942  154.2890 H   0  0  0  0  0  0  0  0  0  0  0  0
  141.1360  134.7978  152.2030 H   0  0  0  0  0  0  0  0  0  0  0  0
  141.4642  133.6652  153.4977 H   0  0  0  0  0  0  0  0  0  0  0  0
  140.3486  137.0036  152.7859 H   0  0  0  0  0  0  0  0  0  0  0  0
  140.0797  137.3694  154.4813 H   0  0  0  0  0  0  0  0  0  0  0  0
  142.1874  138.4473  153.6436 H   0  0  0  0  0  0  0  0  0  0  0  0
  142.5064  137.3195  154.9514 H   0  0  0  0  0  0  0  0  0  0  0  0
  146.8267  137.2953  150.9374 H   0  0  0  0  0  0  0  0  0  0  0  0
  145.2646  139.7815  156.6699 H   0  0  0  0  0  0  0  0  0  0  0  0
  148.0322  139.8104  156.1386 H   0  0  0  0  0  0  0  0  0  0  0  0
  148.4042  139.7944  154.4359 H   0  0  0  0  0  0  0  0  0  0  0  0
  148.6125  143.2053  155.2144 H   0  0  0  0  0  0  0  0  0  0  0  0
  146.4506  141.6088  157.0744 H   0  0  0  0  0  0  0  0  0  0  0  0
  146.8207  143.2112  156.4624 H   0  0  0  0  0  0  0  0  0  0  0  0
  144.7325  141.3148  155.3198 H   0  0  0  0  0  0  0  0  0  0  0  0
  144.4909  142.9753  155.8899 H   0  0  0  0  0  0  0  0  0  0  0  0
  147.4410  142.7571  153.1930 H   0  0  0  0  0  0  0  0  0  0  0  0
  146.5585  141.2380  153.1562 H   0  0  0  0  0  0  0  0  0  0  0  0
  1  2  1  0  0  0  0
  1 29  1  0  0  0  0
  2  6  1  0  0  0  0
  2  3  1  0  0  0  0
  2 30  1  0  0  0  0
  3  4  1  0  0  0  0
  3 31  1  0  0  0  0
  3 32  1  0  0  0  0
  4  5  1  0  0  0  0
  4 33  1  0  0  0  0
  4 34  1  0  0  0  0
  5  6  1  0  0  0  0
  5 35  1  0  0  0  0
  5 36  1  0  0  0  0
  6  7  1  0  0  0  0
  6 37  1  0  0  0  0
  7 12  1  0  0  0  0
  7  8  1  0  0  0  0
  7 38  1  0  0  0  0
  8  9  1  0  0  0  0
  8 39  1  0  0  0  0
  8 40  1  0  0  0  0
  9 10  1  0  0  0  0
 10 11  1  0  0  0  0
 10 41  1  0  0  0  0
 10 42  1  0  0  0  0
 11 12  1  0  0  0  0
 11 43  1  0  0  0  0
 11 44  1  0  0  0  0
 12 13  1  0  0  0  0
 13 18  1  0  0  0  0
 13 14  2  0  0  0  0
 14 15  1  0  0  0  0
 15 16  2  0  0  0  0
 15 45  1  0  0  0  0
 16 17  1  0  0  0  0
 17 21  1  0  0  0  0
 17 18  2  0  0  0  0
 18 19  1  0  0  0  0
 19 20  2  0  0  0  0
 20 21  1  0  0  0  0
 20 46  1  0  0  0  0
 21 22  1  0  0  0  0
 22 23  1  0  0  0  0
 22 47  1  0  0  0  0
 22 48  1  0  0  0  0
 23 28  1  0  0  0  0
 23 24  1  0  0  0  0
 23 25  1  0  0  0  0
 24 49  1  0  0  0  0
 25 26  1  0  0  0  0
 25 50  1  0  0  0  0
 25 51  1  0  0  0  0
 26 27  1  0  0  0  0
 26 52  1  0  0  0  0
 26 53  1  0  0  0  0
 27 28  1  0  0  0  0
 28 54  1  0  0  0  0
 28 55  1  0  0  0  0
M  END
> <s_m_source_file>
AV-unprocessed.smi

> <i_m_source_file_index>
240

> <i_lp_mmshare_version>
43012

> <i_f3d_flags>
0

> <s_epik_input>
W09IXVtDQEBIXTFbQ0gyXVtDSDJdW0NIMl1bQ0BIXTFbQ0BASF0yW0NIMl1PW0NIMl1bQ0gyXU4yYyhuW2NIXW4zKWMoYzM0KW5bY0hdbjRbQ0gyXVtDQEBdNShbT0hdKVtDSDJdW0NIMl1PW0NIMl01

> <s_epik_cmdline>
J2VwaWtfcHl0aG9uJywgJy1waCcsICc3LjAnLCAnLXRuJywgJzgnLCAnLW1hJywgJzIwMCcsICctbWV0YWxfYmluZGluZycsICctaW1hZScsICc8aW5maWxlLm1hZT4nLCAnLW9tYWUnLCAnPG91dGZpbGUubWFlPic=

> <r_lp_tautomer_probability>
1

> <r_epik_Ionization_Penalty>
0.000130618

> <r_epik_Ionization_Penalty_Charging>
0

> <r_epik_Ionization_Penalty_Neutral>
0.000130618

> <r_epik_State_Penalty>
-0

> <r_epik_Charging_Adjusted_Penalty>
0

> <i_epik_Tot_Q>
0

> <i_epik_Tot_abs_Q>
0

> <r_epik_Metal_State_Penalty>
-0

> <b_epik_Metal_Only>
0

> <s_lp_Force_Field>
OPLS_2005

> <r_lp_Energy>
62.3789

> <b_lp_Chiralities_Consistent>
1

> <s_lp_Variant>
AV-unprocessed.smi:240-9

> <Gold.Version>
5.8.1

> <Gold.Id.Protein>
6NUR|6NUR_protein|mol2

> <Gold.PLP.Fitness>
38.3267

> <Gold.PLP.PLP>
-34.9517

> <Gold.PLP.part.hbond>
-1.8276

> <Gold.PLP.part.metal>
0.0000

> <Gold.PLP.part.buried>
-7.5596

> <Gold.PLP.part.nonpolar>
-28.4548

> <Gold.PLP.part.repulsive>
3.1027

> <Gold.PLP.ligand.clash>
0.2809

> <Gold.PLP.ligand.torsion>
1.9709

> <Gold.PLP.Chemscore.Hbond>
2.0000

> <Gold.PLP.Chemscore.CHOScore>
0.4652

> <Gold.PLP.Chemscore.Metal>
0.0000

> <Gold.Chemscore.Hbonds>
donor molecule, donor type, donor heavy atom, donor atom, acceptor molecule, acceptor atom, score
      L1  H    24    49       P1  8028  1.00
      P1  H 11000 11005       L1     9  1.00
      L1  C    15    45       P1  7948  0.47

> <Gold.PLP.Chemscore.Internal.Correction>
0.2019

> <Gold.Rescore>
     Score         DG    S(hbond)    S(metal)    S(lipo)     H(rot)  DE(clash)    DE(int)     intcor
      6.40     -12.69       1.95        0.00      71.67       3.00       1.46       4.83       ----

> <Gold.Chemscore.Fitness>
6.4037

> <Gold.Chemscore.DG>
-12.6929

> <Gold.Chemscore.ZeroCoef>
-5.4800

> <Gold.Chemscore.Hbond>
1.9513

> <Gold.Chemscore.Metal>
0.0000

> <Gold.Chemscore.Lipo>
71.6715

> <Gold.Chemscore.Internal_Hbond>
0.0000

> <Gold.Chemscore.DEClash>
1.4559

> <Gold.Chemscore.DEInternal>
4.8334

> <Gold.Chemscore.Rot>
3.0039

> <Gold.Chemscore.Internal.Correction>
   9.000000E+99

> <Gold.Chemscore.Hbonds>
donor molecule, donor type, donor heavy atom, donor atom, acceptor molecule, acceptor atom, score
      L1  H    24    49       P1  8028  0.97
      P1  H 11000 11005       L1     9  0.81

> <Gold.Chemscore.Hbond.Weighted>
-6.5173

> <Gold.Chemscore.Metal.Weighted>
-0.0000

> <Gold.Chemscore.Lipo.Weighted>
-8.3856

> <Gold.Chemscore.Internal_Hbond.Weighted>
0.0000

> <Gold.Chemscore.DEClash.Weighted>
1.4559

> <Gold.Chemscore.DEInternal.Weighted>
4.8334

> <Gold.Chemscore.Rot.Weighted>
7.6899

> <Gold.Chemscore.Internal.Correction.Weighted>
   9.000000E+99

> <Gold.Protein.RotatedTorsions>
[ 6907 6896 6895 6894 ] final  135.64 input  -60.11 | X-H torsion
[ 7974 7965 7964 7962 ] final  -89.80 input  175.53 | X-H torsion
[ 8008 7997 7996 7995 ] final -172.38 input   59.86 | X-H torsion
[ 10167 10162 10161 10158 ] final   60.78 input  -65.29 | X-H torsion
[ 10718 10713 10712 10709 ] final   95.76 input   66.30 | X-H torsion
[ 10763 10752 10751 10750 ] final  -42.28 input  -60.55 | X-H torsion
[ 11005 11000 10999 10996 ] final   41.92 input  -57.11 | X-H torsion

> <Gold.Protein.ActiveResidues>
 VAL166  LYS551  ARG553  GLY616  TRP617  ASP618  TYR619  PRO620  LYS621  CYS622 
 ASP623  PHE694  ASN695  SER759  ASP760  ASP761  ALA762  ILE779  LEU786  VAL792 
 PHE793  MET794  SER795  GLU796  ALA797  LYS798  CYS799  TRP800  GLU811  SER814 

> <Gold.Protein.RotatedAtoms>
  152.2982  133.5629  159.5601 H   0  0  0  0  0  0  0  0  0  0  0  0  # atno 6907 bound_to 6896
  150.7265  134.0329  159.3748 H   0  0  0  0  0  0  0  0  0  0  0  0  # atno 6908 bound_to 6896
  151.8231  135.0646  160.0478 H   0  0  0  0  0  0  0  0  0  0  0  0  # atno 6909 bound_to 6896
  145.4350  140.9557  143.2107 H   0  0  0  0  0  0  0  0  0  0  0  0  # atno 7974 bound_to 7965
  155.9439  140.1114  157.1033 H   0  0  0  0  0  0  0  0  0  0  0  0  # atno 8008 bound_to 7997
  154.4095  140.1214  156.5029 H   0  0  0  0  0  0  0  0  0  0  0  0  # atno 8009 bound_to 7997
  155.6927  140.3472  155.4902 H   0  0  0  0  0  0  0  0  0  0  0  0  # atno 8010 bound_to 7997
  140.1619  144.4362  150.6705 H   0  0  0  0  0  0  0  0  0  0  0  0  # atno 10167 bound_to 10162
  157.6935  131.0556  150.4389 H   0  0  0  0  0  0  0  0  0  0  0  0  # atno 10718 bound_to 10713
  153.9764  135.6722  153.4748 H   0  0  0  0  0  0  0  0  0  0  0  0  # atno 10763 bound_to 10752
  153.0768  135.4944  154.8418 H   0  0  0  0  0  0  0  0  0  0  0  0  # atno 10764 bound_to 10752
  154.7189  135.3113  154.9040 H   0  0  0  0  0  0  0  0  0  0  0  0  # atno 10765 bound_to 10752
  140.1789  134.4129  155.8212 H   0  0  0  0  0  0  0  0  0  0  0  0  # atno 11005 bound_to 11000
  144.8158  139.5879  143.7009 LP  0  0  0  0  0  0  0  0  0  0  0  0  # atno 17320 bound_to 7965
  146.2587  139.6360  142.9377 LP  0  0  0  0  0  0  0  0  0  0  0  0  # atno 17321 bound_to 7965
  140.6637  143.2260  151.5794 LP  0  0  0  0  0  0  0  0  0  0  0  0  # atno 17342 bound_to 10162
  139.5377  144.2734  152.1286 LP  0  0  0  0  0  0  0  0  0  0  0  0  # atno 17343 bound_to 10162
  156.4749  130.4061  149.6496 LP  0  0  0  0  0  0  0  0  0  0  0  0  # atno 17370 bound_to 10713
  156.3563  130.7458  151.2424 LP  0  0  0  0  0  0  0  0  0  0  0  0  # atno 17371 bound_to 10713
  141.2222  133.6991  156.7895 LP  0  0  0  0  0  0  0  0  0  0  0  0  # atno 17394 bound_to 11000
  140.2291  134.8699  157.3457 LP  0  0  0  0  0  0  0  0  0  0  0  0  # atno 17395 bound_to 11000

$$$$
