AV-unprocessed.smi:2492|AV-procd|sdf|9813|dock4
  -GOLD-   2272013443D 1   1.00000     0.00000
 Structure written by MMmdl.
 33 34  0  0  0  0  0  0  0  0  1 V2000
  143.8250  132.6076  148.4346 C   0  0  0  0  0  0  0  0  0  0  0  0
  145.2458  132.2796  149.5110 S   0  0  0  0  0  0  0  0  0  0  0  0
  144.8343  133.3438  150.9243 C   0  0  2  0  0  0  0  0  0  0  0  0
  144.9625  134.8341  150.6129 C   0  0  0  0  0  0  0  0  0  0  0  0
  145.0788  135.4934  151.9875 C   0  0  0  0  0  0  0  0  0  0  0  0
  145.7798  134.4650  152.8939 C   0  0  2  0  0  0  0  0  0  0  0  0
  147.1359  134.9021  153.2147 N   0  0  0  0  0  0  0  0  0  0  0  0
  147.6839  134.8671  154.4380 C   0  0  0  0  0  0  0  0  0  0  0  0
  147.0905  134.4571  155.4360 O   0  0  0  0  0  0  0  0  0  0  0  0
  148.9457  135.3287  154.4215 N   0  0  0  0  0  0  0  0  0  0  0  0
  149.8394  135.4473  155.5158 C   0  0  0  0  0  0  0  0  0  0  0  0
  151.0968  135.8880  155.4704 N   0  0  0  0  0  0  0  0  0  0  0  0
  151.4536  135.7802  156.7799 C   0  0  0  0  0  0  0  0  0  0  0  0
  152.8037  136.1604  157.2843 C   0  0  0  0  0  0  0  0  0  0  0  0
  150.5185  135.3170  157.6014 N   0  0  0  0  0  0  0  0  0  0  0  0
  149.4252  135.0869  156.7531 O   0  0  0  0  0  0  0  0  0  0  0  0
  145.7779  133.1349  152.1121 C   0  0  0  0  0  0  0  0  0  0  0  0
  143.8978  132.0102  147.5260 H   0  0  0  0  0  0  0  0  0  0  0  0
  143.7907  133.6595  148.1515 H   0  0  0  0  0  0  0  0  0  0  0  0
  142.8948  132.3519  148.9422 H   0  0  0  0  0  0  0  0  0  0  0  0
  143.8137  133.1287  151.2442 H   0  0  0  0  0  0  0  0  0  0  0  0
  145.8719  135.0201  150.0397 H   0  0  0  0  0  0  0  0  0  0  0  0
  144.1200  135.2201  150.0387 H   0  0  0  0  0  0  0  0  0  0  0  0
  145.5948  136.4532  151.9384 H   0  0  0  0  0  0  0  0  0  0  0  0
  144.0782  135.6891  152.3759 H   0  0  0  0  0  0  0  0  0  0  0  0
  145.2040  134.3609  153.8156 H   0  0  0  0  0  0  0  0  0  0  0  0
  147.6946  135.2517  152.4498 H   0  0  0  0  0  0  0  0  0  0  0  0
  149.3084  135.6281  153.5285 H   0  0  0  0  0  0  0  0  0  0  0  0
  153.1492  135.4441  158.0305 H   0  0  0  0  0  0  0  0  0  0  0  0
  152.7688  137.1494  157.7414 H   0  0  0  0  0  0  0  0  0  0  0  0
  153.5268  136.1817  156.4684 H   0  0  0  0  0  0  0  0  0  0  0  0
  145.4696  132.2942  152.7345 H   0  0  0  0  0  0  0  0  0  0  0  0
  146.7811  132.9098  151.7456 H   0  0  0  0  0  0  0  0  0  0  0  0
  1  2  1  0  0  0  0
  1 18  1  0  0  0  0
  1 19  1  0  0  0  0
  1 20  1  0  0  0  0
  2  3  1  0  0  0  0
  3 17  1  0  0  0  0
  3  4  1  0  0  0  0
  3 21  1  0  0  0  0
  4  5  1  0  0  0  0
  4 22  1  0  0  0  0
  4 23  1  0  0  0  0
  5  6  1  0  0  0  0
  5 24  1  0  0  0  0
  5 25  1  0  0  0  0
  6  7  1  0  0  0  0
  6 17  1  0  0  0  0
  6 26  1  0  0  0  0
  7  8  1  0  0  0  0
  7 27  1  0  0  0  0
  8  9  2  0  0  0  0
  8 10  1  0  0  0  0
 10 11  1  0  0  0  0
 10 28  1  0  0  0  0
 11 16  1  0  0  0  0
 11 12  2  0  0  0  0
 12 13  1  0  0  0  0
 13 14  1  0  0  0  0
 13 15  2  0  0  0  0
 14 29  1  0  0  0  0
 14 30  1  0  0  0  0
 14 31  1  0  0  0  0
 15 16  1  0  0  0  0
 17 32  1  0  0  0  0
 17 33  1  0  0  0  0
M  END
> <s_m_source_file>
AV-unprocessed.smi

> <i_m_source_file_index>
2492

> <i_lp_mmshare_version>
43012

> <i_f3d_flags>
0

> <s_epik_input>
W0NIM11TW0NAQEhdMVtDSDJdW0NIMl1bQ0BIXShbQ0gyXTEpW05IXUMoPU8pW05IXWMybmMoW0NIM10pbm8y

> <s_epik_cmdline>
J2VwaWtfcHl0aG9uJywgJy1waCcsICc3LjAnLCAnLXRuJywgJzgnLCAnLW1hJywgJzIwMCcsICctbWV0YWxfYmluZGluZycsICctaW1hZScsICc8aW5maWxlLm1hZT4nLCAnLW9tYWUnLCAnPG91dGZpbGUubWFlPic=

> <r_lp_tautomer_probability>
1

> <r_epik_Ionization_Penalty>
3.56659e-05

> <r_epik_Ionization_Penalty_Charging>
0

> <r_epik_Ionization_Penalty_Neutral>
3.56659e-05

> <r_epik_State_Penalty>
-0

> <r_epik_Charging_Adjusted_Penalty>
0

> <i_epik_Tot_Q>
0

> <i_epik_Tot_abs_Q>
0

> <r_epik_Metal_State_Penalty>
0.0146047

> <b_epik_Metal_Only>
0

> <s_lp_Force_Field>
OPLS_2005

> <r_lp_Energy>
15.0837

> <b_lp_Chiralities_Consistent>
1

> <s_lp_Variant>
AV-unprocessed.smi:2492-3

> <Gold.Version>
5.8.1

> <Gold.Id.Protein>
6NUR|6NUR_protein|mol2

> <Gold.PLP.Fitness>
34.8540

> <Gold.PLP.PLP>
-24.7709

> <Gold.PLP.part.hbond>
-4.0000

> <Gold.PLP.part.metal>
0.0000

> <Gold.PLP.part.buried>
-1.0797

> <Gold.PLP.part.nonpolar>
-18.7581

> <Gold.PLP.part.repulsive>
0.1287

> <Gold.PLP.ligand.clash>
0.0000

> <Gold.PLP.ligand.torsion>
0.2034

> <Gold.PLP.Chemscore.Hbond>
3.4953

> <Gold.PLP.Chemscore.CHOScore>
0.0000

> <Gold.PLP.Chemscore.Metal>
0.0000

> <Gold.Chemscore.Hbonds>
donor molecule, donor type, donor heavy atom, donor atom, acceptor molecule, acceptor atom, score
      L1  H     7    27       P1  7948  1.00
      L1  H    10    28       P1  7948  0.98
      P1  H  6896  6907       L1    15  0.46
      P1  H 10752 10765       L1    12  0.91

> <Gold.PLP.Chemscore.Internal.Correction>
0.0041

> <Gold.Rescore>
     Score         DG    S(hbond)    S(metal)    S(lipo)     H(rot)  DE(clash)    DE(int)     intcor
     14.90     -16.66       2.38        0.00      55.59       1.28       0.07       1.69       ----

> <Gold.Chemscore.Fitness>
14.9014

> <Gold.Chemscore.DG>
-16.6629

> <Gold.Chemscore.ZeroCoef>
-5.4800

> <Gold.Chemscore.Hbond>
2.3832

> <Gold.Chemscore.Metal>
0.0000

> <Gold.Chemscore.Lipo>
55.5880

> <Gold.Chemscore.Internal_Hbond>
0.0000

> <Gold.Chemscore.DEClash>
0.0705

> <Gold.Chemscore.DEInternal>
1.6910

> <Gold.Chemscore.Rot>
1.2815

> <Gold.Chemscore.Internal.Correction>
   9.000000E+99

> <Gold.Chemscore.Hbonds>
donor molecule, donor type, donor heavy atom, donor atom, acceptor molecule, acceptor atom, score
      L1  H     7    27       P1  7948  0.96
      L1  H    10    28       P1  7948  0.42
      P1  H  6896  6907       L1    15  0.44
      P1  H 10752 10765       L1    12  0.22

> <Gold.Chemscore.Hbond.Weighted>
-7.9599

> <Gold.Chemscore.Metal.Weighted>
-0.0000

> <Gold.Chemscore.Lipo.Weighted>
-6.5038

> <Gold.Chemscore.Internal_Hbond.Weighted>
0.0000

> <Gold.Chemscore.DEClash.Weighted>
0.0705

> <Gold.Chemscore.DEInternal.Weighted>
1.6910

> <Gold.Chemscore.Rot.Weighted>
3.2808

> <Gold.Chemscore.Internal.Correction.Weighted>
   9.000000E+99

> <Gold.Protein.RotatedTorsions>
[ 6907 6896 6895 6894 ] final  -89.73 input  -60.11 | X-H torsion
[ 7974 7965 7964 7962 ] final -122.99 input  175.53 | X-H torsion
[ 8008 7997 7996 7995 ] final   -7.81 input   59.86 | X-H torsion
[ 10167 10162 10161 10158 ] final -108.93 input  -65.29 | X-H torsion
[ 10718 10713 10712 10709 ] final  179.67 input   66.30 | X-H torsion
[ 10763 10752 10751 10750 ] final  177.17 input  -60.55 | X-H torsion
[ 11005 11000 10999 10996 ] final  -93.08 input  -57.11 | X-H torsion

> <Gold.Protein.ActiveResidues>
 VAL166  LYS551  ARG553  GLY616  TRP617  ASP618  TYR619  PRO620  LYS621  CYS622 
 ASP623  PHE694  ASN695  SER759  ASP760  ASP761  ALA762  ILE779  LEU786  VAL792 
 PHE793  MET794  SER795  GLU796  ALA797  LYS798  CYS799  TRP800  GLU811  SER814 

> <Gold.Protein.RotatedAtoms>
  150.6876  134.2541  159.4522 H   0  0  0  0  0  0  0  0  0  0  0  0  # atno 6907 bound_to 6896
  152.0476  134.9670  160.0583 H   0  0  0  0  0  0  0  0  0  0  0  0  # atno 6908 bound_to 6896
  152.1147  133.4285  159.4684 H   0  0  0  0  0  0  0  0  0  0  0  0  # atno 6909 bound_to 6896
  145.0235  140.8008  143.4366 H   0  0  0  0  0  0  0  0  0  0  0  0  # atno 7974 bound_to 7965
  154.5802  140.2397  155.8065 H   0  0  0  0  0  0  0  0  0  0  0  0  # atno 8008 bound_to 7997
  156.2173  140.3008  155.9826 H   0  0  0  0  0  0  0  0  0  0  0  0  # atno 8009 bound_to 7997
  155.2555  140.0412  157.2982 H   0  0  0  0  0  0  0  0  0  0  0  0  # atno 8010 bound_to 7997
  140.1608  143.4121  152.1427 H   0  0  0  0  0  0  0  0  0  0  0  0  # atno 10167 bound_to 10162
  156.8723  130.9788  151.3072 H   0  0  0  0  0  0  0  0  0  0  0  0  # atno 10718 bound_to 10713
  154.4909  135.2779  155.1497 H   0  0  0  0  0  0  0  0  0  0  0  0  # atno 10763 bound_to 10752
  154.3169  135.6217  153.5494 H   0  0  0  0  0  0  0  0  0  0  0  0  # atno 10764 bound_to 10752
  152.9888  135.5733  154.5330 H   0  0  0  0  0  0  0  0  0  0  0  0  # atno 10765 bound_to 10752
  141.1506  133.7863  157.0109 H   0  0  0  0  0  0  0  0  0  0  0  0  # atno 11005 bound_to 11000
  145.1864  139.2324  143.5265 LP  0  0  0  0  0  0  0  0  0  0  0  0  # atno 17320 bound_to 7965
  146.3489  140.1650  142.8590 LP  0  0  0  0  0  0  0  0  0  0  0  0  # atno 17321 bound_to 7965
  139.5382  144.7230  151.4822 LP  0  0  0  0  0  0  0  0  0  0  0  0  # atno 17342 bound_to 10162
  140.6644  143.8430  150.6924 LP  0  0  0  0  0  0  0  0  0  0  0  0  # atno 17343 bound_to 10162
  157.6188  130.8639  149.9074 LP  0  0  0  0  0  0  0  0  0  0  0  0  # atno 17370 bound_to 10713
  156.0720  130.3684  150.0756 LP  0  0  0  0  0  0  0  0  0  0  0  0  # atno 17371 bound_to 10713
  140.0878  134.9610  157.1728 LP  0  0  0  0  0  0  0  0  0  0  0  0  # atno 17394 bound_to 11000
  140.3487  134.2622  155.7201 LP  0  0  0  0  0  0  0  0  0  0  0  0  # atno 17395 bound_to 11000

$$$$
