AV-unprocessed.smi:573|AV-procd|sdf|2967|dock5
  -GOLD-   2262023473D 1   1.00000     0.00000
 Structure written by MMmdl.
 45 47  0  0  0  0  0  0  0  0  2 V2000
  147.3661  139.6759  153.7267 C   0  0  0  0  0  0  0  0  0  0  0  0
  147.9464  141.0929  153.8461 C   0  0  2  0  0  0  0  0  0  0  0  0
  149.2517  141.0843  153.3096 O   0  0  0  0  0  0  0  0  0  0  0  0
  148.0325  141.5885  155.3013 C   0  0  0  0  0  0  0  0  0  0  0  0
  149.0125  140.8528  156.0874 N   0  0  0  0  0  0  0  0  0  0  0  0
  149.8734  141.5378  156.9532 C   0  0  0  0  0  0  0  0  0  0  0  0
  150.0333  142.8865  157.0242 N   0  3  0  0  0  0  0  0  0  0  0  0
  150.9927  143.1648  158.0017 C   0  0  0  0  0  0  0  0  0  0  0  0
  151.5066  144.3783  158.4485 C   0  0  0  0  0  0  0  0  0  0  0  0
  152.4874  144.3174  159.4601 C   0  0  0  0  0  0  0  0  0  0  0  0
  152.9235  143.0849  159.9881 C   0  0  0  0  0  0  0  0  0  0  0  0
  152.3954  141.8596  159.5313 C   0  0  0  0  0  0  0  0  0  0  0  0
  151.4231  141.9250  158.5333 C   0  0  0  0  0  0  0  0  0  0  0  0
  150.6931  140.9394  157.8550 N   0  0  0  0  0  0  0  0  0  0  0  0
  150.8959  139.5182  158.1731 C   0  0  0  0  0  0  0  0  0  0  0  0
  151.3849  138.7122  156.9583 C   0  0  2  0  0  0  0  0  0  0  0  0
  152.1603  139.5918  155.9591 C   0  0  0  0  0  0  0  0  0  0  0  0
  152.5777  138.7745  154.7313 C   0  0  0  0  0  0  0  0  0  0  0  0
  151.3522  138.0730  154.1359 C   0  0  0  0  0  0  0  0  0  0  0  0
  150.6139  137.2735  155.2211 C   0  0  0  0  0  0  0  0  0  0  0  0
  150.2596  138.1322  156.3004 O   0  0  0  0  0  0  0  0  0  0  0  0
  146.3407  139.6365  154.0956 H   0  0  0  0  0  0  0  0  0  0  0  0
  147.9527  138.9567  154.2993 H   0  0  0  0  0  0  0  0  0  0  0  0
  147.3517  139.3430  152.6883 H   0  0  0  0  0  0  0  0  0  0  0  0
  147.3498  141.7828  153.2482 H   0  0  0  0  0  0  0  0  0  0  0  0
  149.3057  140.4021  152.6575 H   0  0  0  0  0  0  0  0  0  0  0  0
  148.3022  142.6449  155.3192 H   0  0  0  0  0  0  0  0  0  0  0  0
  147.0571  141.5165  155.7842 H   0  0  0  0  0  0  0  0  0  0  0  0
  148.9452  139.8461  156.1361 H   0  0  0  0  0  0  0  0  0  0  0  0
  151.1776  145.3242  158.0434 H   0  0  0  0  0  0  0  0  0  0  0  0
  152.9159  145.2347  159.8368 H   0  0  0  0  0  0  0  0  0  0  0  0
  153.6801  143.0783  160.7596 H   0  0  0  0  0  0  0  0  0  0  0  0
  152.7422  140.9218  159.9393 H   0  0  0  0  0  0  0  0  0  0  0  0
  151.5905  139.4339  159.0089 H   0  0  0  0  0  0  0  0  0  0  0  0
  149.9433  139.1221  158.5266 H   0  0  0  0  0  0  0  0  0  0  0  0
  152.0350  137.9109  157.3148 H   0  0  0  0  0  0  0  0  0  0  0  0
  151.5357  140.4283  155.6431 H   0  0  0  0  0  0  0  0  0  0  0  0
  153.0412  140.0222  156.4365 H   0  0  0  0  0  0  0  0  0  0  0  0
  153.0477  139.4178  153.9867 H   0  0  0  0  0  0  0  0  0  0  0  0
  153.3223  138.0316  155.0203 H   0  0  0  0  0  0  0  0  0  0  0  0
  150.6771  138.8149  153.7074 H   0  0  0  0  0  0  0  0  0  0  0  0
  151.6533  137.4148  153.3204 H   0  0  0  0  0  0  0  0  0  0  0  0
  149.7054  136.8343  154.8090 H   0  0  0  0  0  0  0  0  0  0  0  0
  151.2288  136.4492  155.5852 H   0  0  0  0  0  0  0  0  0  0  0  0
  149.5342  143.5549  156.4516 H   0  0  0  0  0  0  0  0  0  0  0  0
  1  2  1  0  0  0  0
  1 22  1  0  0  0  0
  1 23  1  0  0  0  0
  1 24  1  0  0  0  0
  2  3  1  0  0  0  0
  2  4  1  0  0  0  0
  2 25  1  0  0  0  0
  3 26  1  0  0  0  0
  4  5  1  0  0  0  0
  4 27  1  0  0  0  0
  4 28  1  0  0  0  0
  5  6  1  0  0  0  0
  5 29  1  0  0  0  0
  6 14  1  0  0  0  0
  6  7  2  0  0  0  0
  7  8  1  0  0  0  0
  7 45  1  0  0  0  0
  8 13  2  0  0  0  0
  8  9  1  0  0  0  0
  9 10  2  0  0  0  0
  9 30  1  0  0  0  0
 10 11  1  0  0  0  0
 10 31  1  0  0  0  0
 11 12  2  0  0  0  0
 11 32  1  0  0  0  0
 12 13  1  0  0  0  0
 12 33  1  0  0  0  0
 13 14  1  0  0  0  0
 14 15  1  0  0  0  0
 15 16  1  0  0  0  0
 15 34  1  0  0  0  0
 15 35  1  0  0  0  0
 16 21  1  0  0  0  0
 16 17  1  0  0  0  0
 16 36  1  0  0  0  0
 17 18  1  0  0  0  0
 17 37  1  0  0  0  0
 17 38  1  0  0  0  0
 18 19  1  0  0  0  0
 18 39  1  0  0  0  0
 18 40  1  0  0  0  0
 19 20  1  0  0  0  0
 19 41  1  0  0  0  0
 19 42  1  0  0  0  0
 20 21  1  0  0  0  0
 20 43  1  0  0  0  0
 20 44  1  0  0  0  0
M  CHG  1   7   1
M  END
> <s_m_source_file>
AV-unprocessed.smi

> <i_m_source_file_index>
573

> <i_lp_mmshare_version>
43012

> <i_f3d_flags>
0

> <s_epik_input>
W0NIM11bQ0BIXShbT0hdKVtDSDJdW05IXWMobjEpbihjKGMxMilbY0hdW2NIXVtjSF1bY0hdMilbQ0gyXVtDQEBIXTNbQ0gyXVtDSDJdW0NIMl1bQ0gyXU8z

> <s_epik_cmdline>
J2VwaWtfcHl0aG9uJywgJy1waCcsICc3LjAnLCAnLXRuJywgJzgnLCAnLW1hJywgJzIwMCcsICctbWV0YWxfYmluZGluZycsICctaW1hZScsICc8aW5maWxlLm1hZT4nLCAnLW9tYWUnLCAnPG91dGZpbGUubWFlPic=

> <r_epik_Ionization_Penalty>
0.0692245

> <r_epik_Ionization_Penalty_Charging>
0.0692223

> <r_epik_Ionization_Penalty_Neutral>
2.1869e-06

> <r_epik_State_Penalty>
0.0606215

> <r_epik_Charging_Adjusted_Penalty>
0.129844

> <i_epik_Tot_Q>
1

> <i_epik_Tot_abs_Q>
1

> <r_epik_Metal_State_Penalty>
2.77811

> <b_epik_Metal_Only>
0

> <s_lp_Force_Field>
OPLS_2005

> <r_lp_Energy>
19.8097

> <b_lp_Chiralities_Consistent>
1

> <s_lp_Variant>
AV-unprocessed.smi:573-1

> <Gold.Version>
5.8.1

> <Gold.Id.Protein>
6NUR|6NUR_protein|mol2

> <Gold.PLP.Fitness>
57.4520

> <Gold.PLP.PLP>
-46.8437

> <Gold.PLP.part.hbond>
-3.4191

> <Gold.PLP.part.metal>
0.0000

> <Gold.PLP.part.buried>
-5.0189

> <Gold.PLP.part.nonpolar>
-38.5251

> <Gold.PLP.part.repulsive>
0.0538

> <Gold.PLP.ligand.clash>
0.0000

> <Gold.PLP.ligand.torsion>
0.5883

> <Gold.PLP.Chemscore.Hbond>
3.9252

> <Gold.PLP.Chemscore.CHOScore>
0.0000

> <Gold.PLP.Chemscore.Metal>
0.0000

> <Gold.Chemscore.Hbonds>
donor molecule, donor type, donor heavy atom, donor atom, acceptor molecule, acceptor atom, score
      L1  H     3    26       P1  7957  0.93
      L1  H     7    45       P1  8028  2.00
      P1  H  7989  7998       L1     3  0.01
      P1  H  8011  8017       L1     3  0.90

> <Gold.PLP.Chemscore.Internal.Correction>
0.0095

> <Gold.Rescore>
     Score         DG    S(hbond)    S(metal)    S(lipo)     H(rot)  DE(clash)    DE(int)     intcor
     21.54     -22.22       2.36        0.00     121.09       2.07       0.00       0.68       ----

> <Gold.Chemscore.Fitness>
21.5354

> <Gold.Chemscore.DG>
-22.2214

> <Gold.Chemscore.ZeroCoef>
-5.4800

> <Gold.Chemscore.Hbond>
2.3571

> <Gold.Chemscore.Metal>
0.0000

> <Gold.Chemscore.Lipo>
121.0910

> <Gold.Chemscore.Internal_Hbond>
0.0000

> <Gold.Chemscore.DEClash>
0.0022

> <Gold.Chemscore.DEInternal>
0.6837

> <Gold.Chemscore.Rot>
2.0699

> <Gold.Chemscore.Internal.Correction>
   9.000000E+99

> <Gold.Chemscore.Hbonds>
donor molecule, donor type, donor heavy atom, donor atom, acceptor molecule, acceptor atom, score
      L1  H     3    26       P1  7957  0.87
      L1  H     7    45       P1  8028  0.95
      P1  H  8011  8017       L1     3  0.17

> <Gold.Chemscore.Hbond.Weighted>
-7.8728

> <Gold.Chemscore.Metal.Weighted>
-0.0000

> <Gold.Chemscore.Lipo.Weighted>
-14.1676

> <Gold.Chemscore.Internal_Hbond.Weighted>
0.0000

> <Gold.Chemscore.DEClash.Weighted>
0.0022

> <Gold.Chemscore.DEInternal.Weighted>
0.6837

> <Gold.Chemscore.Rot.Weighted>
5.2991

> <Gold.Chemscore.Internal.Correction.Weighted>
   9.000000E+99

> <Gold.Protein.RotatedTorsions>
[ 6907 6896 6895 6894 ] final  109.10 input  -60.11 | X-H torsion
[ 7974 7965 7964 7962 ] final -155.35 input  175.53 | X-H torsion
[ 8008 7997 7996 7995 ] final -102.62 input   59.86 | X-H torsion
[ 10167 10162 10161 10158 ] final   28.40 input  -65.29 | X-H torsion
[ 10718 10713 10712 10709 ] final -118.96 input   66.30 | X-H torsion
[ 10763 10752 10751 10750 ] final -155.28 input  -60.55 | X-H torsion
[ 11005 11000 10999 10996 ] final  161.99 input  -57.11 | X-H torsion

> <Gold.Protein.ActiveResidues>
 VAL166  LYS551  ARG553  GLY616  TRP617  ASP618  TYR619  PRO620  LYS621  CYS622 
 ASP623  PHE694  ASN695  SER759  ASP760  ASP761  ALA762  ILE779  LEU786  VAL792 
 PHE793  MET794  SER795  GLU796  ALA797  LYS798  CYS799  TRP800  GLU811  SER814 

> <Gold.Protein.RotatedAtoms>
  152.5083  133.8993  159.7432 H   0  0  0  0  0  0  0  0  0  0  0  0  # atno 6907 bound_to 6896
  150.9413  133.6645  159.2797 H   0  0  0  0  0  0  0  0  0  0  0  0  # atno 6908 bound_to 6896
  151.3955  135.0968  159.9592 H   0  0  0  0  0  0  0  0  0  0  0  0  # atno 6909 bound_to 6896
  144.7644  140.4261  143.5952 H   0  0  0  0  0  0  0  0  0  0  0  0  # atno 7974 bound_to 7965
  154.8593  140.0427  157.1655 H   0  0  0  0  0  0  0  0  0  0  0  0  # atno 8008 bound_to 7997
  154.8858  140.2979  155.5378 H   0  0  0  0  0  0  0  0  0  0  0  0  # atno 8009 bound_to 7997
  156.2998  140.2403  156.3866 H   0  0  0  0  0  0  0  0  0  0  0  0  # atno 8010 bound_to 7997
  140.4855  144.0548  150.6279 H   0  0  0  0  0  0  0  0  0  0  0  0  # atno 10167 bound_to 10162
  156.1145  130.6275  150.9356 H   0  0  0  0  0  0  0  0  0  0  0  0  # atno 10718 bound_to 10713
  154.7798  135.3171  154.8013 H   0  0  0  0  0  0  0  0  0  0  0  0  # atno 10763 bound_to 10752
  153.8728  135.6842  153.4777 H   0  0  0  0  0  0  0  0  0  0  0  0  # atno 10764 bound_to 10752
  153.1432  135.4730  154.9463 H   0  0  0  0  0  0  0  0  0  0  0  0  # atno 10765 bound_to 10752
  140.2213  134.8194  157.3223 H   0  0  0  0  0  0  0  0  0  0  0  0  # atno 11005 bound_to 11000
  145.6516  139.1566  143.2859 LP  0  0  0  0  0  0  0  0  0  0  0  0  # atno 17320 bound_to 7965
  146.1738  140.6604  142.9221 LP  0  0  0  0  0  0  0  0  0  0  0  0  # atno 17321 bound_to 7965
  140.3803  143.2806  152.0178 LP  0  0  0  0  0  0  0  0  0  0  0  0  # atno 17342 bound_to 10162
  139.4841  144.6160  151.7345 LP  0  0  0  0  0  0  0  0  0  0  0  0  # atno 17343 bound_to 10162
  157.6328  131.0919  150.8408 LP  0  0  0  0  0  0  0  0  0  0  0  0  # atno 17370 bound_to 10713
  156.8514  130.5081  149.5311 LP  0  0  0  0  0  0  0  0  0  0  0  0  # atno 17371 bound_to 10713
  140.1846  134.4447  155.7751 LP  0  0  0  0  0  0  0  0  0  0  0  0  # atno 17394 bound_to 11000
  141.2223  133.6999  156.7926 LP  0  0  0  0  0  0  0  0  0  0  0  0  # atno 17395 bound_to 11000

$$$$
