AV-unprocessed.smi:131|AV-procd|sdf|1162|dock8
  -GOLD-   2262018303D 1   1.00000     0.00000
 Structure written by MMmdl.
 55 58  0  0  0  0  0  0  0  0  1 V2000
  156.9477  139.3937  158.4141 O   0  0  0  0  0  0  0  0  0  0  0  0
  156.5851  139.6862  159.5527 C   0  0  0  0  0  0  0  0  0  0  0  0
  155.1778  139.2540  160.0038 C   0  0  0  0  0  0  0  0  0  0  0  0
  154.0680  140.1105  159.5241 N   0  0  0  0  0  0  0  0  0  0  0  0
  153.1242  139.5586  158.6225 C   0  0  0  0  0  0  0  0  0  0  0  0
  153.2104  138.3893  158.2456 O   0  0  0  0  0  0  0  0  0  0  0  0
  152.0595  140.4593  158.1953 C   0  0  0  0  0  0  0  0  0  0  0  0
  151.1186  140.0197  157.3427 F   0  0  0  0  0  0  0  0  0  0  0  0
  152.0000  141.7292  158.6464 C   0  0  0  0  0  0  0  0  0  0  0  0
  152.9285  142.2555  159.5273 N   0  0  0  0  0  0  0  0  0  0  0  0
  152.8397  143.6801  160.0358 C   0  0  1  0  0  0  0  0  0  0  0  0
  152.8368  144.6784  158.8615 C   0  0  0  0  0  0  0  0  0  0  0  0
  151.6102  145.5245  159.1408 C   0  0  0  0  0  0  0  0  0  0  0  0
  150.7165  144.5483  159.8902 C   0  0  0  0  0  0  0  0  0  0  0  0
  151.6381  143.8643  160.7287 O   0  0  0  0  0  0  0  0  0  0  0  0
  153.9826  141.4418  159.9965 C   0  0  0  0  0  0  0  0  0  0  0  0
  154.8035  141.8823  160.8042 O   0  0  0  0  0  0  0  0  0  0  0  0
  157.3375  140.3842  160.4268 N   0  0  0  0  0  0  0  0  0  0  0  0
  158.6554  140.8856  160.2597 C   0  0  0  0  0  0  0  0  0  0  0  0
  158.9669  141.4822  159.0191 C   0  0  0  0  0  0  0  0  0  0  0  0
  160.2485  142.0168  158.7843 C   0  0  0  0  0  0  0  0  0  0  0  0
  161.2186  141.9682  159.8039 C   0  0  0  0  0  0  0  0  0  0  0  0
  162.8562  142.6247  159.5140 S   0  0  0  0  0  0  0  0  0  0  0  0
  162.7987  143.6414  158.4518 O   0  0  0  0  0  0  0  0  0  0  0  0
  163.4408  142.9517  160.8241 O   0  0  0  0  0  0  0  0  0  0  0  0
  163.7079  141.2520  158.8912 N   0  0  0  0  0  0  0  0  0  0  0  0
  164.5387  140.4498  159.7978 C   0  0  0  0  0  0  0  0  0  0  0  0
  165.8558  140.2214  159.0543 C   0  0  0  0  0  0  0  0  0  0  0  0
  165.4499  140.2809  157.5881 C   0  0  0  0  0  0  0  0  0  0  0  0
  164.3489  141.3405  157.5736 C   0  0  0  0  0  0  0  0  0  0  0  0
  160.9166  141.3916  161.0524 C   0  0  0  0  0  0  0  0  0  0  0  0
  159.6348  140.8559  161.2828 C   0  0  0  0  0  0  0  0  0  0  0  0
  155.0280  138.2191  159.6923 H   0  0  0  0  0  0  0  0  0  0  0  0
  155.1775  139.1957  161.0934 H   0  0  0  0  0  0  0  0  0  0  0  0
  151.1832  142.3407  158.2947 H   0  0  0  0  0  0  0  0  0  0  0  0
  153.6793  143.7996  160.7230 H   0  0  0  0  0  0  0  0  0  0  0  0
  153.7606  145.2573  158.8387 H   0  0  0  0  0  0  0  0  0  0  0  0
  152.7262  144.1493  157.9135 H   0  0  0  0  0  0  0  0  0  0  0  0
  151.8711  146.3635  159.7871 H   0  0  0  0  0  0  0  0  0  0  0  0
  151.1474  145.9193  158.2358 H   0  0  0  0  0  0  0  0  0  0  0  0
  149.9385  145.0456  160.4697 H   0  0  0  0  0  0  0  0  0  0  0  0
  150.2409  143.8491  159.2009 H   0  0  0  0  0  0  0  0  0  0  0  0
  156.8812  140.6442  161.2890 H   0  0  0  0  0  0  0  0  0  0  0  0
  158.2232  141.5249  158.2365 H   0  0  0  0  0  0  0  0  0  0  0  0
  160.4777  142.4618  157.8275 H   0  0  0  0  0  0  0  0  0  0  0  0
  164.6978  140.9600  160.7485 H   0  0  0  0  0  0  0  0  0  0  0  0
  164.0307  139.5058  159.9973 H   0  0  0  0  0  0  0  0  0  0  0  0
  166.5521  141.0310  159.2776 H   0  0  0  0  0  0  0  0  0  0  0  0
  166.3360  139.2802  159.3237 H   0  0  0  0  0  0  0  0  0  0  0  0
  166.2817  140.5259  156.9272 H   0  0  0  0  0  0  0  0  0  0  0  0
  165.0431  139.3179  157.2767 H   0  0  0  0  0  0  0  0  0  0  0  0
  163.6231  141.1812  156.7756 H   0  0  0  0  0  0  0  0  0  0  0  0
  164.7850  142.3320  157.4468 H   0  0  0  0  0  0  0  0  0  0  0  0
  161.6622  141.3633  161.8336 H   0  0  0  0  0  0  0  0  0  0  0  0
  159.4204  140.4399  162.2550 H   0  0  0  0  0  0  0  0  0  0  0  0
  1  2  2  0  0  0  0
  2  3  1  0  0  0  0
  2 18  1  0  0  0  0
  3  4  1  0  0  0  0
  3 33  1  0  0  0  0
  3 34  1  0  0  0  0
  4 16  1  0  0  0  0
  4  5  1  0  0  0  0
  5  6  2  0  0  0  0
  5  7  1  0  0  0  0
  7  8  1  0  0  0  0
  7  9  2  0  0  0  0
  9 10  1  0  0  0  0
  9 35  1  0  0  0  0
 10 11  1  0  0  0  0
 10 16  1  0  0  0  0
 11 15  1  0  0  0  0
 11 12  1  0  0  0  0
 11 36  1  0  0  0  0
 12 13  1  0  0  0  0
 12 37  1  0  0  0  0
 12 38  1  0  0  0  0
 13 14  1  0  0  0  0
 13 39  1  0  0  0  0
 13 40  1  0  0  0  0
 14 15  1  0  0  0  0
 14 41  1  0  0  0  0
 14 42  1  0  0  0  0
 16 17  2  0  0  0  0
 18 19  1  0  0  0  0
 18 43  1  0  0  0  0
 19 32  1  0  0  0  0
 19 20  2  0  0  0  0
 20 21  1  0  0  0  0
 20 44  1  0  0  0  0
 21 22  2  0  0  0  0
 21 45  1  0  0  0  0
 22 23  1  0  0  0  0
 22 31  1  0  0  0  0
 23 24  2  0  0  0  0
 23 25  2  0  0  0  0
 23 26  1  0  0  0  0
 26 30  1  0  0  0  0
 26 27  1  0  0  0  0
 27 28  1  0  0  0  0
 27 46  1  0  0  0  0
 27 47  1  0  0  0  0
 28 29  1  0  0  0  0
 28 48  1  0  0  0  0
 28 49  1  0  0  0  0
 29 30  1  0  0  0  0
 29 50  1  0  0  0  0
 29 51  1  0  0  0  0
 30 52  1  0  0  0  0
 30 53  1  0  0  0  0
 31 32  2  0  0  0  0
 31 54  1  0  0  0  0
 32 55  1  0  0  0  0
M  END
> <s_m_source_file>
AV-unprocessed.smi

> <i_m_source_file_index>
131

> <i_lp_mmshare_version>
43012

> <i_f3d_flags>
0

> <s_epik_input>
W0NIMl0xW0NIMl1bQ0gyXVtDSDJdTjFTKD1PKSg9TyljKFtjSF1bY0hdMilbY0hdW2NIXWMyW05IXUMoPU8pW0NIMl1uM2MoPU8pYyhGKVtjSF1uKGMzPU8pW0NAQEhdNFtDSDJdW0NIMl1bQ0gyXU80

> <s_epik_cmdline>
J2VwaWtfcHl0aG9uJywgJy1waCcsICc3LjAnLCAnLXRuJywgJzgnLCAnLW1hJywgJzIwMCcsICctbWV0YWxfYmluZGluZycsICctaW1hZScsICc8aW5maWxlLm1hZT4nLCAnLW9tYWUnLCAnPG91dGZpbGUubWFlPic=

> <r_lp_tautomer_probability>
1

> <r_epik_Ionization_Penalty>
1.92533e-06

> <r_epik_Ionization_Penalty_Charging>
3.88729e-08

> <r_epik_Ionization_Penalty_Neutral>
1.88646e-06

> <r_epik_State_Penalty>
-0

> <r_epik_Charging_Adjusted_Penalty>
3.88729e-08

> <i_epik_Tot_Q>
0

> <i_epik_Tot_abs_Q>
0

> <r_epik_Metal_State_Penalty>
-0

> <b_epik_Metal_Only>
0

> <s_epik_Chemistry_Notes>
This compound contains an acetal/aminal-like group ( X-CH(R)-Y where X, Y are N, S, or O) that may be acid/base labile, releasing an aldehyde.

> <s_lp_Force_Field>
OPLS_2005

> <r_lp_Energy>
42.789

> <b_lp_Chiralities_Consistent>
1

> <s_lp_Variant>
AV-unprocessed.smi:131-2

> <Gold.Version>
5.8.1

> <Gold.Id.Protein>
6NUR|6NUR_protein|mol2

> <Gold.PLP.Fitness>
57.0664

> <Gold.PLP.PLP>
-55.6854

> <Gold.PLP.part.hbond>
-5.0000

> <Gold.PLP.part.metal>
0.0000

> <Gold.PLP.part.buried>
-5.3532

> <Gold.PLP.part.nonpolar>
-46.2897

> <Gold.PLP.part.repulsive>
0.4305

> <Gold.PLP.ligand.clash>
0.0000

> <Gold.PLP.ligand.torsion>
2.1333

> <Gold.PLP.Chemscore.Hbond>
1.0000

> <Gold.PLP.Chemscore.CHOScore>
0.0000

> <Gold.PLP.Chemscore.Metal>
0.0000

> <Gold.Chemscore.Hbonds>
donor molecule, donor type, donor heavy atom, donor atom, acceptor molecule, acceptor atom, score
      P1  H  7997  8010       L1     1  1.00

> <Gold.PLP.Chemscore.Internal.Correction>
2.6476

> <Gold.Rescore>
     Score         DG    S(hbond)    S(metal)    S(lipo)     H(rot)  DE(clash)    DE(int)     intcor
      9.01     -15.23       0.83        0.00     101.55       1.92       2.16       4.07       ----

> <Gold.Chemscore.Fitness>
9.0064

> <Gold.Chemscore.DG>
-15.2323

> <Gold.Chemscore.ZeroCoef>
-5.4800

> <Gold.Chemscore.Hbond>
0.8314

> <Gold.Chemscore.Metal>
0.0000

> <Gold.Chemscore.Lipo>
101.5534

> <Gold.Chemscore.Internal_Hbond>
0.0000

> <Gold.Chemscore.DEClash>
2.1553

> <Gold.Chemscore.DEInternal>
4.0706

> <Gold.Chemscore.Rot>
1.9166

> <Gold.Chemscore.Internal.Correction>
   9.000000E+99

> <Gold.Chemscore.Hbonds>
donor molecule, donor type, donor heavy atom, donor atom, acceptor molecule, acceptor atom, score
      P1  H  7997  8010       L1     1  0.54

> <Gold.Chemscore.Hbond.Weighted>
-2.7770

> <Gold.Chemscore.Metal.Weighted>
-0.0000

> <Gold.Chemscore.Lipo.Weighted>
-11.8817

> <Gold.Chemscore.Internal_Hbond.Weighted>
0.0000

> <Gold.Chemscore.DEClash.Weighted>
2.1553

> <Gold.Chemscore.DEInternal.Weighted>
4.0706

> <Gold.Chemscore.Rot.Weighted>
4.9064

> <Gold.Chemscore.Internal.Correction.Weighted>
   9.000000E+99

> <Gold.Protein.RotatedTorsions>
[ 6907 6896 6895 6894 ] final  -28.10 input  -60.11 | X-H torsion
[ 7974 7965 7964 7962 ] final   59.96 input  175.53 | X-H torsion
[ 8008 7997 7996 7995 ] final  -30.75 input   59.86 | X-H torsion
[ 10167 10162 10161 10158 ] final   23.46 input  -65.29 | X-H torsion
[ 10718 10713 10712 10709 ] final  128.68 input   66.30 | X-H torsion
[ 10763 10752 10751 10750 ] final  149.78 input  -60.55 | X-H torsion
[ 11005 11000 10999 10996 ] final  -54.61 input  -57.11 | X-H torsion

> <Gold.Protein.ActiveResidues>
 VAL166  LYS551  ARG553  GLY616  TRP617  ASP618  TYR619  PRO620  LYS621  CYS622 
 ASP623  PHE694  ASN695  SER759  ASP760  ASP761  ALA762  ILE779  LEU786  VAL792 
 PHE793  MET794  SER795  GLU796  ALA797  LYS798  CYS799  TRP800  GLU811  SER814 

> <Gold.Protein.RotatedAtoms>
  151.1377  135.0163  159.8611 H   0  0  0  0  0  0  0  0  0  0  0  0  # atno 6907 bound_to 6896
  152.5452  134.1536  159.8538 H   0  0  0  0  0  0  0  0  0  0  0  0  # atno 6908 bound_to 6896
  151.1608  133.4801  159.2627 H   0  0  0  0  0  0  0  0  0  0  0  0  # atno 6909 bound_to 6896
  145.9014  139.3584  143.0590 H   0  0  0  0  0  0  0  0  0  0  0  0  # atno 7974 bound_to 7965
  154.4239  140.1783  156.1457 H   0  0  0  0  0  0  0  0  0  0  0  0  # atno 8008 bound_to 7997
  155.9955  140.3365  155.6770 H   0  0  0  0  0  0  0  0  0  0  0  0  # atno 8009 bound_to 7997
  155.6314  140.0670  157.2638 H   0  0  0  0  0  0  0  0  0  0  0  0  # atno 8010 bound_to 7997
  140.5267  143.9911  150.6444 H   0  0  0  0  0  0  0  0  0  0  0  0  # atno 10167 bound_to 10162
  157.5223  131.1098  150.9135 H   0  0  0  0  0  0  0  0  0  0  0  0  # atno 10718 bound_to 10713
  154.0767  135.2862  155.3298 H   0  0  0  0  0  0  0  0  0  0  0  0  # atno 10763 bound_to 10752
  154.6710  135.5299  153.8142 H   0  0  0  0  0  0  0  0  0  0  0  0  # atno 10764 bound_to 10752
  153.0464  135.6558  154.0945 H   0  0  0  0  0  0  0  0  0  0  0  0  # atno 10765 bound_to 10752
  141.1034  133.6615  156.4346 H   0  0  0  0  0  0  0  0  0  0  0  0  # atno 11005 bound_to 11000
  145.8787  140.9376  143.0613 LP  0  0  0  0  0  0  0  0  0  0  0  0  # atno 17320 bound_to 7965
  144.6736  140.0750  143.7471 LP  0  0  0  0  0  0  0  0  0  0  0  0  # atno 17321 bound_to 7965
  140.3275  143.3098  152.0721 LP  0  0  0  0  0  0  0  0  0  0  0  0  # atno 17342 bound_to 10162
  139.4940  144.6532  151.6630 LP  0  0  0  0  0  0  0  0  0  0  0  0  # atno 17343 bound_to 10162
  156.9742  130.5502  149.5292 LP  0  0  0  0  0  0  0  0  0  0  0  0  # atno 17370 bound_to 10713
  156.0362  130.5449  150.8659 LP  0  0  0  0  0  0  0  0  0  0  0  0  # atno 17371 bound_to 10713
  140.4964  134.6527  157.5231 LP  0  0  0  0  0  0  0  0  0  0  0  0  # atno 17394 bound_to 11000
  139.9894  134.7009  155.9716 LP  0  0  0  0  0  0  0  0  0  0  0  0  # atno 17395 bound_to 11000

$$$$
