AV-unprocessed.smi:2163|AV-procd|sdf|8806|dock2
  -GOLD-   2272011593D 1   1.00000     0.00000
 Structure written by MMmdl.
 44 46  0  0  0  0  0  0  0  0  2 V2000
  151.6994  138.9442  156.2574 C   0  0  0  0  0  0  0  0  0  0  0  0
  151.8404  140.1632  157.1056 C   0  0  0  0  0  0  0  0  0  0  0  0
  152.5005  140.2399  158.2951 N   0  3  0  0  0  0  0  0  0  0  0  0
  152.4220  141.5401  158.7957 C   0  0  0  0  0  0  0  0  0  0  0  0
  152.9355  142.0986  159.9619 C   0  0  0  0  0  0  0  0  0  0  0  0
  152.6768  143.4684  160.1746 C   0  0  0  0  0  0  0  0  0  0  0  0
  151.9334  144.2276  159.2479 C   0  0  0  0  0  0  0  0  0  0  0  0
  151.4161  143.6497  158.0697 C   0  0  0  0  0  0  0  0  0  0  0  0
  151.6763  142.2944  157.8660 C   0  0  0  0  0  0  0  0  0  0  0  0
  151.3385  141.4030  156.8403 N   0  0  0  0  0  0  0  0  0  0  0  0
  150.5514  141.8747  155.6904 C   0  0  0  0  0  0  0  0  0  0  0  0
  149.6075  140.7901  155.1326 C   0  0  2  0  0  0  0  0  0  0  0  0
  149.5992  140.7761  153.7192 O   0  0  0  0  0  0  0  0  0  0  0  0
  148.1634  140.9047  155.6465 C   0  0  0  0  0  0  0  0  0  0  0  0
  147.3455  141.5246  154.6614 O   0  0  0  0  0  0  0  0  0  0  0  0
  146.0951  141.9685  155.0352 C   0  0  0  0  0  0  0  0  0  0  0  0
  145.4551  141.6193  156.2513 C   0  0  0  0  0  0  0  0  0  0  0  0
  144.1737  142.1203  156.5529 C   0  0  0  0  0  0  0  0  0  0  0  0
  143.5140  142.9749  155.6481 C   0  0  0  0  0  0  0  0  0  0  0  0
  142.1367  143.5142  155.9750 C   0  0  0  0  0  0  0  0  0  0  0  0
  142.1602  144.9586  156.2514 C   0  0  0  0  0  0  0  0  0  0  0  0
  142.1786  146.0948  156.4692 N   0  0  0  0  0  0  0  0  0  0  0  0
  144.1440  143.3266  154.4384 C   0  0  0  0  0  0  0  0  0  0  0  0
  145.4249  142.8248  154.1374 C   0  0  0  0  0  0  0  0  0  0  0  0
  152.2116  138.0974  156.7148 H   0  0  0  0  0  0  0  0  0  0  0  0
  152.1311  139.1189  155.2718 H   0  0  0  0  0  0  0  0  0  0  0  0
  150.6464  138.6889  156.1373 H   0  0  0  0  0  0  0  0  0  0  0  0
  153.5064  141.5192  160.6726 H   0  0  0  0  0  0  0  0  0  0  0  0
  153.0573  143.9467  161.0657 H   0  0  0  0  0  0  0  0  0  0  0  0
  151.7569  145.2753  159.4438 H   0  0  0  0  0  0  0  0  0  0  0  0
  150.8512  144.2430  157.3661 H   0  0  0  0  0  0  0  0  0  0  0  0
  149.9687  142.7323  156.0283 H   0  0  0  0  0  0  0  0  0  0  0  0
  151.2277  142.2538  154.9242 H   0  0  0  0  0  0  0  0  0  0  0  0
  149.9875  139.8143  155.4371 H   0  0  0  0  0  0  0  0  0  0  0  0
  149.5392  139.8785  153.4293 H   0  0  0  0  0  0  0  0  0  0  0  0
  147.7772  139.9201  155.9164 H   0  0  0  0  0  0  0  0  0  0  0  0
  148.1618  141.5203  156.5477 H   0  0  0  0  0  0  0  0  0  0  0  0
  145.9257  140.9675  156.9715 H   0  0  0  0  0  0  0  0  0  0  0  0
  143.6986  141.8466  157.4836 H   0  0  0  0  0  0  0  0  0  0  0  0
  141.4567  143.3328  155.1424 H   0  0  0  0  0  0  0  0  0  0  0  0
  141.7297  143.0029  156.8477 H   0  0  0  0  0  0  0  0  0  0  0  0
  143.6471  143.9828  153.7390 H   0  0  0  0  0  0  0  0  0  0  0  0
  145.8992  143.1014  153.2071 H   0  0  0  0  0  0  0  0  0  0  0  0
  152.9721  139.4574  158.7302 H   0  0  0  0  0  0  0  0  0  0  0  0
  1  2  1  0  0  0  0
  1 25  1  0  0  0  0
  1 26  1  0  0  0  0
  1 27  1  0  0  0  0
  2 10  1  0  0  0  0
  2  3  2  0  0  0  0
  3  4  1  0  0  0  0
  3 44  1  0  0  0  0
  4  9  2  0  0  0  0
  4  5  1  0  0  0  0
  5  6  2  0  0  0  0
  5 28  1  0  0  0  0
  6  7  1  0  0  0  0
  6 29  1  0  0  0  0
  7  8  2  0  0  0  0
  7 30  1  0  0  0  0
  8  9  1  0  0  0  0
  8 31  1  0  0  0  0
  9 10  1  0  0  0  0
 10 11  1  0  0  0  0
 11 12  1  0  0  0  0
 11 32  1  0  0  0  0
 11 33  1  0  0  0  0
 12 13  1  0  0  0  0
 12 14  1  0  0  0  0
 12 34  1  0  0  0  0
 13 35  1  0  0  0  0
 14 15  1  0  0  0  0
 14 36  1  0  0  0  0
 14 37  1  0  0  0  0
 15 16  1  0  0  0  0
 16 24  1  0  0  0  0
 16 17  2  0  0  0  0
 17 18  1  0  0  0  0
 17 38  1  0  0  0  0
 18 19  2  0  0  0  0
 18 39  1  0  0  0  0
 19 20  1  0  0  0  0
 19 23  1  0  0  0  0
 20 21  1  0  0  0  0
 20 40  1  0  0  0  0
 20 41  1  0  0  0  0
 21 22  3  0  0  0  0
 23 24  2  0  0  0  0
 23 42  1  0  0  0  0
 24 43  1  0  0  0  0
M  CHG  1   3   1
M  END
> <s_m_source_file>
AV-unprocessed.smi

> <i_m_source_file_index>
2163

> <i_lp_mmshare_version>
43012

> <i_f3d_flags>
0

> <s_epik_input>
W2NIXTFbY0hdW2NIXVtjSF1jKGMxMiluKGMobjIpW0NIM10pW0NIMl1bQ0BIXShbT0hdKVtDSDJdT2MzW2NIXVtjSF1jKFtDSDJdQyNOKVtjSF1bY0hdMw==

> <s_epik_cmdline>
J2VwaWtfcHl0aG9uJywgJy1waCcsICc3LjAnLCAnLXRuJywgJzgnLCAnLW1hJywgJzIwMCcsICctbWV0YWxfYmluZGluZycsICctaW1hZScsICc8aW5maWxlLm1hZT4nLCAnLW9tYWUnLCAnPG91dGZpbGUubWFlPic=

> <r_lp_tautomer_probability>
1

> <r_epik_Ionization_Penalty>
1.03158

> <r_epik_Ionization_Penalty_Charging>
1.03158

> <r_epik_Ionization_Penalty_Neutral>
2.3994e-06

> <r_epik_State_Penalty>
1.08278

> <r_epik_Charging_Adjusted_Penalty>
2.11436

> <i_epik_Tot_Q>
1

> <i_epik_Tot_abs_Q>
1

> <r_epik_Metal_State_Penalty>
5.07177

> <b_epik_Metal_Only>
0

> <s_lp_Force_Field>
OPLS_2005

> <r_lp_Energy>
21.0912

> <b_lp_Chiralities_Consistent>
1

> <s_lp_Variant>
AV-unprocessed.smi:2163-3

> <Gold.Version>
5.8.1

> <Gold.Id.Protein>
6NUR|6NUR_protein|mol2

> <Gold.PLP.Fitness>
54.0111

> <Gold.PLP.PLP>
-53.2757

> <Gold.PLP.part.hbond>
-4.0000

> <Gold.PLP.part.metal>
0.0000

> <Gold.PLP.part.buried>
-5.8111

> <Gold.PLP.part.nonpolar>
-44.0445

> <Gold.PLP.part.repulsive>
0.3248

> <Gold.PLP.ligand.clash>
0.0000

> <Gold.PLP.ligand.torsion>
1.7232

> <Gold.PLP.Chemscore.Hbond>
1.2903

> <Gold.PLP.Chemscore.CHOScore>
0.0000

> <Gold.PLP.Chemscore.Metal>
0.0000

> <Gold.Chemscore.Hbonds>
donor molecule, donor type, donor heavy atom, donor atom, acceptor molecule, acceptor atom, score
      L1  H    13    35       P1  7957  0.03
      P1  H  7989  7998       L1    13  0.28
      P1  H  8011  8017       L1    13  0.70

> <Gold.PLP.Chemscore.Internal.Correction>
0.3110

> <Gold.Rescore>
     Score         DG    S(hbond)    S(metal)    S(lipo)     H(rot)  DE(clash)    DE(int)     intcor
     13.24     -16.08       1.04        0.00     118.00       2.60       0.22       2.62       ----

> <Gold.Chemscore.Fitness>
13.2374

> <Gold.Chemscore.DG>
-16.0828

> <Gold.Chemscore.ZeroCoef>
-5.4800

> <Gold.Chemscore.Hbond>
1.0370

> <Gold.Chemscore.Metal>
0.0000

> <Gold.Chemscore.Lipo>
117.9995

> <Gold.Chemscore.Internal_Hbond>
0.0000

> <Gold.Chemscore.DEClash>
0.2206

> <Gold.Chemscore.DEInternal>
2.6248

> <Gold.Chemscore.Rot>
2.6041

> <Gold.Chemscore.Internal.Correction>
   9.000000E+99

> <Gold.Chemscore.Hbonds>
donor molecule, donor type, donor heavy atom, donor atom, acceptor molecule, acceptor atom, score
      L1  H    13    35       P1  7957  0.04
      P1  H  7989  7998       L1    13  0.01
      P1  H  8011  8017       L1    13  0.66

> <Gold.Chemscore.Hbond.Weighted>
-3.4634

> <Gold.Chemscore.Metal.Weighted>
-0.0000

> <Gold.Chemscore.Lipo.Weighted>
-13.8059

> <Gold.Chemscore.Internal_Hbond.Weighted>
0.0000

> <Gold.Chemscore.DEClash.Weighted>
0.2206

> <Gold.Chemscore.DEInternal.Weighted>
2.6248

> <Gold.Chemscore.Rot.Weighted>
6.6665

> <Gold.Chemscore.Internal.Correction.Weighted>
   9.000000E+99

> <Gold.Protein.RotatedTorsions>
[ 6907 6896 6895 6894 ] final -137.95 input  -60.11 | X-H torsion
[ 7974 7965 7964 7962 ] final  170.78 input  175.53 | X-H torsion
[ 8008 7997 7996 7995 ] final -170.27 input   59.86 | X-H torsion
[ 10167 10162 10161 10158 ] final -121.58 input  -65.29 | X-H torsion
[ 10718 10713 10712 10709 ] final -149.89 input   66.30 | X-H torsion
[ 10763 10752 10751 10750 ] final  -92.32 input  -60.55 | X-H torsion
[ 11005 11000 10999 10996 ] final -118.01 input  -57.11 | X-H torsion

> <Gold.Protein.ActiveResidues>
 VAL166  LYS551  ARG553  GLY616  TRP617  ASP618  TYR619  PRO620  LYS621  CYS622 
 ASP623  PHE694  ASN695  SER759  ASP760  ASP761  ALA762  ILE779  LEU786  VAL792 
 PHE793  MET794  SER795  GLU796  ALA797  LYS798  CYS799  TRP800  GLU811  SER814 

> <Gold.Protein.RotatedAtoms>
  151.0289  133.5808  159.2662 H   0  0  0  0  0  0  0  0  0  0  0  0  # atno 6907 bound_to 6896
  151.2897  135.0737  159.9209 H   0  0  0  0  0  0  0  0  0  0  0  0  # atno 6908 bound_to 6896
  152.5340  133.9990  159.7940 H   0  0  0  0  0  0  0  0  0  0  0  0  # atno 6909 bound_to 6896
  144.7314  139.9253  143.6422 H   0  0  0  0  0  0  0  0  0  0  0  0  # atno 7974 bound_to 7965
  155.9162  140.1066  157.1242 H   0  0  0  0  0  0  0  0  0  0  0  0  # atno 8008 bound_to 7997
  154.4047  140.1265  156.4685 H   0  0  0  0  0  0  0  0  0  0  0  0  # atno 8009 bound_to 7997
  155.7251  140.3469  155.5036 H   0  0  0  0  0  0  0  0  0  0  0  0  # atno 8010 bound_to 7997
  140.0235  143.5320  152.2210 H   0  0  0  0  0  0  0  0  0  0  0  0  # atno 10167 bound_to 10162
  156.4390  130.8113  151.2342 H   0  0  0  0  0  0  0  0  0  0  0  0  # atno 10718 bound_to 10713
  154.6849  135.5235  153.8313 H   0  0  0  0  0  0  0  0  0  0  0  0  # atno 10763 bound_to 10752
  153.0590  135.6561  154.0516 H   0  0  0  0  0  0  0  0  0  0  0  0  # atno 10764 bound_to 10752
  154.0399  135.2978  155.3336 H   0  0  0  0  0  0  0  0  0  0  0  0  # atno 10765 bound_to 10752
  141.0315  133.9973  157.3135 H   0  0  0  0  0  0  0  0  0  0  0  0  # atno 11005 bound_to 11000
  146.0899  139.3888  143.0412 LP  0  0  0  0  0  0  0  0  0  0  0  0  # atno 17320 bound_to 7965
  145.7725  140.9890  143.1142 LP  0  0  0  0  0  0  0  0  0  0  0  0  # atno 17321 bound_to 7965
  139.6124  144.7612  151.2922 LP  0  0  0  0  0  0  0  0  0  0  0  0  # atno 17342 bound_to 10162
  140.7332  143.6800  150.8009 LP  0  0  0  0  0  0  0  0  0  0  0  0  # atno 17343 bound_to 10162
  157.7507  131.0174  150.3584 LP  0  0  0  0  0  0  0  0  0  0  0  0  # atno 17370 bound_to 10713
  156.3938  130.3903  149.7010 LP  0  0  0  0  0  0  0  0  0  0  0  0  # atno 17371 bound_to 10713
  139.9211  135.0200  156.8068 LP  0  0  0  0  0  0  0  0  0  0  0  0  # atno 17394 bound_to 11000
  140.6397  133.9829  155.7702 LP  0  0  0  0  0  0  0  0  0  0  0  0  # atno 17395 bound_to 11000

$$$$
