AV-unprocessed.smi:2478|AV-procd|sdf|9764|dock9
  -GOLD-   2272013403D 1   1.00000     0.00000
 Structure written by MMmdl.
 42 43  0  0  0  0  0  0  0  0  1 V2000
  152.3305  144.8456  158.3897 C   0  0  0  0  0  0  0  0  0  0  0  0
  152.7473  144.1448  159.6922 C   0  0  1  0  0  0  0  0  0  0  0  0
  151.7282  144.3839  160.8247 C   0  0  0  0  0  0  0  0  0  0  0  0
  152.1702  143.7100  162.1338 C   0  0  0  0  0  0  0  0  0  0  0  0
  152.4295  142.2098  161.9302 C   0  0  0  0  0  0  0  0  0  0  0  0
  153.4469  141.9696  160.8028 C   0  0  0  0  0  0  0  0  0  0  0  0
  153.0024  142.6352  159.4825 C   0  0  1  0  0  0  0  0  0  0  0  0
  151.8017  142.0384  159.0047 O   0  0  0  0  0  0  0  0  0  0  0  0
  151.9234  140.6706  158.6412 C   0  0  0  0  0  0  0  0  0  0  0  0
  150.8594  140.3314  157.5976 C   0  0  0  0  0  0  0  0  0  0  0  0
  150.6063  139.1543  157.3375 O   0  0  0  0  0  0  0  0  0  0  0  0
  150.2639  141.3901  157.0184 N   0  0  0  0  0  0  0  0  0  0  0  0
  149.2574  141.4023  156.0140 C   0  0  0  0  0  0  0  0  0  0  0  0
  148.0928  142.0860  156.1420 N   0  0  0  0  0  0  0  0  0  0  0  0
  147.1885  142.0471  155.1428 C   0  0  0  0  0  0  0  0  0  0  0  0
  147.3908  141.3267  153.9535 C   0  0  0  0  0  0  0  0  0  0  0  0
  148.5929  140.6138  153.8065 C   0  0  0  0  0  0  0  0  0  0  0  0
  149.5453  140.6387  154.8541 C   0  0  0  0  0  0  0  0  0  0  0  0
  150.7515  139.9763  154.7701 O   0  0  0  0  0  0  0  0  0  0  0  0
  150.7817  138.7100  154.2757 C   0  0  0  0  0  0  0  0  0  0  0  0
  152.0285  138.1888  154.3848 F   0  0  0  0  0  0  0  0  0  0  0  0
  149.9434  137.9205  154.9897 F   0  0  0  0  0  0  0  0  0  0  0  0
  151.3717  144.4750  158.0258 H   0  0  0  0  0  0  0  0  0  0  0  0
  153.0690  144.6860  157.6038 H   0  0  0  0  0  0  0  0  0  0  0  0
  152.2343  145.9215  158.5375 H   0  0  0  0  0  0  0  0  0  0  0  0
  153.6918  144.5939  160.0033 H   0  0  0  0  0  0  0  0  0  0  0  0
  151.6007  145.4538  160.9921 H   0  0  0  0  0  0  0  0  0  0  0  0
  150.7501  144.0009  160.5305 H   0  0  0  0  0  0  0  0  0  0  0  0
  153.0773  144.1899  162.5035 H   0  0  0  0  0  0  0  0  0  0  0  0
  151.4092  143.8542  162.9013 H   0  0  0  0  0  0  0  0  0  0  0  0
  152.7916  141.7666  162.8582 H   0  0  0  0  0  0  0  0  0  0  0  0
  151.4923  141.7047  161.6924 H   0  0  0  0  0  0  0  0  0  0  0  0
  154.4130  142.3787  161.1009 H   0  0  0  0  0  0  0  0  0  0  0  0
  153.6058  140.9003  160.6683 H   0  0  0  0  0  0  0  0  0  0  0  0
  153.7908  142.5211  158.7361 H   0  0  0  0  0  0  0  0  0  0  0  0
  152.9175  140.4809  158.2322 H   0  0  0  0  0  0  0  0  0  0  0  0
  151.7843  140.0172  159.5022 H   0  0  0  0  0  0  0  0  0  0  0  0
  150.5677  142.2997  157.3342 H   0  0  0  0  0  0  0  0  0  0  0  0
  146.2795  142.6097  155.2952 H   0  0  0  0  0  0  0  0  0  0  0  0
  146.6444  141.3244  153.1729 H   0  0  0  0  0  0  0  0  0  0  0  0
  148.7741  140.0633  152.8954 H   0  0  0  0  0  0  0  0  0  0  0  0
  150.4644  138.6762  153.2331 H   0  0  0  0  0  0  0  0  0  0  0  0
  1  2  1  0  0  0  0
  1 23  1  0  0  0  0
  1 24  1  0  0  0  0
  1 25  1  0  0  0  0
  2  7  1  0  0  0  0
  2  3  1  0  0  0  0
  2 26  1  0  0  0  0
  3  4  1  0  0  0  0
  3 27  1  0  0  0  0
  3 28  1  0  0  0  0
  4  5  1  0  0  0  0
  4 29  1  0  0  0  0
  4 30  1  0  0  0  0
  5  6  1  0  0  0  0
  5 31  1  0  0  0  0
  5 32  1  0  0  0  0
  6  7  1  0  0  0  0
  6 33  1  0  0  0  0
  6 34  1  0  0  0  0
  7  8  1  0  0  0  0
  7 35  1  0  0  0  0
  8  9  1  0  0  0  0
  9 10  1  0  0  0  0
  9 36  1  0  0  0  0
  9 37  1  0  0  0  0
 10 11  2  0  0  0  0
 10 12  1  0  0  0  0
 12 13  1  0  0  0  0
 12 38  1  0  0  0  0
 13 18  1  0  0  0  0
 13 14  2  0  0  0  0
 14 15  1  0  0  0  0
 15 16  2  0  0  0  0
 15 39  1  0  0  0  0
 16 17  1  0  0  0  0
 16 40  1  0  0  0  0
 17 18  2  0  0  0  0
 17 41  1  0  0  0  0
 18 19  1  0  0  0  0
 19 20  1  0  0  0  0
 20 21  1  0  0  0  0
 20 22  1  0  0  0  0
 20 42  1  0  0  0  0
M  END
> <s_m_source_file>
AV-unprocessed.smi

> <i_m_source_file_index>
2478

> <i_lp_mmshare_version>
43012

> <i_f3d_flags>
0

> <s_epik_input>
W0NIM11bQ0BASF0xW0NIMl1bQ0gyXVtDSDJdW0NIMl1bQ0BIXTFPW0NIMl1DKD1PKVtOSF1jMm5bY0hdW2NIXVtjSF1jMk9bQ0hdKEYpRg==

> <s_epik_cmdline>
J2VwaWtfcHl0aG9uJywgJy1waCcsICc3LjAnLCAnLXRuJywgJzgnLCAnLW1hJywgJzIwMCcsICctbWV0YWxfYmluZGluZycsICctaW1hZScsICc8aW5maWxlLm1hZT4nLCAnLW9tYWUnLCAnPG91dGZpbGUubWFlPic=

> <r_lp_tautomer_probability>
1

> <r_epik_Ionization_Penalty>
6.06012e-05

> <r_epik_Ionization_Penalty_Charging>
0

> <r_epik_Ionization_Penalty_Neutral>
6.06012e-05

> <r_epik_State_Penalty>
-0

> <r_epik_Charging_Adjusted_Penalty>
0

> <i_epik_Tot_Q>
0

> <i_epik_Tot_abs_Q>
0

> <r_epik_Metal_State_Penalty>
-0

> <b_epik_Metal_Only>
0

> <s_lp_Force_Field>
OPLS_2005

> <r_lp_Energy>
14.9607

> <b_lp_Chiralities_Consistent>
1

> <s_lp_Variant>
AV-unprocessed.smi:2478-2

> <Gold.Version>
5.8.1

> <Gold.Id.Protein>
6NUR|6NUR_protein|mol2

> <Gold.PLP.Fitness>
50.5080

> <Gold.PLP.PLP>
-49.5538

> <Gold.PLP.part.hbond>
-1.0000

> <Gold.PLP.part.metal>
0.0000

> <Gold.PLP.part.buried>
-7.8042

> <Gold.PLP.part.nonpolar>
-40.6235

> <Gold.PLP.part.repulsive>
1.4083

> <Gold.PLP.ligand.clash>
0.0000

> <Gold.PLP.ligand.torsion>
1.0519

> <Gold.PLP.Chemscore.Hbond>
1.0000

> <Gold.PLP.Chemscore.CHOScore>
0.0000

> <Gold.PLP.Chemscore.Metal>
0.0000

> <Gold.Chemscore.Hbonds>
donor molecule, donor type, donor heavy atom, donor atom, acceptor molecule, acceptor atom, score
      P1  H  7989  7998       L1    19  1.00

> <Gold.PLP.Chemscore.Internal.Correction>
0.0579

> <Gold.Rescore>
     Score         DG    S(hbond)    S(metal)    S(lipo)     H(rot)  DE(clash)    DE(int)     intcor
      8.67     -15.88       0.01        0.00     129.04       1.85       2.00       5.21       ----

> <Gold.Chemscore.Fitness>
8.6685

> <Gold.Chemscore.DG>
-15.8792

> <Gold.Chemscore.ZeroCoef>
-5.4800

> <Gold.Chemscore.Hbond>
0.0098

> <Gold.Chemscore.Metal>
0.0000

> <Gold.Chemscore.Lipo>
129.0386

> <Gold.Chemscore.Internal_Hbond>
0.0000

> <Gold.Chemscore.DEClash>
2.0013

> <Gold.Chemscore.DEInternal>
5.2095

> <Gold.Chemscore.Rot>
1.8481

> <Gold.Chemscore.Internal.Correction>
   9.000000E+99

> <Gold.Chemscore.Hbonds>
donor molecule, donor type, donor heavy atom, donor atom, acceptor molecule, acceptor atom, score
      P1  H  7989  7998       L1    19  0.12

> <Gold.Chemscore.Hbond.Weighted>
-0.0328

> <Gold.Chemscore.Metal.Weighted>
-0.0000

> <Gold.Chemscore.Lipo.Weighted>
-15.0975

> <Gold.Chemscore.Internal_Hbond.Weighted>
0.0000

> <Gold.Chemscore.DEClash.Weighted>
2.0013

> <Gold.Chemscore.DEInternal.Weighted>
5.2095

> <Gold.Chemscore.Rot.Weighted>
4.7311

> <Gold.Chemscore.Internal.Correction.Weighted>
   9.000000E+99

> <Gold.Protein.RotatedTorsions>
[ 6907 6896 6895 6894 ] final -178.08 input  -60.11 | X-H torsion
[ 7974 7965 7964 7962 ] final -100.28 input  175.53 | X-H torsion
[ 8008 7997 7996 7995 ] final   38.29 input   59.86 | X-H torsion
[ 10167 10162 10161 10158 ] final   72.40 input  -65.29 | X-H torsion
[ 10718 10713 10712 10709 ] final -159.92 input   66.30 | X-H torsion
[ 10763 10752 10751 10750 ] final   99.72 input  -60.55 | X-H torsion
[ 11005 11000 10999 10996 ] final   65.71 input  -57.11 | X-H torsion

> <Gold.Protein.ActiveResidues>
 VAL166  LYS551  ARG553  GLY616  TRP617  ASP618  TYR619  PRO620  LYS621  CYS622 
 ASP623  PHE694  ASN695  SER759  ASP760  ASP761  ALA762  ILE779  LEU786  VAL792 
 PHE793  MET794  SER795  GLU796  ALA797  LYS798  CYS799  TRP800  GLU811  SER814 

> <Gold.Protein.RotatedAtoms>
  151.6314  133.3332  159.3109 H   0  0  0  0  0  0  0  0  0  0  0  0  # atno 6907 bound_to 6896
  150.8054  134.7180  159.6651 H   0  0  0  0  0  0  0  0  0  0  0  0  # atno 6908 bound_to 6896
  152.4149  134.6063  160.0065 H   0  0  0  0  0  0  0  0  0  0  0  0  # atno 6909 bound_to 6896
  145.2966  140.9366  143.2847 H   0  0  0  0  0  0  0  0  0  0  0  0  # atno 7974 bound_to 7965
  155.2177  140.3328  155.4320 H   0  0  0  0  0  0  0  0  0  0  0  0  # atno 8008 bound_to 7997
  156.2345  140.1866  156.7202 H   0  0  0  0  0  0  0  0  0  0  0  0  # atno 8009 bound_to 7997
  154.6036  140.0619  156.9386 H   0  0  0  0  0  0  0  0  0  0  0  0  # atno 8010 bound_to 7997
  140.0357  144.5430  150.7472 H   0  0  0  0  0  0  0  0  0  0  0  0  # atno 10167 bound_to 10162
  156.5748  130.8704  151.2848 H   0  0  0  0  0  0  0  0  0  0  0  0  # atno 10718 bound_to 10713
  153.3049  135.4103  155.1285 H   0  0  0  0  0  0  0  0  0  0  0  0  # atno 10763 bound_to 10752
  154.8560  135.3550  154.5801 H   0  0  0  0  0  0  0  0  0  0  0  0  # atno 10764 bound_to 10752
  153.6228  135.7064  153.5363 H   0  0  0  0  0  0  0  0  0  0  0  0  # atno 10765 bound_to 10752
  139.9877  134.6641  156.0146 H   0  0  0  0  0  0  0  0  0  0  0  0  # atno 11005 bound_to 11000
  144.9128  139.4507  143.6579 LP  0  0  0  0  0  0  0  0  0  0  0  0  # atno 17320 bound_to 7965
  146.3166  139.7946  142.8978 LP  0  0  0  0  0  0  0  0  0  0  0  0  # atno 17321 bound_to 7965
  140.7282  143.2660  151.4045 LP  0  0  0  0  0  0  0  0  0  0  0  0  # atno 17342 bound_to 10162
  139.6047  144.1223  152.2236 LP  0  0  0  0  0  0  0  0  0  0  0  0  # atno 17343 bound_to 10162
  157.7340  130.9739  150.2006 LP  0  0  0  0  0  0  0  0  0  0  0  0  # atno 17370 bound_to 10713
  156.2683  130.3719  149.8058 LP  0  0  0  0  0  0  0  0  0  0  0  0  # atno 17371 bound_to 10713
  141.1539  133.6545  156.4099 LP  0  0  0  0  0  0  0  0  0  0  0  0  # atno 17394 bound_to 11000
  140.4969  134.6522  157.5233 LP  0  0  0  0  0  0  0  0  0  0  0  0  # atno 17395 bound_to 11000

$$$$
