AV-unprocessed.smi:1272|AV-procd|sdf|5335|dock9
  -GOLD-   22720 4463D 1   1.00000     0.00000
 Structure written by MMmdl.
 45 47  0  0  0  0  0  0  0  0  1 V2000
  154.6725  141.0556  160.9509 C   0  0  0  0  0  0  0  0  0  0  0  0
  153.4572  140.3395  160.3488 C   0  0  0  0  0  0  0  0  0  0  0  0
  152.6997  141.2289  159.4717 N   0  0  0  0  0  0  0  0  0  0  0  0
  152.2954  140.9635  158.2071 C   0  0  0  0  0  0  0  0  0  0  0  0
  152.4907  139.9164  157.5899 O   0  0  0  0  0  0  0  0  0  0  0  0
  151.6406  142.0516  157.7373 N   0  0  0  0  0  0  0  0  0  0  0  0
  151.0333  142.1971  156.4148 C   0  0  0  0  0  0  0  0  0  0  0  0
  149.7974  141.2882  156.2494 C   0  0  1  0  0  0  0  0  0  0  0  0
  148.6569  142.0722  156.5418 O   0  0  0  0  0  0  0  0  0  0  0  0
  149.6540  140.7676  154.8021 C   0  0  0  0  0  0  0  0  0  0  0  0
  150.4124  139.5538  154.4959 N   0  0  0  0  0  0  0  0  0  0  0  0
  149.7825  138.3807  155.0934 C   0  0  0  0  0  0  0  0  0  0  0  0
  150.5582  137.0887  154.7841 C   0  0  0  0  0  0  0  0  0  0  0  0
  151.9024  137.2222  155.2345 O   0  0  0  0  0  0  0  0  0  0  0  0
  152.5721  138.3281  154.6385 C   0  0  0  0  0  0  0  0  0  0  0  0
  151.8020  139.6254  154.9423 C   0  0  0  0  0  0  0  0  0  0  0  0
  151.6287  143.0435  158.7288 C   0  0  0  0  0  0  0  0  0  0  0  0
  151.0806  144.3382  158.7378 C   0  0  0  0  0  0  0  0  0  0  0  0
  151.2471  145.1030  159.9161 C   0  0  0  0  0  0  0  0  0  0  0  0
  151.9403  144.5729  161.0352 C   0  0  0  0  0  0  0  0  0  0  0  0
  152.4796  143.2659  161.0006 C   0  0  0  0  0  0  0  0  0  0  0  0
  152.2981  142.5268  159.8186 C   0  0  0  0  0  0  0  0  0  0  0  0
  155.2358  140.3843  161.5994 H   0  0  0  0  0  0  0  0  0  0  0  0
  154.3685  141.9164  161.5471 H   0  0  0  0  0  0  0  0  0  0  0  0
  155.3482  141.4087  160.1714 H   0  0  0  0  0  0  0  0  0  0  0  0
  153.7847  139.4601  159.7922 H   0  0  0  0  0  0  0  0  0  0  0  0
  152.8094  139.9690  161.1436 H   0  0  0  0  0  0  0  0  0  0  0  0
  150.7871  143.2394  156.2090 H   0  0  0  0  0  0  0  0  0  0  0  0
  151.7914  141.9265  155.6784 H   0  0  0  0  0  0  0  0  0  0  0  0
  149.8586  140.4464  156.9407 H   0  0  0  0  0  0  0  0  0  0  0  0
  148.8519  142.9721  156.3290 H   0  0  0  0  0  0  0  0  0  0  0  0
  148.6018  140.6388  154.5423 H   0  0  0  0  0  0  0  0  0  0  0  0
  150.0179  141.5502  154.1353 H   0  0  0  0  0  0  0  0  0  0  0  0
  149.7140  138.5082  156.1751 H   0  0  0  0  0  0  0  0  0  0  0  0
  148.7603  138.2813  154.7262 H   0  0  0  0  0  0  0  0  0  0  0  0
  150.0959  136.2389  155.2863 H   0  0  0  0  0  0  0  0  0  0  0  0
  150.5442  136.8759  153.7139 H   0  0  0  0  0  0  0  0  0  0  0  0
  153.5859  138.3869  155.0351 H   0  0  0  0  0  0  0  0  0  0  0  0
  152.6578  138.1731  153.5618 H   0  0  0  0  0  0  0  0  0  0  0  0
  152.3132  140.4536  154.4524 H   0  0  0  0  0  0  0  0  0  0  0  0
  151.8365  139.8238  156.0146 H   0  0  0  0  0  0  0  0  0  0  0  0
  150.5524  144.7370  157.8846 H   0  0  0  0  0  0  0  0  0  0  0  0
  150.8417  146.1029  159.9641 H   0  0  0  0  0  0  0  0  0  0  0  0
  152.0570  145.1745  161.9246 H   0  0  0  0  0  0  0  0  0  0  0  0
  153.0079  142.8570  161.8491 H   0  0  0  0  0  0  0  0  0  0  0  0
  1  2  1  0  0  0  0
  1 23  1  0  0  0  0
  1 24  1  0  0  0  0
  1 25  1  0  0  0  0
  2  3  1  0  0  0  0
  2 26  1  0  0  0  0
  2 27  1  0  0  0  0
  3 22  1  0  0  0  0
  3  4  1  0  0  0  0
  4  5  2  0  0  0  0
  4  6  1  0  0  0  0
  6  7  1  0  0  0  0
  6 17  1  0  0  0  0
  7  8  1  0  0  0  0
  7 28  1  0  0  0  0
  7 29  1  0  0  0  0
  8  9  1  0  0  0  0
  8 10  1  0  0  0  0
  8 30  1  0  0  0  0
  9 31  1  0  0  0  0
 10 11  1  0  0  0  0
 10 32  1  0  0  0  0
 10 33  1  0  0  0  0
 11 16  1  0  0  0  0
 11 12  1  0  0  0  0
 12 13  1  0  0  0  0
 12 34  1  0  0  0  0
 12 35  1  0  0  0  0
 13 14  1  0  0  0  0
 13 36  1  0  0  0  0
 13 37  1  0  0  0  0
 14 15  1  0  0  0  0
 15 16  1  0  0  0  0
 15 38  1  0  0  0  0
 15 39  1  0  0  0  0
 16 40  1  0  0  0  0
 16 41  1  0  0  0  0
 17 22  2  0  0  0  0
 17 18  1  0  0  0  0
 18 19  2  0  0  0  0
 18 42  1  0  0  0  0
 19 20  1  0  0  0  0
 19 43  1  0  0  0  0
 20 21  2  0  0  0  0
 20 44  1  0  0  0  0
 21 22  1  0  0  0  0
 21 45  1  0  0  0  0
M  END
> <s_m_source_file>
AV-unprocessed.smi

> <i_m_source_file_index>
1272

> <i_lp_mmshare_version>
43012

> <i_f3d_flags>
0

> <s_epik_input>
W2NIXTFbY0hdW2NIXVtjSF1jKGMxMiluKFtDSDJdW0NIM10pYyg9TyluMltDSDJdW0NASF0oW09IXSlbQ0gyXU4zW0NIMl1bQ0gyXU9bQ0gyXVtDSDJdMw==

> <s_epik_cmdline>
J2VwaWtfcHl0aG9uJywgJy1waCcsICc3LjAnLCAnLXRuJywgJzgnLCAnLW1hJywgJzIwMCcsICctbWV0YWxfYmluZGluZycsICctaW1hZScsICc8aW5maWxlLm1hZT4nLCAnLW9tYWUnLCAnPG91dGZpbGUubWFlPic=

> <r_epik_Ionization_Penalty>
0.214359

> <r_epik_Ionization_Penalty_Charging>
2.31431e-09

> <r_epik_Ionization_Penalty_Neutral>
0.214359

> <r_epik_State_Penalty>
0.204533

> <r_epik_Charging_Adjusted_Penalty>
0.204533

> <i_epik_Tot_Q>
0

> <i_epik_Tot_abs_Q>
0

> <r_epik_Metal_State_Penalty>
0.204533

> <b_epik_Metal_Only>
0

> <s_lp_Force_Field>
OPLS_2005

> <r_lp_Energy>
62.2606

> <b_lp_Chiralities_Consistent>
1

> <s_lp_Variant>
AV-unprocessed.smi:1272-2

> <Gold.Version>
5.8.1

> <Gold.Id.Protein>
6NUR|6NUR_protein|mol2

> <Gold.PLP.Fitness>
56.4732

> <Gold.PLP.PLP>
-49.8018

> <Gold.PLP.part.hbond>
-4.0000

> <Gold.PLP.part.metal>
0.0000

> <Gold.PLP.part.buried>
-2.8886

> <Gold.PLP.part.nonpolar>
-43.7609

> <Gold.PLP.part.repulsive>
0.2026

> <Gold.PLP.ligand.clash>
0.0000

> <Gold.PLP.ligand.torsion>
1.0042

> <Gold.PLP.Chemscore.Hbond>
2.8865

> <Gold.PLP.Chemscore.CHOScore>
0.0000

> <Gold.PLP.Chemscore.Metal>
0.0000

> <Gold.Chemscore.Hbonds>
donor molecule, donor type, donor heavy atom, donor atom, acceptor molecule, acceptor atom, score
      L1  H     9    31       P1  8028  1.00
      P1  H  7997  8008       L1     5  0.81
      P1  H 10752 10765       L1    14  0.96

> <Gold.PLP.Chemscore.Internal.Correction>
0.0204

> <Gold.Rescore>
     Score         DG    S(hbond)    S(metal)    S(lipo)     H(rot)  DE(clash)    DE(int)     intcor
     19.47     -23.20       2.41        0.00     129.39       2.14       1.42       2.31       ----

> <Gold.Chemscore.Fitness>
19.4732

> <Gold.Chemscore.DG>
-23.2019

> <Gold.Chemscore.ZeroCoef>
-5.4800

> <Gold.Chemscore.Hbond>
2.4125

> <Gold.Chemscore.Metal>
0.0000

> <Gold.Chemscore.Lipo>
129.3938

> <Gold.Chemscore.Internal_Hbond>
0.0000

> <Gold.Chemscore.DEClash>
1.4215

> <Gold.Chemscore.DEInternal>
2.3072

> <Gold.Chemscore.Rot>
2.1386

> <Gold.Chemscore.Internal.Correction>
   9.000000E+99

> <Gold.Chemscore.Hbonds>
donor molecule, donor type, donor heavy atom, donor atom, acceptor molecule, acceptor atom, score
      L1  H     9    31       P1  8028  0.99
      P1  H  7997  8008       L1     5  0.44
      P1  H 10752 10765       L1    14  0.22

> <Gold.Chemscore.Hbond.Weighted>
-8.0577

> <Gold.Chemscore.Metal.Weighted>
-0.0000

> <Gold.Chemscore.Lipo.Weighted>
-15.1391

> <Gold.Chemscore.Internal_Hbond.Weighted>
0.0000

> <Gold.Chemscore.DEClash.Weighted>
1.4215

> <Gold.Chemscore.DEInternal.Weighted>
2.3072

> <Gold.Chemscore.Rot.Weighted>
5.4749

> <Gold.Chemscore.Internal.Correction.Weighted>
   9.000000E+99

> <Gold.Protein.RotatedTorsions>
[ 6907 6896 6895 6894 ] final   56.06 input  -60.11 | X-H torsion
[ 7974 7965 7964 7962 ] final -114.89 input  175.53 | X-H torsion
[ 8008 7997 7996 7995 ] final  -64.49 input   59.86 | X-H torsion
[ 10167 10162 10161 10158 ] final  129.08 input  -65.29 | X-H torsion
[ 10718 10713 10712 10709 ] final   59.62 input   66.30 | X-H torsion
[ 10763 10752 10751 10750 ] final  176.88 input  -60.55 | X-H torsion
[ 11005 11000 10999 10996 ] final   68.51 input  -57.11 | X-H torsion

> <Gold.Protein.ActiveResidues>
 VAL166  LYS551  ARG553  GLY616  TRP617  ASP618  TYR619  PRO620  LYS621  CYS622 
 ASP623  PHE694  ASN695  SER759  ASP760  ASP761  ALA762  ILE779  LEU786  VAL792 
 PHE793  MET794  SER795  GLU796  ALA797  LYS798  CYS799  TRP800  GLU811  SER814 

> <Gold.Protein.RotatedAtoms>
  152.3599  134.6886  160.0210 H   0  0  0  0  0  0  0  0  0  0  0  0  # atno 6907 bound_to 6896
  151.7213  133.3309  159.3324 H   0  0  0  0  0  0  0  0  0  0  0  0  # atno 6908 bound_to 6896
  150.7598  134.6380  159.6266 H   0  0  0  0  0  0  0  0  0  0  0  0  # atno 6909 bound_to 6896
  145.1148  140.8634  143.3848 H   0  0  0  0  0  0  0  0  0  0  0  0  # atno 7974 bound_to 7965
  154.4615  140.0953  156.6905 H   0  0  0  0  0  0  0  0  0  0  0  0  # atno 8008 bound_to 7997
  155.4981  140.3473  155.4348 H   0  0  0  0  0  0  0  0  0  0  0  0  # atno 8009 bound_to 7997
  156.0878  140.1389  156.9619 H   0  0  0  0  0  0  0  0  0  0  0  0  # atno 8010 bound_to 7997
  139.5495  144.6801  151.4368 H   0  0  0  0  0  0  0  0  0  0  0  0  # atno 10167 bound_to 10162
  157.5690  130.8893  149.9234 H   0  0  0  0  0  0  0  0  0  0  0  0  # atno 10718 bound_to 10713
  154.4870  135.2777  155.1526 H   0  0  0  0  0  0  0  0  0  0  0  0  # atno 10763 bound_to 10752
  154.3213  135.6209  153.5513 H   0  0  0  0  0  0  0  0  0  0  0  0  # atno 10764 bound_to 10752
  152.9883  135.5743  154.5283 H   0  0  0  0  0  0  0  0  0  0  0  0  # atno 10765 bound_to 10752
  139.9707  134.6905  156.0453 H   0  0  0  0  0  0  0  0  0  0  0  0  # atno 11005 bound_to 11000
  145.0806  139.2963  143.5785 LP  0  0  0  0  0  0  0  0  0  0  0  0  # atno 17320 bound_to 7965
  146.3524  140.0311  142.8650 LP  0  0  0  0  0  0  0  0  0  0  0  0  # atno 17321 bound_to 7965
  140.6753  143.8202  150.7051 LP  0  0  0  0  0  0  0  0  0  0  0  0  # atno 17342 bound_to 10162
  140.1639  143.4252  152.2048 LP  0  0  0  0  0  0  0  0  0  0  0  0  # atno 17343 bound_to 10162
  156.0736  130.3682  150.0724 LP  0  0  0  0  0  0  0  0  0  0  0  0  # atno 17370 bound_to 10713
  156.8879  130.9578  151.3592 LP  0  0  0  0  0  0  0  0  0  0  0  0  # atno 17371 bound_to 10713
  141.1386  133.6569  156.3666 LP  0  0  0  0  0  0  0  0  0  0  0  0  # atno 17394 bound_to 11000
  140.5300  134.6222  157.5346 LP  0  0  0  0  0  0  0  0  0  0  0  0  # atno 17395 bound_to 11000

$$$$
