AV-unprocessed.smi:2413|AV-procd|sdf|9535|dock2
  -GOLD-   2272013163D 1   1.00000     0.00000
 Structure written by MMmdl.
 45 46  0  0  0  0  0  0  0  0  1 V2000
  156.9790  138.3135  152.2054 C   0  0  0  0  0  0  0  0  0  0  0  0
  157.0728  137.0106  152.9922 C   0  0  0  0  0  0  0  0  0  0  0  0
  156.2052  136.7219  153.8158 O   0  0  0  0  0  0  0  0  0  0  0  0
  158.1332  136.2329  152.7281 N   0  0  0  0  0  0  0  0  0  0  0  0
  158.4194  134.9579  153.3767 C   0  0  0  0  0  0  0  0  0  0  0  0
  159.6558  134.2750  152.7678 C   0  0  1  0  0  0  0  0  0  0  0  0
  159.3311  132.8596  152.2528 C   0  0  0  0  0  0  0  0  0  0  0  0
  160.4844  132.2777  151.5708 N   0  0  0  0  0  0  0  0  0  0  0  0
  160.4776  130.8909  151.2953 C   0  0  0  0  0  0  0  0  0  0  0  0
  160.8703  129.9166  152.2464 C   0  0  0  0  0  0  0  0  0  0  0  0
  160.8378  128.5718  151.8306 C   0  0  0  0  0  0  0  0  0  0  0  0
  160.4471  128.2186  150.5894 N   0  0  0  0  0  0  0  0  0  0  0  0
  160.0544  129.1980  149.7664 C   0  0  0  0  0  0  0  0  0  0  0  0
  159.7522  128.8151  148.3073 C   0  0  0  0  0  0  0  0  0  0  0  0
  160.9795  128.1479  147.6421 C   0  0  0  0  0  0  0  0  0  0  0  0
  159.4326  130.0672  147.4574 C   0  0  0  0  0  0  0  0  0  0  0  0
  158.5555  127.8472  148.2694 C   0  0  0  0  0  0  0  0  0  0  0  0
  160.0898  130.5045  150.0562 N   0  0  0  0  0  0  0  0  0  0  0  0
  161.0840  133.1482  150.5591 C   0  0  0  0  0  0  0  0  0  0  0  0
  161.3288  134.5546  151.1291 C   0  0  0  0  0  0  0  0  0  0  0  0
  160.1207  135.0670  151.6783 O   0  0  0  0  0  0  0  0  0  0  0  0
  157.9153  138.8688  152.2692 H   0  0  0  0  0  0  0  0  0  0  0  0
  156.1806  138.9456  152.5955 H   0  0  0  0  0  0  0  0  0  0  0  0
  156.7699  138.1073  151.1554 H   0  0  0  0  0  0  0  0  0  0  0  0
  158.7993  136.5539  152.0407 H   0  0  0  0  0  0  0  0  0  0  0  0
  158.5606  135.1136  154.4476 H   0  0  0  0  0  0  0  0  0  0  0  0
  157.5457  134.3138  153.2715 H   0  0  0  0  0  0  0  0  0  0  0  0
  160.4380  134.2078  153.5268 H   0  0  0  0  0  0  0  0  0  0  0  0
  159.0458  132.2428  153.1052 H   0  0  0  0  0  0  0  0  0  0  0  0
  158.4846  132.8881  151.5653 H   0  0  0  0  0  0  0  0  0  0  0  0
  161.1848  130.1589  153.2496 H   0  0  0  0  0  0  0  0  0  0  0  0
  161.1335  127.7751  152.4970 H   0  0  0  0  0  0  0  0  0  0  0  0
  160.7865  127.9162  146.5940 H   0  0  0  0  0  0  0  0  0  0  0  0
  161.2466  127.2082  148.1271 H   0  0  0  0  0  0  0  0  0  0  0  0
  161.8541  128.7986  147.6783 H   0  0  0  0  0  0  0  0  0  0  0  0
  160.2523  130.7861  147.4852 H   0  0  0  0  0  0  0  0  0  0  0  0
  158.5330  130.5774  147.8036 H   0  0  0  0  0  0  0  0  0  0  0  0
  159.2621  129.8052  146.4125 H   0  0  0  0  0  0  0  0  0  0  0  0
  158.3124  127.5531  147.2479 H   0  0  0  0  0  0  0  0  0  0  0  0
  157.6642  128.3031  148.7016 H   0  0  0  0  0  0  0  0  0  0  0  0
  158.7645  126.9372  148.8329 H   0  0  0  0  0  0  0  0  0  0  0  0
  162.0332  132.7532  150.1973 H   0  0  0  0  0  0  0  0  0  0  0  0
  160.4127  133.2036  149.7013 H   0  0  0  0  0  0  0  0  0  0  0  0
  162.1102  134.5360  151.8906 H   0  0  0  0  0  0  0  0  0  0  0  0
  161.6713  135.2238  150.3396 H   0  0  0  0  0  0  0  0  0  0  0  0
  1  2  1  0  0  0  0
  1 22  1  0  0  0  0
  1 23  1  0  0  0  0
  1 24  1  0  0  0  0
  2  3  2  0  0  0  0
  2  4  1  0  0  0  0
  4  5  1  0  0  0  0
  4 25  1  0  0  0  0
  5  6  1  0  0  0  0
  5 26  1  0  0  0  0
  5 27  1  0  0  0  0
  6 21  1  0  0  0  0
  6  7  1  0  0  0  0
  6 28  1  0  0  0  0
  7  8  1  0  0  0  0
  7 29  1  0  0  0  0
  7 30  1  0  0  0  0
  8  9  1  0  0  0  0
  8 19  1  0  0  0  0
  9 18  1  0  0  0  0
  9 10  2  0  0  0  0
 10 11  1  0  0  0  0
 10 31  1  0  0  0  0
 11 12  2  0  0  0  0
 11 32  1  0  0  0  0
 12 13  1  0  0  0  0
 13 14  1  0  0  0  0
 13 18  2  0  0  0  0
 14 15  1  0  0  0  0
 14 16  1  0  0  0  0
 14 17  1  0  0  0  0
 15 33  1  0  0  0  0
 15 34  1  0  0  0  0
 15 35  1  0  0  0  0
 16 36  1  0  0  0  0
 16 37  1  0  0  0  0
 16 38  1  0  0  0  0
 17 39  1  0  0  0  0
 17 40  1  0  0  0  0
 17 41  1  0  0  0  0
 19 20  1  0  0  0  0
 19 42  1  0  0  0  0
 19 43  1  0  0  0  0
 20 21  1  0  0  0  0
 20 44  1  0  0  0  0
 20 45  1  0  0  0  0
M  END
> <s_m_source_file>
AV-unprocessed.smi

> <i_m_source_file_index>
2413

> <i_lp_mmshare_version>
43012

> <i_f3d_flags>
0

> <s_epik_input>
W0NIM11DKD1PKVtOSF1bQ0gyXVtDQEBIXTFbQ0gyXU4oW0NIMl1bQ0gyXU8xKWMyW2NIXVtjSF1uYyhuMilDKFtDSDNdKShbQ0gzXSlbQ0gzXQ==

> <s_epik_cmdline>
J2VwaWtfcHl0aG9uJywgJy1waCcsICc3LjAnLCAnLXRuJywgJzgnLCAnLW1hJywgJzIwMCcsICctbWV0YWxfYmluZGluZycsICctaW1hZScsICc8aW5maWxlLm1hZT4nLCAnLW9tYWUnLCAnPG91dGZpbGUubWFlPic=

> <r_lp_tautomer_probability>
1

> <r_epik_Ionization_Penalty>
0.0132021

> <r_epik_Ionization_Penalty_Charging>
0

> <r_epik_Ionization_Penalty_Neutral>
0.0132021

> <r_epik_State_Penalty>
0.0102452

> <r_epik_Charging_Adjusted_Penalty>
0.0102452

> <i_epik_Tot_Q>
0

> <i_epik_Tot_abs_Q>
0

> <r_epik_Metal_State_Penalty>
0.0100219

> <b_epik_Metal_Only>
0

> <s_lp_Force_Field>
OPLS_2005

> <r_lp_Energy>
8.35197

> <b_lp_Chiralities_Consistent>
1

> <s_lp_Variant>
AV-unprocessed.smi:2413-2

> <Gold.Version>
5.8.1

> <Gold.Id.Protein>
6NUR|6NUR_protein|mol2

> <Gold.PLP.Fitness>
38.8495

> <Gold.PLP.PLP>
-35.1580

> <Gold.PLP.part.hbond>
-2.0000

> <Gold.PLP.part.metal>
0.0000

> <Gold.PLP.part.buried>
-6.6152

> <Gold.PLP.part.nonpolar>
-29.5442

> <Gold.PLP.part.repulsive>
0.2472

> <Gold.PLP.ligand.clash>
0.0000

> <Gold.PLP.ligand.torsion>
1.3189

> <Gold.PLP.Chemscore.Hbond>
1.9000

> <Gold.PLP.Chemscore.CHOScore>
0.0000

> <Gold.PLP.Chemscore.Metal>
0.0000

> <Gold.Chemscore.Hbonds>
donor molecule, donor type, donor heavy atom, donor atom, acceptor molecule, acceptor atom, score
      P1  H 10713 10718       L1    18  0.06
      P1  H 10752 10765       L1     3  1.00

> <Gold.PLP.Chemscore.Internal.Correction>
0.6292

> <Gold.Rescore>
     Score         DG    S(hbond)    S(metal)    S(lipo)     H(rot)  DE(clash)    DE(int)     intcor
     14.94     -16.30       1.02        0.00     101.26       1.73       0.05       1.30       ----

> <Gold.Chemscore.Fitness>
14.9439

> <Gold.Chemscore.DG>
-16.2962

> <Gold.Chemscore.ZeroCoef>
-5.4800

> <Gold.Chemscore.Hbond>
1.0197

> <Gold.Chemscore.Metal>
0.0000

> <Gold.Chemscore.Lipo>
101.2610

> <Gold.Chemscore.Internal_Hbond>
0.0000

> <Gold.Chemscore.DEClash>
0.0504

> <Gold.Chemscore.DEInternal>
1.3019

> <Gold.Chemscore.Rot>
1.7332

> <Gold.Chemscore.Internal.Correction>
   9.000000E+99

> <Gold.Chemscore.Hbonds>
donor molecule, donor type, donor heavy atom, donor atom, acceptor molecule, acceptor atom, score
      P1  H 10713 10718       L1    18  0.01
      P1  H 10752 10765       L1     3  0.96

> <Gold.Chemscore.Hbond.Weighted>
-3.4057

> <Gold.Chemscore.Metal.Weighted>
-0.0000

> <Gold.Chemscore.Lipo.Weighted>
-11.8475

> <Gold.Chemscore.Internal_Hbond.Weighted>
0.0000

> <Gold.Chemscore.DEClash.Weighted>
0.0504

> <Gold.Chemscore.DEInternal.Weighted>
1.3019

> <Gold.Chemscore.Rot.Weighted>
4.4370

> <Gold.Chemscore.Internal.Correction.Weighted>
   9.000000E+99

> <Gold.Protein.RotatedTorsions>
[ 6907 6896 6895 6894 ] final   62.96 input  -60.11 | X-H torsion
[ 7974 7965 7964 7962 ] final  -50.02 input  175.53 | X-H torsion
[ 8008 7997 7996 7995 ] final  -35.80 input   59.86 | X-H torsion
[ 10167 10162 10161 10158 ] final  -48.92 input  -65.29 | X-H torsion
[ 10718 10713 10712 10709 ] final   73.79 input   66.30 | X-H torsion
[ 10763 10752 10751 10750 ] final    1.95 input  -60.55 | X-H torsion
[ 11005 11000 10999 10996 ] final  155.06 input  -57.11 | X-H torsion

> <Gold.Protein.ActiveResidues>
 VAL166  LYS551  ARG553  GLY616  TRP617  ASP618  TYR619  PRO620  LYS621  CYS622 
 ASP623  PHE694  ASN695  SER759  ASP760  ASP761  ALA762  ILE779  LEU786  VAL792 
 PHE793  MET794  SER795  GLU796  ALA797  LYS798  CYS799  TRP800  GLU811  SER814 

> <Gold.Protein.RotatedAtoms>
  152.4215  134.5947  159.9983 H   0  0  0  0  0  0  0  0  0  0  0  0  # atno 6907 bound_to 6896
  151.6096  133.3343  159.3072 H   0  0  0  0  0  0  0  0  0  0  0  0  # atno 6908 bound_to 6896
  150.8103  134.7291  159.6747 H   0  0  0  0  0  0  0  0  0  0  0  0  # atno 6909 bound_to 6896
  145.9343  140.7721  142.9584 H   0  0  0  0  0  0  0  0  0  0  0  0  # atno 7974 bound_to 7965
  154.4087  140.1647  156.2270 H   0  0  0  0  0  0  0  0  0  0  0  0  # atno 8008 bound_to 7997
  155.9315  140.3414  155.6230 H   0  0  0  0  0  0  0  0  0  0  0  0  # atno 8009 bound_to 7997
  155.7100  140.0755  157.2365 H   0  0  0  0  0  0  0  0  0  0  0  0  # atno 8010 bound_to 7997
  140.6709  143.2719  151.4140 H   0  0  0  0  0  0  0  0  0  0  0  0  # atno 10167 bound_to 10162
  157.6563  130.9646  150.1118 H   0  0  0  0  0  0  0  0  0  0  0  0  # atno 10718 bound_to 10713
  153.3017  135.6956  153.7197 H   0  0  0  0  0  0  0  0  0  0  0  0  # atno 10763 bound_to 10752
  153.6109  135.3444  155.2979 H   0  0  0  0  0  0  0  0  0  0  0  0  # atno 10764 bound_to 10752
  154.8552  135.4363  154.2129 H   0  0  0  0  0  0  0  0  0  0  0  0  # atno 10765 bound_to 10752
  140.1546  134.8651  157.2498 H   0  0  0  0  0  0  0  0  0  0  0  0  # atno 11005 bound_to 11000
  144.6769  140.2177  143.7370 LP  0  0  0  0  0  0  0  0  0  0  0  0  # atno 17320 bound_to 7965
  145.8385  139.2118  143.1841 LP  0  0  0  0  0  0  0  0  0  0  0  0  # atno 17321 bound_to 7965
  139.5977  144.1362  152.2163 LP  0  0  0  0  0  0  0  0  0  0  0  0  # atno 17342 bound_to 10162
  140.0736  144.5759  150.7173 LP  0  0  0  0  0  0  0  0  0  0  0  0  # atno 17343 bound_to 10162
  156.2013  130.3660  149.8785 LP  0  0  0  0  0  0  0  0  0  0  0  0  # atno 17370 bound_to 10713
  156.6688  130.8812  151.3559 LP  0  0  0  0  0  0  0  0  0  0  0  0  # atno 17371 bound_to 10713
  140.2563  134.3624  155.7423 LP  0  0  0  0  0  0  0  0  0  0  0  0  # atno 17394 bound_to 11000
  141.2203  133.7344  156.9011 LP  0  0  0  0  0  0  0  0  0  0  0  0  # atno 17395 bound_to 11000

$$$$
