AV-unprocessed.smi:3268|AV-procd|sdf|12508|dock4
  -GOLD-   2272018413D 1   1.00000     0.00000
 Structure written by MMmdl.
 40 41  0  0  0  0  0  0  0  0  2 V2000
  147.5244  141.9625  154.6977 C   0  0  0  0  0  0  0  0  0  0  0  0
  148.6428  141.0777  154.1114 C   0  0  2  0  0  0  0  0  0  0  0  0
  148.0931  139.7519  153.5648 C   0  0  0  0  0  0  0  0  0  0  0  0
  148.4556  138.6790  154.0487 O   0  0  0  0  0  0  0  0  0  0  0  0
  147.2152  139.8367  152.5523 N   0  0  0  0  0  0  0  0  0  0  0  0
  146.5810  138.6978  151.8979 C   0  0  0  0  0  0  0  0  0  0  0  0
  146.0824  137.6590  152.9223 C   0  0  0  0  0  0  0  0  0  0  0  0
  146.1922  136.2676  152.4164 N   0  3  0  0  0  0  0  0  0  0  0  0
  146.1231  135.2648  153.5120 C   0  0  0  0  0  0  0  0  0  0  0  0
  146.3683  133.8411  152.9842 C   0  0  0  0  0  0  0  0  0  0  0  0
  145.3800  133.4919  151.8646 C   0  0  0  0  0  0  0  0  0  0  0  0
  145.4477  134.5530  150.7591 C   0  0  0  0  0  0  0  0  0  0  0  0
  145.2197  135.9619  151.3323 C   0  0  0  0  0  0  0  0  0  0  0  0
  149.7109  140.8229  155.0709 N   0  0  0  0  0  0  0  0  0  0  0  0
  149.8364  141.2219  156.3386 C   0  0  0  0  0  0  0  0  0  0  0  0
  150.9698  140.8448  156.9134 N   0  0  0  0  0  0  0  0  0  0  0  0
  151.5454  140.1803  155.8680 C   0  0  0  0  0  0  0  0  0  0  0  0
  150.8397  140.1474  154.7379 N   0  0  0  0  0  0  0  0  0  0  0  0
  146.7663  142.1849  153.9459 H   0  0  0  0  0  0  0  0  0  0  0  0
  147.9254  142.9144  155.0469 H   0  0  0  0  0  0  0  0  0  0  0  0
  147.0210  141.4873  155.5408 H   0  0  0  0  0  0  0  0  0  0  0  0
  149.0883  141.6289  153.2813 H   0  0  0  0  0  0  0  0  0  0  0  0
  146.9718  140.7556  152.2107 H   0  0  0  0  0  0  0  0  0  0  0  0
  145.7545  139.0859  151.3036 H   0  0  0  0  0  0  0  0  0  0  0  0
  147.2794  138.2382  151.1964 H   0  0  0  0  0  0  0  0  0  0  0  0
  146.6848  137.7531  153.8268 H   0  0  0  0  0  0  0  0  0  0  0  0
  145.0531  137.8672  153.2186 H   0  0  0  0  0  0  0  0  0  0  0  0
  146.8724  135.4945  154.2709 H   0  0  0  0  0  0  0  0  0  0  0  0
  145.1487  135.3236  154.0002 H   0  0  0  0  0  0  0  0  0  0  0  0
  147.3898  133.7595  152.6103 H   0  0  0  0  0  0  0  0  0  0  0  0
  146.2790  133.1209  153.7982 H   0  0  0  0  0  0  0  0  0  0  0  0
  145.6037  132.5059  151.4560 H   0  0  0  0  0  0  0  0  0  0  0  0
  144.3676  133.4416  152.2676 H   0  0  0  0  0  0  0  0  0  0  0  0
  146.4206  134.5097  150.2674 H   0  0  0  0  0  0  0  0  0  0  0  0
  144.7031  134.3380  149.9917 H   0  0  0  0  0  0  0  0  0  0  0  0
  144.2033  136.0465  151.7201 H   0  0  0  0  0  0  0  0  0  0  0  0
  145.3099  136.6883  150.5257 H   0  0  0  0  0  0  0  0  0  0  0  0
  149.0836  141.8024  156.8515 H   0  0  0  0  0  0  0  0  0  0  0  0
  152.5160  139.7118  155.9400 H   0  0  0  0  0  0  0  0  0  0  0  0
  147.1167  136.1811  152.0185 H   0  0  0  0  0  0  0  0  0  0  0  0
  1  2  1  0  0  0  0
  1 19  1  0  0  0  0
  1 20  1  0  0  0  0
  1 21  1  0  0  0  0
  2  3  1  0  0  0  0
  2 14  1  0  0  0  0
  2 22  1  0  0  0  0
  3  4  2  0  0  0  0
  3  5  1  0  0  0  0
  5  6  1  0  0  0  0
  5 23  1  0  0  0  0
  6  7  1  0  0  0  0
  6 24  1  0  0  0  0
  6 25  1  0  0  0  0
  7  8  1  0  0  0  0
  7 26  1  0  0  0  0
  7 27  1  0  0  0  0
  8 13  1  0  0  0  0
  8  9  1  0  0  0  0
  8 40  1  0  0  0  0
  9 10  1  0  0  0  0
  9 28  1  0  0  0  0
  9 29  1  0  0  0  0
 10 11  1  0  0  0  0
 10 30  1  0  0  0  0
 10 31  1  0  0  0  0
 11 12  1  0  0  0  0
 11 32  1  0  0  0  0
 11 33  1  0  0  0  0
 12 13  1  0  0  0  0
 12 34  1  0  0  0  0
 12 35  1  0  0  0  0
 13 36  1  0  0  0  0
 13 37  1  0  0  0  0
 14 18  1  0  0  0  0
 14 15  1  0  0  0  0
 15 16  2  0  0  0  0
 15 38  1  0  0  0  0
 16 17  1  0  0  0  0
 17 18  2  0  0  0  0
 17 39  1  0  0  0  0
M  CHG  1   8   1
M  END
> <s_m_source_file>
AV-unprocessed.smi

> <i_m_source_file_index>
3268

> <i_lp_mmshare_version>
43012

> <i_f3d_flags>
0

> <s_epik_input>
bjFbY0hdbltjSF1uMVtDQEhdKFtDSDNdKUMoPU8pW05IXVtDSDJdW0NIMl1OMltDSDJdW0NIMl1bQ0gyXVtDSDJdW0NIMl0y

> <s_epik_cmdline>
J2VwaWtfcHl0aG9uJywgJy1waCcsICc3LjAnLCAnLXRuJywgJzgnLCAnLW1hJywgJzIwMCcsICctbWV0YWxfYmluZGluZycsICctaW1hZScsICc8aW5maWxlLm1hZT4nLCAnLW9tYWUnLCAnPG91dGZpbGUubWFlPic=

> <r_lp_tautomer_probability>
1

> <r_epik_Ionization_Penalty>
0.00266407

> <r_epik_Ionization_Penalty_Charging>
0.00265606

> <r_epik_Ionization_Penalty_Neutral>
8.01095e-06

> <r_epik_State_Penalty>
0.00184955

> <r_epik_Charging_Adjusted_Penalty>
0.00450561

> <i_epik_Tot_Q>
1

> <i_epik_Tot_abs_Q>
1

> <r_epik_Metal_State_Penalty>
-0

> <b_epik_Metal_Only>
0

> <s_lp_Force_Field>
OPLS_2005

> <r_lp_Energy>
22.0187

> <b_lp_Chiralities_Consistent>
1

> <s_lp_Variant>
AV-unprocessed.smi:3268-1

> <Gold.Version>
5.8.1

> <Gold.Id.Protein>
6NUR|6NUR_protein|mol2

> <Gold.PLP.Fitness>
41.3819

> <Gold.PLP.PLP>
-33.2687

> <Gold.PLP.part.hbond>
-3.0000

> <Gold.PLP.part.metal>
0.0000

> <Gold.PLP.part.buried>
-2.2452

> <Gold.PLP.part.nonpolar>
-29.2364

> <Gold.PLP.part.repulsive>
0.3778

> <Gold.PLP.ligand.clash>
0.0000

> <Gold.PLP.ligand.torsion>
0.5140

> <Gold.PLP.Chemscore.Hbond>
3.0000

> <Gold.PLP.Chemscore.CHOScore>
0.0000

> <Gold.PLP.Chemscore.Metal>
0.0000

> <Gold.Chemscore.Hbonds>
donor molecule, donor type, donor heavy atom, donor atom, acceptor molecule, acceptor atom, score
      L1  H     8    40       P1  7948  2.00
      P1  H  7989  7998       L1    18  1.00

> <Gold.PLP.Chemscore.Internal.Correction>
0.1412

> <Gold.Rescore>
     Score         DG    S(hbond)    S(metal)    S(lipo)     H(rot)  DE(clash)    DE(int)     intcor
      8.82     -11.06       1.97        0.00      47.58       2.57       0.03       2.20       ----

> <Gold.Chemscore.Fitness>
8.8196

> <Gold.Chemscore.DG>
-11.0566

> <Gold.Chemscore.ZeroCoef>
-5.4800

> <Gold.Chemscore.Hbond>
1.9721

> <Gold.Chemscore.Metal>
0.0000

> <Gold.Chemscore.Lipo>
47.5755

> <Gold.Chemscore.Internal_Hbond>
0.0000

> <Gold.Chemscore.DEClash>
0.0322

> <Gold.Chemscore.DEInternal>
2.2048

> <Gold.Chemscore.Rot>
2.5690

> <Gold.Chemscore.Internal.Correction>
   9.000000E+99

> <Gold.Chemscore.Hbonds>
donor molecule, donor type, donor heavy atom, donor atom, acceptor molecule, acceptor atom, score
      L1  H     8    40       P1  7948  1.00
      P1  H  7989  7998       L1    18  0.64

> <Gold.Chemscore.Hbond.Weighted>
-6.5868

> <Gold.Chemscore.Metal.Weighted>
-0.0000

> <Gold.Chemscore.Lipo.Weighted>
-5.5663

> <Gold.Chemscore.Internal_Hbond.Weighted>
0.0000

> <Gold.Chemscore.DEClash.Weighted>
0.0322

> <Gold.Chemscore.DEInternal.Weighted>
2.2048

> <Gold.Chemscore.Rot.Weighted>
6.5766

> <Gold.Chemscore.Internal.Correction.Weighted>
   9.000000E+99

> <Gold.Protein.RotatedTorsions>
[ 6907 6896 6895 6894 ] final -124.55 input  -60.11 | X-H torsion
[ 7974 7965 7964 7962 ] final  -91.89 input  175.53 | X-H torsion
[ 8008 7997 7996 7995 ] final -126.98 input   59.86 | X-H torsion
[ 10167 10162 10161 10158 ] final -169.43 input  -65.29 | X-H torsion
[ 10718 10713 10712 10709 ] final  151.58 input   66.30 | X-H torsion
[ 10763 10752 10751 10750 ] final  -28.56 input  -60.55 | X-H torsion
[ 11005 11000 10999 10996 ] final   57.22 input  -57.11 | X-H torsion

> <Gold.Protein.ActiveResidues>
 VAL166  LYS551  ARG553  GLY616  TRP617  ASP618  TYR619  PRO620  LYS621  CYS622 
 ASP623  PHE694  ASN695  SER759  ASP760  ASP761  ALA762  ILE779  LEU786  VAL792 
 PHE793  MET794  SER795  GLU796  ALA797  LYS798  CYS799  TRP800  GLU811  SER814 

> <Gold.Protein.RotatedAtoms>
  150.8779  133.7412  159.2940 H   0  0  0  0  0  0  0  0  0  0  0  0  # atno 6907 bound_to 6896
  151.5003  135.1060  159.9837 H   0  0  0  0  0  0  0  0  0  0  0  0  # atno 6908 bound_to 6896
  152.4740  133.8050  159.7028 H   0  0  0  0  0  0  0  0  0  0  0  0  # atno 6909 bound_to 6896
  145.4071  140.9542  143.2255 H   0  0  0  0  0  0  0  0  0  0  0  0  # atno 7974 bound_to 7965
  155.2386  140.0428  157.2972 H   0  0  0  0  0  0  0  0  0  0  0  0  # atno 8008 bound_to 7997
  154.5842  140.2409  155.7980 H   0  0  0  0  0  0  0  0  0  0  0  0  # atno 8009 bound_to 7997
  156.2215  140.2968  155.9971 H   0  0  0  0  0  0  0  0  0  0  0  0  # atno 8010 bound_to 7997
  139.5923  144.1186  152.1649 H   0  0  0  0  0  0  0  0  0  0  0  0  # atno 10167 bound_to 10162
  157.2689  131.0813  151.1613 H   0  0  0  0  0  0  0  0  0  0  0  0  # atno 10718 bound_to 10713
  153.7503  135.6926  153.4947 H   0  0  0  0  0  0  0  0  0  0  0  0  # atno 10763 bound_to 10752
  153.2008  135.4437  155.0262 H   0  0  0  0  0  0  0  0  0  0  0  0  # atno 10764 bound_to 10752
  154.8189  135.3412  154.7024 H   0  0  0  0  0  0  0  0  0  0  0  0  # atno 10765 bound_to 10752
  140.0469  134.5793  155.9311 H   0  0  0  0  0  0  0  0  0  0  0  0  # atno 11005 bound_to 11000
  144.8334  139.5590  143.6933 LP  0  0  0  0  0  0  0  0  0  0  0  0  # atno 17320 bound_to 7965
  146.2723  139.6667  142.9287 LP  0  0  0  0  0  0  0  0  0  0  0  0  # atno 17321 bound_to 7965
  140.0763  144.5737  150.7154 LP  0  0  0  0  0  0  0  0  0  0  0  0  # atno 17342 bound_to 10162
  140.7183  143.2565  151.4361 LP  0  0  0  0  0  0  0  0  0  0  0  0  # atno 17343 bound_to 10162
  157.3093  130.6882  149.6207 LP  0  0  0  0  0  0  0  0  0  0  0  0  # atno 17370 bound_to 10713
  155.9663  130.4368  150.5150 LP  0  0  0  0  0  0  0  0  0  0  0  0  # atno 17371 bound_to 10713
  141.1911  133.6570  156.5442 LP  0  0  0  0  0  0  0  0  0  0  0  0  # atno 17394 bound_to 11000
  140.3979  134.7382  157.4762 LP  0  0  0  0  0  0  0  0  0  0  0  0  # atno 17395 bound_to 11000

$$$$
