AV-unprocessed.smi:2259|AV-procd|sdf|9130|dock9
  -GOLD-   2272012333D 1   1.00000     0.00000
 Structure written by MMmdl.
 39 40  0  0  0  0  0  0  0  0  1 V2000
  152.2264  140.5796  159.6789 C   0  0  0  0  0  0  0  0  0  0  0  0
  151.5470  140.7098  158.3273 C   0  0  0  0  0  0  0  0  0  0  0  0
  150.6294  141.7576  158.2113 N   0  0  0  0  0  0  0  0  0  0  0  0
  149.9960  141.9400  157.0993 C   0  0  0  0  0  0  0  0  0  0  0  0
  150.2004  141.1058  155.9865 N   0  0  0  0  0  0  0  0  0  0  0  0
  149.4195  141.4164  154.7747 C   0  0  0  0  0  0  0  0  0  0  0  0
  148.4237  140.2981  154.3859 C   0  0  2  0  0  0  0  0  0  0  0  0
  149.1624  139.3078  153.7000 O   0  0  0  0  0  0  0  0  0  0  0  0
  147.2821  140.7720  153.4680 C   0  0  0  0  0  0  0  0  0  0  0  0
  147.1826  142.1874  153.5540 O   0  0  0  0  0  0  0  0  0  0  0  0
  146.0597  142.7301  154.1414 C   0  0  0  0  0  0  0  0  0  0  0  0
  145.6456  143.9964  153.6795 C   0  0  0  0  0  0  0  0  0  0  0  0
  144.5102  144.6280  154.2227 C   0  0  0  0  0  0  0  0  0  0  0  0
  143.7709  143.9944  155.2409 C   0  0  0  0  0  0  0  0  0  0  0  0
  142.5992  144.6442  155.8046 C   0  0  0  0  0  0  0  0  0  0  0  0
  141.6667  145.1616  156.2533 N   0  0  0  0  0  0  0  0  0  0  0  0
  144.1728  142.7281  155.7099 C   0  0  0  0  0  0  0  0  0  0  0  0
  145.3095  142.0983  155.1657 C   0  0  0  0  0  0  0  0  0  0  0  0
  151.0934  140.0741  156.0088 C   0  0  0  0  0  0  0  0  0  0  0  0
  151.2862  139.3640  155.0201 O   0  0  0  0  0  0  0  0  0  0  0  0
  151.7997  139.8729  157.2845 C   0  0  0  0  0  0  0  0  0  0  0  0
  152.7879  138.7150  157.3527 C   0  0  0  0  0  0  0  0  0  0  0  0
  153.3078  140.6699  159.5735 H   0  0  0  0  0  0  0  0  0  0  0  0
  151.9986  139.6129  160.1291 H   0  0  0  0  0  0  0  0  0  0  0  0
  151.8922  141.3563  160.3681 H   0  0  0  0  0  0  0  0  0  0  0  0
  149.2678  142.7411  156.9614 H   0  0  0  0  0  0  0  0  0  0  0  0
  148.8830  142.3625  154.8730 H   0  0  0  0  0  0  0  0  0  0  0  0
  150.1169  141.5831  153.9513 H   0  0  0  0  0  0  0  0  0  0  0  0
  148.0074  139.8469  155.2871 H   0  0  0  0  0  0  0  0  0  0  0  0
  149.2126  139.5465  152.7872 H   0  0  0  0  0  0  0  0  0  0  0  0
  147.5089  140.5178  152.4326 H   0  0  0  0  0  0  0  0  0  0  0  0
  146.3431  140.2831  153.7341 H   0  0  0  0  0  0  0  0  0  0  0  0
  146.2061  144.4905  152.8993 H   0  0  0  0  0  0  0  0  0  0  0  0
  144.2127  145.5991  153.8533 H   0  0  0  0  0  0  0  0  0  0  0  0
  143.6127  142.2321  156.4896 H   0  0  0  0  0  0  0  0  0  0  0  0
  145.5841  141.1285  155.5515 H   0  0  0  0  0  0  0  0  0  0  0  0
  152.2804  137.7747  157.1352 H   0  0  0  0  0  0  0  0  0  0  0  0
  153.2627  138.6122  158.3270 H   0  0  0  0  0  0  0  0  0  0  0  0
  153.5787  138.8518  156.6144 H   0  0  0  0  0  0  0  0  0  0  0  0
  1  2  1  0  0  0  0
  1 23  1  0  0  0  0
  1 24  1  0  0  0  0
  1 25  1  0  0  0  0
  2 21  2  0  0  0  0
  2  3  1  0  0  0  0
  3  4  2  0  0  0  0
  4  5  1  0  0  0  0
  4 26  1  0  0  0  0
  5  6  1  0  0  0  0
  5 19  1  0  0  0  0
  6  7  1  0  0  0  0
  6 27  1  0  0  0  0
  6 28  1  0  0  0  0
  7  8  1  0  0  0  0
  7  9  1  0  0  0  0
  7 29  1  0  0  0  0
  8 30  1  0  0  0  0
  9 10  1  0  0  0  0
  9 31  1  0  0  0  0
  9 32  1  0  0  0  0
 10 11  1  0  0  0  0
 11 18  1  0  0  0  0
 11 12  2  0  0  0  0
 12 13  1  0  0  0  0
 12 33  1  0  0  0  0
 13 14  2  0  0  0  0
 13 34  1  0  0  0  0
 14 15  1  0  0  0  0
 14 17  1  0  0  0  0
 15 16  3  0  0  0  0
 17 18  2  0  0  0  0
 17 35  1  0  0  0  0
 18 36  1  0  0  0  0
 19 20  2  0  0  0  0
 19 21  1  0  0  0  0
 21 22  1  0  0  0  0
 22 37  1  0  0  0  0
 22 38  1  0  0  0  0
 22 39  1  0  0  0  0
M  END
> <s_m_source_file>
AV-unprocessed.smi

> <i_m_source_file_index>
2259

> <i_lp_mmshare_version>
43012

> <i_f3d_flags>
0

> <s_epik_input>
W0NIM11jMW5bY0hdbihjKD1PKWMxW0NIM10pW0NIMl1bQ0BIXShbT0hdKVtDSDJdT2MyW2NIXVtjSF1jKEMjTilbY0hdW2NIXTI=

> <s_epik_cmdline>
J2VwaWtfcHl0aG9uJywgJy1waCcsICc3LjAnLCAnLXRuJywgJzgnLCAnLW1hJywgJzIwMCcsICctbWV0YWxfYmluZGluZycsICctaW1hZScsICc8aW5maWxlLm1hZT4nLCAnLW9tYWUnLCAnPG91dGZpbGUubWFlPic=

> <r_lp_tautomer_probability>
1

> <r_epik_Ionization_Penalty>
3.47921e-05

> <r_epik_Ionization_Penalty_Charging>
7.82631e-08

> <r_epik_Ionization_Penalty_Neutral>
3.47138e-05

> <r_epik_State_Penalty>
-0

> <r_epik_Charging_Adjusted_Penalty>
7.82631e-08

> <i_epik_Tot_Q>
0

> <i_epik_Tot_abs_Q>
0

> <r_epik_Metal_State_Penalty>
-0

> <b_epik_Metal_Only>
0

> <s_lp_Force_Field>
OPLS_2005

> <r_lp_Energy>
23.7954

> <b_lp_Chiralities_Consistent>
1

> <s_lp_Variant>
AV-unprocessed.smi:2259-1

> <Gold.Version>
5.8.1

> <Gold.Id.Protein>
6NUR|6NUR_protein|mol2

> <Gold.PLP.Fitness>
41.5276

> <Gold.PLP.PLP>
-35.5568

> <Gold.PLP.part.hbond>
-2.0000

> <Gold.PLP.part.metal>
0.0000

> <Gold.PLP.part.buried>
-2.4429

> <Gold.PLP.part.nonpolar>
-31.8169

> <Gold.PLP.part.repulsive>
0.2719

> <Gold.PLP.ligand.clash>
0.0000

> <Gold.PLP.ligand.torsion>
1.5493

> <Gold.PLP.Chemscore.Hbond>
2.0000

> <Gold.PLP.Chemscore.CHOScore>
1.0000

> <Gold.PLP.Chemscore.Metal>
0.0000

> <Gold.Chemscore.Hbonds>
donor molecule, donor type, donor heavy atom, donor atom, acceptor molecule, acceptor atom, score
      L1  H     8    30       P1  7957  1.00
      P1  H  7989  7998       L1    20  0.67
      L1  C     4    26       P1  8028  1.00

> <Gold.PLP.Chemscore.Internal.Correction>
0.0692

> <Gold.Rescore>
     Score         DG    S(hbond)    S(metal)    S(lipo)     H(rot)  DE(clash)    DE(int)     intcor
      8.07     -13.67       1.91        0.00      73.66       2.66       2.41       3.19       ----

> <Gold.Chemscore.Fitness>
8.0690

> <Gold.Chemscore.DG>
-13.6680

> <Gold.Chemscore.ZeroCoef>
-5.4800

> <Gold.Chemscore.Hbond>
1.9072

> <Gold.Chemscore.Metal>
0.0000

> <Gold.Chemscore.Lipo>
73.6614

> <Gold.Chemscore.Internal_Hbond>
0.0000

> <Gold.Chemscore.DEClash>
2.4133

> <Gold.Chemscore.DEInternal>
3.1857

> <Gold.Chemscore.Rot>
2.6563

> <Gold.Chemscore.Internal.Correction>
   9.000000E+99

> <Gold.Chemscore.Hbonds>
donor molecule, donor type, donor heavy atom, donor atom, acceptor molecule, acceptor atom, score
      L1  H     8    30       P1  7957  1.00
      P1  H  7989  7998       L1    20  0.20

> <Gold.Chemscore.Hbond.Weighted>
-6.3699

> <Gold.Chemscore.Metal.Weighted>
-0.0000

> <Gold.Chemscore.Lipo.Weighted>
-8.6184

> <Gold.Chemscore.Internal_Hbond.Weighted>
0.0000

> <Gold.Chemscore.DEClash.Weighted>
2.4133

> <Gold.Chemscore.DEInternal.Weighted>
3.1857

> <Gold.Chemscore.Rot.Weighted>
6.8002

> <Gold.Chemscore.Internal.Correction.Weighted>
   9.000000E+99

> <Gold.Protein.RotatedTorsions>
[ 6907 6896 6895 6894 ] final  151.82 input  -60.11 | X-H torsion
[ 7974 7965 7964 7962 ] final  -78.17 input  175.53 | X-H torsion
[ 8008 7997 7996 7995 ] final  130.45 input   59.86 | X-H torsion
[ 10167 10162 10161 10158 ] final   81.78 input  -65.29 | X-H torsion
[ 10718 10713 10712 10709 ] final  -70.53 input   66.30 | X-H torsion
[ 10763 10752 10751 10750 ] final  -28.36 input  -60.55 | X-H torsion
[ 11005 11000 10999 10996 ] final  142.39 input  -57.11 | X-H torsion

> <Gold.Protein.ActiveResidues>
 VAL166  LYS551  ARG553  GLY616  TRP617  ASP618  TYR619  PRO620  LYS621  CYS622 
 ASP623  PHE694  ASN695  SER759  ASP760  ASP761  ALA762  ILE779  LEU786  VAL792 
 PHE793  MET794  SER795  GLU796  ALA797  LYS798  CYS799  TRP800  GLU811  SER814 

> <Gold.Protein.RotatedAtoms>
  152.0953  133.4221  159.4562 H   0  0  0  0  0  0  0  0  0  0  0  0  # atno 6907 bound_to 6896
  150.6863  134.2823  159.4642 H   0  0  0  0  0  0  0  0  0  0  0  0  # atno 6908 bound_to 6896
  152.0679  134.9552  160.0625 H   0  0  0  0  0  0  0  0  0  0  0  0  # atno 6909 bound_to 6896
  145.5900  140.9431  143.1298 H   0  0  0  0  0  0  0  0  0  0  0  0  # atno 7974 bound_to 7965
  156.2954  140.2595  156.2764 H   0  0  0  0  0  0  0  0  0  0  0  0  # atno 8008 bound_to 7997
  154.9645  140.0392  157.2224 H   0  0  0  0  0  0  0  0  0  0  0  0  # atno 8009 bound_to 7997
  154.7916  140.2813  155.5992 H   0  0  0  0  0  0  0  0  0  0  0  0  # atno 8010 bound_to 7997
  139.9357  144.6123  150.8301 H   0  0  0  0  0  0  0  0  0  0  0  0  # atno 10167 bound_to 10162
  156.0403  130.4333  150.2309 H   0  0  0  0  0  0  0  0  0  0  0  0  # atno 10718 bound_to 10713
  153.7471  135.6928  153.4954 H   0  0  0  0  0  0  0  0  0  0  0  0  # atno 10763 bound_to 10752
  153.2029  135.4430  155.0287 H   0  0  0  0  0  0  0  0  0  0  0  0  # atno 10764 bound_to 10752
  154.8200  135.3417  154.6993 H   0  0  0  0  0  0  0  0  0  0  0  0  # atno 10765 bound_to 10752
  140.0473  134.9274  157.0953 H   0  0  0  0  0  0  0  0  0  0  0  0  # atno 11005 bound_to 11000
  144.7356  139.7597  143.7331 LP  0  0  0  0  0  0  0  0  0  0  0  0  # atno 17320 bound_to 7965
  146.1654  139.4784  142.9961 LP  0  0  0  0  0  0  0  0  0  0  0  0  # atno 17321 bound_to 7965
  140.7625  143.3200  151.2644 LP  0  0  0  0  0  0  0  0  0  0  0  0  # atno 17342 bound_to 10162
  139.6746  143.9960  152.2773 LP  0  0  0  0  0  0  0  0  0  0  0  0  # atno 17343 bound_to 10162
  157.0405  131.0034  151.3285 LP  0  0  0  0  0  0  0  0  0  0  0  0  # atno 17370 bound_to 10713
  157.5213  130.7999  149.7812 LP  0  0  0  0  0  0  0  0  0  0  0  0  # atno 17371 bound_to 10713
  140.3973  134.2120  155.7164 LP  0  0  0  0  0  0  0  0  0  0  0  0  # atno 17394 bound_to 11000
  141.1913  133.8198  157.0884 LP  0  0  0  0  0  0  0  0  0  0  0  0  # atno 17395 bound_to 11000

$$$$
