AV-unprocessed.smi:781|AV-procd|sdf|3709|dock6
  -GOLD-   22720 1133D 1   1.00000     0.00000
 Structure written by MMmdl.
 38 40  0  0  0  0  0  0  0  0  1 V2000
  152.3925  144.1768  161.5289 C   0  0  0  0  0  0  0  0  0  0  0  0
  152.0327  143.6001  160.2025 C   0  0  0  0  0  0  0  0  0  0  0  0
  151.0648  143.9046  159.2869 C   0  0  0  0  0  0  0  0  0  0  0  0
  151.2932  142.9577  158.2530 C   0  0  0  0  0  0  0  0  0  0  0  0
  150.4783  142.9379  157.0926 N   0  0  0  0  0  0  0  0  0  0  0  0
  150.2604  141.9053  156.2607 C   0  0  0  0  0  0  0  0  0  0  0  0
  150.7620  140.7861  156.3703 O   0  0  0  0  0  0  0  0  0  0  0  0
  149.4200  142.2467  155.2743 N   0  0  0  0  0  0  0  0  0  0  0  0
  148.9807  141.3553  154.2031 C   0  0  2  0  0  0  0  0  0  0  0  0
  147.6113  141.7504  153.5941 C   0  0  2  0  0  0  0  0  0  0  0  0
  146.5421  141.9522  154.6892 C   0  0  0  0  0  0  0  0  0  0  0  0
  146.3105  140.5182  155.2013 C   0  0  0  0  0  0  0  0  0  0  0  0
  147.2483  139.6815  154.3088 C   0  0  1  0  0  0  0  0  0  0  0  0
  147.1556  140.4309  152.9844 C   0  0  0  0  0  0  0  0  0  0  0  0
  148.7148  139.9225  154.7366 C   0  0  1  0  0  0  0  0  0  0  0  0
  149.6840  138.8671  154.1703 C   0  0  0  0  0  0  0  0  0  0  0  0
  151.0204  139.2808  154.3625 O   0  0  0  0  0  0  0  0  0  0  0  0
  152.3082  142.1481  158.5137 N   0  0  0  0  0  0  0  0  0  0  0  0
  152.7872  142.5558  159.7645 O   0  0  0  0  0  0  0  0  0  0  0  0
  151.7926  145.0607  161.7458 H   0  0  0  0  0  0  0  0  0  0  0  0
  153.4427  144.4680  161.5521 H   0  0  0  0  0  0  0  0  0  0  0  0
  152.2243  143.4505  162.3242 H   0  0  0  0  0  0  0  0  0  0  0  0
  150.3158  144.6799  159.3495 H   0  0  0  0  0  0  0  0  0  0  0  0
  150.0057  143.8027  156.8749 H   0  0  0  0  0  0  0  0  0  0  0  0
  149.0551  143.1877  155.2607 H   0  0  0  0  0  0  0  0  0  0  0  0
  149.7367  141.3311  153.4157 H   0  0  0  0  0  0  0  0  0  0  0  0
  147.6719  142.5803  152.8891 H   0  0  0  0  0  0  0  0  0  0  0  0
  146.8496  142.6372  155.4791 H   0  0  0  0  0  0  0  0  0  0  0  0
  145.6242  142.3508  154.2551 H   0  0  0  0  0  0  0  0  0  0  0  0
  146.5420  140.4125  156.2617 H   0  0  0  0  0  0  0  0  0  0  0  0
  145.2702  140.2241  155.0567 H   0  0  0  0  0  0  0  0  0  0  0  0
  146.9692  138.6285  154.2624 H   0  0  0  0  0  0  0  0  0  0  0  0
  146.1434  140.4677  152.5775 H   0  0  0  0  0  0  0  0  0  0  0  0
  147.8316  140.0525  152.2163 H   0  0  0  0  0  0  0  0  0  0  0  0
  148.7779  139.8854  155.8258 H   0  0  0  0  0  0  0  0  0  0  0  0
  149.5449  137.9137  154.6808 H   0  0  0  0  0  0  0  0  0  0  0  0
  149.5109  138.6920  153.1085 H   0  0  0  0  0  0  0  0  0  0  0  0
  151.4760  138.6101  154.8482 H   0  0  0  0  0  0  0  0  0  0  0  0
  1  2  1  0  0  0  0
  1 20  1  0  0  0  0
  1 21  1  0  0  0  0
  1 22  1  0  0  0  0
  2 19  1  0  0  0  0
  2  3  2  0  0  0  0
  3  4  1  0  0  0  0
  3 23  1  0  0  0  0
  4  5  1  0  0  0  0
  4 18  2  0  0  0  0
  5  6  1  0  0  0  0
  5 24  1  0  0  0  0
  6  7  2  0  0  0  0
  6  8  1  0  0  0  0
  8  9  1  0  0  0  0
  8 25  1  0  0  0  0
  9 15  1  0  0  0  0
  9 10  1  0  0  0  0
  9 26  1  0  0  0  0
 10 14  1  0  0  0  0
 10 11  1  0  0  0  0
 10 27  1  0  0  0  0
 11 12  1  0  0  0  0
 11 28  1  0  0  0  0
 11 29  1  0  0  0  0
 12 13  1  0  0  0  0
 12 30  1  0  0  0  0
 12 31  1  0  0  0  0
 13 14  1  0  0  0  0
 13 15  1  0  0  0  0
 13 32  1  0  0  0  0
 14 33  1  0  0  0  0
 14 34  1  0  0  0  0
 15 16  1  0  0  0  0
 15 35  1  0  0  0  0
 16 17  1  0  0  0  0
 16 36  1  0  0  0  0
 16 37  1  0  0  0  0
 17 38  1  0  0  0  0
 18 19  1  0  0  0  0
M  END
> <s_m_source_file>
AV-unprocessed.smi

> <i_m_source_file_index>
781

> <i_lp_mmshare_version>
43012

> <i_f3d_flags>
0

> <s_epik_input>
W0NIM11jMVtjSF1jKG5vMSlbTkhdQyg9TylbTkhdW0NASF0oW0NAQEhdMjMpW0NASF0oW0NIMl1bT0hdKVtDQEBIXShbQ0gyXTMpW0NIMl1bQ0gyXTI=

> <s_epik_cmdline>
J2VwaWtfcHl0aG9uJywgJy1waCcsICc3LjAnLCAnLXRuJywgJzgnLCAnLW1hJywgJzIwMCcsICctbWV0YWxfYmluZGluZycsICctaW1hZScsICc8aW5maWxlLm1hZT4nLCAnLW9tYWUnLCAnPG91dGZpbGUubWFlPic=

> <r_lp_tautomer_probability>
1

> <r_epik_Ionization_Penalty>
2.32222e-05

> <r_epik_Ionization_Penalty_Charging>
0

> <r_epik_Ionization_Penalty_Neutral>
2.32222e-05

> <r_epik_State_Penalty>
-0

> <r_epik_Charging_Adjusted_Penalty>
0

> <i_epik_Tot_Q>
0

> <i_epik_Tot_abs_Q>
0

> <r_epik_Metal_State_Penalty>
-0

> <b_epik_Metal_Only>
0

> <s_lp_Force_Field>
OPLS_2005

> <r_lp_Energy>
46.3862

> <b_lp_Chiralities_Consistent>
1

> <s_lp_Variant>
AV-unprocessed.smi:781-3

> <Gold.Version>
5.8.1

> <Gold.Id.Protein>
6NUR|6NUR_protein|mol2

> <Gold.PLP.Fitness>
42.8483

> <Gold.PLP.PLP>
-34.9232

> <Gold.PLP.part.hbond>
-3.0000

> <Gold.PLP.part.metal>
0.0000

> <Gold.PLP.part.buried>
-4.6574

> <Gold.PLP.part.nonpolar>
-26.9163

> <Gold.PLP.part.repulsive>
0.2301

> <Gold.PLP.ligand.clash>
0.0000

> <Gold.PLP.ligand.torsion>
0.4863

> <Gold.PLP.Chemscore.Hbond>
2.9600

> <Gold.PLP.Chemscore.CHOScore>
0.0000

> <Gold.PLP.Chemscore.Metal>
0.0000

> <Gold.Chemscore.Hbonds>
donor molecule, donor type, donor heavy atom, donor atom, acceptor molecule, acceptor atom, score
      L1  H     5    24       P1  8028  0.94
      L1  H     8    25       P1  8028  1.00
      P1  H  7989  7998       L1    17  1.00

> <Gold.PLP.Chemscore.Internal.Correction>
0.0176

> <Gold.Rescore>
     Score         DG    S(hbond)    S(metal)    S(lipo)     H(rot)  DE(clash)    DE(int)     intcor
     16.52     -19.76       2.88        0.00      80.60       1.86       0.06       3.18       ----

> <Gold.Chemscore.Fitness>
16.5155

> <Gold.Chemscore.DG>
-19.7578

> <Gold.Chemscore.ZeroCoef>
-5.4800

> <Gold.Chemscore.Hbond>
2.8761

> <Gold.Chemscore.Metal>
0.0000

> <Gold.Chemscore.Lipo>
80.5980

> <Gold.Chemscore.Internal_Hbond>
0.0000

> <Gold.Chemscore.DEClash>
0.0603

> <Gold.Chemscore.DEInternal>
3.1819

> <Gold.Chemscore.Rot>
1.8587

> <Gold.Chemscore.Internal.Correction>
   9.000000E+99

> <Gold.Chemscore.Hbonds>
donor molecule, donor type, donor heavy atom, donor atom, acceptor molecule, acceptor atom, score
      L1  H     5    24       P1  8028  0.91
      L1  H     8    25       P1  8028  0.97
      P1  H  7989  7998       L1    17  0.97

> <Gold.Chemscore.Hbond.Weighted>
-9.6061

> <Gold.Chemscore.Metal.Weighted>
-0.0000

> <Gold.Chemscore.Lipo.Weighted>
-9.4300

> <Gold.Chemscore.Internal_Hbond.Weighted>
0.0000

> <Gold.Chemscore.DEClash.Weighted>
0.0603

> <Gold.Chemscore.DEInternal.Weighted>
3.1819

> <Gold.Chemscore.Rot.Weighted>
4.7583

> <Gold.Chemscore.Internal.Correction.Weighted>
   9.000000E+99

> <Gold.Protein.RotatedTorsions>
[ 6907 6896 6895 6894 ] final  117.70 input  -60.11 | X-H torsion
[ 7974 7965 7964 7962 ] final  167.72 input  175.53 | X-H torsion
[ 8008 7997 7996 7995 ] final  -85.97 input   59.86 | X-H torsion
[ 10167 10162 10161 10158 ] final  152.21 input  -65.29 | X-H torsion
[ 10718 10713 10712 10709 ] final  170.02 input   66.30 | X-H torsion
[ 10763 10752 10751 10750 ] final   49.93 input  -60.55 | X-H torsion
[ 11005 11000 10999 10996 ] final   16.80 input  -57.11 | X-H torsion

> <Gold.Protein.ActiveResidues>
 VAL166  LYS551  ARG553  GLY616  TRP617  ASP618  TYR619  PRO620  LYS621  CYS622 
 ASP623  PHE694  ASN695  SER759  ASP760  ASP761  ALA762  ILE779  LEU786  VAL792 
 PHE793  MET794  SER795  GLU796  ALA797  LYS798  CYS799  TRP800  GLU811  SER814 

> <Gold.Protein.RotatedAtoms>
  152.4594  133.7791  159.6840 H   0  0  0  0  0  0  0  0  0  0  0  0  # atno 6907 bound_to 6896
  150.8532  133.7745  159.3024 H   0  0  0  0  0  0  0  0  0  0  0  0  # atno 6908 bound_to 6896
  151.5333  135.1071  159.9960 H   0  0  0  0  0  0  0  0  0  0  0  0  # atno 6909 bound_to 6896
  144.7414  139.8802  143.6395 H   0  0  0  0  0  0  0  0  0  0  0  0  # atno 7974 bound_to 7965
  154.6467  140.0584  156.9908 H   0  0  0  0  0  0  0  0  0  0  0  0  # atno 8008 bound_to 7997
  155.1434  140.3267  155.4428 H   0  0  0  0  0  0  0  0  0  0  0  0  # atno 8009 bound_to 7997
  156.2557  140.1960  156.6549 H   0  0  0  0  0  0  0  0  0  0  0  0  # atno 8010 bound_to 7997
  139.4834  144.5376  151.7618 H   0  0  0  0  0  0  0  0  0  0  0  0  # atno 10167 bound_to 10162
  157.0141  131.0213  151.2794 H   0  0  0  0  0  0  0  0  0  0  0  0  # atno 10718 bound_to 10713
  152.9785  135.5895  154.4169 H   0  0  0  0  0  0  0  0  0  0  0  0  # atno 10763 bound_to 10752
  154.3798  135.2767  155.2220 H   0  0  0  0  0  0  0  0  0  0  0  0  # atno 10764 bound_to 10752
  154.4139  135.6075  153.6023 H   0  0  0  0  0  0  0  0  0  0  0  0  # atno 10765 bound_to 10752
  140.4430  134.1302  155.7693 H   0  0  0  0  0  0  0  0  0  0  0  0  # atno 11005 bound_to 11000
  146.1217  139.4236  143.0224 LP  0  0  0  0  0  0  0  0  0  0  0  0  # atno 17320 bound_to 7965
  145.7295  141.0047  143.1359 LP  0  0  0  0  0  0  0  0  0  0  0  0  # atno 17321 bound_to 7965
  140.4911  144.1309  150.5950 LP  0  0  0  0  0  0  0  0  0  0  0  0  # atno 17342 bound_to 10162
  140.4170  143.2630  151.9763 LP  0  0  0  0  0  0  0  0  0  0  0  0  # atno 17343 bound_to 10162
  157.5298  130.8051  149.7904 LP  0  0  0  0  0  0  0  0  0  0  0  0  # atno 17370 bound_to 10713
  156.0125  130.3827  150.2216 LP  0  0  0  0  0  0  0  0  0  0  0  0  # atno 17371 bound_to 10713
  141.1697  133.8633  157.1608 LP  0  0  0  0  0  0  0  0  0  0  0  0  # atno 17394 bound_to 11000
  140.0057  135.0009  157.0287 LP  0  0  0  0  0  0  0  0  0  0  0  0  # atno 17395 bound_to 11000

$$$$
