AV-unprocessed.smi:2850|AV-procd|sdf|10967|dock4
  -GOLD-   2272015423D 1   1.00000     0.00000
 Structure written by MMmdl.
 45 46  0  0  0  0  0  0  0  0  2 V2000
  150.2828  141.2059  158.0820 C   0  0  0  0  0  0  0  0  0  0  0  0
  149.9041  142.2099  156.6184 S   0  0  0  0  0  0  0  0  0  0  0  0
  149.1808  141.1323  155.4194 C   0  0  0  0  0  0  0  0  0  0  0  0
  147.9021  141.3960  154.8967 C   0  0  0  0  0  0  0  0  0  0  0  0
  147.4045  140.4931  153.9407 C   0  0  0  0  0  0  0  0  0  0  0  0
  148.2195  139.3994  153.5846 C   0  0  0  0  0  0  0  0  0  0  0  0
  147.7512  138.4923  152.6227 N   0  0  0  0  0  0  0  0  0  0  0  0
  146.3648  138.4984  152.1674 C   0  0  0  0  0  0  0  0  0  0  0  0
  145.7900  137.0851  151.9578 C   0  0  2  0  0  0  0  0  0  0  0  0
  146.0067  136.5513  150.5251 C   0  0  0  0  0  0  0  0  0  0  0  0
  145.3911  135.2125  150.3570 N   0  3  1  0  0  0  0  0  0  0  0  0
  146.1786  134.1159  150.9841 C   0  0  0  0  0  0  0  0  0  0  0  0
  145.5384  132.7245  150.7940 C   0  0  0  0  0  0  0  0  0  0  0  0
  146.0059  131.7642  151.8981 C   0  0  0  0  0  0  0  0  0  0  0  0
  145.8439  132.1361  149.4065 C   0  0  0  0  0  0  0  0  0  0  0  0
  143.9584  135.2514  150.7469 C   0  0  0  0  0  0  0  0  0  0  0  0
  143.7689  135.8673  152.1472 C   0  0  0  0  0  0  0  0  0  0  0  0
  144.3890  137.1469  152.2017 O   0  0  0  0  0  0  0  0  0  0  0  0
  149.4425  139.2065  154.1407 N   0  0  0  0  0  0  0  0  0  0  0  0
  149.9227  140.0650  155.0467 N   0  0  0  0  0  0  0  0  0  0  0  0
  150.7577  141.8217  158.8456 H   0  0  0  0  0  0  0  0  0  0  0  0
  150.9626  140.3944  157.8216 H   0  0  0  0  0  0  0  0  0  0  0  0
  149.3720  140.7790  158.5023 H   0  0  0  0  0  0  0  0  0  0  0  0
  147.3288  142.2556  155.2106 H   0  0  0  0  0  0  0  0  0  0  0  0
  146.4313  140.6398  153.4954 H   0  0  0  0  0  0  0  0  0  0  0  0
  148.3872  137.8137  152.2288 H   0  0  0  0  0  0  0  0  0  0  0  0
  145.7547  139.0494  152.8841 H   0  0  0  0  0  0  0  0  0  0  0  0
  146.3149  139.0589  151.2336 H   0  0  0  0  0  0  0  0  0  0  0  0
  146.2383  136.4043  152.6822 H   0  0  0  0  0  0  0  0  0  0  0  0
  145.5501  137.2342  149.8072 H   0  0  0  0  0  0  0  0  0  0  0  0
  147.0672  136.5107  150.2739 H   0  0  0  0  0  0  0  0  0  0  0  0
  147.1776  134.0908  150.5462 H   0  0  0  0  0  0  0  0  0  0  0  0
  146.3248  134.3227  152.0444 H   0  0  0  0  0  0  0  0  0  0  0  0
  144.4565  132.8109  150.8898 H   0  0  0  0  0  0  0  0  0  0  0  0
  147.0869  131.6230  151.8704 H   0  0  0  0  0  0  0  0  0  0  0  0
  145.5403  130.7838  151.7920 H   0  0  0  0  0  0  0  0  0  0  0  0
  145.7457  132.1446  152.8864 H   0  0  0  0  0  0  0  0  0  0  0  0
  146.9170  132.0211  149.2509 H   0  0  0  0  0  0  0  0  0  0  0  0
  145.4570  132.7706  148.6089 H   0  0  0  0  0  0  0  0  0  0  0  0
  145.3853  131.1537  149.2891 H   0  0  0  0  0  0  0  0  0  0  0  0
  143.4267  135.8618  150.0159 H   0  0  0  0  0  0  0  0  0  0  0  0
  143.5066  134.2616  150.6995 H   0  0  0  0  0  0  0  0  0  0  0  0
  142.7063  135.9842  152.3604 H   0  0  0  0  0  0  0  0  0  0  0  0
  144.1728  135.2209  152.9274 H   0  0  0  0  0  0  0  0  0  0  0  0
  145.4169  135.0200  149.3657 H   0  0  0  0  0  0  0  0  0  0  0  0
  1  2  1  0  0  0  0
  1 21  1  0  0  0  0
  1 22  1  0  0  0  0
  1 23  1  0  0  0  0
  2  3  1  0  0  0  0
  3 20  1  0  0  0  0
  3  4  2  0  0  0  0
  4  5  1  0  0  0  0
  4 24  1  0  0  0  0
  5  6  2  0  0  0  0
  5 25  1  0  0  0  0
  6  7  1  0  0  0  0
  6 19  1  0  0  0  0
  7  8  1  0  0  0  0
  7 26  1  0  0  0  0
  8  9  1  0  0  0  0
  8 27  1  0  0  0  0
  8 28  1  0  0  0  0
  9 18  1  0  0  0  0
  9 10  1  0  0  0  0
  9 29  1  0  0  0  0
 10 11  1  0  0  0  0
 10 30  1  0  0  0  0
 10 31  1  0  0  0  0
 11 12  1  0  0  0  0
 11 16  1  0  0  0  0
 11 45  1  0  0  0  0
 12 13  1  0  0  0  0
 12 32  1  0  0  0  0
 12 33  1  0  0  0  0
 13 14  1  0  0  0  0
 13 15  1  0  0  0  0
 13 34  1  0  0  0  0
 14 35  1  0  0  0  0
 14 36  1  0  0  0  0
 14 37  1  0  0  0  0
 15 38  1  0  0  0  0
 15 39  1  0  0  0  0
 15 40  1  0  0  0  0
 16 17  1  0  0  0  0
 16 41  1  0  0  0  0
 16 42  1  0  0  0  0
 17 18  1  0  0  0  0
 17 43  1  0  0  0  0
 17 44  1  0  0  0  0
 19 20  2  0  0  0  0
M  CHG  1  11   1
M  END
> <s_m_source_file>
AV-unprocessed.smi

> <i_m_source_file_index>
2850

> <i_lp_mmshare_version>
43012

> <i_f3d_flags>
0

> <s_epik_input>
W0NIM11TYzFbY0hdW2NIXWMobm4xKVtOSF1bQ0gyXVtDQEBIXTJbQ0gyXU4oW0NIMl1bQ0gyXU8yKVtDSDJdW0NIXShbQ0gzXSlbQ0gzXQ==

> <s_epik_cmdline>
J2VwaWtfcHl0aG9uJywgJy1waCcsICc3LjAnLCAnLXRuJywgJzgnLCAnLW1hJywgJzIwMCcsICctbWV0YWxfYmluZGluZycsICctaW1hZScsICc8aW5maWxlLm1hZT4nLCAnLW9tYWUnLCAnPG91dGZpbGUubWFlPic=

> <r_lp_tautomer_probability>
0.999978

> <r_epik_Ionization_Penalty>
0.0874875

> <r_epik_Ionization_Penalty_Charging>
0.0831532

> <r_epik_Ionization_Penalty_Neutral>
0.00433433

> <r_epik_State_Penalty>
0.0738301

> <r_epik_Charging_Adjusted_Penalty>
0.156983

> <i_epik_Tot_Q>
1

> <i_epik_Tot_abs_Q>
1

> <r_epik_Metal_State_Penalty>
0.073888

> <b_epik_Metal_Only>
0

> <s_lp_Force_Field>
OPLS_2005

> <r_lp_Energy>
26.7302

> <b_lp_Chiralities_Consistent>
1

> <s_lp_Variant>
AV-unprocessed.smi:2850-3

> <Gold.Version>
5.8.1

> <Gold.Id.Protein>
6NUR|6NUR_protein|mol2

> <Gold.PLP.Fitness>
43.0867

> <Gold.PLP.PLP>
-35.6053

> <Gold.PLP.part.hbond>
-3.9051

> <Gold.PLP.part.metal>
0.0000

> <Gold.PLP.part.buried>
-0.0135

> <Gold.PLP.part.nonpolar>
-35.5136

> <Gold.PLP.part.repulsive>
3.3870

> <Gold.PLP.ligand.clash>
0.0000

> <Gold.PLP.ligand.torsion>
0.7931

> <Gold.PLP.Chemscore.Hbond>
2.9833

> <Gold.PLP.Chemscore.CHOScore>
0.0000

> <Gold.PLP.Chemscore.Metal>
0.0000

> <Gold.Chemscore.Hbonds>
donor molecule, donor type, donor heavy atom, donor atom, acceptor molecule, acceptor atom, score
      L1  H     7    26       P1  7948  1.00
      L1  H    11    45       P1  7921  1.00

> <Gold.PLP.Chemscore.Internal.Correction>
0.1176

> <Gold.Rescore>
     Score         DG    S(hbond)    S(metal)    S(lipo)     H(rot)  DE(clash)    DE(int)     intcor
     15.54     -19.00       1.89        0.00      96.56       1.60       2.55       0.92       ----

> <Gold.Chemscore.Fitness>
15.5351

> <Gold.Chemscore.DG>
-19.0041

> <Gold.Chemscore.ZeroCoef>
-5.4800

> <Gold.Chemscore.Hbond>
1.8932

> <Gold.Chemscore.Metal>
0.0000

> <Gold.Chemscore.Lipo>
96.5604

> <Gold.Chemscore.Internal_Hbond>
0.0000

> <Gold.Chemscore.DEClash>
2.5537

> <Gold.Chemscore.DEInternal>
0.9153

> <Gold.Chemscore.Rot>
1.6003

> <Gold.Chemscore.Internal.Correction>
   9.000000E+99

> <Gold.Chemscore.Hbonds>
donor molecule, donor type, donor heavy atom, donor atom, acceptor molecule, acceptor atom, score
      L1  H     7    26       P1  7948  0.99
      L1  H    11    45       P1  7921  0.99

> <Gold.Chemscore.Hbond.Weighted>
-6.3233

> <Gold.Chemscore.Metal.Weighted>
-0.0000

> <Gold.Chemscore.Lipo.Weighted>
-11.2976

> <Gold.Chemscore.Internal_Hbond.Weighted>
0.0000

> <Gold.Chemscore.DEClash.Weighted>
2.5537

> <Gold.Chemscore.DEInternal.Weighted>
0.9153

> <Gold.Chemscore.Rot.Weighted>
4.0968

> <Gold.Chemscore.Internal.Correction.Weighted>
   9.000000E+99

> <Gold.Protein.RotatedTorsions>
[ 6907 6896 6895 6894 ] final   -0.59 input  -60.11 | X-H torsion
[ 7974 7965 7964 7962 ] final -111.36 input  175.53 | X-H torsion
[ 8008 7997 7996 7995 ] final  -62.37 input   59.86 | X-H torsion
[ 10167 10162 10161 10158 ] final  158.84 input  -65.29 | X-H torsion
[ 10718 10713 10712 10709 ] final   58.60 input   66.30 | X-H torsion
[ 10763 10752 10751 10750 ] final   57.87 input  -60.55 | X-H torsion
[ 11005 11000 10999 10996 ] final   61.30 input  -57.11 | X-H torsion

> <Gold.Protein.ActiveResidues>
 VAL166  LYS551  ARG553  GLY616  TRP617  ASP618  TYR619  PRO620  LYS621  CYS622 
 ASP623  PHE694  ASN695  SER759  ASP760  ASP761  ALA762  ILE779  LEU786  VAL792 
 PHE793  MET794  SER795  GLU796  ALA797  LYS798  CYS799  TRP800  GLU811  SER814 

> <Gold.Protein.RotatedAtoms>
  151.5598  135.1066  159.9969 H   0  0  0  0  0  0  0  0  0  0  0  0  # atno 6907 bound_to 6896
  152.4452  133.7519  159.6709 H   0  0  0  0  0  0  0  0  0  0  0  0  # atno 6908 bound_to 6896
  150.8366  133.7936  159.3101 H   0  0  0  0  0  0  0  0  0  0  0  0  # atno 6909 bound_to 6896
  145.1571  140.8859  143.3612 H   0  0  0  0  0  0  0  0  0  0  0  0  # atno 7974 bound_to 7965
  154.4496  140.0997  156.6577 H   0  0  0  0  0  0  0  0  0  0  0  0  # atno 8008 bound_to 7997
  155.5327  140.3481  155.4411 H   0  0  0  0  0  0  0  0  0  0  0  0  # atno 8009 bound_to 7997
  156.0652  140.1336  156.9883 H   0  0  0  0  0  0  0  0  0  0  0  0  # atno 8010 bound_to 7997
  139.4829  144.4786  151.8476 H   0  0  0  0  0  0  0  0  0  0  0  0  # atno 10167 bound_to 10162
  157.5609  130.8835  149.9109 H   0  0  0  0  0  0  0  0  0  0  0  0  # atno 10718 bound_to 10713
  152.9859  135.5626  154.5461 H   0  0  0  0  0  0  0  0  0  0  0  0  # atno 10763 bound_to 10752
  154.4907  135.2792  155.1501 H   0  0  0  0  0  0  0  0  0  0  0  0  # atno 10764 bound_to 10752
  154.2972  135.6314  153.5462 H   0  0  0  0  0  0  0  0  0  0  0  0  # atno 10765 bound_to 10752
  140.0171  134.6209  155.9694 H   0  0  0  0  0  0  0  0  0  0  0  0  # atno 11005 bound_to 11000
  145.0370  139.3292  143.5996 LP  0  0  0  0  0  0  0  0  0  0  0  0  # atno 17320 bound_to 7965
  146.3487  139.9729  142.8704 LP  0  0  0  0  0  0  0  0  0  0  0  0  # atno 17321 bound_to 7965
  140.4260  144.2179  150.5887 LP  0  0  0  0  0  0  0  0  0  0  0  0  # atno 17342 bound_to 10162
  140.4826  143.2374  151.8933 LP  0  0  0  0  0  0  0  0  0  0  0  0  # atno 17343 bound_to 10162
  156.0662  130.3692  150.0874 LP  0  0  0  0  0  0  0  0  0  0  0  0  # atno 17370 bound_to 10713
  156.9038  130.9629  151.3572 LP  0  0  0  0  0  0  0  0  0  0  0  0  # atno 17371 bound_to 10713
  141.1750  133.6539  156.4793 LP  0  0  0  0  0  0  0  0  0  0  0  0  # atno 17394 bound_to 11000
  140.4452  134.6979  157.5012 LP  0  0  0  0  0  0  0  0  0  0  0  0  # atno 17395 bound_to 11000

$$$$
