AV-unprocessed.smi:500|AV-procd|sdf|2736|dock4
  -GOLD-   2262023193D 1   1.00000     0.00000
 Structure written by MMmdl.
 46 48  0  0  0  0  0  0  0  0  2 V2000
  139.4184  136.7078  154.3877 C   0  0  0  0  0  0  0  0  0  0  0  0
  140.9459  136.6510  154.3179 C   0  0  0  0  0  0  0  0  0  0  0  0
  141.3485  135.2931  154.2868 O   0  0  0  0  0  0  0  0  0  0  0  0
  142.7351  135.1329  154.0366 C   0  0  0  0  0  0  0  0  0  0  0  0
  143.1341  135.9539  152.8027 C   0  0  0  0  0  0  0  0  0  0  0  0
  144.3947  135.4859  152.2060 N   0  0  0  0  0  0  0  0  0  0  0  0
  145.6090  136.1030  152.1119 C   0  0  0  0  0  0  0  0  0  0  0  0
  145.9735  137.4586  152.6405 C   0  0  2  0  0  0  0  0  0  0  0  0
  146.3596  138.4244  151.5095 C   0  0  0  0  0  0  0  0  0  0  0  0
  147.0711  137.3634  153.5983 N   0  0  0  0  0  0  0  0  0  0  0  0
  147.0231  137.7240  154.8909 C   0  0  0  0  0  0  0  0  0  0  0  0
  146.0281  138.2100  155.4274 O   0  0  0  0  0  0  0  0  0  0  0  0
  148.2639  137.5138  155.6604 C   0  0  0  0  0  0  0  0  0  0  0  0
  149.4841  137.0082  155.2947 C   0  0  0  0  0  0  0  0  0  0  0  0
  150.3014  137.0350  156.4586 C   0  0  0  0  0  0  0  0  0  0  0  0
  149.5216  137.5511  157.4531 C   0  0  0  0  0  0  0  0  0  0  0  0
  148.2785  137.8452  156.9843 O   0  0  0  0  0  0  0  0  0  0  0  0
  146.4507  135.2332  151.4816 N   0  3  0  0  0  0  0  0  0  0  0  0
  145.7638  134.0680  151.1419 C   0  0  0  0  0  0  0  0  0  0  0  0
  146.1901  132.9195  150.4819 C   0  0  0  0  0  0  0  0  0  0  0  0
  145.2273  131.9076  150.2871 C   0  0  0  0  0  0  0  0  0  0  0  0
  143.9015  132.0588  150.7426 C   0  0  0  0  0  0  0  0  0  0  0  0
  143.4829  133.2266  151.4135 C   0  0  0  0  0  0  0  0  0  0  0  0
  144.4408  134.2233  151.6022 C   0  0  0  0  0  0  0  0  0  0  0  0
  139.0673  137.7398  154.4071 H   0  0  0  0  0  0  0  0  0  0  0  0
  139.0490  136.2115  155.2853 H   0  0  0  0  0  0  0  0  0  0  0  0
  138.9688  136.2171  153.5240 H   0  0  0  0  0  0  0  0  0  0  0  0
  141.2975  137.1683  153.4239 H   0  0  0  0  0  0  0  0  0  0  0  0
  141.3783  137.1534  155.1844 H   0  0  0  0  0  0  0  0  0  0  0  0
  143.3114  135.4607  154.9032 H   0  0  0  0  0  0  0  0  0  0  0  0
  142.9662  134.0798  153.8705 H   0  0  0  0  0  0  0  0  0  0  0  0
  142.3581  135.8860  152.0418 H   0  0  0  0  0  0  0  0  0  0  0  0
  143.2217  137.0122  153.0485 H   0  0  0  0  0  0  0  0  0  0  0  0
  145.0893  137.8769  153.1235 H   0  0  0  0  0  0  0  0  0  0  0  0
  145.5479  138.5265  150.7885 H   0  0  0  0  0  0  0  0  0  0  0  0
  147.2452  138.0850  150.9710 H   0  0  0  0  0  0  0  0  0  0  0  0
  146.5746  139.4185  151.9031 H   0  0  0  0  0  0  0  0  0  0  0  0
  147.9401  136.9818  153.2538 H   0  0  0  0  0  0  0  0  0  0  0  0
  149.7588  136.6602  154.3098 H   0  0  0  0  0  0  0  0  0  0  0  0
  151.3287  136.7164  156.5565 H   0  0  0  0  0  0  0  0  0  0  0  0
  149.6829  137.7655  158.4993 H   0  0  0  0  0  0  0  0  0  0  0  0
  147.2047  132.8024  150.1304 H   0  0  0  0  0  0  0  0  0  0  0  0
  145.5101  130.9982  149.7769 H   0  0  0  0  0  0  0  0  0  0  0  0
  143.1901  131.2636  150.5731 H   0  0  0  0  0  0  0  0  0  0  0  0
  142.4630  133.3334  151.7519 H   0  0  0  0  0  0  0  0  0  0  0  0
  147.4241  135.4317  151.2893 H   0  0  0  0  0  0  0  0  0  0  0  0
  1  2  1  0  0  0  0
  1 25  1  0  0  0  0
  1 26  1  0  0  0  0
  1 27  1  0  0  0  0
  2  3  1  0  0  0  0
  2 28  1  0  0  0  0
  2 29  1  0  0  0  0
  3  4  1  0  0  0  0
  4  5  1  0  0  0  0
  4 30  1  0  0  0  0
  4 31  1  0  0  0  0
  5  6  1  0  0  0  0
  5 32  1  0  0  0  0
  5 33  1  0  0  0  0
  6 24  1  0  0  0  0
  6  7  1  0  0  0  0
  7  8  1  0  0  0  0
  7 18  2  0  0  0  0
  8  9  1  0  0  0  0
  8 10  1  0  0  0  0
  8 34  1  0  0  0  0
  9 35  1  0  0  0  0
  9 36  1  0  0  0  0
  9 37  1  0  0  0  0
 10 11  1  0  0  0  0
 10 38  1  0  0  0  0
 11 12  2  0  0  0  0
 11 13  1  0  0  0  0
 13 17  1  0  0  0  0
 13 14  2  0  0  0  0
 14 15  1  0  0  0  0
 14 39  1  0  0  0  0
 15 16  2  0  0  0  0
 15 40  1  0  0  0  0
 16 17  1  0  0  0  0
 16 41  1  0  0  0  0
 18 19  1  0  0  0  0
 18 46  1  0  0  0  0
 19 24  2  0  0  0  0
 19 20  1  0  0  0  0
 20 21  2  0  0  0  0
 20 42  1  0  0  0  0
 21 22  1  0  0  0  0
 21 43  1  0  0  0  0
 22 23  2  0  0  0  0
 22 44  1  0  0  0  0
 23 24  1  0  0  0  0
 23 45  1  0  0  0  0
M  CHG  1  18   1
M  END
> <s_m_source_file>
AV-unprocessed.smi

> <i_m_source_file_index>
500

> <i_lp_mmshare_version>
43012

> <i_f3d_flags>
0

> <s_epik_input>
W0NIM11bQ0gyXU9bQ0gyXVtDSDJdbihjKGMxMilbY0hdW2NIXVtjSF1bY0hdMiljKG4xKVtDQEhdKFtDSDNdKVtOSF1DKD1PKWMzW2NIXVtjSF1bY0hdbzM=

> <s_epik_cmdline>
J2VwaWtfcHl0aG9uJywgJy1waCcsICc3LjAnLCAnLXRuJywgJzgnLCAnLW1hJywgJzIwMCcsICctbWV0YWxfYmluZGluZycsICctaW1hZScsICc8aW5maWxlLm1hZT4nLCAnLW9tYWUnLCAnPG91dGZpbGUubWFlPic=

> <r_epik_Ionization_Penalty>
1.05286

> <r_epik_Ionization_Penalty_Charging>
1.05283

> <r_epik_Ionization_Penalty_Neutral>
2.09263e-05

> <r_epik_State_Penalty>
1.10586

> <r_epik_Charging_Adjusted_Penalty>
2.15869

> <i_epik_Tot_Q>
1

> <i_epik_Tot_abs_Q>
1

> <r_epik_Metal_State_Penalty>
1.22833

> <b_epik_Metal_Only>
0

> <s_lp_Force_Field>
OPLS_2005

> <r_lp_Energy>
11.0053

> <b_lp_Chiralities_Consistent>
1

> <s_lp_Variant>
AV-unprocessed.smi:500-3

> <Gold.Version>
5.8.1

> <Gold.Id.Protein>
6NUR|6NUR_protein|mol2

> <Gold.PLP.Fitness>
50.8166

> <Gold.PLP.PLP>
-39.7272

> <Gold.PLP.part.hbond>
-3.0000

> <Gold.PLP.part.metal>
0.0000

> <Gold.PLP.part.buried>
-5.5765

> <Gold.PLP.part.nonpolar>
-32.5306

> <Gold.PLP.part.repulsive>
0.2676

> <Gold.PLP.ligand.clash>
0.0000

> <Gold.PLP.ligand.torsion>
0.2086

> <Gold.PLP.Chemscore.Hbond>
3.8108

> <Gold.PLP.Chemscore.CHOScore>
0.0000

> <Gold.PLP.Chemscore.Metal>
0.0000

> <Gold.Chemscore.Hbonds>
donor molecule, donor type, donor heavy atom, donor atom, acceptor molecule, acceptor atom, score
      L1  H    10    38       P1  7948  1.00
      L1  H    18    46       P1  7948  1.95
      P1  H 11000 11005       L1     3  0.83

> <Gold.PLP.Chemscore.Internal.Correction>
0.0742

> <Gold.Rescore>
     Score         DG    S(hbond)    S(metal)    S(lipo)     H(rot)  DE(clash)    DE(int)     intcor
     17.91     -19.47       2.50        0.00      91.42       1.97       1.28       0.28       ----

> <Gold.Chemscore.Fitness>
17.9053

> <Gold.Chemscore.DG>
-19.4659

> <Gold.Chemscore.ZeroCoef>
-5.4800

> <Gold.Chemscore.Hbond>
2.4985

> <Gold.Chemscore.Metal>
0.0000

> <Gold.Chemscore.Lipo>
91.4186

> <Gold.Chemscore.Internal_Hbond>
0.0000

> <Gold.Chemscore.DEClash>
1.2792

> <Gold.Chemscore.DEInternal>
0.2813

> <Gold.Chemscore.Rot>
1.9746

> <Gold.Chemscore.Internal.Correction>
   9.000000E+99

> <Gold.Chemscore.Hbonds>
donor molecule, donor type, donor heavy atom, donor atom, acceptor molecule, acceptor atom, score
      L1  H    10    38       P1  7948  0.94
      L1  H    18    46       P1  7948  0.73
      P1  H 11000 11005       L1     3  0.61

> <Gold.Chemscore.Hbond.Weighted>
-8.3449

> <Gold.Chemscore.Metal.Weighted>
-0.0000

> <Gold.Chemscore.Lipo.Weighted>
-10.6960

> <Gold.Chemscore.Internal_Hbond.Weighted>
0.0000

> <Gold.Chemscore.DEClash.Weighted>
1.2792

> <Gold.Chemscore.DEInternal.Weighted>
0.2813

> <Gold.Chemscore.Rot.Weighted>
5.0550

> <Gold.Chemscore.Internal.Correction.Weighted>
   9.000000E+99

> <Gold.Protein.RotatedTorsions>
[ 6907 6896 6895 6894 ] final  -58.96 input  -60.11 | X-H torsion
[ 7974 7965 7964 7962 ] final    6.93 input  175.53 | X-H torsion
[ 8008 7997 7996 7995 ] final  169.94 input   59.86 | X-H torsion
[ 10167 10162 10161 10158 ] final   25.22 input  -65.29 | X-H torsion
[ 10718 10713 10712 10709 ] final  -99.66 input   66.30 | X-H torsion
[ 10763 10752 10751 10750 ] final  173.04 input  -60.55 | X-H torsion
[ 11005 11000 10999 10996 ] final   22.34 input  -57.11 | X-H torsion

> <Gold.Protein.ActiveResidues>
 VAL166  LYS551  ARG553  GLY616  TRP617  ASP618  TYR619  PRO620  LYS621  CYS622 
 ASP623  PHE694  ASN695  SER759  ASP760  ASP761  ALA762  ILE779  LEU786  VAL792 
 PHE793  MET794  SER795  GLU796  ALA797  LYS798  CYS799  TRP800  GLU811  SER814 

> <Gold.Protein.RotatedAtoms>
  150.7967  134.7031  159.6561 H   0  0  0  0  0  0  0  0  0  0  0  0  # atno 6907 bound_to 6896
  152.4080  134.6171  160.0050 H   0  0  0  0  0  0  0  0  0  0  0  0  # atno 6908 bound_to 6896
  151.6422  133.3288  159.3169 H   0  0  0  0  0  0  0  0  0  0  0  0  # atno 6909 bound_to 6896
  146.2431  140.0159  142.8402 H   0  0  0  0  0  0  0  0  0  0  0  0  # atno 7974 bound_to 7965
  156.1412  140.1551  156.8918 H   0  0  0  0  0  0  0  0  0  0  0  0  # atno 8008 bound_to 7997
  154.4989  140.0830  156.7793 H   0  0  0  0  0  0  0  0  0  0  0  0  # atno 8009 bound_to 7997
  155.4076  140.3417  155.4263 H   0  0  0  0  0  0  0  0  0  0  0  0  # atno 8010 bound_to 7997
  140.5124  144.0138  150.6378 H   0  0  0  0  0  0  0  0  0  0  0  0  # atno 10167 bound_to 10162
  156.0140  130.5292  150.6703 H   0  0  0  0  0  0  0  0  0  0  0  0  # atno 10718 bound_to 10713
  154.4345  135.2760  155.1890 H   0  0  0  0  0  0  0  0  0  0  0  0  # atno 10763 bound_to 10752
  154.3782  135.6093  153.5780 H   0  0  0  0  0  0  0  0  0  0  0  0  # atno 10764 bound_to 10752
  152.9837  135.5874  154.4662 H   0  0  0  0  0  0  0  0  0  0  0  0  # atno 10765 bound_to 10752
  140.3816  134.1914  155.7663 H   0  0  0  0  0  0  0  0  0  0  0  0  # atno 11005 bound_to 11000
  145.1285  140.9504  143.4558 LP  0  0  0  0  0  0  0  0  0  0  0  0  # atno 17320 bound_to 7965
  145.0411  139.3260  143.5976 LP  0  0  0  0  0  0  0  0  0  0  0  0  # atno 17321 bound_to 7965
  140.3464  143.2989  152.0533 LP  0  0  0  0  0  0  0  0  0  0  0  0  # atno 17342 bound_to 10162
  139.4900  144.6405  151.6886 LP  0  0  0  0  0  0  0  0  0  0  0  0  # atno 17343 bound_to 10162
  157.4427  131.0863  151.0927 LP  0  0  0  0  0  0  0  0  0  0  0  0  # atno 17370 bound_to 10713
  157.1467  130.6166  149.5570 LP  0  0  0  0  0  0  0  0  0  0  0  0  # atno 17371 bound_to 10713
  141.1921  133.8180  157.0852 LP  0  0  0  0  0  0  0  0  0  0  0  0  # atno 17394 bound_to 11000
  140.0474  134.9823  157.1073 LP  0  0  0  0  0  0  0  0  0  0  0  0  # atno 17395 bound_to 11000

$$$$
