#       Name:                AV-unprocessed.smi:652
#       Creating user name   scv26
#       Creation time:       Fri Mar 27 00:13:21 2020


#       File generated by GOLD software.
#

@<TRIPOS>MOLECULE
AV-unprocessed.smi:652
    54    55     1
SMALL
NO_CHARGES


@<TRIPOS>ATOM
      1 ****         8.8690   0.5478  -3.5947 C.3            1 S1                 0.0000
      2 ****         7.3637   0.2501  -3.5945 C.3            1 S1                 0.0000
      3 ****         6.6624   0.8785  -4.8095 C.3            1 S1                 0.0000
      4 ****         6.7727   0.7399  -2.3521 N.am           1 S1                 0.0000
      5 ****         5.6510   0.2687  -1.7850 C.2            1 S1                 0.0000
      6 ****         4.9863  -0.6523  -2.2600 O.2            1 S1                 0.0000
      7 ****         5.2129   0.9375  -0.4793 C.3            1 S1                 0.0000
      8 ****         3.6920   1.1852  -0.4338 C.3            1 S1                 0.0000
      9 ****         3.2834   1.9754   0.7579 N.4            1 S1                 1.0000
     10 ****         1.9854   2.6726   0.5896 C.3            1 S1                 0.0000
     11 ****         0.8063   1.6990   0.7610 C.3            1 S1                 0.0000
     12 ****         0.8955   1.0734   2.0354 O.3            1 S1                 0.0000
     13 ****         2.0786   0.2937   2.1826 C.3            1 S1                 0.0000
     14 ****         2.0357  -0.3768   3.5637 C.3            1 S1                 0.0000
     15 ****         0.9874  -1.3835   3.6403 N.pl3          1 S1                 0.0000
     16 ****         0.6967  -2.0121   4.8584 C.ar           1 S1                 0.0000
     17 ****        -0.3016  -3.0004   5.0230 C.ar           1 S1                 0.0000
     18 ****        -0.4869  -3.5541   6.3012 C.ar           1 S1                 0.0000
     19 ****         0.3376  -3.0862   7.3396 C.ar           1 S1                 0.0000
     20 ****         1.2855  -2.1389   7.1624 N.ar           1 S1                 0.0000
     21 ****         1.4381  -1.6281   5.9277 N.pl3          1 S1                 1.0000
     22 ****         3.3051   1.2240   2.0400 C.3            1 S1                 0.0000
     23 ****         9.3433   0.1653  -4.4991 H              1 S1                 0.0000
     24 ****         9.3630   0.0804  -2.7421 H              1 S1                 0.0000
     25 ****         9.0630   1.6199  -3.5461 H              1 S1                 0.0000
     26 ****         7.2397  -0.8334  -3.6433 H              1 S1                 0.0000
     27 ****         7.0976   0.5172  -5.7417 H              1 S1                 0.0000
     28 ****         6.7509   1.9654  -4.8014 H              1 S1                 0.0000
     29 ****         5.6007   0.6305  -4.8280 H              1 S1                 0.0000
     30 ****         7.2559   1.4971  -1.8905 H              1 S1                 0.0000
     31 ****         5.5291   0.2974   0.3441 H              1 S1                 0.0000
     32 ****         5.7422   1.8848  -0.3627 H              1 S1                 0.0000
     33 ****         3.4144   1.7400  -1.3317 H              1 S1                 0.0000
     34 ****         3.1426   0.2448  -0.4772 H              1 S1                 0.0000
     35 ****         1.9167   3.4567   1.3450 H              1 S1                 0.0000
     36 ****         1.9375   3.1756  -0.3767 H              1 S1                 0.0000
     37 ****        -0.1377   2.2409   0.7012 H              1 S1                 0.0000
     38 ****         0.7913   0.9484  -0.0307 H              1 S1                 0.0000
     39 ****         2.1065  -0.4824   1.4160 H              1 S1                 0.0000
     40 ****         2.9921  -0.8623   3.7619 H              1 S1                 0.0000
     41 ****         1.8857   0.3745   4.3401 H              1 S1                 0.0000
     42 ****         0.3375  -1.4648   2.8713 H              1 S1                 0.0000
     43 ****        -0.9175  -3.3336   4.2011 H              1 S1                 0.0000
     44 ****        -1.2350  -4.3120   6.4814 H              1 S1                 0.0000
     45 ****         0.2351  -3.4807   8.3400 H              1 S1                 0.0000
     46 ****         4.2310   0.6601   2.1455 H              1 S1                 0.0000
     47 ****         3.3017   1.9515   2.8528 H              1 S1                 0.0000
     48 ****         3.9772   2.7055   0.8383 H              1 S1                 0.0000
     49 ****         2.1520  -0.9130   5.7867 H              1 S1                 0.0000
     50 ****         5.2749  -1.0896  -3.1118 LP             1 S1                 0.0000
     51 ****         4.1579  -0.9631  -1.7942 LP             1 S1                 0.0000
     52 ****         0.1019   0.4768   2.1554 LP             1 S1                 0.0000
     53 ****         0.8893   1.7821   2.7410 LP             1 S1                 0.0000
     54 ****         1.8543  -1.8283   7.9240 LP             1 S1                 0.0000
@<TRIPOS>BOND
    1    1    2 1     
    2    1   23 1     
    3    1   24 1     
    4    1   25 1     
    5    2    3 1     
    6    2    4 1     
    7    2   26 1     
    8    3   27 1     
    9    3   28 1     
   10    3   29 1     
   11    4    5 am    
   12    4   30 1     
   13    5    6 2     
   14    5    7 1     
   15    7    8 1     
   16    7   31 1     
   17    7   32 1     
   18    8    9 1     
   19    8   33 1     
   20    8   34 1     
   21    9   22 1     
   22    9   10 1     
   23    9   48 1     
   24   10   11 1     
   25   10   35 1     
   26   10   36 1     
   27   11   12 1     
   28   11   37 1     
   29   11   38 1     
   30   12   13 1     
   31   13   14 1     
   32   13   22 1     
   33   13   39 1     
   34   14   15 1     
   35   14   40 1     
   36   14   41 1     
   37   15   16 1     
   38   15   42 1     
   39   16   21 ar    
   40   16   17 ar    
   41   17   18 ar    
   42   17   43 1     
   43   18   19 ar    
   44   18   44 1     
   45   19   20 ar    
   46   19   45 1     
   47   20   21 ar    
   48   21   49 1     
   49   22   46 1     
   50   22   47 1     
   51    6   50 1     
   52    6   51 1     
   53   12   52 1     
   54   12   53 1     
   55   20   54 1     
@<TRIPOS>SUBSTRUCTURE
      1 S1             1
@<TRIPOS>SET
LONE_PAIRS      STATIC     ATOMS    <user>   **** ""
5 50 51 52 53 54
DONOR_HYDROGENS      STATIC     ATOMS    <user>   **** ""
4 30 48 42 49
ATOM$BLUE        STATIC     ATOMS    COLORGROUP SYSTEM
5 50 51 52 53 54
ATOM$RED        STATIC     ATOMS    COLORGROUP SYSTEM
4 30 48 42 49
