AV-unprocessed.smi:111|AV-procd|sdf|1082|dock6
  -GOLD-   2262018173D 1   1.00000     0.00000
 Structure written by MMmdl.
 46 48  0  0  0  0  0  0  0  0  1 V2000
  148.9370  139.5696  154.2802 O   0  0  0  0  0  0  0  0  0  0  0  0
  149.4354  140.1021  155.2734 C   0  0  0  0  0  0  0  0  0  0  0  0
  148.7416  141.0949  156.0842 C   0  0  0  0  0  0  0  0  0  0  0  0
  147.4728  141.4247  155.7890 F   0  0  0  0  0  0  0  0  0  0  0  0
  149.3469  141.6794  157.1403 C   0  0  0  0  0  0  0  0  0  0  0  0
  150.6537  141.4085  157.5141 N   0  0  0  0  0  0  0  0  0  0  0  0
  151.2691  142.0205  158.7564 C   0  0  1  0  0  0  0  0  0  0  0  0
  152.4532  142.9627  158.4760 C   0  0  0  0  0  0  0  0  0  0  0  0
  151.8382  144.3311  158.6966 C   0  0  0  0  0  0  0  0  0  0  0  0
  150.7947  144.0300  159.7654 C   0  0  0  0  0  0  0  0  0  0  0  0
  150.2723  142.7602  159.3966 O   0  0  0  0  0  0  0  0  0  0  0  0
  151.3718  140.3990  156.8321 C   0  0  0  0  0  0  0  0  0  0  0  0
  152.5084  140.0807  157.1898 O   0  0  0  0  0  0  0  0  0  0  0  0
  150.7421  139.7886  155.7188 N   0  0  0  0  0  0  0  0  0  0  0  0
  151.4780  138.7827  154.9629 C   0  0  0  0  0  0  0  0  0  0  0  0
  150.7624  137.4172  154.7806 C   0  0  1  0  0  0  0  0  0  0  0  0
  151.5785  136.5787  153.9874 O   0  0  0  0  0  0  0  0  0  0  0  0
  150.3407  136.6865  156.0733 C   0  0  0  0  0  0  0  0  0  0  0  0
  149.3215  135.5604  155.8364 C   0  0  0  0  0  0  0  0  0  0  0  0
  149.9949  134.2559  155.4551 C   0  0  0  0  0  0  0  0  0  0  0  0
  149.5083  133.4998  154.3679 C   0  0  0  0  0  0  0  0  0  0  0  0
  150.1365  132.2913  154.0088 C   0  0  0  0  0  0  0  0  0  0  0  0
  151.2537  131.8350  154.7348 C   0  0  0  0  0  0  0  0  0  0  0  0
  151.7432  132.5880  155.8200 C   0  0  0  0  0  0  0  0  0  0  0  0
  151.1155  133.7968  156.1794 C   0  0  0  0  0  0  0  0  0  0  0  0
  148.7629  142.3847  157.7096 H   0  0  0  0  0  0  0  0  0  0  0  0
  151.5939  141.1855  159.3791 H   0  0  0  0  0  0  0  0  0  0  0  0
  153.2183  142.7775  159.2308 H   0  0  0  0  0  0  0  0  0  0  0  0
  152.9074  142.8122  157.4967 H   0  0  0  0  0  0  0  0  0  0  0  0
  152.5654  145.0802  159.0113 H   0  0  0  0  0  0  0  0  0  0  0  0
  151.3521  144.6888  157.7889 H   0  0  0  0  0  0  0  0  0  0  0  0
  151.2627  143.9527  160.7478 H   0  0  0  0  0  0  0  0  0  0  0  0
  150.0116  144.7867  159.8171 H   0  0  0  0  0  0  0  0  0  0  0  0
  151.7080  139.2109  153.9868 H   0  0  0  0  0  0  0  0  0  0  0  0
  152.4603  138.6781  155.4291 H   0  0  0  0  0  0  0  0  0  0  0  0
  149.8664  137.6005  154.1864 H   0  0  0  0  0  0  0  0  0  0  0  0
  151.3695  136.7299  153.0777 H   0  0  0  0  0  0  0  0  0  0  0  0
  151.2174  136.2817  156.5806 H   0  0  0  0  0  0  0  0  0  0  0  0
  149.8923  137.4083  156.7563 H   0  0  0  0  0  0  0  0  0  0  0  0
  148.7211  135.4041  156.7337 H   0  0  0  0  0  0  0  0  0  0  0  0
  148.6244  135.8394  155.0452 H   0  0  0  0  0  0  0  0  0  0  0  0
  148.6537  133.8467  153.8053 H   0  0  0  0  0  0  0  0  0  0  0  0
  149.7618  131.7148  153.1760 H   0  0  0  0  0  0  0  0  0  0  0  0
  151.7355  130.9084  154.4592 H   0  0  0  0  0  0  0  0  0  0  0  0
  152.6007  132.2389  156.3762 H   0  0  0  0  0  0  0  0  0  0  0  0
  151.4979  134.3706  157.0109 H   0  0  0  0  0  0  0  0  0  0  0  0
  1  2  2  0  0  0  0
  2 14  1  0  0  0  0
  2  3  1  0  0  0  0
  3  4  1  0  0  0  0
  3  5  2  0  0  0  0
  5  6  1  0  0  0  0
  5 26  1  0  0  0  0
  6  7  1  0  0  0  0
  6 12  1  0  0  0  0
  7 11  1  0  0  0  0
  7  8  1  0  0  0  0
  7 27  1  0  0  0  0
  8  9  1  0  0  0  0
  8 28  1  0  0  0  0
  8 29  1  0  0  0  0
  9 10  1  0  0  0  0
  9 30  1  0  0  0  0
  9 31  1  0  0  0  0
 10 11  1  0  0  0  0
 10 32  1  0  0  0  0
 10 33  1  0  0  0  0
 12 13  2  0  0  0  0
 12 14  1  0  0  0  0
 14 15  1  0  0  0  0
 15 16  1  0  0  0  0
 15 34  1  0  0  0  0
 15 35  1  0  0  0  0
 16 17  1  0  0  0  0
 16 18  1  0  0  0  0
 16 36  1  0  0  0  0
 17 37  1  0  0  0  0
 18 19  1  0  0  0  0
 18 38  1  0  0  0  0
 18 39  1  0  0  0  0
 19 20  1  0  0  0  0
 19 40  1  0  0  0  0
 19 41  1  0  0  0  0
 20 25  1  0  0  0  0
 20 21  2  0  0  0  0
 21 22  1  0  0  0  0
 21 42  1  0  0  0  0
 22 23  2  0  0  0  0
 22 43  1  0  0  0  0
 23 24  1  0  0  0  0
 23 44  1  0  0  0  0
 24 25  2  0  0  0  0
 24 45  1  0  0  0  0
 25 46  1  0  0  0  0
M  END
> <s_m_source_file>
AV-unprocessed.smi

> <i_m_source_file_index>
111

> <i_lp_mmshare_version>
43012

> <i_f3d_flags>
0

> <s_epik_input>
TzFbQ0gyXVtDSDJdW0NIMl1bQ0BIXTFuKFtjSF1jKEYpYzI9TyljKD1PKW4yW0NIMl1bQ0BIXShbT0hdKVtDSDJdW0NIMl1jM1tjSF1bY0hdW2NIXVtjSF1bY0hdMw==

> <s_epik_cmdline>
J2VwaWtfcHl0aG9uJywgJy1waCcsICc3LjAnLCAnLXRuJywgJzgnLCAnLW1hJywgJzIwMCcsICctbWV0YWxfYmluZGluZycsICctaW1hZScsICc8aW5maWxlLm1hZT4nLCAnLW9tYWUnLCAnPG91dGZpbGUubWFlPic=

> <r_lp_tautomer_probability>
1

> <r_epik_Ionization_Penalty>
1.88248e-07

> <r_epik_Ionization_Penalty_Charging>
4.03974e-08

> <r_epik_Ionization_Penalty_Neutral>
1.47851e-07

> <r_epik_State_Penalty>
-0

> <r_epik_Charging_Adjusted_Penalty>
4.03974e-08

> <i_epik_Tot_Q>
0

> <i_epik_Tot_abs_Q>
0

> <r_epik_Metal_State_Penalty>
-0

> <b_epik_Metal_Only>
0

> <s_epik_Chemistry_Notes>
This compound contains an acetal/aminal-like group ( X-CH(R)-Y where X, Y are N, S, or O) that may be acid/base labile, releasing an aldehyde.

> <s_lp_Force_Field>
OPLS_2005

> <r_lp_Energy>
37.7752

> <b_lp_Chiralities_Consistent>
1

> <s_lp_Variant>
AV-unprocessed.smi:111-4

> <Gold.Version>
5.8.1

> <Gold.Id.Protein>
6NUR|6NUR_protein|mol2

> <Gold.PLP.Fitness>
55.5684

> <Gold.PLP.PLP>
-45.6056

> <Gold.PLP.part.hbond>
-3.5155

> <Gold.PLP.part.metal>
0.0000

> <Gold.PLP.part.buried>
-4.2357

> <Gold.PLP.part.nonpolar>
-40.4957

> <Gold.PLP.part.repulsive>
2.2046

> <Gold.PLP.ligand.clash>
0.0000

> <Gold.PLP.ligand.torsion>
0.5858

> <Gold.PLP.Chemscore.Hbond>
3.0000

> <Gold.PLP.Chemscore.CHOScore>
0.6634

> <Gold.PLP.Chemscore.Metal>
0.0000

> <Gold.Chemscore.Hbonds>
donor molecule, donor type, donor heavy atom, donor atom, acceptor molecule, acceptor atom, score
      L1  H    17    37       P1  7949  0.91
      P1  H  7997  8008       L1    13  1.00
      P1  H 10752 10763       L1    17  1.00

> <Gold.PLP.Chemscore.Internal.Correction>
0.1441

> <Gold.Rescore>
     Score         DG    S(hbond)    S(metal)    S(lipo)     H(rot)  DE(clash)    DE(int)     intcor
     14.24     -17.66       2.36        0.00      95.25       2.67       1.28       2.15       ----

> <Gold.Chemscore.Fitness>
14.2369

> <Gold.Chemscore.DG>
-17.6632

> <Gold.Chemscore.ZeroCoef>
-5.4800

> <Gold.Chemscore.Hbond>
2.3609

> <Gold.Chemscore.Metal>
0.0000

> <Gold.Chemscore.Lipo>
95.2469

> <Gold.Chemscore.Internal_Hbond>
0.0000

> <Gold.Chemscore.DEClash>
1.2783

> <Gold.Chemscore.DEInternal>
2.1481

> <Gold.Chemscore.Rot>
2.6743

> <Gold.Chemscore.Internal.Correction>
   9.000000E+99

> <Gold.Chemscore.Hbonds>
donor molecule, donor type, donor heavy atom, donor atom, acceptor molecule, acceptor atom, score
      L1  H    17    37       P1  7949  0.69
      P1  H  7997  8008       L1    13  0.97
      P1  H 10752 10763       L1    17  0.94

> <Gold.Chemscore.Hbond.Weighted>
-7.8856

> <Gold.Chemscore.Metal.Weighted>
-0.0000

> <Gold.Chemscore.Lipo.Weighted>
-11.1439

> <Gold.Chemscore.Internal_Hbond.Weighted>
0.0000

> <Gold.Chemscore.DEClash.Weighted>
1.2783

> <Gold.Chemscore.DEInternal.Weighted>
2.1481

> <Gold.Chemscore.Rot.Weighted>
6.8463

> <Gold.Chemscore.Internal.Correction.Weighted>
   9.000000E+99

> <Gold.Protein.RotatedTorsions>
[ 6907 6896 6895 6894 ] final  -97.29 input  -60.11 | X-H torsion
[ 7974 7965 7964 7962 ] final  -65.97 input  175.53 | X-H torsion
[ 8008 7997 7996 7995 ] final  -55.21 input   59.86 | X-H torsion
[ 10167 10162 10161 10158 ] final  164.11 input  -65.29 | X-H torsion
[ 10718 10713 10712 10709 ] final -150.59 input   66.30 | X-H torsion
[ 10763 10752 10751 10750 ] final   43.90 input  -60.55 | X-H torsion
[ 11005 11000 10999 10996 ] final   86.22 input  -57.11 | X-H torsion

> <Gold.Protein.ActiveResidues>
 VAL166  LYS551  ARG553  GLY616  TRP617  ASP618  TYR619  PRO620  LYS621  CYS622 
 ASP623  PHE694  ASN695  SER759  ASP760  ASP761  ALA762  ILE779  LEU786  VAL792 
 PHE793  MET794  SER795  GLU796  ALA797  LYS798  CYS799  TRP800  GLU811  SER814 

> <Gold.Protein.RotatedAtoms>
  150.7012  134.1372  159.4091 H   0  0  0  0  0  0  0  0  0  0  0  0  # atno 6907 bound_to 6896
  151.9357  135.0234  160.0541 H   0  0  0  0  0  0  0  0  0  0  0  0  # atno 6908 bound_to 6896
  152.2137  133.4895  159.5161 H   0  0  0  0  0  0  0  0  0  0  0  0  # atno 6909 bound_to 6896
  145.7476  140.8924  143.0497 H   0  0  0  0  0  0  0  0  0  0  0  0  # atno 7974 bound_to 7965
  154.4187  140.1158  156.5440 H   0  0  0  0  0  0  0  0  0  0  0  0  # atno 8008 bound_to 7997
  155.6479  140.3496  155.4718 H   0  0  0  0  0  0  0  0  0  0  0  0  # atno 8009 bound_to 7997
  155.9817  140.1161  157.0710 H   0  0  0  0  0  0  0  0  0  0  0  0  # atno 8010 bound_to 7997
  139.4884  144.4269  151.9119 H   0  0  0  0  0  0  0  0  0  0  0  0  # atno 10167 bound_to 10162
  156.4481  130.8155  151.2385 H   0  0  0  0  0  0  0  0  0  0  0  0  # atno 10718 bound_to 10713
  152.9851  135.6087  154.3186 H   0  0  0  0  0  0  0  0  0  0  0  0  # atno 10763 bound_to 10752
  154.2897  135.2775  155.2662 H   0  0  0  0  0  0  0  0  0  0  0  0  # atno 10764 bound_to 10752
  154.4963  135.5879  153.6553 H   0  0  0  0  0  0  0  0  0  0  0  0  # atno 10765 bound_to 10752
  139.8950  134.8340  156.2690 H   0  0  0  0  0  0  0  0  0  0  0  0  # atno 11005 bound_to 11000
  144.6857  139.9547  143.7479 LP  0  0  0  0  0  0  0  0  0  0  0  0  # atno 17320 bound_to 7965
  146.0388  139.3402  143.0710 LP  0  0  0  0  0  0  0  0  0  0  0  0  # atno 17321 bound_to 7965
  140.3715  144.2850  150.5919 LP  0  0  0  0  0  0  0  0  0  0  0  0  # atno 17342 bound_to 10162
  140.5315  143.2242  151.8231 LP  0  0  0  0  0  0  0  0  0  0  0  0  # atno 17343 bound_to 10162
  157.7504  131.0146  150.3472 LP  0  0  0  0  0  0  0  0  0  0  0  0  # atno 17370 bound_to 10713
  156.3845  130.3886  149.7076 LP  0  0  0  0  0  0  0  0  0  0  0  0  # atno 17371 bound_to 10713
  141.0113  133.7094  156.1117 LP  0  0  0  0  0  0  0  0  0  0  0  0  # atno 17394 bound_to 11000
  140.7363  134.4199  157.5560 LP  0  0  0  0  0  0  0  0  0  0  0  0  # atno 17395 bound_to 11000

$$$$
