AV-unprocessed.smi:1391|AV-procd|sdf|5658|dock2
  -GOLD-   22720 5283D 1   1.00000     0.00000
 Structure written by MMmdl.
 44 45  0  0  0  0  0  0  0  0  2 V2000
  150.5203  136.5312  156.7452 O   0  0  0  0  0  0  0  0  0  0  0  0
  150.2627  136.6283  155.5446 C   0  0  0  0  0  0  0  0  0  0  0  0
  150.9493  137.6937  154.6778 C   0  0  0  0  0  0  0  0  0  0  0  0
  150.6403  139.0694  155.1028 N   0  0  0  0  0  0  0  0  0  0  0  0
  149.8041  139.8304  154.2616 C   0  0  0  0  0  0  0  0  0  0  0  0
  149.4551  141.0919  154.5602 C   0  0  0  0  0  0  0  0  0  0  0  0
  149.9607  141.6690  155.7832 C   0  0  0  0  0  0  0  0  0  0  0  0
  150.7592  140.9492  156.5962 C   0  0  0  0  0  0  0  0  0  0  0  0
  151.1419  139.5695  156.2745 C   0  0  0  0  0  0  0  0  0  0  0  0
  151.8657  138.9021  157.0144 O   0  0  0  0  0  0  0  0  0  0  0  0
  149.3752  135.8385  154.9215 N   0  0  0  0  0  0  0  0  0  0  0  0
  148.6278  134.7611  155.5592 C   0  0  0  0  0  0  0  0  0  0  0  0
  147.1795  134.6926  155.0341 C   0  0  0  0  0  0  0  0  0  0  0  0
  147.1048  134.5319  153.5568 N   0  3  0  0  0  0  0  0  0  0  0  0
  145.9652  135.2855  152.9624 C   0  0  0  0  0  0  0  0  0  0  0  0
  144.6255  134.5250  152.9584 C   0  0  0  0  0  0  0  0  0  0  0  0
  144.4108  133.7129  151.6718 C   0  0  0  0  0  0  0  0  0  0  0  0
  145.3310  132.4924  151.5397 C   0  0  0  0  0  0  0  0  0  0  0  0
  146.8297  132.8128  151.6707 C   0  0  0  0  0  0  0  0  0  0  0  0
  147.2540  133.1130  153.1217 C   0  0  0  0  0  0  0  0  0  0  0  0
  152.0297  137.5363  154.6893 H   0  0  0  0  0  0  0  0  0  0  0  0
  150.6479  137.5327  153.6419 H   0  0  0  0  0  0  0  0  0  0  0  0
  149.4620  139.3242  153.3707 H   0  0  0  0  0  0  0  0  0  0  0  0
  148.8095  141.6584  153.9054 H   0  0  0  0  0  0  0  0  0  0  0  0
  149.6953  142.6817  156.0487 H   0  0  0  0  0  0  0  0  0  0  0  0
  151.1266  141.3967  157.5081 H   0  0  0  0  0  0  0  0  0  0  0  0
  149.2134  135.9896  153.9359 H   0  0  0  0  0  0  0  0  0  0  0  0
  149.1382  133.8088  155.4043 H   0  0  0  0  0  0  0  0  0  0  0  0
  148.6420  134.9532  156.6317 H   0  0  0  0  0  0  0  0  0  0  0  0
  146.6366  133.8809  155.5206 H   0  0  0  0  0  0  0  0  0  0  0  0
  146.6704  135.6147  155.3176 H   0  0  0  0  0  0  0  0  0  0  0  0
  145.8400  136.2300  153.4933 H   0  0  0  0  0  0  0  0  0  0  0  0
  146.2300  135.5799  151.9466 H   0  0  0  0  0  0  0  0  0  0  0  0
  144.5163  133.8993  153.8449 H   0  0  0  0  0  0  0  0  0  0  0  0
  143.8221  135.2605  153.0162 H   0  0  0  0  0  0  0  0  0  0  0  0
  143.3757  133.3716  151.6365 H   0  0  0  0  0  0  0  0  0  0  0  0
  144.5374  134.3614  150.8039 H   0  0  0  0  0  0  0  0  0  0  0  0
  145.0501  131.7401  152.2778 H   0  0  0  0  0  0  0  0  0  0  0  0
  145.1524  132.0319  150.5673 H   0  0  0  0  0  0  0  0  0  0  0  0
  147.3760  131.9264  151.3455 H   0  0  0  0  0  0  0  0  0  0  0  0
  147.1334  133.6069  150.9877 H   0  0  0  0  0  0  0  0  0  0  0  0
  148.3078  132.8538  153.2240 H   0  0  0  0  0  0  0  0  0  0  0  0
  146.7151  132.4533  153.8034 H   0  0  0  0  0  0  0  0  0  0  0  0
  147.9214  135.0096  153.2025 H   0  0  0  0  0  0  0  0  0  0  0  0
  1  2  2  0  0  0  0
  2  3  1  0  0  0  0
  2 11  1  0  0  0  0
  3  4  1  0  0  0  0
  3 21  1  0  0  0  0
  3 22  1  0  0  0  0
  4  9  1  0  0  0  0
  4  5  1  0  0  0  0
  5  6  2  0  0  0  0
  5 23  1  0  0  0  0
  6  7  1  0  0  0  0
  6 24  1  0  0  0  0
  7  8  2  0  0  0  0
  7 25  1  0  0  0  0
  8  9  1  0  0  0  0
  8 26  1  0  0  0  0
  9 10  2  0  0  0  0
 11 12  1  0  0  0  0
 11 27  1  0  0  0  0
 12 13  1  0  0  0  0
 12 28  1  0  0  0  0
 12 29  1  0  0  0  0
 13 14  1  0  0  0  0
 13 30  1  0  0  0  0
 13 31  1  0  0  0  0
 14 20  1  0  0  0  0
 14 15  1  0  0  0  0
 14 44  1  0  0  0  0
 15 16  1  0  0  0  0
 15 32  1  0  0  0  0
 15 33  1  0  0  0  0
 16 17  1  0  0  0  0
 16 34  1  0  0  0  0
 16 35  1  0  0  0  0
 17 18  1  0  0  0  0
 17 36  1  0  0  0  0
 17 37  1  0  0  0  0
 18 19  1  0  0  0  0
 18 38  1  0  0  0  0
 18 39  1  0  0  0  0
 19 20  1  0  0  0  0
 19 40  1  0  0  0  0
 19 41  1  0  0  0  0
 20 42  1  0  0  0  0
 20 43  1  0  0  0  0
M  CHG  1  14   1
M  END
> <s_m_source_file>
AV-unprocessed.smi

> <i_m_source_file_index>
1391

> <i_lp_mmshare_version>
43012

> <i_f3d_flags>
0

> <s_epik_input>
Tz1jMVtjSF1bY0hdW2NIXVtjSF1uMVtDSDJdQyg9TylbTkhdW0NIMl1bQ0gyXU4yW0NIMl1bQ0gyXVtDSDJdW0NIMl1bQ0gyXVtDSDJdMg==

> <s_epik_cmdline>
J2VwaWtfcHl0aG9uJywgJy1waCcsICc3LjAnLCAnLXRuJywgJzgnLCAnLW1hJywgJzIwMCcsICctbWV0YWxfYmluZGluZycsICctaW1hZScsICc8aW5maWxlLm1hZT4nLCAnLW9tYWUnLCAnPG91dGZpbGUubWFlPic=

> <r_lp_tautomer_probability>
1

> <r_epik_Ionization_Penalty>
0.00237247

> <r_epik_Ionization_Penalty_Charging>
0.00237238

> <r_epik_Ionization_Penalty_Neutral>
8.2065e-08

> <r_epik_State_Penalty>
0.00163922

> <r_epik_Charging_Adjusted_Penalty>
0.0040116

> <i_epik_Tot_Q>
1

> <i_epik_Tot_abs_Q>
1

> <r_epik_Metal_State_Penalty>
-0

> <b_epik_Metal_Only>
0

> <s_lp_Force_Field>
OPLS_2005

> <r_lp_Energy>
31.2173

> <b_lp_Chiralities_Consistent>
1

> <s_lp_Variant>
AV-unprocessed.smi:1391-1

> <Gold.Version>
5.8.1

> <Gold.Id.Protein>
6NUR|6NUR_protein|mol2

> <Gold.PLP.Fitness>
53.2975

> <Gold.PLP.PLP>
-37.3069

> <Gold.PLP.part.hbond>
-4.8598

> <Gold.PLP.part.metal>
0.0000

> <Gold.PLP.part.buried>
0.4034

> <Gold.PLP.part.nonpolar>
-31.5150

> <Gold.PLP.part.repulsive>
0.0924

> <Gold.PLP.ligand.clash>
0.0000

> <Gold.PLP.ligand.torsion>
0.6396

> <Gold.PLP.Chemscore.Hbond>
4.7200

> <Gold.PLP.Chemscore.CHOScore>
1.0000

> <Gold.PLP.Chemscore.Metal>
0.0000

> <Gold.Chemscore.Hbonds>
donor molecule, donor type, donor heavy atom, donor atom, acceptor molecule, acceptor atom, score
      L1  H    11    27       P1  7948  0.88
      L1  H    14    44       P1  7948  1.82
      L1  C     5    23       P1  7957  0.97

> <Gold.PLP.Chemscore.Internal.Correction>
0.1097

> <Gold.Rescore>
     Score         DG    S(hbond)    S(metal)    S(lipo)     H(rot)  DE(clash)    DE(int)     intcor
     15.73     -17.83       2.83        0.00      65.47       1.86       0.04       2.06       ----

> <Gold.Chemscore.Fitness>
15.7307

> <Gold.Chemscore.DG>
-17.8333

> <Gold.Chemscore.ZeroCoef>
-5.4800

> <Gold.Chemscore.Hbond>
2.8297

> <Gold.Chemscore.Metal>
0.0000

> <Gold.Chemscore.Lipo>
65.4709

> <Gold.Chemscore.Internal_Hbond>
0.0000

> <Gold.Chemscore.DEClash>
0.0433

> <Gold.Chemscore.DEInternal>
2.0593

> <Gold.Chemscore.Rot>
1.8586

> <Gold.Chemscore.Internal.Correction>
   9.000000E+99

> <Gold.Chemscore.Hbonds>
donor molecule, donor type, donor heavy atom, donor atom, acceptor molecule, acceptor atom, score
      L1  H    11    27       P1  7948  0.73
      L1  H    14    44       P1  7948  0.85

> <Gold.Chemscore.Hbond.Weighted>
-9.4513

> <Gold.Chemscore.Metal.Weighted>
-0.0000

> <Gold.Chemscore.Lipo.Weighted>
-7.6601

> <Gold.Chemscore.Internal_Hbond.Weighted>
0.0000

> <Gold.Chemscore.DEClash.Weighted>
0.0433

> <Gold.Chemscore.DEInternal.Weighted>
2.0593

> <Gold.Chemscore.Rot.Weighted>
4.7581

> <Gold.Chemscore.Internal.Correction.Weighted>
   9.000000E+99

> <Gold.Protein.RotatedTorsions>
[ 6907 6896 6895 6894 ] final  -47.81 input  -60.11 | X-H torsion
[ 7974 7965 7964 7962 ] final  -79.84 input  175.53 | X-H torsion
[ 8008 7997 7996 7995 ] final  -76.66 input   59.86 | X-H torsion
[ 10167 10162 10161 10158 ] final  -47.72 input  -65.29 | X-H torsion
[ 10718 10713 10712 10709 ] final  -10.00 input   66.30 | X-H torsion
[ 10763 10752 10751 10750 ] final  -22.07 input  -60.55 | X-H torsion
[ 11005 11000 10999 10996 ] final -145.15 input  -57.11 | X-H torsion

> <Gold.Protein.ActiveResidues>
 VAL166  LYS551  ARG553  GLY616  TRP617  ASP618  TYR619  PRO620  LYS621  CYS622 
 ASP623  PHE694  ASN695  SER759  ASP760  ASP761  ALA762  ILE779  LEU786  VAL792 
 PHE793  MET794  SER795  GLU796  ALA797  LYS798  CYS799  TRP800  GLU811  SER814 

> <Gold.Protein.RotatedAtoms>
  150.8970  134.8379  159.7332 H   0  0  0  0  0  0  0  0  0  0  0  0  # atno 6907 bound_to 6896
  152.4870  134.4561  159.9600 H   0  0  0  0  0  0  0  0  0  0  0  0  # atno 6908 bound_to 6896
  151.4617  133.3552  159.2845 H   0  0  0  0  0  0  0  0  0  0  0  0  # atno 6909 bound_to 6896
  145.5679  140.9471  143.1411 H   0  0  0  0  0  0  0  0  0  0  0  0  # atno 7974 bound_to 7965
  154.5526  140.0723  156.8692 H   0  0  0  0  0  0  0  0  0  0  0  0  # atno 8008 bound_to 7997
  155.2964  140.3381  155.4231 H   0  0  0  0  0  0  0  0  0  0  0  0  # atno 8009 bound_to 7997
  156.1974  140.1709  156.7956 H   0  0  0  0  0  0  0  0  0  0  0  0  # atno 8010 bound_to 7997
  140.6763  143.2772  151.3967 H   0  0  0  0  0  0  0  0  0  0  0  0  # atno 10167 bound_to 10162
  156.6799  130.5034  149.5974 H   0  0  0  0  0  0  0  0  0  0  0  0  # atno 10718 bound_to 10713
  153.6462  135.6983  153.5224 H   0  0  0  0  0  0  0  0  0  0  0  0  # atno 10763 bound_to 10752
  153.2743  135.4205  155.1017 H   0  0  0  0  0  0  0  0  0  0  0  0  # atno 10764 bound_to 10752
  154.8488  135.3586  154.6006 H   0  0  0  0  0  0  0  0  0  0  0  0  # atno 10765 bound_to 10752
  140.7952  134.2921  157.4999 H   0  0  0  0  0  0  0  0  0  0  0  0  # atno 11005 bound_to 11000
  144.7452  139.7341  143.7295 LP  0  0  0  0  0  0  0  0  0  0  0  0  # atno 17320 bound_to 7965
  146.1805  139.4995  142.9869 LP  0  0  0  0  0  0  0  0  0  0  0  0  # atno 17321 bound_to 7965
  139.6057  144.1203  152.2246 LP  0  0  0  0  0  0  0  0  0  0  0  0  # atno 17342 bound_to 10162
  140.0601  144.5864  150.7270 LP  0  0  0  0  0  0  0  0  0  0  0  0  # atno 17343 bound_to 10162
  156.1875  130.6539  151.1024 LP  0  0  0  0  0  0  0  0  0  0  0  0  # atno 17370 bound_to 10713
  157.7047  131.0761  150.6705 LP  0  0  0  0  0  0  0  0  0  0  0  0  # atno 17371 bound_to 10713
  139.8727  134.9398  156.3751 LP  0  0  0  0  0  0  0  0  0  0  0  0  # atno 17394 bound_to 11000
  140.9350  133.7553  156.0073 LP  0  0  0  0  0  0  0  0  0  0  0  0  # atno 17395 bound_to 11000

$$$$
