AV-unprocessed.smi:2027|AV-procd|sdf|8213|dock7
  -GOLD-   2272010473D 1   1.00000     0.00000
 Structure written by MMmdl.
 50 52  0  0  0  0  0  0  0  0  2 V2000
  153.3884  142.9085  160.4732 C   0  0  0  0  0  0  0  0  0  0  0  0
  152.4445  142.5367  159.3429 C   0  0  0  0  0  0  0  0  0  0  0  0
  152.6393  141.3157  158.6591 C   0  0  0  0  0  0  0  0  0  0  0  0
  151.7832  140.9318  157.6041 C   0  0  0  0  0  0  0  0  0  0  0  0
  151.7902  139.7996  156.8075 N   0  0  0  0  0  0  0  0  0  0  0  0
  150.7475  140.0234  156.0138 C   0  0  0  0  0  0  0  0  0  0  0  0
  150.0669  141.1709  156.1981 N   0  0  0  0  0  0  0  0  0  0  0  0
  148.9063  141.6260  155.4532 C   0  0  0  0  0  0  0  0  0  0  0  0
  148.5700  140.7041  154.2657 C   0  0  2  0  0  0  0  0  0  0  0  0
  149.5307  140.8855  153.2430 O   0  0  0  0  0  0  0  0  0  0  0  0
  147.1742  141.0071  153.6853 C   0  0  0  0  0  0  0  0  0  0  0  0
  146.2980  139.8078  153.6709 N   0  3  2  0  0  0  0  0  0  0  0  0
  145.8364  139.4406  155.0307 C   0  0  0  0  0  0  0  0  0  0  0  0
  146.8935  138.6599  152.9389 C   0  0  0  0  0  0  0  0  0  0  0  0
  145.8426  137.6593  152.5409 C   0  0  0  0  0  0  0  0  0  0  0  0
  144.4841  137.5982  152.9650 C   0  0  0  0  0  0  0  0  0  0  0  0
  143.8215  136.5895  152.4239 N   0  0  0  0  0  0  0  0  0  0  0  0
  144.7303  135.9690  151.6444 N   0  0  0  0  0  0  0  0  0  0  0  0
  144.3424  134.7952  150.8918 C   0  0  0  0  0  0  0  0  0  0  0  0
  145.9591  136.5908  151.6966 C   0  0  0  0  0  0  0  0  0  0  0  0
  150.7175  141.8097  157.2487 C   0  0  0  0  0  0  0  0  0  0  0  0
  150.5139  143.0278  157.9211 C   0  0  0  0  0  0  0  0  0  0  0  0
  151.3789  143.3961  158.9729 C   0  0  0  0  0  0  0  0  0  0  0  0
  151.1507  144.7134  159.6930 C   0  0  0  0  0  0  0  0  0  0  0  0
  154.1658  142.1557  160.6063 H   0  0  0  0  0  0  0  0  0  0  0  0
  152.8421  142.9950  161.4127 H   0  0  0  0  0  0  0  0  0  0  0  0
  153.8778  143.8605  160.2671 H   0  0  0  0  0  0  0  0  0  0  0  0
  153.4509  140.6608  158.9404 H   0  0  0  0  0  0  0  0  0  0  0  0
  150.4630  139.3137  155.2505 H   0  0  0  0  0  0  0  0  0  0  0  0
  148.0607  141.6763  156.1407 H   0  0  0  0  0  0  0  0  0  0  0  0
  149.0877  142.6455  155.1100 H   0  0  0  0  0  0  0  0  0  0  0  0
  148.6278  139.6694  154.6031 H   0  0  0  0  0  0  0  0  0  0  0  0
  149.3828  140.2356  152.5718 H   0  0  0  0  0  0  0  0  0  0  0  0
  146.6844  141.8020  154.2501 H   0  0  0  0  0  0  0  0  0  0  0  0
  147.3002  141.3917  152.6717 H   0  0  0  0  0  0  0  0  0  0  0  0
  146.6751  139.1442  155.6619 H   0  0  0  0  0  0  0  0  0  0  0  0
  145.1241  138.6162  154.9994 H   0  0  0  0  0  0  0  0  0  0  0  0
  145.3318  140.2819  155.5069 H   0  0  0  0  0  0  0  0  0  0  0  0
  147.4090  139.0146  152.0471 H   0  0  0  0  0  0  0  0  0  0  0  0
  147.6662  138.2012  153.5573 H   0  0  0  0  0  0  0  0  0  0  0  0
  143.9623  138.2567  153.6438 H   0  0  0  0  0  0  0  0  0  0  0  0
  145.1707  134.4604  150.2672 H   0  0  0  0  0  0  0  0  0  0  0  0
  143.4901  135.0293  150.2534 H   0  0  0  0  0  0  0  0  0  0  0  0
  144.0684  133.9922  151.5765 H   0  0  0  0  0  0  0  0  0  0  0  0
  146.8061  136.2264  151.1337 H   0  0  0  0  0  0  0  0  0  0  0  0
  149.6994  143.6741  157.6293 H   0  0  0  0  0  0  0  0  0  0  0  0
  150.2760  145.2346  159.3027 H   0  0  0  0  0  0  0  0  0  0  0  0
  152.0129  145.3692  159.5711 H   0  0  0  0  0  0  0  0  0  0  0  0
  150.9909  144.5448  160.7582 H   0  0  0  0  0  0  0  0  0  0  0  0
  145.4713  140.0838  153.1597 H   0  0  0  0  0  0  0  0  0  0  0  0
  1  2  1  0  0  0  0
  1 25  1  0  0  0  0
  1 26  1  0  0  0  0
  1 27  1  0  0  0  0
  2 23  1  0  0  0  0
  2  3  2  0  0  0  0
  3  4  1  0  0  0  0
  3 28  1  0  0  0  0
  4 21  2  0  0  0  0
  4  5  1  0  0  0  0
  5  6  2  0  0  0  0
  6  7  1  0  0  0  0
  6 29  1  0  0  0  0
  7  8  1  0  0  0  0
  7 21  1  0  0  0  0
  8  9  1  0  0  0  0
  8 30  1  0  0  0  0
  8 31  1  0  0  0  0
  9 10  1  0  0  0  0
  9 11  1  0  0  0  0
  9 32  1  0  0  0  0
 10 33  1  0  0  0  0
 11 12  1  0  0  0  0
 11 34  1  0  0  0  0
 11 35  1  0  0  0  0
 12 13  1  0  0  0  0
 12 14  1  0  0  0  0
 12 50  1  0  0  0  0
 13 36  1  0  0  0  0
 13 37  1  0  0  0  0
 13 38  1  0  0  0  0
 14 15  1  0  0  0  0
 14 39  1  0  0  0  0
 14 40  1  0  0  0  0
 15 20  2  0  0  0  0
 15 16  1  0  0  0  0
 16 17  2  0  0  0  0
 16 41  1  0  0  0  0
 17 18  1  0  0  0  0
 18 19  1  0  0  0  0
 18 20  1  0  0  0  0
 19 42  1  0  0  0  0
 19 43  1  0  0  0  0
 19 44  1  0  0  0  0
 20 45  1  0  0  0  0
 21 22  1  0  0  0  0
 22 23  2  0  0  0  0
 22 46  1  0  0  0  0
 23 24  1  0  0  0  0
 24 47  1  0  0  0  0
 24 48  1  0  0  0  0
 24 49  1  0  0  0  0
M  CHG  1  12   1
M  END
> <s_m_source_file>
AV-unprocessed.smi

> <i_m_source_file_index>
2027

> <i_lp_mmshare_version>
43012

> <i_f3d_flags>
0

> <s_epik_input>
W0NIM11jKFtjSF0xKWMoW0NIM10pW2NIXWMoYzEyKW4oW2NIXW4yKVtDSDJdW0NASF0oW09IXSlbQ0gyXU4oW0NIM10pW0NIMl1jM1tjSF1ubihbQ0gzXSlbY0hdMw==

> <s_epik_cmdline>
J2VwaWtfcHl0aG9uJywgJy1waCcsICc3LjAnLCAnLXRuJywgJzgnLCAnLW1hJywgJzIwMCcsICctbWV0YWxfYmluZGluZycsICctaW1hZScsICc8aW5maWxlLm1hZT4nLCAnLW9tYWUnLCAnPG91dGZpbGUubWFlPic=

> <r_lp_tautomer_probability>
1

> <r_epik_Ionization_Penalty>
0.646578

> <r_epik_Ionization_Penalty_Charging>
0.559419

> <r_epik_Ionization_Penalty_Neutral>
0.087159

> <r_epik_State_Penalty>
0.661677

> <r_epik_Charging_Adjusted_Penalty>
1.2211

> <i_epik_Tot_Q>
1

> <i_epik_Tot_abs_Q>
1

> <r_epik_Metal_State_Penalty>
0.649174

> <b_epik_Metal_Only>
0

> <s_lp_Force_Field>
OPLS_2005

> <r_lp_Energy>
10.3354

> <b_lp_Chiralities_Consistent>
1

> <s_lp_Variant>
AV-unprocessed.smi:2027-5

> <Gold.Version>
5.8.1

> <Gold.Id.Protein>
6NUR|6NUR_protein|mol2

> <Gold.PLP.Fitness>
59.1359

> <Gold.PLP.PLP>
-45.4318

> <Gold.PLP.part.hbond>
-3.1827

> <Gold.PLP.part.metal>
0.0000

> <Gold.PLP.part.buried>
-1.5294

> <Gold.PLP.part.nonpolar>
-42.1306

> <Gold.PLP.part.repulsive>
0.1833

> <Gold.PLP.ligand.clash>
0.0000

> <Gold.PLP.ligand.torsion>
1.1303

> <Gold.PLP.Chemscore.Hbond>
3.8668

> <Gold.PLP.Chemscore.CHOScore>
1.4156

> <Gold.PLP.Chemscore.Metal>
0.0000

> <Gold.Chemscore.Hbonds>
donor molecule, donor type, donor heavy atom, donor atom, acceptor molecule, acceptor atom, score
      L1  H    10    33       P1  7957  0.61
      L1  H    12    50       P1 10175  2.00
      P1  H  7989  7998       L1    10  0.19
      P1  H  8011  8017       L1    10  1.00
      L1  C    16    41       P1 10175  0.55
      L1  C    20    45       P1  7948  0.93

> <Gold.PLP.Chemscore.Internal.Correction>
0.1174

> <Gold.Rescore>
     Score         DG    S(hbond)    S(metal)    S(lipo)     H(rot)  DE(clash)    DE(int)     intcor
     19.36     -21.08       2.34        0.00     121.41       2.50       0.33       1.39       ----

> <Gold.Chemscore.Fitness>
19.3599

> <Gold.Chemscore.DG>
-21.0824

> <Gold.Chemscore.ZeroCoef>
-5.4800

> <Gold.Chemscore.Hbond>
2.3383

> <Gold.Chemscore.Metal>
0.0000

> <Gold.Chemscore.Lipo>
121.4058

> <Gold.Chemscore.Internal_Hbond>
0.0000

> <Gold.Chemscore.DEClash>
0.3299

> <Gold.Chemscore.DEInternal>
1.3927

> <Gold.Chemscore.Rot>
2.5047

> <Gold.Chemscore.Internal.Correction>
   9.000000E+99

> <Gold.Chemscore.Hbonds>
donor molecule, donor type, donor heavy atom, donor atom, acceptor molecule, acceptor atom, score
      L1  H    10    33       P1  7957  0.60
      L1  H    12    50       P1 10175  0.98
      P1  H  7989  7998       L1    10  0.08
      P1  H  8011  8017       L1    10  0.45

> <Gold.Chemscore.Hbond.Weighted>
-7.8100

> <Gold.Chemscore.Metal.Weighted>
-0.0000

> <Gold.Chemscore.Lipo.Weighted>
-14.2045

> <Gold.Chemscore.Internal_Hbond.Weighted>
0.0000

> <Gold.Chemscore.DEClash.Weighted>
0.3299

> <Gold.Chemscore.DEInternal.Weighted>
1.3927

> <Gold.Chemscore.Rot.Weighted>
6.4120

> <Gold.Chemscore.Internal.Correction.Weighted>
   9.000000E+99

> <Gold.Protein.RotatedTorsions>
[ 6907 6896 6895 6894 ] final  120.47 input  -60.11 | X-H torsion
[ 7974 7965 7964 7962 ] final   21.73 input  175.53 | X-H torsion
[ 8008 7997 7996 7995 ] final    4.59 input   59.86 | X-H torsion
[ 10167 10162 10161 10158 ] final  -86.62 input  -65.29 | X-H torsion
[ 10718 10713 10712 10709 ] final   75.21 input   66.30 | X-H torsion
[ 10763 10752 10751 10750 ] final  -25.21 input  -60.55 | X-H torsion
[ 11005 11000 10999 10996 ] final  -73.21 input  -57.11 | X-H torsion

> <Gold.Protein.ActiveResidues>
 VAL166  LYS551  ARG553  GLY616  TRP617  ASP618  TYR619  PRO620  LYS621  CYS622 
 ASP623  PHE694  ASN695  SER759  ASP760  ASP761  ALA762  ILE779  LEU786  VAL792 
 PHE793  MET794  SER795  GLU796  ALA797  LYS798  CYS799  TRP800  GLU811  SER814 

> <Gold.Protein.RotatedAtoms>
  152.4396  133.7423  159.6647 H   0  0  0  0  0  0  0  0  0  0  0  0  # atno 6907 bound_to 6896
  150.8284  133.8121  159.3115 H   0  0  0  0  0  0  0  0  0  0  0  0  # atno 6908 bound_to 6896
  151.5783  135.1062  160.0063 H   0  0  0  0  0  0  0  0  0  0  0  0  # atno 6909 bound_to 6896
  146.2059  139.7985  142.8726 H   0  0  0  0  0  0  0  0  0  0  0  0  # atno 7974 bound_to 7965
  154.7178  140.2705  155.6570 H   0  0  0  0  0  0  0  0  0  0  0  0  # atno 8008 bound_to 7997
  156.2814  140.2740  156.1764 H   0  0  0  0  0  0  0  0  0  0  0  0  # atno 8009 bound_to 7997
  155.0548  140.0371  157.2546 H   0  0  0  0  0  0  0  0  0  0  0  0  # atno 8010 bound_to 7997
  140.3924  143.2699  151.9248 H   0  0  0  0  0  0  0  0  0  0  0  0  # atno 10167 bound_to 10162
  157.6624  130.9715  150.1321 H   0  0  0  0  0  0  0  0  0  0  0  0  # atno 10718 bound_to 10713
  153.6962  135.6959  153.5076 H   0  0  0  0  0  0  0  0  0  0  0  0  # atno 10763 bound_to 10752
  153.2376  135.4317  155.0662 H   0  0  0  0  0  0  0  0  0  0  0  0  # atno 10764 bound_to 10752
  154.8358  135.3499  154.6503 H   0  0  0  0  0  0  0  0  0  0  0  0  # atno 10765 bound_to 10752
  141.1619  133.6871  156.7177 H   0  0  0  0  0  0  0  0  0  0  0  0  # atno 11005 bound_to 11000
  145.3322  141.0269  143.3440 LP  0  0  0  0  0  0  0  0  0  0  0  0  # atno 17320 bound_to 7965
  144.8791  139.4929  143.6731 LP  0  0  0  0  0  0  0  0  0  0  0  0  # atno 17321 bound_to 7965
  139.4788  144.5715  151.8081 LP  0  0  0  0  0  0  0  0  0  0  0  0  # atno 17342 bound_to 10162
  140.4826  144.1427  150.5935 LP  0  0  0  0  0  0  0  0  0  0  0  0  # atno 17343 bound_to 10162
  156.2165  130.3670  149.8607 LP  0  0  0  0  0  0  0  0  0  0  0  0  # atno 17370 bound_to 10713
  156.6472  130.8729  151.3525 LP  0  0  0  0  0  0  0  0  0  0  0  0  # atno 17371 bound_to 10713
  140.2840  134.8294  157.3958 LP  0  0  0  0  0  0  0  0  0  0  0  0  # atno 17394 bound_to 11000
  140.1407  134.4975  155.8033 LP  0  0  0  0  0  0  0  0  0  0  0  0  # atno 17395 bound_to 11000

$$$$
