#       Name:                AV-unprocessed.smi:1019
#       Creating user name   scv26
#       Creation time:       Fri Mar 27 02:41:09 2020


#       File generated by GOLD software.
#

@<TRIPOS>MOLECULE
AV-unprocessed.smi:1019
    47    49     1
SMALL
NO_CHARGES


@<TRIPOS>ATOM
      1 ****        -1.5746   1.4185   2.7784 C.3            1 S1                 0.0000
      2 ****        -0.9015   1.6956   1.4890 N.4            1 S1                 1.0000
      3 ****        -1.3642   2.9633   0.8732 C.3            1 S1                 0.0000
      4 ****        -1.0997   2.9804  -0.6227 C.ar           1 S1                 0.0000
      5 ****        -1.8897   2.1907  -1.4853 C.ar           1 S1                 0.0000
      6 ****        -1.6386   2.1870  -2.8710 C.ar           1 S1                 0.0000
      7 ****        -0.5998   2.9762  -3.4006 C.ar           1 S1                 0.0000
      8 ****         0.1871   3.7704  -2.5444 C.ar           1 S1                 0.0000
      9 ****        -0.0627   3.7738  -1.1582 C.ar           1 S1                 0.0000
     10 ****         0.5776   1.5814   1.5813 C.3            1 S1                 0.0000
     11 ****         1.0536   0.1436   1.3061 C.3            1 S1                 0.0000
     12 ****         2.4313   0.0720   1.6120 O.3            1 S1                 0.0000
     13 ****         0.8345  -0.2778  -0.1629 C.3            1 S1                 0.0000
     14 ****         1.3503  -1.6204  -0.4592 N.pl3          1 S1                 0.0000
     15 ****         2.5058  -1.9987  -1.0716 C.2            1 S1                 0.0000
     16 ****         2.5228  -3.3601  -1.1114 N.pl3          1 S1                 1.0000
     17 ****         1.3595  -3.8591  -0.5211 C.ar           1 S1                 0.0000
     18 ****         0.9234  -5.1663  -0.3267 C.ar           1 S1                 0.0000
     19 ****        -0.3234  -5.3289   0.3125 C.ar           1 S1                 0.0000
     20 ****        -1.0852  -4.2184   0.7310 C.ar           1 S1                 0.0000
     21 ****        -0.6333  -2.8972   0.5294 C.ar           1 S1                 0.0000
     22 ****         0.6004  -2.7458  -0.1022 C.ar           1 S1                 0.0000
     23 ****        -1.3419   2.1895   3.5145 H              1 S1                 0.0000
     24 ****        -1.2629   0.4551   3.1825 H              1 S1                 0.0000
     25 ****        -2.6568   1.3858   2.6491 H              1 S1                 0.0000
     26 ****        -2.4398   3.0764   1.0175 H              1 S1                 0.0000
     27 ****        -0.8923   3.8163   1.3638 H              1 S1                 0.0000
     28 ****        -2.6875   1.5813  -1.0861 H              1 S1                 0.0000
     29 ****        -2.2430   1.5793  -3.5283 H              1 S1                 0.0000
     30 ****        -0.4083   2.9742  -4.4636 H              1 S1                 0.0000
     31 ****         0.9823   4.3774  -2.9515 H              1 S1                 0.0000
     32 ****         0.5475   4.3843  -0.5086 H              1 S1                 0.0000
     33 ****         1.0673   2.2489   0.8723 H              1 S1                 0.0000
     34 ****         0.9041   1.9145   2.5681 H              1 S1                 0.0000
     35 ****         0.5401  -0.5495   1.9727 H              1 S1                 0.0000
     36 ****         2.7206  -0.8201   1.4939 H              1 S1                 0.0000
     37 ****        -0.2230  -0.2530  -0.4286 H              1 S1                 0.0000
     38 ****         1.3362   0.4193  -0.8360 H              1 S1                 0.0000
     39 ****         3.2715  -1.3392  -1.4550 H              1 S1                 0.0000
     40 ****         1.5040  -6.0192  -0.6467 H              1 S1                 0.0000
     41 ****        -0.7032  -6.3258   0.4850 H              1 S1                 0.0000
     42 ****        -2.0361  -4.3842   1.2166 H              1 S1                 0.0000
     43 ****        -1.2244  -2.0538   0.8536 H              1 S1                 0.0000
     44 ****        -1.2006   0.9704   0.8532 H              1 S1                 0.0000
     45 ****         3.2735  -3.9061  -1.5150 H              1 S1                 0.0000
     46 ****         2.5808   0.3518   2.5604 LP             1 S1                 0.0000
     47 ****         2.9437   0.6759   1.0015 LP             1 S1                 0.0000
@<TRIPOS>BOND
    1    1    2 1     
    2    1   23 1     
    3    1   24 1     
    4    1   25 1     
    5    2    3 1     
    6    2   10 1     
    7    2   44 1     
    8    3    4 1     
    9    3   26 1     
   10    3   27 1     
   11    4    9 ar    
   12    4    5 ar    
   13    5    6 ar    
   14    5   28 1     
   15    6    7 ar    
   16    6   29 1     
   17    7    8 ar    
   18    7   30 1     
   19    8    9 ar    
   20    8   31 1     
   21    9   32 1     
   22   10   11 1     
   23   10   33 1     
   24   10   34 1     
   25   11   12 1     
   26   11   13 1     
   27   11   35 1     
   28   12   36 1     
   29   13   14 1     
   30   13   37 1     
   31   13   38 1     
   32   14   22 1     
   33   14   15 1     
   34   15   16 2     
   35   15   39 1     
   36   16   17 1     
   37   16   45 1     
   38   17   22 ar    
   39   17   18 ar    
   40   18   19 ar    
   41   18   40 1     
   42   19   20 ar    
   43   19   41 1     
   44   20   21 ar    
   45   20   42 1     
   46   21   22 ar    
   47   21   43 1     
   48   12   46 1     
   49   12   47 1     
@<TRIPOS>SUBSTRUCTURE
      1 S1             1
@<TRIPOS>SET
LONE_PAIRS      STATIC     ATOMS    <user>   **** ""
2 46 47
DONOR_HYDROGENS      STATIC     ATOMS    <user>   **** ""
3 44 36 45
ATOM$BLUE        STATIC     ATOMS    COLORGROUP SYSTEM
2 46 47
ATOM$RED        STATIC     ATOMS    COLORGROUP SYSTEM
3 44 36 45
