#       Name:                AV-unprocessed.smi:1730
#       Creating user name   scv26
#       Creation time:       Fri Mar 27 08:18:40 2020


#       File generated by GOLD software.
#

@<TRIPOS>MOLECULE
AV-unprocessed.smi:1730
    45    46     1
SMALL
NO_CHARGES


@<TRIPOS>ATOM
      1 ****        -3.1344  -3.8884   0.9372 C.3            1 S1                 0.0000
      2 ****        -2.4722  -2.6284   0.9598 O.3            1 S1                 0.0000
      3 ****        -3.2396  -1.4794   0.9338 C.ar           1 S1                 0.0000
      4 ****        -4.5903  -1.6060   0.9049 N.ar           1 S1                 0.0000
      5 ****        -5.3407  -0.4854   0.8859 C.ar           1 S1                 0.0000
      6 ****        -4.7919   0.8099   0.9000 C.ar           1 S1                 0.0000
      7 ****        -3.3914   0.9441   0.9279 C.ar           1 S1                 0.0000
      8 ****        -2.5896  -0.2230   0.9347 C.ar           1 S1                 0.0000
      9 ****        -1.1688  -0.1998   0.9875 N.am           1 S1                 0.0000
     10 ****        -0.3325   0.7732   0.5893 C.2            1 S1                 0.0000
     11 ****        -0.6738   1.8316   0.0618 O.2            1 S1                 0.0000
     12 ****         0.9441   0.4322   0.8179 N.am           1 S1                 0.0000
     13 ****         2.1200   1.2404   0.4997 C.3            1 S1                 0.0000
     14 ****         3.0234   1.3095   1.7395 C.3            1 S1                 0.0000
     15 ****         2.8605   0.6503  -0.7170 C.3            1 S1                 0.0000
     16 ****         2.0413   0.5885  -2.0068 C.3            1 S1                 0.0000
     17 ****         3.1003   0.5707  -3.0971 C.3            1 S1                 0.0000
     18 ****         4.3665   1.0695  -2.3946 C.3            1 S1                 0.0000
     19 ****         3.9430   1.4826  -1.1023 O.3            1 S1                 0.0000
     20 ****        -2.3921  -4.6860   0.9604 H              1 S1                 0.0000
     21 ****        -3.7238  -4.0124   0.0276 H              1 S1                 0.0000
     22 ****        -3.7830  -4.0149   1.8052 H              1 S1                 0.0000
     23 ****        -6.4113  -0.6256   0.8666 H              1 S1                 0.0000
     24 ****        -5.4307   1.6807   0.8951 H              1 S1                 0.0000
     25 ****        -2.9626   1.9338   0.9602 H              1 S1                 0.0000
     26 ****        -0.7363  -1.0526   1.3116 H              1 S1                 0.0000
     27 ****         1.1205  -0.4633   1.2490 H              1 S1                 0.0000
     28 ****         1.8172   2.2607   0.2573 H              1 S1                 0.0000
     29 ****         3.8974   1.9346   1.5548 H              1 S1                 0.0000
     30 ****         3.3780   0.3198   2.0298 H              1 S1                 0.0000
     31 ****         2.4904   1.7361   2.5898 H              1 S1                 0.0000
     32 ****         3.2482  -0.3427  -0.4800 H              1 S1                 0.0000
     33 ****         1.3776  -0.2757  -2.0466 H              1 S1                 0.0000
     34 ****         1.4301   1.4867  -2.1064 H              1 S1                 0.0000
     35 ****         3.2520  -0.4373  -3.4845 H              1 S1                 0.0000
     36 ****         2.8163   1.2126  -3.9317 H              1 S1                 0.0000
     37 ****         5.0921   0.2612  -2.2927 H              1 S1                 0.0000
     38 ****         4.8449   1.8909  -2.9282 H              1 S1                 0.0000
     39 ****        -1.8682  -2.5980   0.1634 LP             1 S1                 0.0000
     40 ****        -1.9237  -2.5981   1.7954 LP             1 S1                 0.0000
     41 ****        -5.0194  -2.5092   0.8979 LP             1 S1                 0.0000
     42 ****        -1.6424   2.0199  -0.1005 LP             1 S1                 0.0000
     43 ****         0.0176   2.5033  -0.2045 LP             1 S1                 0.0000
     44 ****         4.6953   1.3867  -0.4504 LP             1 S1                 0.0000
     45 ****         3.6458   2.4370  -1.1301 LP             1 S1                 0.0000
@<TRIPOS>BOND
    1    1    2 1     
    2    1   20 1     
    3    1   21 1     
    4    1   22 1     
    5    2    3 1     
    6    3    8 ar    
    7    3    4 ar    
    8    4    5 ar    
    9    5    6 ar    
   10    5   23 1     
   11    6    7 ar    
   12    6   24 1     
   13    7    8 ar    
   14    7   25 1     
   15    8    9 1     
   16    9   10 am    
   17    9   26 1     
   18   10   11 2     
   19   10   12 am    
   20   12   13 1     
   21   12   27 1     
   22   13   14 1     
   23   13   15 1     
   24   13   28 1     
   25   14   29 1     
   26   14   30 1     
   27   14   31 1     
   28   15   19 1     
   29   15   16 1     
   30   15   32 1     
   31   16   17 1     
   32   16   33 1     
   33   16   34 1     
   34   17   18 1     
   35   17   35 1     
   36   17   36 1     
   37   18   19 1     
   38   18   37 1     
   39   18   38 1     
   40    2   39 1     
   41    2   40 1     
   42    4   41 1     
   43   11   42 1     
   44   11   43 1     
   45   19   44 1     
   46   19   45 1     
@<TRIPOS>SUBSTRUCTURE
      1 S1             1
@<TRIPOS>SET
LONE_PAIRS      STATIC     ATOMS    <user>   **** ""
7 39 40 41 42 43 44 45
DONOR_HYDROGENS      STATIC     ATOMS    <user>   **** ""
2 26 27
ATOM$BLUE        STATIC     ATOMS    COLORGROUP SYSTEM
7 39 40 41 42 43 44 45
ATOM$RED        STATIC     ATOMS    COLORGROUP SYSTEM
2 26 27
