AV-unprocessed.smi:197|AV-procd|sdf|1551|dock5
  -GOLD-   2262019413D 1   1.00000     0.00000
 Structure written by MMmdl.
 54 57  0  0  0  0  0  0  0  0  1 V2000
  142.5571  134.7694  162.8303 C   0  0  0  0  0  0  0  0  0  0  0  0
  143.3569  135.8529  162.3819 O   0  0  0  0  0  0  0  0  0  0  0  0
  144.7416  135.5518  162.2761 C   0  0  0  0  0  0  0  0  0  0  0  0
  145.5772  136.8073  161.9651 C   0  0  0  0  0  0  0  0  0  0  0  0
  147.1057  136.5802  162.0692 C   0  0  1  0  0  0  0  0  0  0  0  0
  147.5218  135.8529  163.3667 C   0  0  0  0  0  0  0  0  0  0  0  0
  147.0720  134.5016  163.3383 O   0  0  0  0  0  0  0  0  0  0  0  0
  147.6628  133.7668  162.2719 C   0  0  0  0  0  0  0  0  0  0  0  0
  147.2805  134.4038  160.9265 C   0  0  0  0  0  0  0  0  0  0  0  0
  147.6279  135.8244  160.9260 N   0  0  0  0  0  0  0  0  0  0  0  0
  147.6671  136.4742  159.7321 C   0  0  0  0  0  0  0  0  0  0  0  0
  146.5087  136.7171  159.0614 N   0  0  0  0  0  0  0  0  0  0  0  0
  146.5227  137.3759  157.8995 C   0  0  0  0  0  0  0  0  0  0  0  0
  147.5672  137.8734  157.2360 N   0  0  0  0  0  0  0  0  0  0  0  0
  148.7346  137.6271  157.8961 C   0  0  0  0  0  0  0  0  0  0  0  0
  148.8748  136.9375  159.1345 C   0  0  0  0  0  0  0  0  0  0  0  0
  150.2193  136.8647  159.4805 N   0  0  0  0  0  0  0  0  0  0  0  0
  150.8348  137.4883  158.5138 C   0  0  0  0  0  0  0  0  0  0  0  0
  150.0184  137.9860  157.5241 N   0  0  0  0  0  0  0  0  0  0  0  0
  150.4363  138.7217  156.3405 C   0  0  0  0  0  0  0  0  0  0  0  0
  151.2148  140.0228  156.6685 C   0  0  2  0  0  0  0  0  0  0  0  0
  152.5939  139.7679  156.4564 O   0  0  0  0  0  0  0  0  0  0  0  0
  151.0430  140.4946  158.1086 C   0  0  0  0  0  0  0  0  0  0  0  0
  151.2702  141.9948  158.0038 C   0  0  0  0  0  0  0  0  0  0  0  0
  150.6152  142.3222  156.7910 O   0  0  0  0  0  0  0  0  0  0  0  0
  150.8380  141.2833  155.8397 C   0  0  2  0  0  0  0  0  0  0  0  0
  149.5752  141.1839  154.9693 C   0  0  0  0  0  0  0  0  0  0  0  0
  141.5090  135.0682  162.8248 H   0  0  0  0  0  0  0  0  0  0  0  0
  142.8073  134.4691  163.8474 H   0  0  0  0  0  0  0  0  0  0  0  0
  142.6600  133.9042  162.1743 H   0  0  0  0  0  0  0  0  0  0  0  0
  145.0992  135.0537  163.1787 H   0  0  0  0  0  0  0  0  0  0  0  0
  144.8438  134.8318  161.4652 H   0  0  0  0  0  0  0  0  0  0  0  0
  145.3169  137.1802  160.9741 H   0  0  0  0  0  0  0  0  0  0  0  0
  145.2928  137.5927  162.6640 H   0  0  0  0  0  0  0  0  0  0  0  0
  147.5785  137.5600  162.0934 H   0  0  0  0  0  0  0  0  0  0  0  0
  148.6070  135.8734  163.4809 H   0  0  0  0  0  0  0  0  0  0  0  0
  147.1157  136.3465  164.2483 H   0  0  0  0  0  0  0  0  0  0  0  0
  148.7470  133.7400  162.3933 H   0  0  0  0  0  0  0  0  0  0  0  0
  147.3126  132.7354  162.3123 H   0  0  0  0  0  0  0  0  0  0  0  0
  147.8039  133.8861  160.1214 H   0  0  0  0  0  0  0  0  0  0  0  0
  146.2114  134.2865  160.7455 H   0  0  0  0  0  0  0  0  0  0  0  0
  145.5588  137.5280  157.4368 H   0  0  0  0  0  0  0  0  0  0  0  0
  151.9085  137.6082  158.4975 H   0  0  0  0  0  0  0  0  0  0  0  0
  151.0465  138.0578  155.7269 H   0  0  0  0  0  0  0  0  0  0  0  0
  149.5423  138.9456  155.7580 H   0  0  0  0  0  0  0  0  0  0  0  0
  152.7683  138.8662  156.6791 H   0  0  0  0  0  0  0  0  0  0  0  0
  150.0192  140.3193  158.4405 H   0  0  0  0  0  0  0  0  0  0  0  0
  151.7114  140.0050  158.8182 H   0  0  0  0  0  0  0  0  0  0  0  0
  150.8543  142.5462  158.8471 H   0  0  0  0  0  0  0  0  0  0  0  0
  152.3327  142.2291  157.9247 H   0  0  0  0  0  0  0  0  0  0  0  0
  151.6716  141.5850  155.2024 H   0  0  0  0  0  0  0  0  0  0  0  0
  149.6757  140.4126  154.2056 H   0  0  0  0  0  0  0  0  0  0  0  0
  149.3885  142.1272  154.4555 H   0  0  0  0  0  0  0  0  0  0  0  0
  148.6926  140.9596  155.5688 H   0  0  0  0  0  0  0  0  0  0  0  0
  1  2  1  0  0  0  0
  1 28  1  0  0  0  0
  1 29  1  0  0  0  0
  1 30  1  0  0  0  0
  2  3  1  0  0  0  0
  3  4  1  0  0  0  0
  3 31  1  0  0  0  0
  3 32  1  0  0  0  0
  4  5  1  0  0  0  0
  4 33  1  0  0  0  0
  4 34  1  0  0  0  0
  5 10  1  0  0  0  0
  5  6  1  0  0  0  0
  5 35  1  0  0  0  0
  6  7  1  0  0  0  0
  6 36  1  0  0  0  0
  6 37  1  0  0  0  0
  7  8  1  0  0  0  0
  8  9  1  0  0  0  0
  8 38  1  0  0  0  0
  8 39  1  0  0  0  0
  9 10  1  0  0  0  0
  9 40  1  0  0  0  0
  9 41  1  0  0  0  0
 10 11  1  0  0  0  0
 11 16  1  0  0  0  0
 11 12  2  0  0  0  0
 12 13  1  0  0  0  0
 13 14  2  0  0  0  0
 13 42  1  0  0  0  0
 14 15  1  0  0  0  0
 15 19  1  0  0  0  0
 15 16  2  0  0  0  0
 16 17  1  0  0  0  0
 17 18  2  0  0  0  0
 18 19  1  0  0  0  0
 18 43  1  0  0  0  0
 19 20  1  0  0  0  0
 20 21  1  0  0  0  0
 20 44  1  0  0  0  0
 20 45  1  0  0  0  0
 21 26  1  0  0  0  0
 21 22  1  0  0  0  0
 21 23  1  0  0  0  0
 22 46  1  0  0  0  0
 23 24  1  0  0  0  0
 23 47  1  0  0  0  0
 23 48  1  0  0  0  0
 24 25  1  0  0  0  0
 24 49  1  0  0  0  0
 24 50  1  0  0  0  0
 25 26  1  0  0  0  0
 26 27  1  0  0  0  0
 26 51  1  0  0  0  0
 27 52  1  0  0  0  0
 27 53  1  0  0  0  0
 27 54  1  0  0  0  0
M  END
> <s_m_source_file>
AV-unprocessed.smi

> <i_m_source_file_index>
197

> <i_lp_mmshare_version>
43012

> <i_f3d_flags>
0

> <s_epik_input>
W0NIM11PW0NIMl1bQ0gyXVtDQEBIXTFbQ0gyXU9bQ0gyXVtDSDJdTjFjKG5bY0hdbjIpYyhjMjMpbltjSF1uM1tDSDJdW0NAQF00KFtPSF0pW0NIMl1bQ0gyXU9bQ0BIXTRbQ0gzXQ==

> <s_epik_cmdline>
J2VwaWtfcHl0aG9uJywgJy1waCcsICc3LjAnLCAnLXRuJywgJzgnLCAnLW1hJywgJzIwMCcsICctbWV0YWxfYmluZGluZycsICctaW1hZScsICc8aW5maWxlLm1hZT4nLCAnLW9tYWUnLCAnPG91dGZpbGUubWFlPic=

> <r_lp_tautomer_probability>
1

> <r_epik_Ionization_Penalty>
0.000106218

> <r_epik_Ionization_Penalty_Charging>
0

> <r_epik_Ionization_Penalty_Neutral>
0.000106218

> <r_epik_State_Penalty>
-0

> <r_epik_Charging_Adjusted_Penalty>
0

> <i_epik_Tot_Q>
0

> <i_epik_Tot_abs_Q>
0

> <r_epik_Metal_State_Penalty>
-0

> <b_epik_Metal_Only>
0

> <s_lp_Force_Field>
OPLS_2005

> <r_lp_Energy>
41.9523

> <b_lp_Chiralities_Consistent>
1

> <s_lp_Variant>
AV-unprocessed.smi:197-8

> <Gold.Version>
5.8.1

> <Gold.Id.Protein>
6NUR|6NUR_protein|mol2

> <Gold.PLP.Fitness>
46.2060

> <Gold.PLP.PLP>
-42.2390

> <Gold.PLP.part.hbond>
-3.0489

> <Gold.PLP.part.metal>
0.0000

> <Gold.PLP.part.buried>
-8.5348

> <Gold.PLP.part.nonpolar>
-30.4598

> <Gold.PLP.part.repulsive>
0.1721

> <Gold.PLP.ligand.clash>
0.0000

> <Gold.PLP.ligand.torsion>
1.2812

> <Gold.PLP.Chemscore.Hbond>
2.0000

> <Gold.PLP.Chemscore.CHOScore>
0.0000

> <Gold.PLP.Chemscore.Metal>
0.0000

> <Gold.Chemscore.Hbonds>
donor molecule, donor type, donor heavy atom, donor atom, acceptor molecule, acceptor atom, score
      P1  H  6896  6908       L1    17  0.93
      P1  H  7997  8008       L1    22  0.60

> <Gold.PLP.Chemscore.Internal.Correction>
0.5293

> <Gold.Rescore>
     Score         DG    S(hbond)    S(metal)    S(lipo)     H(rot)  DE(clash)    DE(int)     intcor
     11.64     -15.16       1.94        0.00      89.41       2.84       0.08       3.43       ----

> <Gold.Chemscore.Fitness>
11.6384

> <Gold.Chemscore.DG>
-15.1564

> <Gold.Chemscore.ZeroCoef>
-5.4800

> <Gold.Chemscore.Hbond>
1.9387

> <Gold.Chemscore.Metal>
0.0000

> <Gold.Chemscore.Lipo>
89.4083

> <Gold.Chemscore.Internal_Hbond>
0.0000

> <Gold.Chemscore.DEClash>
0.0832

> <Gold.Chemscore.DEInternal>
3.4348

> <Gold.Chemscore.Rot>
2.8358

> <Gold.Chemscore.Internal.Correction>
   9.000000E+99

> <Gold.Chemscore.Hbonds>
donor molecule, donor type, donor heavy atom, donor atom, acceptor molecule, acceptor atom, score
      P1  H  6896  6908       L1    17  0.67
      P1  H  7997  8008       L1    22  0.04

> <Gold.Chemscore.Hbond.Weighted>
-6.4752

> <Gold.Chemscore.Metal.Weighted>
-0.0000

> <Gold.Chemscore.Lipo.Weighted>
-10.4608

> <Gold.Chemscore.Internal_Hbond.Weighted>
0.0000

> <Gold.Chemscore.DEClash.Weighted>
0.0832

> <Gold.Chemscore.DEInternal.Weighted>
3.4348

> <Gold.Chemscore.Rot.Weighted>
7.2596

> <Gold.Chemscore.Internal.Correction.Weighted>
   9.000000E+99

> <Gold.Protein.RotatedTorsions>
[ 6907 6896 6895 6894 ] final -164.03 input  -60.11 | X-H torsion
[ 7974 7965 7964 7962 ] final   26.12 input  175.53 | X-H torsion
[ 8008 7997 7996 7995 ] final  -39.70 input   59.86 | X-H torsion
[ 10167 10162 10161 10158 ] final  -35.38 input  -65.29 | X-H torsion
[ 10718 10713 10712 10709 ] final  176.97 input   66.30 | X-H torsion
[ 10763 10752 10751 10750 ] final -167.59 input  -60.55 | X-H torsion
[ 11005 11000 10999 10996 ] final   53.56 input  -57.11 | X-H torsion

> <Gold.Protein.ActiveResidues>
 VAL166  LYS551  ARG553  GLY616  TRP617  ASP618  TYR619  PRO620  LYS621  CYS622 
 ASP623  PHE694  ASN695  SER759  ASP760  ASP761  ALA762  ILE779  LEU786  VAL792 
 PHE793  MET794  SER795  GLU796  ALA797  LYS798  CYS799  TRP800  GLU811  SER814 

> <Gold.Protein.RotatedAtoms>
  151.4054  133.3744  159.2737 H   0  0  0  0  0  0  0  0  0  0  0  0  # atno 6907 bound_to 6896
  150.9402  134.8813  159.7618 H   0  0  0  0  0  0  0  0  0  0  0  0  # atno 6908 bound_to 6896
  152.5068  134.4004  159.9466 H   0  0  0  0  0  0  0  0  0  0  0  0  # atno 6909 bound_to 6896
  146.1854  139.7372  142.8870 H   0  0  0  0  0  0  0  0  0  0  0  0  # atno 7974 bound_to 7965
  154.4020  140.1544  156.2907 H   0  0  0  0  0  0  0  0  0  0  0  0  # atno 8008 bound_to 7997
  155.8788  140.3445  155.5851 H   0  0  0  0  0  0  0  0  0  0  0  0  # atno 8009 bound_to 7997
  155.7691  140.0828  157.2107 H   0  0  0  0  0  0  0  0  0  0  0  0  # atno 8010 bound_to 7997
  140.7166  143.3481  151.2213 H   0  0  0  0  0  0  0  0  0  0  0  0  # atno 10167 bound_to 10162
  156.9123  130.9914  151.3018 H   0  0  0  0  0  0  0  0  0  0  0  0  # atno 10718 bound_to 10713
  154.6716  135.2940  154.9734 H   0  0  0  0  0  0  0  0  0  0  0  0  # atno 10763 bound_to 10752
  154.0759  135.6611  153.4835 H   0  0  0  0  0  0  0  0  0  0  0  0  # atno 10764 bound_to 10752
  153.0490  135.5186  154.7715 H   0  0  0  0  0  0  0  0  0  0  0  0  # atno 10765 bound_to 10752
  140.0757  134.5408  155.8999 H   0  0  0  0  0  0  0  0  0  0  0  0  # atno 11005 bound_to 11000
  145.3954  141.0378  143.3100 LP  0  0  0  0  0  0  0  0  0  0  0  0  # atno 17320 bound_to 7965
  144.8388  139.5506  143.6910 LP  0  0  0  0  0  0  0  0  0  0  0  0  # atno 17321 bound_to 7965
  139.7006  143.9540  152.2903 LP  0  0  0  0  0  0  0  0  0  0  0  0  # atno 17342 bound_to 10162
  139.9232  144.6787  150.8440 LP  0  0  0  0  0  0  0  0  0  0  0  0  # atno 17343 bound_to 10162
  157.5960  130.8478  149.8729 LP  0  0  0  0  0  0  0  0  0  0  0  0  # atno 17370 bound_to 10713
  156.0530  130.3714  150.1157 LP  0  0  0  0  0  0  0  0  0  0  0  0  # atno 17371 bound_to 10713
  141.2028  133.6628  156.6030 LP  0  0  0  0  0  0  0  0  0  0  0  0  # atno 17394 bound_to 11000
  140.3561  134.7727  157.4501 LP  0  0  0  0  0  0  0  0  0  0  0  0  # atno 17395 bound_to 11000

$$$$
