#       Name:                AV-unprocessed.smi:2438
#       Creating user name   scv26
#       Creation time:       Fri Mar 27 13:22:53 2020


#       File generated by GOLD software.
#

@<TRIPOS>MOLECULE
AV-unprocessed.smi:2438
    48    49     1
SMALL
NO_CHARGES


@<TRIPOS>ATOM
      1 ****        -1.5473  -0.5250  -2.9913 C.3            1 S1                 0.0000
      2 ****        -0.6546   0.5172  -3.4795 N.3            1 S1                 0.0000
      3 ****        -1.1952   1.3951  -4.5098 C.3            1 S1                 0.0000
      4 ****         0.6688   0.0710  -3.6702 C.ar           1 S1                 0.0000
      5 ****         1.0888  -0.1470  -4.9402 N.ar           1 S1                 0.0000
      6 ****         2.3361  -0.5874  -5.1116 C.ar           1 S1                 0.0000
      7 ****         3.2317  -0.8348  -4.1561 N.ar           1 S1                 0.0000
      8 ****         2.8364  -0.6230  -2.8836 C.ar           1 S1                 0.0000
      9 ****         1.5322  -0.1672  -2.5683 C.ar           1 S1                 0.0000
     10 ****         1.0988   0.1134  -1.2424 N.am           1 S1                 0.0000
     11 ****         1.5329  -0.4334  -0.0954 C.2            1 S1                 0.0000
     12 ****         2.4224  -1.2788  -0.0031 O.2            1 S1                 0.0000
     13 ****         0.8510   0.0447   0.9547 N.am           1 S1                 0.0000
     14 ****         1.0431  -0.3579   2.3473 C.3            1 S1                 0.0000
     15 ****         0.3394  -1.6975   2.6506 C.3            1 S1                 0.0000
     16 ****        -1.1914  -1.5583   2.6483 C.3            1 S1                 0.0000
     17 ****        -1.6523  -0.4609   3.6202 C.3            1 S1                 0.0000
     18 ****        -0.9900   0.8968   3.3041 C.3            1 S1                 0.0000
     19 ****        -1.4602   2.0072   4.2665 C.3            1 S1                 0.0000
     20 ****        -1.1188   1.7231   5.5237 F              1 S1                 0.0000
     21 ****        -0.9092   3.1714   3.9225 F              1 S1                 0.0000
     22 ****        -2.7850   2.1389   4.1987 F              1 S1                 0.0000
     23 ****         0.5496   0.7513   3.2980 C.3            1 S1                 0.0000
     24 ****        -1.2006  -0.9427  -2.0462 H              1 S1                 0.0000
     25 ****        -1.6197  -1.3359  -3.7171 H              1 S1                 0.0000
     26 ****        -2.5485  -0.1244  -2.8296 H              1 S1                 0.0000
     27 ****        -0.4700   2.1598  -4.7908 H              1 S1                 0.0000
     28 ****        -2.0888   1.9007  -4.1431 H              1 S1                 0.0000
     29 ****        -1.4661   0.8283  -5.4014 H              1 S1                 0.0000
     30 ****         2.6541  -0.7572  -6.1294 H              1 S1                 0.0000
     31 ****         3.5879  -0.7970  -2.1292 H              1 S1                 0.0000
     32 ****         0.3037   0.7316  -1.1705 H              1 S1                 0.0000
     33 ****         0.1356   0.7347   0.7783 H              1 S1                 0.0000
     34 ****         2.1144  -0.4845   2.5145 H              1 S1                 0.0000
     35 ****         0.6463  -2.4638   1.9379 H              1 S1                 0.0000
     36 ****         0.6610  -2.0536   3.6301 H              1 S1                 0.0000
     37 ****        -1.5405  -1.3276   1.6411 H              1 S1                 0.0000
     38 ****        -1.6488  -2.5099   2.9206 H              1 S1                 0.0000
     39 ****        -2.7376  -0.3697   3.5717 H              1 S1                 0.0000
     40 ****        -1.4145  -0.7593   4.6420 H              1 S1                 0.0000
     41 ****        -1.3028   1.1896   2.3007 H              1 S1                 0.0000
     42 ****         0.8912   0.5248   4.3088 H              1 S1                 0.0000
     43 ****         1.0175   1.6993   3.0294 H              1 S1                 0.0000
     44 ****        -0.5872   1.1623  -2.7185 LP             1 S1                 0.0000
     45 ****         0.4853   0.0164  -5.7207 LP             1 S1                 0.0000
     46 ****         4.1519  -1.1616  -4.3718 LP             1 S1                 0.0000
     47 ****         2.8836  -1.6112  -0.8258 LP             1 S1                 0.0000
     48 ****         2.6839  -1.6335   0.8946 LP             1 S1                 0.0000
@<TRIPOS>BOND
    1    1    2 1     
    2    1   24 1     
    3    1   25 1     
    4    1   26 1     
    5    2    3 1     
    6    2    4 1     
    7    3   27 1     
    8    3   28 1     
    9    3   29 1     
   10    4    9 ar    
   11    4    5 ar    
   12    5    6 ar    
   13    6    7 ar    
   14    6   30 1     
   15    7    8 ar    
   16    8    9 ar    
   17    8   31 1     
   18    9   10 1     
   19   10   11 am    
   20   10   32 1     
   21   11   12 2     
   22   11   13 am    
   23   13   14 1     
   24   13   33 1     
   25   14   23 1     
   26   14   15 1     
   27   14   34 1     
   28   15   16 1     
   29   15   35 1     
   30   15   36 1     
   31   16   17 1     
   32   16   37 1     
   33   16   38 1     
   34   17   18 1     
   35   17   39 1     
   36   17   40 1     
   37   18   19 1     
   38   18   23 1     
   39   18   41 1     
   40   19   20 1     
   41   19   21 1     
   42   19   22 1     
   43   23   42 1     
   44   23   43 1     
   45    2   44 1     
   46    5   45 1     
   47    7   46 1     
   48   12   47 1     
   49   12   48 1     
@<TRIPOS>SUBSTRUCTURE
      1 S1             1
@<TRIPOS>SET
LONE_PAIRS      STATIC     ATOMS    <user>   **** ""
5 44 45 46 47 48
DONOR_HYDROGENS      STATIC     ATOMS    <user>   **** ""
2 32 33
ATOM$BLUE        STATIC     ATOMS    COLORGROUP SYSTEM
5 44 45 46 47 48
ATOM$RED        STATIC     ATOMS    COLORGROUP SYSTEM
2 32 33
