AV-unprocessed.smi:1252|AV-procd|sdf|5266|dock8
  -GOLD-   22720 4383D 1   1.00000     0.00000
 Structure written by MMmdl.
 44 45  0  0  0  0  0  0  0  0  2 V2000
  152.1516  145.1823  159.1003 C   0  0  0  0  0  0  0  0  0  0  0  0
  152.3305  143.6564  158.9927 C   0  0  2  0  0  0  0  0  0  0  0  0
  151.0552  142.9275  158.5435 C   0  0  0  0  0  0  0  0  0  0  0  0
  149.9829  143.5234  158.4413 O   0  0  0  0  0  0  0  0  0  0  0  0
  151.1895  141.6112  158.3211 N   0  0  0  0  0  0  0  0  0  0  0  0
  150.1044  140.6637  158.0775 C   0  0  0  0  0  0  0  0  0  0  0  0
  149.8633  140.3916  156.5611 C   0  0  0  0  0  0  0  0  0  0  0  0
  148.3693  140.0243  156.3794 C   0  0  0  0  0  0  0  0  0  0  0  0
  150.1226  141.7020  155.7828 C   0  0  0  0  0  0  0  0  0  0  0  0
  150.7429  139.2671  156.0729 N   0  3  0  0  0  0  0  0  0  0  0  0
  150.4461  138.7478  154.7081 C   0  0  0  0  0  0  0  0  0  0  0  0
  151.3001  137.5053  154.4015 C   0  0  0  0  0  0  0  0  0  0  0  0
  152.6789  137.8145  154.5467 O   0  0  0  0  0  0  0  0  0  0  0  0
  152.9900  138.2201  155.8717 C   0  0  0  0  0  0  0  0  0  0  0  0
  152.2080  139.4986  156.2113 C   0  0  0  0  0  0  0  0  0  0  0  0
  152.7941  143.0903  160.2535 N   0  0  0  0  0  0  0  0  0  0  0  0
  152.3926  143.3059  161.5093 C   0  0  0  0  0  0  0  0  0  0  0  0
  153.0198  142.5610  162.4084 N   0  0  0  0  0  0  0  0  0  0  0  0
  153.8605  141.8681  161.5848 C   0  0  0  0  0  0  0  0  0  0  0  0
  153.7524  142.1331  160.2832 N   0  0  0  0  0  0  0  0  0  0  0  0
  151.8541  145.6121  158.1430 H   0  0  0  0  0  0  0  0  0  0  0  0
  153.0847  145.6625  159.3965 H   0  0  0  0  0  0  0  0  0  0  0  0
  151.3939  145.4524  159.8369 H   0  0  0  0  0  0  0  0  0  0  0  0
  153.0934  143.4667  158.2354 H   0  0  0  0  0  0  0  0  0  0  0  0
  152.1177  141.2214  158.4023 H   0  0  0  0  0  0  0  0  0  0  0  0
  150.2789  139.7317  158.6182 H   0  0  0  0  0  0  0  0  0  0  0  0
  149.2086  141.0836  158.5349 H   0  0  0  0  0  0  0  0  0  0  0  0
  147.7205  140.7287  156.9011 H   0  0  0  0  0  0  0  0  0  0  0  0
  148.1460  139.0291  156.7649 H   0  0  0  0  0  0  0  0  0  0  0  0
  148.0622  140.0494  155.3338 H   0  0  0  0  0  0  0  0  0  0  0  0
  149.4544  142.4934  156.1246 H   0  0  0  0  0  0  0  0  0  0  0  0
  149.9532  141.5847  154.7128 H   0  0  0  0  0  0  0  0  0  0  0  0
  151.1390  142.0701  155.9195 H   0  0  0  0  0  0  0  0  0  0  0  0
  149.4022  138.4568  154.6084 H   0  0  0  0  0  0  0  0  0  0  0  0
  150.6407  139.5190  153.9625 H   0  0  0  0  0  0  0  0  0  0  0  0
  151.0310  136.6765  155.0569 H   0  0  0  0  0  0  0  0  0  0  0  0
  151.1208  137.1707  153.3796 H   0  0  0  0  0  0  0  0  0  0  0  0
  152.7603  137.4210  156.5783 H   0  0  0  0  0  0  0  0  0  0  0  0
  154.0618  138.4065  155.9396 H   0  0  0  0  0  0  0  0  0  0  0  0
  152.5270  140.3013  155.5460 H   0  0  0  0  0  0  0  0  0  0  0  0
  152.4705  139.7987  157.2241 H   0  0  0  0  0  0  0  0  0  0  0  0
  151.6161  144.0109  161.7686 H   0  0  0  0  0  0  0  0  0  0  0  0
  154.5595  141.1320  161.9534 H   0  0  0  0  0  0  0  0  0  0  0  0
  150.5355  138.4974  156.6933 H   0  0  0  0  0  0  0  0  0  0  0  0
  1  2  1  0  0  0  0
  1 21  1  0  0  0  0
  1 22  1  0  0  0  0
  1 23  1  0  0  0  0
  2  3  1  0  0  0  0
  2 16  1  0  0  0  0
  2 24  1  0  0  0  0
  3  4  2  0  0  0  0
  3  5  1  0  0  0  0
  5  6  1  0  0  0  0
  5 25  1  0  0  0  0
  6  7  1  0  0  0  0
  6 26  1  0  0  0  0
  6 27  1  0  0  0  0
  7  8  1  0  0  0  0
  7  9  1  0  0  0  0
  7 10  1  0  0  0  0
  8 28  1  0  0  0  0
  8 29  1  0  0  0  0
  8 30  1  0  0  0  0
  9 31  1  0  0  0  0
  9 32  1  0  0  0  0
  9 33  1  0  0  0  0
 10 15  1  0  0  0  0
 10 11  1  0  0  0  0
 10 44  1  0  0  0  0
 11 12  1  0  0  0  0
 11 34  1  0  0  0  0
 11 35  1  0  0  0  0
 12 13  1  0  0  0  0
 12 36  1  0  0  0  0
 12 37  1  0  0  0  0
 13 14  1  0  0  0  0
 14 15  1  0  0  0  0
 14 38  1  0  0  0  0
 14 39  1  0  0  0  0
 15 40  1  0  0  0  0
 15 41  1  0  0  0  0
 16 20  1  0  0  0  0
 16 17  1  0  0  0  0
 17 18  2  0  0  0  0
 17 42  1  0  0  0  0
 18 19  1  0  0  0  0
 19 20  2  0  0  0  0
 19 43  1  0  0  0  0
M  CHG  1  10   1
M  END
> <s_m_source_file>
AV-unprocessed.smi

> <i_m_source_file_index>
1252

> <i_lp_mmshare_version>
43012

> <i_f3d_flags>
0

> <s_epik_input>
bjFbY0hdbltjSF1uMVtDQEhdKFtDSDNdKUMoPU8pW05IXVtDSDJdQyhbQ0gzXSkoW0NIM10pTjJbQ0gyXVtDSDJdT1tDSDJdW0NIMl0y

> <s_epik_cmdline>
J2VwaWtfcHl0aG9uJywgJy1waCcsICc3LjAnLCAnLXRuJywgJzgnLCAnLW1hJywgJzIwMCcsICctbWV0YWxfYmluZGluZycsICctaW1hZScsICc8aW5maWxlLm1hZT4nLCAnLW9tYWUnLCAnPG91dGZpbGUubWFlPic=

> <r_lp_tautomer_probability>
1

> <r_epik_Ionization_Penalty>
0.71326

> <r_epik_Ionization_Penalty_Charging>
0.713252

> <r_epik_Ionization_Penalty_Neutral>
8.22342e-06

> <r_epik_State_Penalty>
0.737017

> <r_epik_Charging_Adjusted_Penalty>
1.45027

> <i_epik_Tot_Q>
1

> <i_epik_Tot_abs_Q>
1

> <r_epik_Metal_State_Penalty>
0.73702

> <b_epik_Metal_Only>
0

> <s_lp_Force_Field>
OPLS_2005

> <r_lp_Energy>
34.1677

> <b_lp_Chiralities_Consistent>
1

> <s_lp_Variant>
AV-unprocessed.smi:1252-3

> <Gold.Version>
5.8.1

> <Gold.Id.Protein>
6NUR|6NUR_protein|mol2

> <Gold.PLP.Fitness>
39.0089

> <Gold.PLP.PLP>
-41.0890

> <Gold.PLP.part.hbond>
-1.0000

> <Gold.PLP.part.metal>
0.0000

> <Gold.PLP.part.buried>
-6.8988

> <Gold.PLP.part.nonpolar>
-33.9708

> <Gold.PLP.part.repulsive>
0.9273

> <Gold.PLP.ligand.clash>
0.0000

> <Gold.PLP.ligand.torsion>
1.2955

> <Gold.PLP.Chemscore.Hbond>
0.1092

> <Gold.PLP.Chemscore.CHOScore>
0.0000

> <Gold.PLP.Chemscore.Metal>
0.0000

> <Gold.Chemscore.Hbonds>
donor molecule, donor type, donor heavy atom, donor atom, acceptor molecule, acceptor atom, score
      P1  H 10752 10765       L1    13  0.06

> <Gold.PLP.Chemscore.Internal.Correction>
0.1832

> <Gold.Rescore>
     Score         DG    S(hbond)    S(metal)    S(lipo)     H(rot)  DE(clash)    DE(int)     intcor
      6.71      -7.47       0.00        0.00      73.58       2.59       0.01       0.75       ----

> <Gold.Chemscore.Fitness>
6.7099

> <Gold.Chemscore.DG>
-7.4687

> <Gold.Chemscore.ZeroCoef>
-5.4800

> <Gold.Chemscore.Hbond>
0.0004

> <Gold.Chemscore.Metal>
0.0000

> <Gold.Chemscore.Lipo>
73.5753

> <Gold.Chemscore.Internal_Hbond>
0.0000

> <Gold.Chemscore.DEClash>
0.0110

> <Gold.Chemscore.DEInternal>
0.7477

> <Gold.Chemscore.Rot>
2.5864

> <Gold.Chemscore.Internal.Correction>
   9.000000E+99

> <Gold.Chemscore.Hbond.Weighted>
-0.0015

> <Gold.Chemscore.Metal.Weighted>
-0.0000

> <Gold.Chemscore.Lipo.Weighted>
-8.6083

> <Gold.Chemscore.Internal_Hbond.Weighted>
0.0000

> <Gold.Chemscore.DEClash.Weighted>
0.0110

> <Gold.Chemscore.DEInternal.Weighted>
0.7477

> <Gold.Chemscore.Rot.Weighted>
6.6211

> <Gold.Chemscore.Internal.Correction.Weighted>
   9.000000E+99

> <Gold.Protein.RotatedTorsions>
[ 6907 6896 6895 6894 ] final   14.40 input  -60.11 | X-H torsion
[ 7974 7965 7964 7962 ] final  174.25 input  175.53 | X-H torsion
[ 8008 7997 7996 7995 ] final  -47.55 input   59.86 | X-H torsion
[ 10167 10162 10161 10158 ] final  101.16 input  -65.29 | X-H torsion
[ 10718 10713 10712 10709 ] final   71.35 input   66.30 | X-H torsion
[ 10763 10752 10751 10750 ] final -176.28 input  -60.55 | X-H torsion
[ 11005 11000 10999 10996 ] final   86.70 input  -57.11 | X-H torsion

> <Gold.Protein.ActiveResidues>
 VAL166  LYS551  ARG553  GLY616  TRP617  ASP618  TYR619  PRO620  LYS621  CYS622 
 ASP623  PHE694  ASN695  SER759  ASP760  ASP761  ALA762  ILE779  LEU786  VAL792 
 PHE793  MET794  SER795  GLU796  ALA797  LYS798  CYS799  TRP800  GLU811  SER814 

> <Gold.Protein.RotatedAtoms>
  151.8016  135.0707  160.0400 H   0  0  0  0  0  0  0  0  0  0  0  0  # atno 6907 bound_to 6896
  152.3085  133.5723  159.5673 H   0  0  0  0  0  0  0  0  0  0  0  0  # atno 6908 bound_to 6896
  150.7308  134.0103  159.3709 H   0  0  0  0  0  0  0  0  0  0  0  0  # atno 6909 bound_to 6896
  144.7225  139.9770  143.6438 H   0  0  0  0  0  0  0  0  0  0  0  0  # atno 7974 bound_to 7965
  154.4018  140.1344  156.4193 H   0  0  0  0  0  0  0  0  0  0  0  0  # atno 8008 bound_to 7997
  155.7658  140.3485  155.5201 H   0  0  0  0  0  0  0  0  0  0  0  0  # atno 8009 bound_to 7997
  155.8815  140.0988  157.1472 H   0  0  0  0  0  0  0  0  0  0  0  0  # atno 8010 bound_to 7997
  139.7463  144.6997  151.0499 H   0  0  0  0  0  0  0  0  0  0  0  0  # atno 10167 bound_to 10162
  157.6447  130.9524  150.0777 H   0  0  0  0  0  0  0  0  0  0  0  0  # atno 10718 bound_to 10713
  154.5743  135.2830  155.0796 H   0  0  0  0  0  0  0  0  0  0  0  0  # atno 10763 bound_to 10752
  154.2157  135.6400  153.5132 H   0  0  0  0  0  0  0  0  0  0  0  0  # atno 10764 bound_to 10752
  153.0067  135.5502  154.6376 H   0  0  0  0  0  0  0  0  0  0  0  0  # atno 10765 bound_to 10752
  139.8938  134.8373  156.2757 H   0  0  0  0  0  0  0  0  0  0  0  0  # atno 11005 bound_to 11000
  146.0518  139.3518  143.0635 LP  0  0  0  0  0  0  0  0  0  0  0  0  # atno 17320 bound_to 7965
  145.8205  140.9681  143.0901 LP  0  0  0  0  0  0  0  0  0  0  0  0  # atno 17321 bound_to 7965
  140.7792  143.4863  150.9952 LP  0  0  0  0  0  0  0  0  0  0  0  0  # atno 17342 bound_to 10162
  139.8551  143.7387  152.3176 LP  0  0  0  0  0  0  0  0  0  0  0  0  # atno 17343 bound_to 10162
  156.1763  130.3648  149.9096 LP  0  0  0  0  0  0  0  0  0  0  0  0  # atno 17370 bound_to 10713
  156.7059  130.8951  151.3604 LP  0  0  0  0  0  0  0  0  0  0  0  0  # atno 17371 bound_to 10713
  141.0072  133.7117  156.1053 LP  0  0  0  0  0  0  0  0  0  0  0  0  # atno 17394 bound_to 11000
  140.7418  134.4142  157.5554 LP  0  0  0  0  0  0  0  0  0  0  0  0  # atno 17395 bound_to 11000

$$$$
