AV-unprocessed.smi:265|AV-procd|sdf|2022|dock9
  -GOLD-   2262021223D 1   1.00000     0.00000
 Structure written by MMmdl.
 52 56  0  0  0  0  0  0  0  0  1 V2000
  146.5116  138.3048  151.3313 C   0  0  0  0  0  0  0  0  0  0  0  0
  145.9954  138.2047  152.7752 C   0  0  1  0  0  0  0  0  0  0  0  0
  146.1181  136.8408  153.1738 O   0  0  0  0  0  0  0  0  0  0  0  0
  146.4070  136.7855  154.5596 C   0  0  0  0  0  0  0  0  0  0  0  0
  147.3641  137.9530  154.7428 C   0  0  0  0  0  0  0  0  0  0  0  0
  146.7594  139.0310  153.8485 C   0  0  2  0  0  0  0  0  0  0  0  0
  145.7957  139.7374  154.6123 O   0  0  0  0  0  0  0  0  0  0  0  0
  147.7937  140.0598  153.3201 C   0  0  0  0  0  0  0  0  0  0  0  0
  148.5931  140.6707  154.3717 N   0  0  0  0  0  0  0  0  0  0  0  0
  148.5005  141.9661  154.8287 C   0  0  0  0  0  0  0  0  0  0  0  0
  149.3320  142.2803  155.7840 N   0  0  0  0  0  0  0  0  0  0  0  0
  150.0580  141.1147  156.0007 C   0  0  0  0  0  0  0  0  0  0  0  0
  151.1175  140.7558  156.8820 C   0  0  0  0  0  0  0  0  0  0  0  0
  151.6418  141.6184  157.7899 N   0  0  0  0  0  0  0  0  0  0  0  0
  150.6672  142.4992  158.4298 C   0  0  0  0  0  0  0  0  0  0  0  0
  151.3665  143.7052  159.0745 C   0  0  0  0  0  0  0  0  0  0  0  0
  152.4855  143.2707  160.0352 C   0  0  1  0  0  0  0  0  0  0  0  0
  151.9326  142.6301  161.1777 O   0  0  0  0  0  0  0  0  0  0  0  0
  152.8882  142.3571  162.2043 C   0  0  0  0  0  0  0  0  0  0  0  0
  154.1521  141.6655  161.6597 C   0  0  0  0  0  0  0  0  0  0  0  0
  154.9285  141.1105  162.4338 O   0  0  0  0  0  0  0  0  0  0  0  0
  154.3891  141.7293  160.3395 N   0  0  0  0  0  0  0  0  0  0  0  0
  153.4516  142.2719  159.3616 C   0  0  1  0  0  0  0  0  0  0  0  0
  152.6902  141.1168  158.6791 C   0  0  0  0  0  0  0  0  0  0  0  0
  151.6061  139.4898  156.7870 N   0  0  0  0  0  0  0  0  0  0  0  0
  151.0933  138.6318  155.9005 C   0  0  0  0  0  0  0  0  0  0  0  0
  150.1056  138.8277  155.0254 N   0  0  0  0  0  0  0  0  0  0  0  0
  149.6128  140.0961  155.1111 C   0  0  0  0  0  0  0  0  0  0  0  0
  153.0284  144.1605  160.3600 H   0  0  0  0  0  0  0  0  0  0  0  0
  154.0287  142.8026  158.6035 H   0  0  0  0  0  0  0  0  0  0  0  0
  146.4381  139.3234  150.9500 H   0  0  0  0  0  0  0  0  0  0  0  0
  145.9249  137.6678  150.6693 H   0  0  0  0  0  0  0  0  0  0  0  0
  147.5508  137.9841  151.2554 H   0  0  0  0  0  0  0  0  0  0  0  0
  144.9342  138.4609  152.7798 H   0  0  0  0  0  0  0  0  0  0  0  0
  145.4912  136.9312  155.1344 H   0  0  0  0  0  0  0  0  0  0  0  0
  146.8465  135.8288  154.8419 H   0  0  0  0  0  0  0  0  0  0  0  0
  147.4820  138.2548  155.7844 H   0  0  0  0  0  0  0  0  0  0  0  0
  148.3456  137.6611  154.3675 H   0  0  0  0  0  0  0  0  0  0  0  0
  145.0273  139.8664  154.0777 H   0  0  0  0  0  0  0  0  0  0  0  0
  148.4786  139.5879  152.6152 H   0  0  0  0  0  0  0  0  0  0  0  0
  147.2895  140.8577  152.7732 H   0  0  0  0  0  0  0  0  0  0  0  0
  147.7890  142.6749  154.4300 H   0  0  0  0  0  0  0  0  0  0  0  0
  149.9191  142.8537  157.7219 H   0  0  0  0  0  0  0  0  0  0  0  0
  150.1296  141.9310  159.1902 H   0  0  0  0  0  0  0  0  0  0  0  0
  151.7930  144.3297  158.2885 H   0  0  0  0  0  0  0  0  0  0  0  0
  150.6390  144.3248  159.5996 H   0  0  0  0  0  0  0  0  0  0  0  0
  153.1774  143.2903  162.6888 H   0  0  0  0  0  0  0  0  0  0  0  0
  152.4227  141.7295  162.9646 H   0  0  0  0  0  0  0  0  0  0  0  0
  155.2359  141.3091  159.9848 H   0  0  0  0  0  0  0  0  0  0  0  0
  152.2328  140.4723  159.4317 H   0  0  0  0  0  0  0  0  0  0  0  0
  153.3954  140.5026  158.1167 H   0  0  0  0  0  0  0  0  0  0  0  0
  151.5377  137.6474  155.8915 H   0  0  0  0  0  0  0  0  0  0  0  0
  1  2  1  0  0  0  0
  1 31  1  0  0  0  0
  1 32  1  0  0  0  0
  1 33  1  0  0  0  0
  2  6  1  0  0  0  0
  2  3  1  0  0  0  0
  2 34  1  0  0  0  0
  3  4  1  0  0  0  0
  4  5  1  0  0  0  0
  4 35  1  0  0  0  0
  4 36  1  0  0  0  0
  5  6  1  0  0  0  0
  5 37  1  0  0  0  0
  5 38  1  0  0  0  0
  6  7  1  0  0  0  0
  6  8  1  0  0  0  0
  7 39  1  0  0  0  0
  8  9  1  0  0  0  0
  8 40  1  0  0  0  0
  8 41  1  0  0  0  0
  9 28  1  0  0  0  0
  9 10  1  0  0  0  0
 10 11  2  0  0  0  0
 10 42  1  0  0  0  0
 11 12  1  0  0  0  0
 12 28  2  0  0  0  0
 12 13  1  0  0  0  0
 13 14  1  0  0  0  0
 13 25  2  0  0  0  0
 14 24  1  0  0  0  0
 14 15  1  0  0  0  0
 15 16  1  0  0  0  0
 15 43  1  0  0  0  0
 15 44  1  0  0  0  0
 16 17  1  0  0  0  0
 16 45  1  0  0  0  0
 16 46  1  0  0  0  0
 17 29  1  0  0  0  0
 17 23  1  0  0  0  0
 17 18  1  0  0  0  0
 18 19  1  0  0  0  0
 19 20  1  0  0  0  0
 19 47  1  0  0  0  0
 19 48  1  0  0  0  0
 20 21  2  0  0  0  0
 20 22  1  0  0  0  0
 22 23  1  0  0  0  0
 22 49  1  0  0  0  0
 23 30  1  0  0  0  0
 23 24  1  0  0  0  0
 24 50  1  0  0  0  0
 24 51  1  0  0  0  0
 25 26  1  0  0  0  0
 26 27  2  0  0  0  0
 26 52  1  0  0  0  0
 27 28  1  0  0  0  0
M  END
> <s_m_source_file>
AV-unprocessed.smi

> <i_m_source_file_index>
265

> <i_lp_mmshare_version>
43012

> <i_f3d_flags>
0

> <s_epik_input>
W0NIMl0xW0NIMl1PW0NAQEhdKFtDSDNdKVtDQEBdMShbT0hdKVtDSDJdbihbY0hdbjIpYyhjMjMpbltjSF1uYzNOKFtDSDJdW0NIMl00KVtDSDJdW0NAQEhdKFtDQEhdNDUpW05IXUMoPU8pW0NIMl1PNQ==

> <s_epik_cmdline>
J2VwaWtfcHl0aG9uJywgJy1waCcsICc3LjAnLCAnLXRuJywgJzgnLCAnLW1hJywgJzIwMCcsICctbWV0YWxfYmluZGluZycsICctaW1hZScsICc8aW5maWxlLm1hZT4nLCAnLW9tYWUnLCAnPG91dGZpbGUubWFlPic=

> <r_lp_tautomer_probability>
1

> <r_epik_Ionization_Penalty>
0.00221504

> <r_epik_Ionization_Penalty_Charging>
0

> <r_epik_Ionization_Penalty_Neutral>
0.00221504

> <r_epik_State_Penalty>
-0

> <r_epik_Charging_Adjusted_Penalty>
0

> <i_epik_Tot_Q>
0

> <i_epik_Tot_abs_Q>
0

> <r_epik_Metal_State_Penalty>
-0

> <b_epik_Metal_Only>
0

> <s_lp_Force_Field>
OPLS_2005

> <r_lp_Energy>
44.6863

> <b_lp_Chiralities_Consistent>
1

> <s_lp_Variant>
AV-unprocessed.smi:265-8

> <Gold.Version>
5.8.1

> <Gold.Id.Protein>
6NUR|6NUR_protein|mol2

> <Gold.PLP.Fitness>
42.7913

> <Gold.PLP.PLP>
-39.1962

> <Gold.PLP.part.hbond>
-3.1319

> <Gold.PLP.part.metal>
0.0000

> <Gold.PLP.part.buried>
4.3954

> <Gold.PLP.part.nonpolar>
-45.0261

> <Gold.PLP.part.repulsive>
5.1434

> <Gold.PLP.ligand.clash>
0.0000

> <Gold.PLP.ligand.torsion>
0.5013

> <Gold.PLP.Chemscore.Hbond>
1.1114

> <Gold.PLP.Chemscore.CHOScore>
0.2995

> <Gold.PLP.Chemscore.Metal>
0.0000

> <Gold.Chemscore.Hbonds>
donor molecule, donor type, donor heavy atom, donor atom, acceptor molecule, acceptor atom, score
      L1  H     7    39       P1 10175  0.63
      P1  H  6933  6945       L1    18  0.12
      L1  C    10    42       P1  8028  0.25

> <Gold.PLP.Chemscore.Internal.Correction>
0.3651

> <Gold.Rescore>
     Score         DG    S(hbond)    S(metal)    S(lipo)     H(rot)  DE(clash)    DE(int)     intcor
      9.91     -15.06       1.25        0.00      95.50       2.25       3.63       1.52       ----

> <Gold.Chemscore.Fitness>
9.9068

> <Gold.Chemscore.DG>
-15.0642

> <Gold.Chemscore.ZeroCoef>
-5.4800

> <Gold.Chemscore.Hbond>
1.2450

> <Gold.Chemscore.Metal>
0.0000

> <Gold.Chemscore.Lipo>
95.5021

> <Gold.Chemscore.Internal_Hbond>
0.0000

> <Gold.Chemscore.DEClash>
3.6329

> <Gold.Chemscore.DEInternal>
1.5245

> <Gold.Chemscore.Rot>
2.2453

> <Gold.Chemscore.Internal.Correction>
   9.000000E+99

> <Gold.Chemscore.Hbonds>
donor molecule, donor type, donor heavy atom, donor atom, acceptor molecule, acceptor atom, score
      L1  H     7    39       P1 10175  0.62
      P1  H  6933  6945       L1    18  0.03

> <Gold.Chemscore.Hbond.Weighted>
-4.1583

> <Gold.Chemscore.Metal.Weighted>
-0.0000

> <Gold.Chemscore.Lipo.Weighted>
-11.1737

> <Gold.Chemscore.Internal_Hbond.Weighted>
0.0000

> <Gold.Chemscore.DEClash.Weighted>
3.6329

> <Gold.Chemscore.DEInternal.Weighted>
1.5245

> <Gold.Chemscore.Rot.Weighted>
5.7479

> <Gold.Chemscore.Internal.Correction.Weighted>
   9.000000E+99

> <Gold.Protein.RotatedTorsions>
[ 6907 6896 6895 6894 ] final    6.09 input  -60.11 | X-H torsion
[ 7974 7965 7964 7962 ] final -149.12 input  175.53 | X-H torsion
[ 8008 7997 7996 7995 ] final   67.92 input   59.86 | X-H torsion
[ 10167 10162 10161 10158 ] final  107.29 input  -65.29 | X-H torsion
[ 10718 10713 10712 10709 ] final   58.39 input   66.30 | X-H torsion
[ 10763 10752 10751 10750 ] final  -81.13 input  -60.55 | X-H torsion
[ 11005 11000 10999 10996 ] final -117.84 input  -57.11 | X-H torsion

> <Gold.Protein.ActiveResidues>
 VAL166  LYS551  ARG553  GLY616  TRP617  ASP618  TYR619  PRO620  LYS621  CYS622 
 ASP623  PHE694  ASN695  SER759  ASP760  ASP761  ALA762  ILE779  LEU786  VAL792 
 PHE793  MET794  SER795  GLU796  ALA797  LYS798  CYS799  TRP800  GLU811  SER814 

> <Gold.Protein.RotatedAtoms>
  151.6680  135.0980  160.0192 H   0  0  0  0  0  0  0  0  0  0  0  0  # atno 6907 bound_to 6896
  152.3908  133.6672  159.6244 H   0  0  0  0  0  0  0  0  0  0  0  0  # atno 6908 bound_to 6896
  150.7824  133.8874  159.3344 H   0  0  0  0  0  0  0  0  0  0  0  0  # atno 6909 bound_to 6896
  144.7987  140.5107  143.5722 H   0  0  0  0  0  0  0  0  0  0  0  0  # atno 7974 bound_to 7965
  155.7004  140.3495  155.4930 H   0  0  0  0  0  0  0  0  0  0  0  0  # atno 8008 bound_to 7997
  155.9446  140.1108  157.1050 H   0  0  0  0  0  0  0  0  0  0  0  0  # atno 8009 bound_to 7997
  154.4109  140.1206  156.4958 H   0  0  0  0  0  0  0  0  0  0  0  0  # atno 8010 bound_to 7997
  139.6939  144.7104  151.1300 H   0  0  0  0  0  0  0  0  0  0  0  0  # atno 10167 bound_to 10162
  157.5593  130.8823  149.9085 H   0  0  0  0  0  0  0  0  0  0  0  0  # atno 10718 bound_to 10713
  154.5598  135.5637  153.6997 H   0  0  0  0  0  0  0  0  0  0  0  0  # atno 10763 bound_to 10752
  153.0014  135.6271  154.2260 H   0  0  0  0  0  0  0  0  0  0  0  0  # atno 10764 bound_to 10752
  154.2197  135.2870  155.2909 H   0  0  0  0  0  0  0  0  0  0  0  0  # atno 10765 bound_to 10752
  141.0327  133.9957  157.3119 H   0  0  0  0  0  0  0  0  0  0  0  0  # atno 11005 bound_to 11000
  145.5607  139.1479  143.3343 LP  0  0  0  0  0  0  0  0  0  0  0  0  # atno 17320 bound_to 7965
  146.2263  140.5743  142.8995 LP  0  0  0  0  0  0  0  0  0  0  0  0  # atno 17321 bound_to 7965
  140.7691  143.5519  150.9195 LP  0  0  0  0  0  0  0  0  0  0  0  0  # atno 17342 bound_to 10162
  139.9198  143.6619  152.3099 LP  0  0  0  0  0  0  0  0  0  0  0  0  # atno 17343 bound_to 10162
  156.0647  130.3694  150.0904 LP  0  0  0  0  0  0  0  0  0  0  0  0  # atno 17370 bound_to 10713
  156.9070  130.9639  151.3568 LP  0  0  0  0  0  0  0  0  0  0  0  0  # atno 17371 bound_to 10713
  139.9219  135.0200  156.8094 LP  0  0  0  0  0  0  0  0  0  0  0  0  # atno 17394 bound_to 11000
  140.6378  133.9846  155.7693 LP  0  0  0  0  0  0  0  0  0  0  0  0  # atno 17395 bound_to 11000

$$$$
