AV-unprocessed.smi:2355|AV-procd|sdf|9386|dock1
  -GOLD-   2272013 13D 1   1.00000     0.00000
 Structure written by MMmdl.
 48 49  0  0  0  0  0  0  0  0  1 V2000
  144.3279  132.6974  149.5153 C   0  0  0  0  0  0  0  0  0  0  0  0
  145.2515  132.2384  150.6239 C   0  0  0  0  0  0  0  0  0  0  0  0
  145.2690  130.8925  151.0368 C   0  0  0  0  0  0  0  0  0  0  0  0
  146.1478  130.5273  152.0751 C   0  0  0  0  0  0  0  0  0  0  0  0
  146.2202  129.0976  152.5690 C   0  0  0  0  0  0  0  0  0  0  0  0
  146.9669  131.4067  152.6900 N   0  0  0  0  0  0  0  0  0  0  0  0
  146.9580  132.7061  152.3018 C   0  0  0  0  0  0  0  0  0  0  0  0
  147.7823  133.7066  152.8825 N   0  0  0  0  0  0  0  0  0  0  0  0
  148.3243  133.7227  154.1130 C   0  0  0  0  0  0  0  0  0  0  0  0
  148.1754  132.8493  154.9687 O   0  0  0  0  0  0  0  0  0  0  0  0
  149.0564  134.8300  154.3081 N   0  0  0  0  0  0  0  0  0  0  0  0
  149.7628  135.1670  155.5439 C   0  0  1  0  0  0  0  0  0  0  0  0
  150.6181  133.9636  155.9777 C   0  0  0  0  0  0  0  0  0  0  0  0
  150.5806  136.4922  155.3993 C   0  0  2  0  0  0  0  0  0  0  0  0
  151.4177  136.7382  156.6817 C   0  0  0  0  0  0  0  0  0  0  0  0
  149.7679  137.6676  155.0055 N   0  0  0  0  0  0  0  0  0  0  0  0
  148.8062  138.0551  156.0439 C   0  0  0  0  0  0  0  0  0  0  0  0
  147.9734  139.2890  155.6572 C   0  0  0  0  0  0  0  0  0  0  0  0
  148.8394  140.3775  155.3681 O   0  0  0  0  0  0  0  0  0  0  0  0
  149.7412  140.0752  154.3127 C   0  0  0  0  0  0  0  0  0  0  0  0
  150.5852  138.8437  154.6847 C   0  0  0  0  0  0  0  0  0  0  0  0
  146.1080  133.1554  151.2663 C   0  0  0  0  0  0  0  0  0  0  0  0
  143.9592  131.8509  148.9353 H   0  0  0  0  0  0  0  0  0  0  0  0
  144.8502  133.3718  148.8362 H   0  0  0  0  0  0  0  0  0  0  0  0
  143.4715  133.2258  149.9343 H   0  0  0  0  0  0  0  0  0  0  0  0
  144.6259  130.1602  150.5705 H   0  0  0  0  0  0  0  0  0  0  0  0
  145.6361  128.4301  151.9349 H   0  0  0  0  0  0  0  0  0  0  0  0
  145.8328  129.0294  153.5858 H   0  0  0  0  0  0  0  0  0  0  0  0
  147.2526  128.7466  152.5700 H   0  0  0  0  0  0  0  0  0  0  0  0
  147.9808  134.5014  152.2934 H   0  0  0  0  0  0  0  0  0  0  0  0
  149.1245  135.4952  153.5518 H   0  0  0  0  0  0  0  0  0  0  0  0
  148.9829  135.2902  156.2940 H   0  0  0  0  0  0  0  0  0  0  0  0
  151.1332  134.1632  156.9176 H   0  0  0  0  0  0  0  0  0  0  0  0
  151.3718  133.7106  155.2319 H   0  0  0  0  0  0  0  0  0  0  0  0
  149.9981  133.0797  156.1294 H   0  0  0  0  0  0  0  0  0  0  0  0
  151.3013  136.3209  154.5981 H   0  0  0  0  0  0  0  0  0  0  0  0
  151.9275  135.8401  157.0282 H   0  0  0  0  0  0  0  0  0  0  0  0
  150.7953  137.0983  157.5015 H   0  0  0  0  0  0  0  0  0  0  0  0
  152.2061  137.4716  156.5163 H   0  0  0  0  0  0  0  0  0  0  0  0
  148.1062  137.2446  156.2404 H   0  0  0  0  0  0  0  0  0  0  0  0
  149.3320  138.2532  156.9792 H   0  0  0  0  0  0  0  0  0  0  0  0
  147.3422  139.0749  154.7932 H   0  0  0  0  0  0  0  0  0  0  0  0
  147.3107  139.5701  156.4758 H   0  0  0  0  0  0  0  0  0  0  0  0
  149.1877  139.8984  153.3891 H   0  0  0  0  0  0  0  0  0  0  0  0
  150.3861  140.9366  154.1392 H   0  0  0  0  0  0  0  0  0  0  0  0
  151.2307  139.0882  155.5299 H   0  0  0  0  0  0  0  0  0  0  0  0
  151.2351  138.6425  153.8357 H   0  0  0  0  0  0  0  0  0  0  0  0
  146.1094  134.1936  150.9668 H   0  0  0  0  0  0  0  0  0  0  0  0
  1  2  1  0  0  0  0
  1 23  1  0  0  0  0
  1 24  1  0  0  0  0
  1 25  1  0  0  0  0
  2 22  1  0  0  0  0
  2  3  2  0  0  0  0
  3  4  1  0  0  0  0
  3 26  1  0  0  0  0
  4  5  1  0  0  0  0
  4  6  2  0  0  0  0
  5 27  1  0  0  0  0
  5 28  1  0  0  0  0
  5 29  1  0  0  0  0
  6  7  1  0  0  0  0
  7  8  1  0  0  0  0
  7 22  2  0  0  0  0
  8  9  1  0  0  0  0
  8 30  1  0  0  0  0
  9 10  2  0  0  0  0
  9 11  1  0  0  0  0
 11 12  1  0  0  0  0
 11 31  1  0  0  0  0
 12 13  1  0  0  0  0
 12 14  1  0  0  0  0
 12 32  1  0  0  0  0
 13 33  1  0  0  0  0
 13 34  1  0  0  0  0
 13 35  1  0  0  0  0
 14 15  1  0  0  0  0
 14 16  1  0  0  0  0
 14 36  1  0  0  0  0
 15 37  1  0  0  0  0
 15 38  1  0  0  0  0
 15 39  1  0  0  0  0
 16 21  1  0  0  0  0
 16 17  1  0  0  0  0
 17 18  1  0  0  0  0
 17 40  1  0  0  0  0
 17 41  1  0  0  0  0
 18 19  1  0  0  0  0
 18 42  1  0  0  0  0
 18 43  1  0  0  0  0
 19 20  1  0  0  0  0
 20 21  1  0  0  0  0
 20 44  1  0  0  0  0
 20 45  1  0  0  0  0
 21 46  1  0  0  0  0
 21 47  1  0  0  0  0
 22 48  1  0  0  0  0
M  END
> <s_m_source_file>
AV-unprocessed.smi

> <i_m_source_file_index>
2355

> <i_lp_mmshare_version>
43012

> <i_f3d_flags>
0

> <s_epik_input>
W0NIM11jMVtjSF1jKFtDSDNdKW5jKFtjSF0xKVtOSF1DKD1PKVtOSF1bQ0BIXShbQ0gzXSlbQ0BIXShbQ0gzXSlOMltDSDJdW0NIMl1PW0NIMl1bQ0gyXTI=

> <s_epik_cmdline>
J2VwaWtfcHl0aG9uJywgJy1waCcsICc3LjAnLCAnLXRuJywgJzgnLCAnLW1hJywgJzIwMCcsICctbWV0YWxfYmluZGluZycsICctaW1hZScsICc8aW5maWxlLm1hZT4nLCAnLW9tYWUnLCAnPG91dGZpbGUubWFlPic=

> <r_epik_Ionization_Penalty>
0.266238

> <r_epik_Ionization_Penalty_Charging>
0

> <r_epik_Ionization_Penalty_Neutral>
0.266238

> <r_epik_State_Penalty>
0.257924

> <r_epik_Charging_Adjusted_Penalty>
0.257924

> <i_epik_Tot_Q>
0

> <i_epik_Tot_abs_Q>
0

> <r_epik_Metal_State_Penalty>
0.257904

> <b_epik_Metal_Only>
0

> <s_lp_Force_Field>
OPLS_2005

> <r_lp_Energy>
33.1774

> <b_lp_Chiralities_Consistent>
1

> <s_lp_Variant>
AV-unprocessed.smi:2355-2

> <Gold.Version>
5.8.1

> <Gold.Id.Protein>
6NUR|6NUR_protein|mol2

> <Gold.PLP.Fitness>
40.6157

> <Gold.PLP.PLP>
-34.9647

> <Gold.PLP.part.hbond>
-2.0000

> <Gold.PLP.part.metal>
0.0000

> <Gold.PLP.part.buried>
-5.2741

> <Gold.PLP.part.nonpolar>
-27.7168

> <Gold.PLP.part.repulsive>
0.5013

> <Gold.PLP.ligand.clash>
0.0000

> <Gold.PLP.ligand.torsion>
0.2370

> <Gold.PLP.Chemscore.Hbond>
2.0000

> <Gold.PLP.Chemscore.CHOScore>
0.0000

> <Gold.PLP.Chemscore.Metal>
0.0000

> <Gold.Chemscore.Hbonds>
donor molecule, donor type, donor heavy atom, donor atom, acceptor molecule, acceptor atom, score
      L1  H     8    30       P1  7948  1.00
      L1  H    11    31       P1  7948  1.00

> <Gold.PLP.Chemscore.Internal.Correction>
0.1250

> <Gold.Rescore>
     Score         DG    S(hbond)    S(metal)    S(lipo)     H(rot)  DE(clash)    DE(int)     intcor
     14.65     -17.46       1.61        0.00      87.03       1.40       0.02       2.79       ----

> <Gold.Chemscore.Fitness>
14.6473

> <Gold.Chemscore.DG>
-17.4561

> <Gold.Chemscore.ZeroCoef>
-5.4800

> <Gold.Chemscore.Hbond>
1.6112

> <Gold.Chemscore.Metal>
0.0000

> <Gold.Chemscore.Lipo>
87.0281

> <Gold.Chemscore.Internal_Hbond>
0.0000

> <Gold.Chemscore.DEClash>
0.0212

> <Gold.Chemscore.DEInternal>
2.7876

> <Gold.Chemscore.Rot>
1.4015

> <Gold.Chemscore.Internal.Correction>
   9.000000E+99

> <Gold.Chemscore.Hbonds>
donor molecule, donor type, donor heavy atom, donor atom, acceptor molecule, acceptor atom, score
      L1  H     8    30       P1  7948  0.33
      L1  H    11    31       P1  7948  0.60

> <Gold.Chemscore.Hbond.Weighted>
-5.3816

> <Gold.Chemscore.Metal.Weighted>
-0.0000

> <Gold.Chemscore.Lipo.Weighted>
-10.1823

> <Gold.Chemscore.Internal_Hbond.Weighted>
0.0000

> <Gold.Chemscore.DEClash.Weighted>
0.0212

> <Gold.Chemscore.DEInternal.Weighted>
2.7876

> <Gold.Chemscore.Rot.Weighted>
3.5878

> <Gold.Chemscore.Internal.Correction.Weighted>
   9.000000E+99

> <Gold.Protein.RotatedTorsions>
[ 6907 6896 6895 6894 ] final  132.27 input  -60.11 | X-H torsion
[ 7974 7965 7964 7962 ] final  -32.83 input  175.53 | X-H torsion
[ 8008 7997 7996 7995 ] final   68.58 input   59.86 | X-H torsion
[ 10167 10162 10161 10158 ] final  130.42 input  -65.29 | X-H torsion
[ 10718 10713 10712 10709 ] final   59.57 input   66.30 | X-H torsion
[ 10763 10752 10751 10750 ] final  119.61 input  -60.55 | X-H torsion
[ 11005 11000 10999 10996 ] final   19.98 input  -57.11 | X-H torsion

> <Gold.Protein.ActiveResidues>
 VAL166  LYS551  ARG553  GLY616  TRP617  ASP618  TYR619  PRO620  LYS621  CYS622 
 ASP623  PHE694  ASN695  SER759  ASP760  ASP761  ALA762  ILE779  LEU786  VAL792 
 PHE793  MET794  SER795  GLU796  ALA797  LYS798  CYS799  TRP800  GLU811  SER814 

> <Gold.Protein.RotatedAtoms>
  152.3341  133.5992  159.5830 H   0  0  0  0  0  0  0  0  0  0  0  0  # atno 6907 bound_to 6896
  150.7440  133.9822  159.3589 H   0  0  0  0  0  0  0  0  0  0  0  0  # atno 6908 bound_to 6896
  151.7694  135.0791  160.0408 H   0  0  0  0  0  0  0  0  0  0  0  0  # atno 6909 bound_to 6896
  146.0959  140.5841  142.8843 H   0  0  0  0  0  0  0  0  0  0  0  0  # atno 7974 bound_to 7965
  155.7104  140.3494  155.4971 H   0  0  0  0  0  0  0  0  0  0  0  0  # atno 8008 bound_to 7997
  155.9361  140.1093  157.1116 H   0  0  0  0  0  0  0  0  0  0  0  0  # atno 8009 bound_to 7997
  154.4094  140.1222  156.4852 H   0  0  0  0  0  0  0  0  0  0  0  0  # atno 8010 bound_to 7997
  139.5431  144.6748  151.4561 H   0  0  0  0  0  0  0  0  0  0  0  0  # atno 10167 bound_to 10162
  157.5686  130.8890  149.9229 H   0  0  0  0  0  0  0  0  0  0  0  0  # atno 10718 bound_to 10713
  153.5857  135.3475  155.2892 H   0  0  0  0  0  0  0  0  0  0  0  0  # atno 10763 bound_to 10752
  154.8660  135.4193  154.2571 H   0  0  0  0  0  0  0  0  0  0  0  0  # atno 10764 bound_to 10752
  153.3367  135.7047  153.6972 H   0  0  0  0  0  0  0  0  0  0  0  0  # atno 10765 bound_to 10752
  140.4077  134.1651  155.7666 H   0  0  0  0  0  0  0  0  0  0  0  0  # atno 11005 bound_to 11000
  144.7395  140.4902  143.6879 LP  0  0  0  0  0  0  0  0  0  0  0  0  # atno 17320 bound_to 7965
  145.5949  139.1498  143.3161 LP  0  0  0  0  0  0  0  0  0  0  0  0  # atno 17321 bound_to 7965
  140.6668  143.8380  150.6952 LP  0  0  0  0  0  0  0  0  0  0  0  0  # atno 17342 bound_to 10162
  140.1791  143.4129  152.1945 LP  0  0  0  0  0  0  0  0  0  0  0  0  # atno 17343 bound_to 10162
  156.0733  130.3682  150.0731 LP  0  0  0  0  0  0  0  0  0  0  0  0  # atno 17370 bound_to 10713
  156.8886  130.9581  151.3591 LP  0  0  0  0  0  0  0  0  0  0  0  0  # atno 17371 bound_to 10713
  141.1833  133.8367  157.1180 LP  0  0  0  0  0  0  0  0  0  0  0  0  # atno 17394 bound_to 11000
  140.0290  134.9910  157.0743 LP  0  0  0  0  0  0  0  0  0  0  0  0  # atno 17395 bound_to 11000

$$$$
