AV-unprocessed.smi:1056|AV-procd|sdf|4647|dock2
  -GOLD-   22720 3153D 1   1.00000     0.00000
 Structure written by MMmdl.
 45 47  0  0  0  0  0  0  0  0  4 V2000
  152.9623  143.1719  161.3664 C   0  0  0  0  0  0  0  0  0  0  0  0
  152.6087  142.4693  160.0666 C   0  0  0  0  0  0  0  0  0  0  0  0
  151.5196  142.9585  159.3104 C   0  0  0  0  0  0  0  0  0  0  0  0
  151.2217  142.2958  158.1257 C   0  0  0  0  0  0  0  0  0  0  0  0
  150.2269  142.5259  157.1730 N   0  3  0  0  0  0  0  0  0  0  0  0
  150.3335  141.6075  156.1734 C   0  0  0  0  0  0  0  0  0  0  0  0
  151.3810  140.7929  156.4753 N   0  0  0  0  0  0  0  0  0  0  0  0
  151.9262  139.6445  155.7395 C   0  0  0  0  0  0  0  0  0  0  0  0
  150.8316  138.7341  155.1480 C   0  0  1  0  0  0  0  0  0  0  0  0
  150.4217  139.2596  153.8992 O   0  0  0  0  0  0  0  0  0  0  0  0
  151.3447  137.2940  154.9458 C   0  0  0  0  0  0  0  0  0  0  0  0
  150.2596  136.3434  154.5967 N   0  3  2  0  0  0  0  0  0  0  0  0
  149.0845  136.4206  155.5040 C   0  0  0  0  0  0  0  0  0  0  0  0
  147.8963  135.6488  154.8998 C   0  0  0  0  0  0  0  0  0  0  0  0
  148.3311  134.3241  154.4410 N   0  5  0  0  0  0  0  0  0  0  0  0
  149.6095  133.9527  154.1175 C   0  0  0  0  0  0  0  0  0  0  0  0
  149.9346  132.8789  153.6159 O   0  0  0  0  0  0  0  0  0  0  0  0
  150.7548  134.9459  154.4545 C   0  0  0  0  0  0  0  0  0  0  0  0
  151.9651  141.1840  157.6846 C   0  0  0  0  0  0  0  0  0  0  0  0
  153.0406  140.6882  158.4173 C   0  0  0  0  0  0  0  0  0  0  0  0
  153.3591  141.3481  159.6260 C   0  0  0  0  0  0  0  0  0  0  0  0
  154.5267  140.8304  160.4485 C   0  0  0  0  0  0  0  0  0  0  0  0
  152.2810  143.9980  161.5722 H   0  0  0  0  0  0  0  0  0  0  0  0
  153.9728  143.5781  161.3185 H   0  0  0  0  0  0  0  0  0  0  0  0
  152.9067  142.4781  162.2053 H   0  0  0  0  0  0  0  0  0  0  0  0
  150.9438  143.8113  159.6396 H   0  0  0  0  0  0  0  0  0  0  0  0
  149.6995  141.5358  155.3012 H   0  0  0  0  0  0  0  0  0  0  0  0
  152.5620  140.0382  154.9450 H   0  0  0  0  0  0  0  0  0  0  0  0
  152.5801  139.0857  156.4102 H   0  0  0  0  0  0  0  0  0  0  0  0
  149.9716  138.7443  155.8164 H   0  0  0  0  0  0  0  0  0  0  0  0
  149.9289  138.6001  153.4348 H   0  0  0  0  0  0  0  0  0  0  0  0
  152.0999  137.3011  154.1578 H   0  0  0  0  0  0  0  0  0  0  0  0
  151.8498  136.9361  155.8444 H   0  0  0  0  0  0  0  0  0  0  0  0
  149.3513  136.0081  156.4785 H   0  0  0  0  0  0  0  0  0  0  0  0
  148.7851  137.4538  155.6749 H   0  0  0  0  0  0  0  0  0  0  0  0
  147.0964  135.5840  155.6367 H   0  0  0  0  0  0  0  0  0  0  0  0
  147.4914  136.2299  154.0710 H   0  0  0  0  0  0  0  0  0  0  0  0
  151.5053  134.9028  153.6640 H   0  0  0  0  0  0  0  0  0  0  0  0
  151.2362  134.6257  155.3797 H   0  0  0  0  0  0  0  0  0  0  0  0
  153.6114  139.8352  158.0813 H   0  0  0  0  0  0  0  0  0  0  0  0
  155.0078  139.9781  159.9678 H   0  0  0  0  0  0  0  0  0  0  0  0
  154.1880  140.5093  161.4338 H   0  0  0  0  0  0  0  0  0  0  0  0
  155.2798  141.6083  160.5774 H   0  0  0  0  0  0  0  0  0  0  0  0
  149.9255  136.6039  153.6803 H   0  0  0  0  0  0  0  0  0  0  0  0
  149.5257  143.2554  157.2001 H   0  0  0  0  0  0  0  0  0  0  0  0
  1  2  1  0  0  0  0
  1 23  1  0  0  0  0
  1 24  1  0  0  0  0
  1 25  1  0  0  0  0
  2 21  1  0  0  0  0
  2  3  2  0  0  0  0
  3  4  1  0  0  0  0
  3 26  1  0  0  0  0
  4 19  2  0  0  0  0
  4  5  1  0  0  0  0
  5  6  2  0  0  0  0
  5 45  1  0  0  0  0
  6  7  1  0  0  0  0
  6 27  1  0  0  0  0
  7  8  1  0  0  0  0
  7 19  1  0  0  0  0
  8  9  1  0  0  0  0
  8 28  1  0  0  0  0
  8 29  1  0  0  0  0
  9 10  1  0  0  0  0
  9 11  1  0  0  0  0
  9 30  1  0  0  0  0
 10 31  1  0  0  0  0
 11 12  1  0  0  0  0
 11 32  1  0  0  0  0
 11 33  1  0  0  0  0
 12 18  1  0  0  0  0
 12 13  1  0  0  0  0
 12 44  1  0  0  0  0
 13 14  1  0  0  0  0
 13 34  1  0  0  0  0
 13 35  1  0  0  0  0
 14 15  1  0  0  0  0
 14 36  1  0  0  0  0
 14 37  1  0  0  0  0
 15 16  1  0  0  0  0
 16 17  2  0  0  0  0
 16 18  1  0  0  0  0
 18 38  1  0  0  0  0
 18 39  1  0  0  0  0
 19 20  1  0  0  0  0
 20 21  2  0  0  0  0
 20 40  1  0  0  0  0
 21 22  1  0  0  0  0
 22 41  1  0  0  0  0
 22 42  1  0  0  0  0
 22 43  1  0  0  0  0
M  CHG  1   5   1
M  CHG  1  12   1
M  CHG  1  15  -1
M  END
> <s_m_source_file>
AV-unprocessed.smi

> <i_m_source_file_index>
1056

> <i_lp_mmshare_version>
43012

> <i_f3d_flags>
0

> <s_epik_input>
W0NIM11jKFtjSF0xKWMoW0NIM10pW2NIXWMoYzEyKW4oW2NIXW4yKVtDSDJdW0NASF0oW09IXSlbQ0gyXU4zW0NIMl1bQ0gyXVtOSF1DKD1PKVtDSDJdMw==

> <s_epik_cmdline>
J2VwaWtfcHl0aG9uJywgJy1waCcsICc3LjAnLCAnLXRuJywgJzgnLCAnLW1hJywgJzIwMCcsICctbWV0YWxfYmluZGluZycsICctaW1hZScsICc8aW5maWxlLm1hZT4nLCAnLW9tYWUnLCAnPG91dGZpbGUubWFlPic=

> <r_epik_Ionization_Penalty>
6.22415

> <r_epik_Ionization_Penalty_Charging>
6.22415

> <r_epik_Ionization_Penalty_Neutral>
4.02797e-07

> <r_epik_State_Penalty>
6.37716

> <r_epik_Charging_Adjusted_Penalty>
12.6013

> <i_epik_Tot_Q>
1

> <i_epik_Tot_abs_Q>
3

> <r_epik_Metal_State_Penalty>
2.53509

> <b_epik_Metal_Only>
1

> <s_lp_Force_Field>
OPLS_2005

> <r_lp_Energy>
25.2777

> <b_lp_Chiralities_Consistent>
1

> <s_lp_Variant>
AV-unprocessed.smi:1056-18

> <Gold.Version>
5.8.1

> <Gold.Id.Protein>
6NUR|6NUR_protein|mol2

> <Gold.PLP.Fitness>
57.1592

> <Gold.PLP.PLP>
-43.2657

> <Gold.PLP.part.hbond>
-4.0000

> <Gold.PLP.part.metal>
0.0000

> <Gold.PLP.part.buried>
-4.1464

> <Gold.PLP.part.nonpolar>
-35.0005

> <Gold.PLP.part.repulsive>
0.3233

> <Gold.PLP.ligand.clash>
0.0000

> <Gold.PLP.ligand.torsion>
0.6061

> <Gold.PLP.Chemscore.Hbond>
5.0000

> <Gold.PLP.Chemscore.CHOScore>
0.0000

> <Gold.PLP.Chemscore.Metal>
0.0000

> <Gold.Chemscore.Hbonds>
donor molecule, donor type, donor heavy atom, donor atom, acceptor molecule, acceptor atom, score
      L1  H     5    45       P1  8028  0.71
      L1  H    12    44       P1  7948  1.89
      P1  H  7989  7998       L1    10  0.98

> <Gold.PLP.Chemscore.Internal.Correction>
0.1057

> <Gold.Rescore>
     Score         DG    S(hbond)    S(metal)    S(lipo)     H(rot)  DE(clash)    DE(int)     intcor
     17.75     -19.79       2.46        0.00     103.91       2.37       1.25       0.79       ----

> <Gold.Chemscore.Fitness>
17.7465

> <Gold.Chemscore.DG>
-19.7858

> <Gold.Chemscore.ZeroCoef>
-5.4800

> <Gold.Chemscore.Hbond>
2.4618

> <Gold.Chemscore.Metal>
0.0000

> <Gold.Chemscore.Lipo>
103.9050

> <Gold.Chemscore.Internal_Hbond>
0.0000

> <Gold.Chemscore.DEClash>
1.2541

> <Gold.Chemscore.DEInternal>
0.7853

> <Gold.Chemscore.Rot>
2.3724

> <Gold.Chemscore.Internal.Correction>
   9.000000E+99

> <Gold.Chemscore.Hbonds>
donor molecule, donor type, donor heavy atom, donor atom, acceptor molecule, acceptor atom, score
      L1  H     5    45       P1  8028  0.32
      L1  H    12    44       P1  7948  0.26
      P1  H  7989  7998       L1    10  0.58

> <Gold.Chemscore.Hbond.Weighted>
-8.2223

> <Gold.Chemscore.Metal.Weighted>
-0.0000

> <Gold.Chemscore.Lipo.Weighted>
-12.1569

> <Gold.Chemscore.Internal_Hbond.Weighted>
0.0000

> <Gold.Chemscore.DEClash.Weighted>
1.2541

> <Gold.Chemscore.DEInternal.Weighted>
0.7853

> <Gold.Chemscore.Rot.Weighted>
6.0734

> <Gold.Chemscore.Internal.Correction.Weighted>
   9.000000E+99

> <Gold.Protein.RotatedTorsions>
[ 6907 6896 6895 6894 ] final  174.56 input  -60.11 | X-H torsion
[ 7974 7965 7964 7962 ] final  105.79 input  175.53 | X-H torsion
[ 8008 7997 7996 7995 ] final   53.51 input   59.86 | X-H torsion
[ 10167 10162 10161 10158 ] final  166.17 input  -65.29 | X-H torsion
[ 10718 10713 10712 10709 ] final  102.96 input   66.30 | X-H torsion
[ 10763 10752 10751 10750 ] final  -22.31 input  -60.55 | X-H torsion
[ 11005 11000 10999 10996 ] final    6.83 input  -57.11 | X-H torsion

> <Gold.Protein.ActiveResidues>
 VAL166  LYS551  ARG553  GLY616  TRP617  ASP618  TYR619  PRO620  LYS621  CYS622 
 ASP623  PHE694  ASN695  SER759  ASP760  ASP761  ALA762  ILE779  LEU786  VAL792 
 PHE793  MET794  SER795  GLU796  ALA797  LYS798  CYS799  TRP800  GLU811  SER814 

> <Gold.Protein.RotatedAtoms>
  151.7503  133.3327  159.3389 H   0  0  0  0  0  0  0  0  0  0  0  0  # atno 6907 bound_to 6896
  150.7538  134.6198  159.6139 H   0  0  0  0  0  0  0  0  0  0  0  0  # atno 6908 bound_to 6896
  152.3473  134.7056  160.0298 H   0  0  0  0  0  0  0  0  0  0  0  0  # atno 6909 bound_to 6896
  145.3150  139.2529  143.3742 H   0  0  0  0  0  0  0  0  0  0  0  0  # atno 7974 bound_to 7965
  155.4695  140.3464  155.4324 H   0  0  0  0  0  0  0  0  0  0  0  0  # atno 8008 bound_to 7997
  156.1110  140.1461  156.9368 H   0  0  0  0  0  0  0  0  0  0  0  0  # atno 8009 bound_to 7997
  154.4756  140.0886  156.7232 H   0  0  0  0  0  0  0  0  0  0  0  0  # atno 8010 bound_to 7997
  139.4919  144.4055  151.9360 H   0  0  0  0  0  0  0  0  0  0  0  0  # atno 10167 bound_to 10162
  157.6787  131.0766  150.5482 H   0  0  0  0  0  0  0  0  0  0  0  0  # atno 10718 bound_to 10713
  153.6499  135.6981  153.5212 H   0  0  0  0  0  0  0  0  0  0  0  0  # atno 10763 bound_to 10752
  153.2715  135.4213  155.0991 H   0  0  0  0  0  0  0  0  0  0  0  0  # atno 10764 bound_to 10752
  154.8479  135.3579  154.6044 H   0  0  0  0  0  0  0  0  0  0  0  0  # atno 10765 bound_to 10752
  140.5550  134.0246  155.7951 H   0  0  0  0  0  0  0  0  0  0  0  0  # atno 11005 bound_to 11000
  146.3103  140.3695  142.8673 LP  0  0  0  0  0  0  0  0  0  0  0  0  # atno 17320 bound_to 7965
  144.8985  140.7612  143.5882 LP  0  0  0  0  0  0  0  0  0  0  0  0  # atno 17321 bound_to 7965
  140.3495  144.3106  150.5952 LP  0  0  0  0  0  0  0  0  0  0  0  0  # atno 17342 bound_to 10162
  140.5497  143.2208  151.7948 LP  0  0  0  0  0  0  0  0  0  0  0  0  # atno 17343 bound_to 10162
  156.5788  130.4299  149.5987 LP  0  0  0  0  0  0  0  0  0  0  0  0  # atno 17370 bound_to 10713
  156.2679  130.7000  151.1788 LP  0  0  0  0  0  0  0  0  0  0  0  0  # atno 17371 bound_to 10713
  141.1149  133.9557  157.2842 LP  0  0  0  0  0  0  0  0  0  0  0  0  # atno 17394 bound_to 11000
  139.9436  135.0187  156.8783 LP  0  0  0  0  0  0  0  0  0  0  0  0  # atno 17395 bound_to 11000

$$$$
