AV-unprocessed.smi:72|AV-procd|sdf|758|dock9
  -GOLD-   2262017 93D 1   1.00000     0.00000
 Structure written by MMmdl.
 29 30  0  0  0  0  0  0  0  0  1 V2000
  145.8133  138.7236  152.7836 N   0  0  0  0  0  0  0  0  0  0  0  0
  145.5659  137.4002  152.4834 C   0  0  0  0  0  0  0  0  0  0  0  0
  145.8209  137.0018  151.1637 N   0  0  0  0  0  0  0  0  0  0  0  0
  145.5809  135.7616  150.8764 C   0  0  0  0  0  0  0  0  0  0  0  0
  145.0683  134.8413  151.8748 N   0  0  0  0  0  0  0  0  0  0  0  0
  144.8036  133.3915  151.5356 C   0  0  1  0  0  0  0  0  0  0  0  0
  143.8179  133.3311  150.5469 O   0  0  0  0  0  0  0  0  0  0  0  0
  144.1864  132.3712  149.5623 C   0  0  1  0  0  0  0  0  0  0  0  0
  143.4946  132.6958  148.2291 C   0  0  0  0  0  0  0  0  0  0  0  0
  143.4626  134.0926  148.0268 O   0  0  0  0  0  0  0  0  0  0  0  0
  145.7079  132.5213  149.5177 C   0  0  2  0  0  0  0  0  0  0  0  0
  146.3578  131.4136  148.9230 O   0  0  0  0  0  0  0  0  0  0  0  0
  146.0723  132.7189  150.9866 C   0  0  2  0  0  0  0  0  0  0  0  0
  146.3220  131.4946  151.6519 O   0  0  0  0  0  0  0  0  0  0  0  0
  144.8557  135.3064  153.2018 C   0  0  0  0  0  0  0  0  0  0  0  0
  144.4601  134.5361  154.0764 O   0  0  0  0  0  0  0  0  0  0  0  0
  145.1232  136.6571  153.4569 N   0  0  0  0  0  0  0  0  0  0  0  0
  144.4115  132.9181  152.4367 H   0  0  0  0  0  0  0  0  0  0  0  0
  143.9254  131.3708  149.9142 H   0  0  0  0  0  0  0  0  0  0  0  0
  145.9686  133.4228  148.9615 H   0  0  0  0  0  0  0  0  0  0  0  0
  146.9454  133.3626  151.1045 H   0  0  0  0  0  0  0  0  0  0  0  0
  145.6680  139.1218  153.6999 H   0  0  0  0  0  0  0  0  0  0  0  0
  146.1603  139.3917  152.1108 H   0  0  0  0  0  0  0  0  0  0  0  0
  145.7475  135.3336  149.8870 H   0  0  0  0  0  0  0  0  0  0  0  0
  143.9900  132.2004  147.3934 H   0  0  0  0  0  0  0  0  0  0  0  0
  142.4621  132.3463  148.2469 H   0  0  0  0  0  0  0  0  0  0  0  0
  144.2934  134.3637  147.6673 H   0  0  0  0  0  0  0  0  0  0  0  0
  147.1479  131.2340  149.4090 H   0  0  0  0  0  0  0  0  0  0  0  0
  147.0960  131.1032  151.2764 H   0  0  0  0  0  0  0  0  0  0  0  0
  1  2  1  0  0  0  0
  1 22  1  0  0  0  0
  1 23  1  0  0  0  0
  2 17  2  0  0  0  0
  2  3  1  0  0  0  0
  3  4  2  0  0  0  0
  4  5  1  0  0  0  0
  4 24  1  0  0  0  0
  5  6  1  0  0  0  0
  5 15  1  0  0  0  0
  6 18  1  0  0  0  0
  6 13  1  0  0  0  0
  6  7  1  0  0  0  0
  7  8  1  0  0  0  0
  8 19  1  0  0  0  0
  8  9  1  0  0  0  0
  8 11  1  0  0  0  0
  9 10  1  0  0  0  0
  9 25  1  0  0  0  0
  9 26  1  0  0  0  0
 10 27  1  0  0  0  0
 11 20  1  0  0  0  0
 11 12  1  0  0  0  0
 11 13  1  0  0  0  0
 12 28  1  0  0  0  0
 13 21  1  0  0  0  0
 13 14  1  0  0  0  0
 14 29  1  0  0  0  0
 15 16  2  0  0  0  0
 15 17  1  0  0  0  0
M  END
> <s_m_source_file>
AV-unprocessed.smi

> <i_m_source_file_index>
72

> <i_lp_mmshare_version>
43012

> <i_f3d_flags>
0

> <s_epik_input>
W05IMl1jMW5bY0hdbihjKD1PKW4xKVtDQEBIXTJPW0NASF0oW0NIMl1bT0hdKVtDQEBIXShbT0hdKVtDQEhdMltPSF0=

> <s_epik_cmdline>
J2VwaWtfcHl0aG9uJywgJy1waCcsICc3LjAnLCAnLXRuJywgJzgnLCAnLW1hJywgJzIwMCcsICctbWV0YWxfYmluZGluZycsICctaW1hZScsICc8aW5maWxlLm1hZT4nLCAnLW9tYWUnLCAnPG91dGZpbGUubWFlPic=

> <r_lp_tautomer_probability>
4.77166e-05

> <r_epik_Ionization_Penalty>
1.3546

> <r_epik_Ionization_Penalty_Charging>
1.46833e-10

> <r_epik_Ionization_Penalty_Neutral>
1.3546

> <r_epik_State_Penalty>
3.51908

> <r_epik_Charging_Adjusted_Penalty>
3.51908

> <i_epik_Tot_Q>
0

> <i_epik_Tot_abs_Q>
0

> <r_epik_Metal_State_Penalty>
3.44088

> <b_epik_Metal_Only>
1

> <s_epik_Chemistry_Notes>
This compound contains an acetal/aminal-like group ( X-CH(R)-Y where X, Y are N, S, or O) that may be acid/base labile, releasing an aldehyde.

> <s_lp_Force_Field>
OPLS_2005

> <r_lp_Energy>
31.7119

> <b_lp_Chiralities_Consistent>
1

> <s_lp_Variant>
AV-unprocessed.smi:72-96

> <Gold.Version>
5.8.1

> <Gold.Id.Protein>
6NUR|6NUR_protein|mol2

> <Gold.PLP.Fitness>
42.8649

> <Gold.PLP.PLP>
-28.2250

> <Gold.PLP.part.hbond>
-6.6695

> <Gold.PLP.part.metal>
0.0000

> <Gold.PLP.part.buried>
-5.3454

> <Gold.PLP.part.nonpolar>
-18.3642

> <Gold.PLP.part.repulsive>
2.1078

> <Gold.PLP.ligand.clash>
0.0000

> <Gold.PLP.ligand.torsion>
0.1748

> <Gold.PLP.Chemscore.Hbond>
3.9913

> <Gold.PLP.Chemscore.CHOScore>
1.0000

> <Gold.PLP.Chemscore.Metal>
0.0000

> <Gold.Chemscore.Hbonds>
donor molecule, donor type, donor heavy atom, donor atom, acceptor molecule, acceptor atom, score
      L1  H    10    27       P1  7921  1.00
      L1  H    12    28       P1 10747  1.00
      L1  H    14    29       P1 10747  0.71
      P1  H 10192 10197       L1    10  1.00
      L1  C     4    24       P1  7921  1.00

> <Gold.PLP.Chemscore.Internal.Correction>
0.0157

> <Gold.Rescore>
     Score         DG    S(hbond)    S(metal)    S(lipo)     H(rot)  DE(clash)    DE(int)     intcor
     11.56     -13.11       3.73        0.00      47.69       4.06       1.42       0.12       ----

> <Gold.Chemscore.Fitness>
11.5644

> <Gold.Chemscore.DG>
-13.1081

> <Gold.Chemscore.ZeroCoef>
-5.4800

> <Gold.Chemscore.Hbond>
3.7253

> <Gold.Chemscore.Metal>
0.0000

> <Gold.Chemscore.Lipo>
47.6857

> <Gold.Chemscore.Internal_Hbond>
0.0000

> <Gold.Chemscore.DEClash>
1.4230

> <Gold.Chemscore.DEInternal>
0.1207

> <Gold.Chemscore.Rot>
4.0600

> <Gold.Chemscore.Internal.Correction>
   9.000000E+99

> <Gold.Chemscore.Hbonds>
donor molecule, donor type, donor heavy atom, donor atom, acceptor molecule, acceptor atom, score
      L1  H    10    27       P1  7921  1.00
      L1  H    12    28       P1 10747  0.93
      L1  H    14    29       P1 10747  0.71
      P1  H 10192 10197       L1    10  0.63

> <Gold.Chemscore.Hbond.Weighted>
-12.4424

> <Gold.Chemscore.Metal.Weighted>
-0.0000

> <Gold.Chemscore.Lipo.Weighted>
-5.5792

> <Gold.Chemscore.Internal_Hbond.Weighted>
0.0000

> <Gold.Chemscore.DEClash.Weighted>
1.4230

> <Gold.Chemscore.DEInternal.Weighted>
0.1207

> <Gold.Chemscore.Rot.Weighted>
10.3936

> <Gold.Chemscore.Internal.Correction.Weighted>
   9.000000E+99

> <Gold.Protein.RotatedTorsions>
[ 6907 6896 6895 6894 ] final  -51.88 input  -60.11 | X-H torsion
[ 7974 7965 7964 7962 ] final  -32.68 input  175.53 | X-H torsion
[ 8008 7997 7996 7995 ] final  173.99 input   59.86 | X-H torsion
[ 10167 10162 10161 10158 ] final  131.13 input  -65.29 | X-H torsion
[ 10718 10713 10712 10709 ] final   24.82 input   66.30 | X-H torsion
[ 10763 10752 10751 10750 ] final   58.28 input  -60.55 | X-H torsion
[ 11005 11000 10999 10996 ] final  -73.36 input  -57.11 | X-H torsion

> <Gold.Protein.ActiveResidues>
 VAL166  LYS551  ARG553  GLY616  TRP617  ASP618  TYR619  PRO620  LYS621  CYS622 
 ASP623  PHE694  ASN695  SER759  ASP760  ASP761  ALA762  ILE779  LEU786  VAL792 
 PHE793  MET794  SER795  GLU796  ALA797  LYS798  CYS799  TRP800  GLU811  SER814 

> <Gold.Protein.RotatedAtoms>
  150.8570  134.7911  159.7052 H   0  0  0  0  0  0  0  0  0  0  0  0  # atno 6907 bound_to 6896
  152.4618  134.5163  159.9779 H   0  0  0  0  0  0  0  0  0  0  0  0  # atno 6908 bound_to 6896
  151.5273  133.3417  159.2947 H   0  0  0  0  0  0  0  0  0  0  0  0  # atno 6909 bound_to 6896
  146.0971  140.5822  142.8838 H   0  0  0  0  0  0  0  0  0  0  0  0  # atno 7974 bound_to 7965
  156.1019  140.1446  156.9455 H   0  0  0  0  0  0  0  0  0  0  0  0  # atno 8008 bound_to 7997
  154.4708  140.0910  156.7185 H   0  0  0  0  0  0  0  0  0  0  0  0  # atno 8009 bound_to 7997
  155.4744  140.3443  155.4332 H   0  0  0  0  0  0  0  0  0  0  0  0  # atno 8010 bound_to 7997
  139.5398  144.6719  151.4664 H   0  0  0  0  0  0  0  0  0  0  0  0  # atno 10167 bound_to 10162
  157.1850  130.6820  149.6127 H   0  0  0  0  0  0  0  0  0  0  0  0  # atno 10718 bound_to 10713
  152.9867  135.5612  154.5526 H   0  0  0  0  0  0  0  0  0  0  0  0  # atno 10763 bound_to 10752
  154.4960  135.2795  155.1461 H   0  0  0  0  0  0  0  0  0  0  0  0  # atno 10764 bound_to 10752
  154.2910  135.6326  153.5438 H   0  0  0  0  0  0  0  0  0  0  0  0  # atno 10765 bound_to 10752
  141.1621  133.6876  156.7199 H   0  0  0  0  0  0  0  0  0  0  0  0  # atno 11005 bound_to 11000
  144.7403  140.4925  143.6874 LP  0  0  0  0  0  0  0  0  0  0  0  0  # atno 17320 bound_to 7965
  145.5927  139.1497  143.3173 LP  0  0  0  0  0  0  0  0  0  0  0  0  # atno 17321 bound_to 7965
  140.6622  143.8474  150.6901 LP  0  0  0  0  0  0  0  0  0  0  0  0  # atno 17342 bound_to 10162
  140.1872  143.4066  152.1890 LP  0  0  0  0  0  0  0  0  0  0  0  0  # atno 17343 bound_to 10162
  155.9719  130.4634  150.6180 LP  0  0  0  0  0  0  0  0  0  0  0  0  # atno 17370 bound_to 10713
  157.3916  131.0796  151.1388 LP  0  0  0  0  0  0  0  0  0  0  0  0  # atno 17371 bound_to 10713
  140.2823  134.8306  157.3944 LP  0  0  0  0  0  0  0  0  0  0  0  0  # atno 17394 bound_to 11000
  140.1421  134.4958  155.8023 LP  0  0  0  0  0  0  0  0  0  0  0  0  # atno 17395 bound_to 11000

$$$$
