AV-unprocessed.smi:2493|AV-procd|sdf|9820|dock8
  -GOLD-   2272013453D 1   1.00000     0.00000
 Structure written by MMmdl.
 41 42  0  0  0  0  0  0  0  0  1 V2000
  151.9691  145.2371  158.7310 C   0  0  0  0  0  0  0  0  0  0  0  0
  151.6164  143.8291  159.2648 C   0  0  0  0  0  0  0  0  0  0  0  0
  150.3832  143.2786  158.4927 C   0  0  0  0  0  0  0  0  0  0  0  0
  150.7183  142.6728  157.2045 N   0  0  0  0  0  0  0  0  0  0  0  0
  150.0533  141.6685  156.6115 C   0  0  0  0  0  0  0  0  0  0  0  0
  149.0677  141.1191  157.1037 O   0  0  0  0  0  0  0  0  0  0  0  0
  150.5871  141.2071  155.2551 C   0  0  0  0  0  0  0  0  0  0  0  0
  149.5608  140.3568  154.5559 C   0  0  0  0  0  0  0  0  0  0  0  0
  148.2054  140.6865  154.2562 C   0  0  0  0  0  0  0  0  0  0  0  0
  147.7239  139.5766  153.6229 C   0  0  0  0  0  0  0  0  0  0  0  0
  148.7590  138.6731  153.5757 N   0  0  0  0  0  0  0  0  0  0  0  0
  149.8868  139.1377  154.1452 N   0  0  0  0  0  0  0  0  0  0  0  0
  152.8300  142.9029  158.9754 C   0  0  0  0  0  0  0  0  0  0  0  0
  152.9220  141.6095  159.8068 C   0  0  0  0  0  0  0  0  0  0  0  0
  153.6999  141.8006  161.1201 C   0  0  0  0  0  0  0  0  0  0  0  0
  152.9505  142.5977  162.1971 C   0  0  0  0  0  0  0  0  0  0  0  0
  152.4721  143.9897  161.7492 C   0  0  0  0  0  0  0  0  0  0  0  0
  151.2772  143.9292  160.7792 C   0  0  0  0  0  0  0  0  0  0  0  0
  148.7110  137.7508  153.1664 H   0  0  0  0  0  0  0  0  0  0  0  0
  152.1603  145.2159  157.6574 H   0  0  0  0  0  0  0  0  0  0  0  0
  152.8615  145.6377  159.2120 H   0  0  0  0  0  0  0  0  0  0  0  0
  151.1682  145.9555  158.9051 H   0  0  0  0  0  0  0  0  0  0  0  0
  149.8307  142.5697  159.1119 H   0  0  0  0  0  0  0  0  0  0  0  0
  149.6839  144.0889  158.2859 H   0  0  0  0  0  0  0  0  0  0  0  0
  151.5151  143.0579  156.7182 H   0  0  0  0  0  0  0  0  0  0  0  0
  150.8554  142.0754  154.6512 H   0  0  0  0  0  0  0  0  0  0  0  0
  151.5070  140.6411  155.4059 H   0  0  0  0  0  0  0  0  0  0  0  0
  147.6723  141.6005  154.4722 H   0  0  0  0  0  0  0  0  0  0  0  0
  146.7498  139.3583  153.2106 H   0  0  0  0  0  0  0  0  0  0  0  0
  152.8189  142.6341  157.9183 H   0  0  0  0  0  0  0  0  0  0  0  0
  153.7620  143.4558  159.1004 H   0  0  0  0  0  0  0  0  0  0  0  0
  151.9373  141.1802  159.9928 H   0  0  0  0  0  0  0  0  0  0  0  0
  153.4593  140.8683  159.2140 H   0  0  0  0  0  0  0  0  0  0  0  0
  153.9418  140.8191  161.5293 H   0  0  0  0  0  0  0  0  0  0  0  0
  154.6596  142.2764  160.9135 H   0  0  0  0  0  0  0  0  0  0  0  0
  152.1021  142.0161  162.5594 H   0  0  0  0  0  0  0  0  0  0  0  0
  153.6128  142.7158  163.0553 H   0  0  0  0  0  0  0  0  0  0  0  0
  152.1501  144.5264  162.6421 H   0  0  0  0  0  0  0  0  0  0  0  0
  153.2944  144.5737  161.3356 H   0  0  0  0  0  0  0  0  0  0  0  0
  150.6620  144.8154  160.9415 H   0  0  0  0  0  0  0  0  0  0  0  0
  150.6367  143.0960  161.0721 H   0  0  0  0  0  0  0  0  0  0  0  0
  1  2  1  0  0  0  0
  1 20  1  0  0  0  0
  1 21  1  0  0  0  0
  1 22  1  0  0  0  0
  2 18  1  0  0  0  0
  2  3  1  0  0  0  0
  2 13  1  0  0  0  0
  3  4  1  0  0  0  0
  3 23  1  0  0  0  0
  3 24  1  0  0  0  0
  4  5  1  0  0  0  0
  4 25  1  0  0  0  0
  5  6  2  0  0  0  0
  5  7  1  0  0  0  0
  7 26  1  0  0  0  0
  7 27  1  0  0  0  0
  7  8  1  0  0  0  0
  8 12  2  0  0  0  0
  8  9  1  0  0  0  0
  9 10  2  0  0  0  0
  9 28  1  0  0  0  0
 10 11  1  0  0  0  0
 10 29  1  0  0  0  0
 11 12  1  0  0  0  0
 11 19  1  0  0  0  0
 13 14  1  0  0  0  0
 13 30  1  0  0  0  0
 13 31  1  0  0  0  0
 14 15  1  0  0  0  0
 14 32  1  0  0  0  0
 14 33  1  0  0  0  0
 15 16  1  0  0  0  0
 15 34  1  0  0  0  0
 15 35  1  0  0  0  0
 16 17  1  0  0  0  0
 16 36  1  0  0  0  0
 16 37  1  0  0  0  0
 17 18  1  0  0  0  0
 17 38  1  0  0  0  0
 17 39  1  0  0  0  0
 18 40  1  0  0  0  0
 18 41  1  0  0  0  0
M  END
> <s_m_source_file>
AV-unprocessed.smi

> <i_m_source_file_index>
2493

> <i_lp_mmshare_version>
43012

> <i_f3d_flags>
0

> <s_epik_input>
W0NIMl0xW0NIMl1bQ0gyXVtDSDJdW0NIMl1bQ0gyXUMxKFtDSDNdKVtDSDJdW05IXUMoPU8pW0NIMl1jMltjSF1bY0hdbltuSF0y

> <s_epik_cmdline>
J2VwaWtfcHl0aG9uJywgJy1waCcsICc3LjAnLCAnLXRuJywgJzgnLCAnLW1hJywgJzIwMCcsICctbWV0YWxfYmluZGluZycsICctaW1hZScsICc8aW5maWxlLm1hZT4nLCAnLW9tYWUnLCAnPG91dGZpbGUubWFlPic=

> <r_lp_tautomer_probability>
0.5

> <r_epik_Ionization_Penalty>
1.58956e-05

> <r_epik_Ionization_Penalty_Charging>
0

> <r_epik_Ionization_Penalty_Neutral>
1.58956e-05

> <r_epik_State_Penalty>
0.41068

> <r_epik_Charging_Adjusted_Penalty>
0.41068

> <i_epik_Tot_Q>
0

> <i_epik_Tot_abs_Q>
0

> <r_epik_Metal_State_Penalty>
0.410685

> <b_epik_Metal_Only>
0

> <s_lp_Force_Field>
OPLS_2005

> <r_lp_Energy>
20.7964

> <b_lp_Chiralities_Consistent>
1

> <s_lp_Variant>
AV-unprocessed.smi:2493-2

> <Gold.Version>
5.8.1

> <Gold.Id.Protein>
6NUR|6NUR_protein|mol2

> <Gold.PLP.Fitness>
44.4380

> <Gold.PLP.PLP>
-42.9937

> <Gold.PLP.part.hbond>
-2.6731

> <Gold.PLP.part.metal>
0.0000

> <Gold.PLP.part.buried>
-2.6534

> <Gold.PLP.part.nonpolar>
-37.0080

> <Gold.PLP.part.repulsive>
0.5375

> <Gold.PLP.ligand.clash>
0.0000

> <Gold.PLP.ligand.torsion>
0.7728

> <Gold.PLP.Chemscore.Hbond>
0.9913

> <Gold.PLP.Chemscore.CHOScore>
0.0000

> <Gold.PLP.Chemscore.Metal>
0.0000

> <Gold.Chemscore.Hbonds>
donor molecule, donor type, donor heavy atom, donor atom, acceptor molecule, acceptor atom, score
      L1  H    11    19       P1  7948  1.00

> <Gold.PLP.Chemscore.Internal.Correction>
0.0161

> <Gold.Rescore>
     Score         DG    S(hbond)    S(metal)    S(lipo)     H(rot)  DE(clash)    DE(int)     intcor
     17.23     -19.45       0.91        0.00     129.66       1.66       1.52       0.70       ----

> <Gold.Chemscore.Fitness>
17.2333

> <Gold.Chemscore.DG>
-19.4545

> <Gold.Chemscore.ZeroCoef>
-5.4800

> <Gold.Chemscore.Hbond>
0.9136

> <Gold.Chemscore.Metal>
0.0000

> <Gold.Chemscore.Lipo>
129.6639

> <Gold.Chemscore.Internal_Hbond>
0.0000

> <Gold.Chemscore.DEClash>
1.5222

> <Gold.Chemscore.DEInternal>
0.6990

> <Gold.Chemscore.Rot>
1.6592

> <Gold.Chemscore.Internal.Correction>
   9.000000E+99

> <Gold.Chemscore.Hbonds>
donor molecule, donor type, donor heavy atom, donor atom, acceptor molecule, acceptor atom, score
      L1  H    11    19       P1  7948  0.96

> <Gold.Chemscore.Hbond.Weighted>
-3.0514

> <Gold.Chemscore.Metal.Weighted>
-0.0000

> <Gold.Chemscore.Lipo.Weighted>
-15.1707

> <Gold.Chemscore.Internal_Hbond.Weighted>
0.0000

> <Gold.Chemscore.DEClash.Weighted>
1.5222

> <Gold.Chemscore.DEInternal.Weighted>
0.6990

> <Gold.Chemscore.Rot.Weighted>
4.2475

> <Gold.Chemscore.Internal.Correction.Weighted>
   9.000000E+99

> <Gold.Protein.RotatedTorsions>
[ 6907 6896 6895 6894 ] final -176.93 input  -60.11 | X-H torsion
[ 7974 7965 7964 7962 ] final  -47.20 input  175.53 | X-H torsion
[ 8008 7997 7996 7995 ] final  170.02 input   59.86 | X-H torsion
[ 10167 10162 10161 10158 ] final   97.43 input  -65.29 | X-H torsion
[ 10718 10713 10712 10709 ] final   59.46 input   66.30 | X-H torsion
[ 10763 10752 10751 10750 ] final  130.03 input  -60.55 | X-H torsion
[ 11005 11000 10999 10996 ] final  144.11 input  -57.11 | X-H torsion

> <Gold.Protein.ActiveResidues>
 VAL166  LYS551  ARG553  GLY616  TRP617  ASP618  TYR619  PRO620  LYS621  CYS622 
 ASP623  PHE694  ASN695  SER759  ASP760  ASP761  ALA762  ILE779  LEU786  VAL792 
 PHE793  MET794  SER795  GLU796  ALA797  LYS798  CYS799  TRP800  GLU811  SER814 

> <Gold.Protein.RotatedAtoms>
  151.6128  133.3346  159.3070 H   0  0  0  0  0  0  0  0  0  0  0  0  # atno 6907 bound_to 6896
  150.8147  134.7326  159.6731 H   0  0  0  0  0  0  0  0  0  0  0  0  # atno 6908 bound_to 6896
  152.4243  134.5902  160.0023 H   0  0  0  0  0  0  0  0  0  0  0  0  # atno 6909 bound_to 6896
  145.9640  140.7450  142.9443 H   0  0  0  0  0  0  0  0  0  0  0  0  # atno 7974 bound_to 7965
  156.1404  140.1549  156.8930 H   0  0  0  0  0  0  0  0  0  0  0  0  # atno 8008 bound_to 7997
  154.4982  140.0832  156.7781 H   0  0  0  0  0  0  0  0  0  0  0  0  # atno 8009 bound_to 7997
  155.4090  140.3418  155.4264 H   0  0  0  0  0  0  0  0  0  0  0  0  # atno 8010 bound_to 7997
  139.7802  144.6891  151.0033 H   0  0  0  0  0  0  0  0  0  0  0  0  # atno 10167 bound_to 10162
  157.5677  130.8884  149.9215 H   0  0  0  0  0  0  0  0  0  0  0  0  # atno 10718 bound_to 10713
  153.7514  135.3209  155.3322 H   0  0  0  0  0  0  0  0  0  0  0  0  # atno 10763 bound_to 10752
  154.8262  135.4568  154.0928 H   0  0  0  0  0  0  0  0  0  0  0  0  # atno 10764 bound_to 10752
  153.2132  135.6938  153.8172 H   0  0  0  0  0  0  0  0  0  0  0  0  # atno 10765 bound_to 10752
  140.0606  134.9206  157.1178 H   0  0  0  0  0  0  0  0  0  0  0  0  # atno 11005 bound_to 11000
  144.6821  140.2638  143.7315 LP  0  0  0  0  0  0  0  0  0  0  0  0  # atno 17320 bound_to 7965
  145.8000  139.1960  143.2054 LP  0  0  0  0  0  0  0  0  0  0  0  0  # atno 17321 bound_to 7965
  140.7818  143.4492  151.0438 LP  0  0  0  0  0  0  0  0  0  0  0  0  # atno 17342 bound_to 10162
  139.8172  143.7869  152.3175 LP  0  0  0  0  0  0  0  0  0  0  0  0  # atno 17343 bound_to 10162
  156.0724  130.3683  150.0747 LP  0  0  0  0  0  0  0  0  0  0  0  0  # atno 17370 bound_to 10713
  156.8904  130.9586  151.3589 LP  0  0  0  0  0  0  0  0  0  0  0  0  # atno 17371 bound_to 10713
  140.3775  134.2323  155.7173 LP  0  0  0  0  0  0  0  0  0  0  0  0  # atno 17394 bound_to 11000
  141.1971  133.8066  157.0640 LP  0  0  0  0  0  0  0  0  0  0  0  0  # atno 17395 bound_to 11000

$$$$
