AV-unprocessed.smi:3051|AV-procd|sdf|11634|dock7
  -GOLD-   2272017 23D 1   1.00000     0.00000
 Structure written by MMmdl.
 37 37  0  0  0  0  0  0  0  0  1 V2000
  148.1321  134.8623  155.0320 C   0  0  0  0  0  0  0  0  0  0  0  0
  149.6547  134.8393  154.8450 C   0  0  0  0  0  0  0  0  0  0  0  0
  150.1624  136.1378  154.4197 N   0  0  0  0  0  0  0  0  0  0  0  0
  151.1356  136.8284  155.0347 C   0  0  0  0  0  0  0  0  0  0  0  0
  151.7252  136.4256  156.0371 O   0  0  0  0  0  0  0  0  0  0  0  0
  151.5022  138.1823  154.4245 C   0  0  0  0  0  0  0  0  0  0  0  0
  151.5390  139.2208  155.4386 N   0  0  0  0  0  0  0  0  0  0  0  0
  152.2475  139.2370  156.6242 C   0  0  0  0  0  0  0  0  0  0  0  0
  151.9539  140.4090  157.2619 C   0  0  0  0  0  0  0  0  0  0  0  0
  151.0431  141.0436  156.3740 C   0  0  0  0  0  0  0  0  0  0  0  0
  150.4734  142.2900  156.6608 N   0  0  0  0  0  0  0  0  0  0  0  0
  150.7976  142.9927  157.8971 C   0  0  1  0  0  0  0  0  0  0  0  0
  151.7314  144.1839  157.6223 C   0  0  0  0  0  0  0  0  0  0  0  0
  149.5108  143.4580  158.5958 C   0  0  0  0  0  0  0  0  0  0  0  0
  149.8441  144.1041  159.8137 O   0  0  0  0  0  0  0  0  0  0  0  0
  148.7406  144.7820  160.3880 C   0  0  0  0  0  0  0  0  0  0  0  0
  150.7988  140.3401  155.2790 N   0  0  0  0  0  0  0  0  0  0  0  0
  147.7713  133.8949  155.3814 H   0  0  0  0  0  0  0  0  0  0  0  0
  147.6197  135.0875  154.0961 H   0  0  0  0  0  0  0  0  0  0  0  0
  147.8361  135.6123  155.7662 H   0  0  0  0  0  0  0  0  0  0  0  0
  150.1367  134.5790  155.7873 H   0  0  0  0  0  0  0  0  0  0  0  0
  149.9381  134.0674  154.1278 H   0  0  0  0  0  0  0  0  0  0  0  0
  149.7330  136.5514  153.6043 H   0  0  0  0  0  0  0  0  0  0  0  0
  152.4809  138.1244  153.9460 H   0  0  0  0  0  0  0  0  0  0  0  0
  150.7817  138.4523  153.6505 H   0  0  0  0  0  0  0  0  0  0  0  0
  152.8908  138.4189  156.9133 H   0  0  0  0  0  0  0  0  0  0  0  0
  152.3272  140.7527  158.2152 H   0  0  0  0  0  0  0  0  0  0  0  0
  149.8377  142.7198  156.0044 H   0  0  0  0  0  0  0  0  0  0  0  0
  151.3114  142.3027  158.5679 H   0  0  0  0  0  0  0  0  0  0  0  0
  151.9915  144.6978  158.5480 H   0  0  0  0  0  0  0  0  0  0  0  0
  151.2613  144.9114  156.9597 H   0  0  0  0  0  0  0  0  0  0  0  0
  152.6643  143.8656  157.1568 H   0  0  0  0  0  0  0  0  0  0  0  0
  148.9773  144.1631  157.9561 H   0  0  0  0  0  0  0  0  0  0  0  0
  148.8427  142.6137  158.7761 H   0  0  0  0  0  0  0  0  0  0  0  0
  149.0458  145.2538  161.3218 H   0  0  0  0  0  0  0  0  0  0  0  0
  147.9256  144.0919  160.6105 H   0  0  0  0  0  0  0  0  0  0  0  0
  148.3676  145.5620  159.7231 H   0  0  0  0  0  0  0  0  0  0  0  0
  1  2  1  0  0  0  0
  1 18  1  0  0  0  0
  1 19  1  0  0  0  0
  1 20  1  0  0  0  0
  2  3  1  0  0  0  0
  2 21  1  0  0  0  0
  2 22  1  0  0  0  0
  3  4  1  0  0  0  0
  3 23  1  0  0  0  0
  4  5  2  0  0  0  0
  4  6  1  0  0  0  0
  6  7  1  0  0  0  0
  6 24  1  0  0  0  0
  6 25  1  0  0  0  0
  7 17  1  0  0  0  0
  7  8  1  0  0  0  0
  8  9  2  0  0  0  0
  8 26  1  0  0  0  0
  9 10  1  0  0  0  0
  9 27  1  0  0  0  0
 10 11  1  0  0  0  0
 10 17  2  0  0  0  0
 11 12  1  0  0  0  0
 11 28  1  0  0  0  0
 12 13  1  0  0  0  0
 12 14  1  0  0  0  0
 12 29  1  0  0  0  0
 13 30  1  0  0  0  0
 13 31  1  0  0  0  0
 13 32  1  0  0  0  0
 14 15  1  0  0  0  0
 14 33  1  0  0  0  0
 14 34  1  0  0  0  0
 15 16  1  0  0  0  0
 16 35  1  0  0  0  0
 16 36  1  0  0  0  0
 16 37  1  0  0  0  0
M  END
> <s_m_source_file>
AV-unprocessed.smi

> <i_m_source_file_index>
3051

> <i_lp_mmshare_version>
43012

> <i_f3d_flags>
0

> <s_epik_input>
W0NIM11bQ0gyXVtOSF1DKD1PKVtDSDJdbjFbY0hdW2NIXWMobjEpW05IXVtDQEhdKFtDSDNdKVtDSDJdT1tDSDNd

> <s_epik_cmdline>
J2VwaWtfcHl0aG9uJywgJy1waCcsICc3LjAnLCAnLXRuJywgJzgnLCAnLW1hJywgJzIwMCcsICctbWV0YWxfYmluZGluZycsICctaW1hZScsICc8aW5maWxlLm1hZT4nLCAnLW9tYWUnLCAnPG91dGZpbGUubWFlPic=

> <r_lp_tautomer_probability>
1

> <r_epik_Ionization_Penalty>
0.00023157

> <r_epik_Ionization_Penalty_Charging>
0

> <r_epik_Ionization_Penalty_Neutral>
0.00023157

> <r_epik_State_Penalty>
-0

> <r_epik_Charging_Adjusted_Penalty>
0

> <i_epik_Tot_Q>
0

> <i_epik_Tot_abs_Q>
0

> <r_epik_Metal_State_Penalty>
-0

> <b_epik_Metal_Only>
0

> <s_lp_Force_Field>
OPLS_2005

> <r_lp_Energy>
3.21547

> <b_lp_Chiralities_Consistent>
1

> <s_lp_Variant>
AV-unprocessed.smi:3051-2

> <Gold.Version>
5.8.1

> <Gold.Id.Protein>
6NUR|6NUR_protein|mol2

> <Gold.PLP.Fitness>
39.8071

> <Gold.PLP.PLP>
-31.1520

> <Gold.PLP.part.hbond>
-5.1155

> <Gold.PLP.part.metal>
0.0000

> <Gold.PLP.part.buried>
-2.7380

> <Gold.PLP.part.nonpolar>
-24.6159

> <Gold.PLP.part.repulsive>
0.3444

> <Gold.PLP.ligand.clash>
0.0000

> <Gold.PLP.ligand.torsion>
0.3288

> <Gold.PLP.Chemscore.Hbond>
3.0911

> <Gold.PLP.Chemscore.CHOScore>
0.0000

> <Gold.PLP.Chemscore.Metal>
0.0000

> <Gold.Chemscore.Hbonds>
donor molecule, donor type, donor heavy atom, donor atom, acceptor molecule, acceptor atom, score
      L1  H     3    23       P1  7948  0.91
      L1  H    11    28       P1  8028  0.36
      P1  H  7989  7998       L1    17  0.79
      P1  H 10752 10763       L1     5  1.00

> <Gold.PLP.Chemscore.Internal.Correction>
0.0395

> <Gold.Rescore>
     Score         DG    S(hbond)    S(metal)    S(lipo)     H(rot)  DE(clash)    DE(int)     intcor
     12.90     -14.22       2.06        0.00      63.83       2.19       0.05       1.27       ----

> <Gold.Chemscore.Fitness>
12.9049

> <Gold.Chemscore.DG>
-14.2216

> <Gold.Chemscore.ZeroCoef>
-5.4800

> <Gold.Chemscore.Hbond>
2.0591

> <Gold.Chemscore.Metal>
0.0000

> <Gold.Chemscore.Lipo>
63.8294

> <Gold.Chemscore.Internal_Hbond>
0.0000

> <Gold.Chemscore.DEClash>
0.0500

> <Gold.Chemscore.DEInternal>
1.2667

> <Gold.Chemscore.Rot>
2.1890

> <Gold.Chemscore.Internal.Correction>
   9.000000E+99

> <Gold.Chemscore.Hbonds>
donor molecule, donor type, donor heavy atom, donor atom, acceptor molecule, acceptor atom, score
      L1  H     3    23       P1  7948  0.40
      L1  H    11    28       P1  8028  0.36
      P1  H  7989  7998       L1    17  0.10
      P1  H 10752 10763       L1     5  0.23

> <Gold.Chemscore.Hbond.Weighted>
-6.8774

> <Gold.Chemscore.Metal.Weighted>
-0.0000

> <Gold.Chemscore.Lipo.Weighted>
-7.4680

> <Gold.Chemscore.Internal_Hbond.Weighted>
0.0000

> <Gold.Chemscore.DEClash.Weighted>
0.0500

> <Gold.Chemscore.DEInternal.Weighted>
1.2667

> <Gold.Chemscore.Rot.Weighted>
5.6039

> <Gold.Chemscore.Internal.Correction.Weighted>
   9.000000E+99

> <Gold.Protein.RotatedTorsions>
[ 6907 6896 6895 6894 ] final   95.74 input  -60.11 | X-H torsion
[ 7974 7965 7964 7962 ] final   58.17 input  175.53 | X-H torsion
[ 8008 7997 7996 7995 ] final   23.58 input   59.86 | X-H torsion
[ 10167 10162 10161 10158 ] final   82.55 input  -65.29 | X-H torsion
[ 10718 10713 10712 10709 ] final -177.17 input   66.30 | X-H torsion
[ 10763 10752 10751 10750 ] final  101.24 input  -60.55 | X-H torsion
[ 11005 11000 10999 10996 ] final  120.15 input  -57.11 | X-H torsion

> <Gold.Protein.ActiveResidues>
 VAL166  LYS551  ARG553  GLY616  TRP617  ASP618  TYR619  PRO620  LYS621  CYS622 
 ASP623  PHE694  ASN695  SER759  ASP760  ASP761  ALA762  ILE779  LEU786  VAL792 
 PHE793  MET794  SER795  GLU796  ALA797  LYS798  CYS799  TRP800  GLU811  SER814 

> <Gold.Protein.RotatedAtoms>
  152.5441  134.0993  159.8310 H   0  0  0  0  0  0  0  0  0  0  0  0  # atno 6907 bound_to 6896
  151.1073  133.5192  159.2614 H   0  0  0  0  0  0  0  0  0  0  0  0  # atno 6908 bound_to 6896
  151.1924  135.0417  159.8892 H   0  0  0  0  0  0  0  0  0  0  0  0  # atno 6909 bound_to 6896
  145.9211  139.3730  143.0478 H   0  0  0  0  0  0  0  0  0  0  0  0  # atno 7974 bound_to 7965
  154.9832  140.3104  155.4937 H   0  0  0  0  0  0  0  0  0  0  0  0  # atno 8008 bound_to 7997
  156.2950  140.2263  156.4872 H   0  0  0  0  0  0  0  0  0  0  0  0  # atno 8009 bound_to 7997
  154.7770  140.0448  157.1085 H   0  0  0  0  0  0  0  0  0  0  0  0  # atno 8010 bound_to 7997
  139.9276  144.6172  150.8377 H   0  0  0  0  0  0  0  0  0  0  0  0  # atno 10167 bound_to 10162
  156.8256  130.9635  151.3109 H   0  0  0  0  0  0  0  0  0  0  0  0  # atno 10718 bound_to 10713
  153.3241  135.4051  155.1441 H   0  0  0  0  0  0  0  0  0  0  0  0  # atno 10763 bound_to 10752
  154.8607  135.3594  154.5557 H   0  0  0  0  0  0  0  0  0  0  0  0  # atno 10764 bound_to 10752
  153.5992  135.7071  153.5450 H   0  0  0  0  0  0  0  0  0  0  0  0  # atno 10765 bound_to 10752
  139.9174  134.9633  156.7763 H   0  0  0  0  0  0  0  0  0  0  0  0  # atno 11005 bound_to 11000
  145.8548  140.9508  143.0730 LP  0  0  0  0  0  0  0  0  0  0  0  0  # atno 17320 bound_to 7965
  144.6753  140.0454  143.7480 LP  0  0  0  0  0  0  0  0  0  0  0  0  # atno 17321 bound_to 7965
  140.7646  143.3252  151.2531 LP  0  0  0  0  0  0  0  0  0  0  0  0  # atno 17342 bound_to 10162
  139.6809  143.9857  152.2808 LP  0  0  0  0  0  0  0  0  0  0  0  0  # atno 17343 bound_to 10162
  157.6434  130.8824  149.9492 LP  0  0  0  0  0  0  0  0  0  0  0  0  # atno 17370 bound_to 10713
  156.0964  130.3659  150.0299 LP  0  0  0  0  0  0  0  0  0  0  0  0  # atno 17371 bound_to 10713
  140.6580  133.9671  155.7790 LP  0  0  0  0  0  0  0  0  0  0  0  0  # atno 17394 bound_to 11000
  141.0663  134.0272  157.3590 LP  0  0  0  0  0  0  0  0  0  0  0  0  # atno 17395 bound_to 11000

$$$$
