#       Name:                AV-unprocessed.smi:1997
#       Creating user name   scv26
#       Creation time:       Fri Mar 27 10:30:40 2020


#       File generated by GOLD software.
#

@<TRIPOS>MOLECULE
AV-unprocessed.smi:1997
    43    45     1
SMALL
NO_CHARGES


@<TRIPOS>ATOM
      1 ****         0.6817   0.3978  -0.0254 O.2            1 S1                 0.0000
      2 ****         0.0572  -0.5520   0.4532 C.2            1 S1                 0.0000
      3 ****         0.5804  -1.7312   0.8598 N.pl3          1 S1                -1.0000
      4 ****         1.9024  -1.9478   0.7617 C.2            1 S1                 0.0000
      5 ****         2.7304  -1.8279   1.8090 N.2            1 S1                 0.0000
      6 ****         4.0535  -2.0976   1.4908 N.2            1 S1                 0.0000
      7 ****         4.2058  -2.4241   0.2053 C.2            1 S1                 0.0000
      8 ****         5.5359  -2.7552  -0.3841 C.3            1 S1                 0.0000
      9 ****         6.5618  -1.6739  -0.6347 C.3            1 S1                 0.0000
     10 ****         5.8934  -2.3577  -1.7997 C.3            1 S1                 0.0000
     11 ****         2.7157  -2.4360  -0.7246 S.3            1 S1                 0.0000
     12 ****        -1.2734  -0.4695   0.6061 N.am           1 S1                 0.0000
     13 ****        -2.1169   0.6748   0.2495 C.3            1 S1                 0.0000
     14 ****        -3.5528   0.1459   0.0291 C.3            1 S1                 0.0000
     15 ****        -4.4232   1.0600  -0.8511 C.3            1 S1                 0.0000
     16 ****        -4.7231   2.4435  -0.2543 C.3            1 S1                 0.0000
     17 ****        -3.4689   3.3046  -0.0273 C.3            1 S1                 0.0000
     18 ****        -2.7392   2.9032   1.1680 N.am           1 S1                 0.0000
     19 ****        -2.1315   1.7265   1.3835 C.2            1 S1                 0.0000
     20 ****        -1.6022   1.4922   2.4697 O.2            1 S1                 0.0000
     21 ****         5.8876  -3.7192  -0.0221 H              1 S1                 0.0000
     22 ****         6.2737  -0.6460  -0.4231 H              1 S1                 0.0000
     23 ****         7.6042  -1.9167  -0.4389 H              1 S1                 0.0000
     24 ****         6.4895  -3.0578  -2.3812 H              1 S1                 0.0000
     25 ****         5.1720  -1.7755  -2.3692 H              1 S1                 0.0000
     26 ****        -1.7402  -1.2674   1.0112 H              1 S1                 0.0000
     27 ****        -1.7374   1.1210  -0.6713 H              1 S1                 0.0000
     28 ****        -3.5007  -0.8219  -0.4722 H              1 S1                 0.0000
     29 ****        -4.0493  -0.0466   0.9818 H              1 S1                 0.0000
     30 ****        -3.9482   1.1811  -1.8255 H              1 S1                 0.0000
     31 ****        -5.3700   0.5551  -1.0446 H              1 S1                 0.0000
     32 ****        -5.3838   2.9719  -0.9422 H              1 S1                 0.0000
     33 ****        -5.2823   2.3396   0.6765 H              1 S1                 0.0000
     34 ****        -2.8142   3.2897  -0.8999 H              1 S1                 0.0000
     35 ****        -3.7681   4.3434   0.1136 H              1 S1                 0.0000
     36 ****        -2.7184   3.5723   1.9237 H              1 S1                 0.0000
     37 ****         1.6728   0.3360  -0.1433 LP             1 S1                 0.0000
     38 ****         0.1969   1.2297  -0.2956 LP             1 S1                 0.0000
     39 ****        -0.0166  -2.4412   1.2332 LP             1 S1                 0.0000
     40 ****         2.4255  -1.5703   2.7259 LP             1 S1                 0.0000
     41 ****         4.8058  -2.0526   2.1480 LP             1 S1                 0.0000
     42 ****        -1.1548   0.6121   2.6284 LP             1 S1                 0.0000
     43 ****        -1.6196   2.1820   3.1935 LP             1 S1                 0.0000
@<TRIPOS>BOND
    1    1    2 2     
    2    2    3 1     
    3    2   12 am    
    4    3    4 1     
    5    4   11 1     
    6    4    5 2     
    7    5    6 1     
    8    6    7 2     
    9    7    8 1     
   10    7   11 1     
   11    8   10 1     
   12    8    9 1     
   13    8   21 1     
   14    9   10 1     
   15    9   22 1     
   16    9   23 1     
   17   10   24 1     
   18   10   25 1     
   19   12   13 1     
   20   12   26 1     
   21   13   19 1     
   22   13   14 1     
   23   13   27 1     
   24   14   15 1     
   25   14   28 1     
   26   14   29 1     
   27   15   16 1     
   28   15   30 1     
   29   15   31 1     
   30   16   17 1     
   31   16   32 1     
   32   16   33 1     
   33   17   18 1     
   34   17   34 1     
   35   17   35 1     
   36   18   19 am    
   37   18   36 1     
   38   19   20 2     
   39    1   37 1     
   40    1   38 1     
   41    3   39 1     
   42    5   40 1     
   43    6   41 1     
   44   20   42 1     
   45   20   43 1     
@<TRIPOS>SUBSTRUCTURE
      1 S1             1
@<TRIPOS>SET
LONE_PAIRS      STATIC     ATOMS    <user>   **** ""
7 37 38 39 40 41 42 43
DONOR_HYDROGENS      STATIC     ATOMS    <user>   **** ""
2 26 36
ATOM$BLUE        STATIC     ATOMS    COLORGROUP SYSTEM
7 37 38 39 40 41 42 43
ATOM$RED        STATIC     ATOMS    COLORGROUP SYSTEM
2 26 36
