AV-unprocessed.smi:2121|AV-procd|sdf|8640|dock1
  -GOLD-   2272011383D 1   1.00000     0.00000
 Structure written by MMmdl.
 49 50  0  0  0  0  0  0  0  0  1 V2000
  150.2233  144.8882  159.5451 C   0  0  0  0  0  0  0  0  0  0  0  0
  151.6998  144.6653  159.1717 C   0  0  2  0  0  0  0  0  0  0  0  0
  151.8964  143.6543  158.0252 C   0  0  0  0  0  0  0  0  0  0  0  0
  151.6911  142.2854  158.4916 N   0  0  0  0  0  0  0  0  0  0  0  0
  151.5481  141.3082  157.4824 C   0  0  0  0  0  0  0  0  0  0  0  0
  150.5937  141.4833  156.4521 C   0  0  0  0  0  0  0  0  0  0  0  0
  150.4739  140.5002  155.4515 C   0  0  0  0  0  0  0  0  0  0  0  0
  151.3007  139.3618  155.5066 C   0  0  0  0  0  0  0  0  0  0  0  0
  151.1993  138.2875  154.4328 C   0  0  0  0  0  0  0  0  0  0  0  0
  149.8731  137.6932  154.3064 N   0  0  0  0  0  0  0  0  0  0  0  0
  149.0592  137.4077  155.3339 C   0  0  0  0  0  0  0  0  0  0  0  0
  149.3426  137.6521  156.5078 O   0  0  0  0  0  0  0  0  0  0  0  0
  147.7183  136.7493  154.9729 C   0  0  2  0  0  0  0  0  0  0  0  0
  147.9574  135.2446  154.7651 C   0  0  0  0  0  0  0  0  0  0  0  0
  147.1965  137.3044  153.7250 N   0  0  0  0  0  0  0  0  0  0  0  0
  146.0357  137.9647  153.6033 C   0  0  0  0  0  0  0  0  0  0  0  0
  145.8187  138.3818  152.3556 N   0  0  0  0  0  0  0  0  0  0  0  0
  145.2511  138.1718  154.5270 O   0  0  0  0  0  0  0  0  0  0  0  0
  152.2199  139.2685  156.5737 C   0  0  0  0  0  0  0  0  0  0  0  0
  152.3413  140.2095  157.5332 N   0  0  0  0  0  0  0  0  0  0  0  0
  152.4951  141.9521  159.6645 C   0  0  0  0  0  0  0  0  0  0  0  0
  152.2535  142.9742  160.7898 C   0  0  1  0  0  0  0  0  0  0  0  0
  153.1822  142.7383  161.9852 C   0  0  0  0  0  0  0  0  0  0  0  0
  152.4930  144.2932  160.3006 O   0  0  0  0  0  0  0  0  0  0  0  0
  149.6707  145.3012  158.7009 H   0  0  0  0  0  0  0  0  0  0  0  0
  150.1336  145.5912  160.3735 H   0  0  0  0  0  0  0  0  0  0  0  0
  149.7253  143.9631  159.8344 H   0  0  0  0  0  0  0  0  0  0  0  0
  152.0869  145.6270  158.8344 H   0  0  0  0  0  0  0  0  0  0  0  0
  151.2340  143.9132  157.2004 H   0  0  0  0  0  0  0  0  0  0  0  0
  152.9146  143.7319  157.6414 H   0  0  0  0  0  0  0  0  0  0  0  0
  149.9470  142.3475  156.4242 H   0  0  0  0  0  0  0  0  0  0  0  0
  149.7521  140.6194  154.6569 H   0  0  0  0  0  0  0  0  0  0  0  0
  151.5134  138.6925  153.4693 H   0  0  0  0  0  0  0  0  0  0  0  0
  151.9047  137.4934  154.6780 H   0  0  0  0  0  0  0  0  0  0  0  0
  149.5607  137.4630  153.3742 H   0  0  0  0  0  0  0  0  0  0  0  0
  146.9936  136.8971  155.7762 H   0  0  0  0  0  0  0  0  0  0  0  0
  148.3404  134.7760  155.6726 H   0  0  0  0  0  0  0  0  0  0  0  0
  148.6720  135.0520  153.9633 H   0  0  0  0  0  0  0  0  0  0  0  0
  147.0281  134.7360  154.5063 H   0  0  0  0  0  0  0  0  0  0  0  0
  147.7721  137.1938  152.9035 H   0  0  0  0  0  0  0  0  0  0  0  0
  144.9754  138.8876  152.1286 H   0  0  0  0  0  0  0  0  0  0  0  0
  146.5010  138.1827  151.6386 H   0  0  0  0  0  0  0  0  0  0  0  0
  152.8824  138.4201  156.6635 H   0  0  0  0  0  0  0  0  0  0  0  0
  152.2424  140.9544  160.0255 H   0  0  0  0  0  0  0  0  0  0  0  0
  153.5494  141.9403  159.3840 H   0  0  0  0  0  0  0  0  0  0  0  0
  151.2248  142.8935  161.1412 H   0  0  0  0  0  0  0  0  0  0  0  0
  153.0358  141.7433  162.4060 H   0  0  0  0  0  0  0  0  0  0  0  0
  152.9918  143.4648  162.7755 H   0  0  0  0  0  0  0  0  0  0  0  0
  154.2292  142.8286  161.6949 H   0  0  0  0  0  0  0  0  0  0  0  0
  1  2  1  0  0  0  0
  1 25  1  0  0  0  0
  1 26  1  0  0  0  0
  1 27  1  0  0  0  0
  2 24  1  0  0  0  0
  2  3  1  0  0  0  0
  2 28  1  0  0  0  0
  3  4  1  0  0  0  0
  3 29  1  0  0  0  0
  3 30  1  0  0  0  0
  4  5  1  0  0  0  0
  4 21  1  0  0  0  0
  5 20  1  0  0  0  0
  5  6  2  0  0  0  0
  6  7  1  0  0  0  0
  6 31  1  0  0  0  0
  7  8  2  0  0  0  0
  7 32  1  0  0  0  0
  8  9  1  0  0  0  0
  8 19  1  0  0  0  0
  9 10  1  0  0  0  0
  9 33  1  0  0  0  0
  9 34  1  0  0  0  0
 10 11  1  0  0  0  0
 10 35  1  0  0  0  0
 11 12  2  0  0  0  0
 11 13  1  0  0  0  0
 13 14  1  0  0  0  0
 13 15  1  0  0  0  0
 13 36  1  0  0  0  0
 14 37  1  0  0  0  0
 14 38  1  0  0  0  0
 14 39  1  0  0  0  0
 15 16  1  0  0  0  0
 15 40  1  0  0  0  0
 16 17  1  0  0  0  0
 16 18  2  0  0  0  0
 17 41  1  0  0  0  0
 17 42  1  0  0  0  0
 19 20  2  0  0  0  0
 19 43  1  0  0  0  0
 21 22  1  0  0  0  0
 21 44  1  0  0  0  0
 21 45  1  0  0  0  0
 22 23  1  0  0  0  0
 22 24  1  0  0  0  0
 22 46  1  0  0  0  0
 23 47  1  0  0  0  0
 23 48  1  0  0  0  0
 23 49  1  0  0  0  0
M  END
> <s_m_source_file>
AV-unprocessed.smi

> <i_m_source_file_index>
2121

> <i_lp_mmshare_version>
43012

> <i_f3d_flags>
0

> <s_epik_input>
W0NIM11bQ0BASF0xW0NIMl1OKFtDSDJdW0NASF0oTzEpW0NIM10pYzJbY0hdW2NIXWMoW2NIXW4yKVtDSDJdW05IXUMoPU8pW0NASF0oW0NIM10pW05IXUMoPU8pW05IMl0=

> <s_epik_cmdline>
J2VwaWtfcHl0aG9uJywgJy1waCcsICc3LjAnLCAnLXRuJywgJzgnLCAnLW1hJywgJzIwMCcsICctbWV0YWxfYmluZGluZycsICctaW1hZScsICc8aW5maWxlLm1hZT4nLCAnLW9tYWUnLCAnPG91dGZpbGUubWFlPic=

> <r_lp_tautomer_probability>
1

> <r_epik_Ionization_Penalty>
0.0063713

> <r_epik_Ionization_Penalty_Charging>
0

> <r_epik_Ionization_Penalty_Neutral>
0.0063713

> <r_epik_State_Penalty>
0.00467069

> <r_epik_Charging_Adjusted_Penalty>
0.00467069

> <i_epik_Tot_Q>
0

> <i_epik_Tot_abs_Q>
0

> <r_epik_Metal_State_Penalty>
-0

> <b_epik_Metal_Only>
0

> <s_lp_Force_Field>
OPLS_2005

> <r_lp_Energy>
12.6407

> <b_lp_Chiralities_Consistent>
1

> <s_lp_Variant>
AV-unprocessed.smi:2121-1

> <Gold.Version>
5.8.1

> <Gold.Id.Protein>
6NUR|6NUR_protein|mol2

> <Gold.PLP.Fitness>
51.2642

> <Gold.PLP.PLP>
-43.7096

> <Gold.PLP.part.hbond>
-4.2006

> <Gold.PLP.part.metal>
0.0000

> <Gold.PLP.part.buried>
-5.2924

> <Gold.PLP.part.nonpolar>
-34.9001

> <Gold.PLP.part.repulsive>
0.2480

> <Gold.PLP.ligand.clash>
0.0000

> <Gold.PLP.ligand.torsion>
0.9591

> <Gold.PLP.Chemscore.Hbond>
3.0244

> <Gold.PLP.Chemscore.CHOScore>
0.0000

> <Gold.PLP.Chemscore.Metal>
0.0000

> <Gold.Chemscore.Hbonds>
donor molecule, donor type, donor heavy atom, donor atom, acceptor molecule, acceptor atom, score
      L1  H    10    35       P1  7948  1.00
      L1  H    15    40       P1  7948  1.00
      L1  H    17    41       P1 10175  0.93
      P1  H  7997  8008       L1    20  0.04

> <Gold.PLP.Chemscore.Internal.Correction>
0.3994

> <Gold.Rescore>
     Score         DG    S(hbond)    S(metal)    S(lipo)     H(rot)  DE(clash)    DE(int)     intcor
     18.14     -20.46       2.88        0.00     102.34       2.58       0.00       2.33       ----

> <Gold.Chemscore.Fitness>
18.1370

> <Gold.Chemscore.DG>
-20.4636

> <Gold.Chemscore.ZeroCoef>
-5.4800

> <Gold.Chemscore.Hbond>
2.8815

> <Gold.Chemscore.Metal>
0.0000

> <Gold.Chemscore.Lipo>
102.3407

> <Gold.Chemscore.Internal_Hbond>
0.0000

> <Gold.Chemscore.DEClash>
0.0000

> <Gold.Chemscore.DEInternal>
2.3266

> <Gold.Chemscore.Rot>
2.5838

> <Gold.Chemscore.Internal.Correction>
   9.000000E+99

> <Gold.Chemscore.Hbonds>
donor molecule, donor type, donor heavy atom, donor atom, acceptor molecule, acceptor atom, score
      L1  H    10    35       P1  7948  0.80
      L1  H    15    40       P1  7948  0.97
      L1  H    17    41       P1 10175  0.84

> <Gold.Chemscore.Hbond.Weighted>
-9.6242

> <Gold.Chemscore.Metal.Weighted>
-0.0000

> <Gold.Chemscore.Lipo.Weighted>
-11.9739

> <Gold.Chemscore.Internal_Hbond.Weighted>
0.0000

> <Gold.Chemscore.DEClash.Weighted>
0.0000

> <Gold.Chemscore.DEInternal.Weighted>
2.3266

> <Gold.Chemscore.Rot.Weighted>
6.6145

> <Gold.Chemscore.Internal.Correction.Weighted>
   9.000000E+99

> <Gold.Protein.RotatedTorsions>
[ 6907 6896 6895 6894 ] final  -21.18 input  -60.11 | X-H torsion
[ 7974 7965 7964 7962 ] final  -38.63 input  175.53 | X-H torsion
[ 8008 7997 7996 7995 ] final  -84.29 input   59.86 | X-H torsion
[ 10167 10162 10161 10158 ] final  -25.44 input  -65.29 | X-H torsion
[ 10718 10713 10712 10709 ] final  102.10 input   66.30 | X-H torsion
[ 10763 10752 10751 10750 ] final   13.47 input  -60.55 | X-H torsion
[ 11005 11000 10999 10996 ] final  -33.94 input  -57.11 | X-H torsion

> <Gold.Protein.ActiveResidues>
 VAL166  LYS551  ARG553  GLY616  TRP617  ASP618  TYR619  PRO620  LYS621  CYS622 
 ASP623  PHE694  ASN695  SER759  ASP760  ASP761  ALA762  ILE779  LEU786  VAL792 
 PHE793  MET794  SER795  GLU796  ALA797  LYS798  CYS799  TRP800  GLU811  SER814 

> <Gold.Protein.RotatedAtoms>
  151.2372  135.0576  159.9010 H   0  0  0  0  0  0  0  0  0  0  0  0  # atno 6907 bound_to 6896
  152.5397  134.0473  159.8104 H   0  0  0  0  0  0  0  0  0  0  0  0  # atno 6908 bound_to 6896
  151.0661  133.5455  159.2662 H   0  0  0  0  0  0  0  0  0  0  0  0  # atno 6909 bound_to 6896
  146.0469  140.6533  142.9060 H   0  0  0  0  0  0  0  0  0  0  0  0  # atno 7974 bound_to 7965
  154.6283  140.0607  156.9700 H   0  0  0  0  0  0  0  0  0  0  0  0  # atno 8008 bound_to 7997
  155.1707  140.3290  155.4375 H   0  0  0  0  0  0  0  0  0  0  0  0  # atno 8009 bound_to 7997
  156.2469  140.1914  156.6809 H   0  0  0  0  0  0  0  0  0  0  0  0  # atno 8010 bound_to 7997
  140.7286  143.4264  151.0870 H   0  0  0  0  0  0  0  0  0  0  0  0  # atno 10167 bound_to 10162
  157.6811  131.0744  150.5353 H   0  0  0  0  0  0  0  0  0  0  0  0  # atno 10718 bound_to 10713
  153.1717  135.6813  153.8598 H   0  0  0  0  0  0  0  0  0  0  0  0  # atno 10763 bound_to 10752
  153.7960  135.3162  155.3385 H   0  0  0  0  0  0  0  0  0  0  0  0  # atno 10764 bound_to 10752
  154.8003  135.4782  154.0351 H   0  0  0  0  0  0  0  0  0  0  0  0  # atno 10765 bound_to 10752
  140.9676  133.7128  156.1470 H   0  0  0  0  0  0  0  0  0  0  0  0  # atno 11005 bound_to 11000
  144.7102  140.4011  143.7086 LP  0  0  0  0  0  0  0  0  0  0  0  0  # atno 17320 bound_to 7965
  145.6790  139.1614  143.2711 LP  0  0  0  0  0  0  0  0  0  0  0  0  # atno 17321 bound_to 7965
  139.7916  143.8210  152.3152 LP  0  0  0  0  0  0  0  0  0  0  0  0  # atno 17342 bound_to 10162
  139.8196  144.7301  150.9590 LP  0  0  0  0  0  0  0  0  0  0  0  0  # atno 17343 bound_to 10162
  156.5662  130.4268  149.6040 LP  0  0  0  0  0  0  0  0  0  0  0  0  # atno 17370 bound_to 10713
  156.2779  130.7054  151.1870 LP  0  0  0  0  0  0  0  0  0  0  0  0  # atno 17371 bound_to 10713
  140.7377  134.4185  157.5558 LP  0  0  0  0  0  0  0  0  0  0  0  0  # atno 17394 bound_to 11000
  139.8900  134.8816  156.2392 LP  0  0  0  0  0  0  0  0  0  0  0  0  # atno 17395 bound_to 11000

$$$$
