AV-unprocessed.smi:2532|AV-procd|sdf|9968|dock8
  -GOLD-   2272014 13D 1   1.00000     0.00000
 Structure written by MMmdl.
 36 38  0  0  0  0  0  0  0  0  1 V2000
  149.9952  143.2212  158.7394 O   0  0  0  0  0  0  0  0  0  0  0  0
  150.8742  143.4639  157.6579 C   0  0  2  0  0  0  0  0  0  0  0  0
  151.2226  142.1189  157.0008 C   0  0  0  0  0  0  0  0  0  0  0  0
  150.0848  141.6274  156.3122 O   0  0  0  0  0  0  0  0  0  0  0  0
  150.3702  140.4746  155.5362 C   0  0  0  0  0  0  0  0  0  0  0  0
  149.1605  140.1673  154.7127 C   0  0  0  0  0  0  0  0  0  0  0  0
  148.7031  138.9257  154.3502 C   0  0  0  0  0  0  0  0  0  0  0  0
  147.5064  138.9694  153.5761 C   0  0  0  0  0  0  0  0  0  0  0  0
  147.0583  140.2456  153.3628 C   0  0  0  0  0  0  0  0  0  0  0  0
  148.1004  141.4229  154.1136 S   0  0  0  0  0  0  0  0  0  0  0  0
  152.1301  144.1850  158.1848 C   0  0  0  0  0  0  0  0  0  0  0  0
  152.3175  144.0110  159.6146 N   0  0  0  0  0  0  0  0  0  0  0  0
  151.8855  144.8303  160.5925 C   0  0  0  0  0  0  0  0  0  0  0  0
  152.1691  144.4866  161.8456 N   0  0  0  0  0  0  0  0  0  0  0  0
  152.8679  143.3059  161.6601 C   0  0  0  0  0  0  0  0  0  0  0  0
  153.4535  142.4291  162.6015 C   0  0  0  0  0  0  0  0  0  0  0  0
  154.1252  141.2652  162.1724 C   0  0  0  0  0  0  0  0  0  0  0  0
  154.2206  140.9599  160.7990 C   0  0  0  0  0  0  0  0  0  0  0  0
  153.6454  141.8184  159.8425 C   0  0  0  0  0  0  0  0  0  0  0  0
  152.9777  142.9795  160.2745 C   0  0  0  0  0  0  0  0  0  0  0  0
  150.1500  143.8757  159.4036 H   0  0  0  0  0  0  0  0  0  0  0  0
  150.3741  144.1072  156.9324 H   0  0  0  0  0  0  0  0  0  0  0  0
  152.0229  142.2630  156.2729 H   0  0  0  0  0  0  0  0  0  0  0  0
  151.5843  141.4008  157.7390 H   0  0  0  0  0  0  0  0  0  0  0  0
  151.2316  140.6539  154.8911 H   0  0  0  0  0  0  0  0  0  0  0  0
  150.6051  139.6281  156.1829 H   0  0  0  0  0  0  0  0  0  0  0  0
  149.1837  137.9943  154.6109 H   0  0  0  0  0  0  0  0  0  0  0  0
  147.0223  138.0758  153.2101 H   0  0  0  0  0  0  0  0  0  0  0  0
  146.1828  140.5649  152.8167 H   0  0  0  0  0  0  0  0  0  0  0  0
  153.0218  143.8272  157.6679 H   0  0  0  0  0  0  0  0  0  0  0  0
  152.0625  145.2544  157.9809 H   0  0  0  0  0  0  0  0  0  0  0  0
  151.3307  145.7305  160.3714 H   0  0  0  0  0  0  0  0  0  0  0  0
  153.3859  142.6525  163.6559 H   0  0  0  0  0  0  0  0  0  0  0  0
  154.5688  140.6026  162.9012 H   0  0  0  0  0  0  0  0  0  0  0  0
  154.7355  140.0655  160.4798 H   0  0  0  0  0  0  0  0  0  0  0  0
  153.7148  141.5860  158.7901 H   0  0  0  0  0  0  0  0  0  0  0  0
  1  2  1  0  0  0  0
  1 21  1  0  0  0  0
  2  3  1  0  0  0  0
  2 11  1  0  0  0  0
  2 22  1  0  0  0  0
  3  4  1  0  0  0  0
  3 23  1  0  0  0  0
  3 24  1  0  0  0  0
  4  5  1  0  0  0  0
  5  6  1  0  0  0  0
  5 25  1  0  0  0  0
  5 26  1  0  0  0  0
  6 10  1  0  0  0  0
  6  7  2  0  0  0  0
  7  8  1  0  0  0  0
  7 27  1  0  0  0  0
  8  9  2  0  0  0  0
  8 28  1  0  0  0  0
  9 10  1  0  0  0  0
  9 29  1  0  0  0  0
 11 12  1  0  0  0  0
 11 30  1  0  0  0  0
 11 31  1  0  0  0  0
 12 20  1  0  0  0  0
 12 13  1  0  0  0  0
 13 14  2  0  0  0  0
 13 32  1  0  0  0  0
 14 15  1  0  0  0  0
 15 20  2  0  0  0  0
 15 16  1  0  0  0  0
 16 17  2  0  0  0  0
 16 33  1  0  0  0  0
 17 18  1  0  0  0  0
 17 34  1  0  0  0  0
 18 19  2  0  0  0  0
 18 35  1  0  0  0  0
 19 20  1  0  0  0  0
 19 36  1  0  0  0  0
M  END
> <s_m_source_file>
AV-unprocessed.smi

> <i_m_source_file_index>
2532

> <i_lp_mmshare_version>
43012

> <i_f3d_flags>
0

> <s_epik_input>
W2NIXTFbY0hdW2NIXVtjSF1jKGMxMiluKFtjSF1uMilbQ0gyXVtDQEhdKFtPSF0pW0NIMl1PW0NIMl1jM1tjSF1bY0hdW2NIXXMz

> <s_epik_cmdline>
J2VwaWtfcHl0aG9uJywgJy1waCcsICc3LjAnLCAnLXRuJywgJzgnLCAnLW1hJywgJzIwMCcsICctbWV0YWxfYmluZGluZycsICctaW1hZScsICc8aW5maWxlLm1hZT4nLCAnLW9tYWUnLCAnPG91dGZpbGUubWFlPic=

> <r_epik_Ionization_Penalty>
0.0678455

> <r_epik_Ionization_Penalty_Charging>
0

> <r_epik_Ionization_Penalty_Neutral>
0.0678455

> <r_epik_State_Penalty>
0.0593261

> <r_epik_Charging_Adjusted_Penalty>
0.0593261

> <i_epik_Tot_Q>
0

> <i_epik_Tot_abs_Q>
0

> <r_epik_Metal_State_Penalty>
6.23947e-05

> <b_epik_Metal_Only>
0

> <s_lp_Force_Field>
OPLS_2005

> <r_lp_Energy>
9.71279

> <b_lp_Chiralities_Consistent>
1

> <s_lp_Variant>
AV-unprocessed.smi:2532-1

> <Gold.Version>
5.8.1

> <Gold.Id.Protein>
6NUR|6NUR_protein|mol2

> <Gold.PLP.Fitness>
52.7581

> <Gold.PLP.PLP>
-52.2976

> <Gold.PLP.part.hbond>
0.0000

> <Gold.PLP.part.metal>
0.0000

> <Gold.PLP.part.buried>
-2.4884

> <Gold.PLP.part.nonpolar>
-49.2347

> <Gold.PLP.part.repulsive>
0.6906

> <Gold.PLP.ligand.clash>
0.0000

> <Gold.PLP.ligand.torsion>
1.3787

> <Gold.PLP.Chemscore.Hbond>
0.0000

> <Gold.PLP.Chemscore.CHOScore>
1.0000

> <Gold.PLP.Chemscore.Metal>
0.0000

> <Gold.Chemscore.Hbonds>
donor molecule, donor type, donor heavy atom, donor atom, acceptor molecule, acceptor atom, score
      L1  C     9    29       P1 10175  1.00

> <Gold.PLP.Chemscore.Internal.Correction>
0.2180

> <Gold.Rescore>
     Score         DG    S(hbond)    S(metal)    S(lipo)     H(rot)  DE(clash)    DE(int)     intcor
     14.02     -15.54       0.00        0.00     137.69       2.36       0.22       1.30       ----

> <Gold.Chemscore.Fitness>
14.0244

> <Gold.Chemscore.DG>
-15.5432

> <Gold.Chemscore.ZeroCoef>
-5.4800

> <Gold.Chemscore.Hbond>
0.0000

> <Gold.Chemscore.Metal>
0.0000

> <Gold.Chemscore.Lipo>
137.6918

> <Gold.Chemscore.Internal_Hbond>
0.0000

> <Gold.Chemscore.DEClash>
0.2172

> <Gold.Chemscore.DEInternal>
1.3016

> <Gold.Chemscore.Rot>
2.3620

> <Gold.Chemscore.Internal.Correction>
   9.000000E+99

> <Gold.Chemscore.Hbond.Weighted>
-0.0000

> <Gold.Chemscore.Metal.Weighted>
-0.0000

> <Gold.Chemscore.Lipo.Weighted>
-16.1099

> <Gold.Chemscore.Internal_Hbond.Weighted>
0.0000

> <Gold.Chemscore.DEClash.Weighted>
0.2172

> <Gold.Chemscore.DEInternal.Weighted>
1.3016

> <Gold.Chemscore.Rot.Weighted>
6.0468

> <Gold.Chemscore.Internal.Correction.Weighted>
   9.000000E+99

> <Gold.Protein.RotatedTorsions>
[ 6907 6896 6895 6894 ] final  -88.61 input  -60.11 | X-H torsion
[ 7974 7965 7964 7962 ] final -158.98 input  175.53 | X-H torsion
[ 8008 7997 7996 7995 ] final  -73.88 input   59.86 | X-H torsion
[ 10167 10162 10161 10158 ] final  -49.08 input  -65.29 | X-H torsion
[ 10718 10713 10712 10709 ] final  125.34 input   66.30 | X-H torsion
[ 10763 10752 10751 10750 ] final  -61.52 input  -60.55 | X-H torsion
[ 11005 11000 10999 10996 ] final -161.30 input  -57.11 | X-H torsion

> <Gold.Protein.ActiveResidues>
 VAL166  LYS551  ARG553  GLY616  TRP617  ASP618  TYR619  PRO620  LYS621  CYS622 
 ASP623  PHE694  ASN695  SER759  ASP760  ASP761  ALA762  ILE779  LEU786  VAL792 
 PHE793  MET794  SER795  GLU796  ALA797  LYS798  CYS799  TRP800  GLU811  SER814 

> <Gold.Protein.RotatedAtoms>
  150.6869  134.2715  159.4589 H   0  0  0  0  0  0  0  0  0  0  0  0  # atno 6907 bound_to 6896
  152.0637  134.9575  160.0584 H   0  0  0  0  0  0  0  0  0  0  0  0  # atno 6908 bound_to 6896
  152.0993  133.4206  159.4616 H   0  0  0  0  0  0  0  0  0  0  0  0  # atno 6909 bound_to 6896
  144.7483  140.3750  143.6067 H   0  0  0  0  0  0  0  0  0  0  0  0  # atno 7974 bound_to 7965
  154.5284  140.0771  156.8300 H   0  0  0  0  0  0  0  0  0  0  0  0  # atno 8008 bound_to 7997
  155.3428  140.3408  155.4221 H   0  0  0  0  0  0  0  0  0  0  0  0  # atno 8009 bound_to 7997
  156.1755  140.1634  156.8357 H   0  0  0  0  0  0  0  0  0  0  0  0  # atno 8010 bound_to 7997
  140.6702  143.2713  151.4163 H   0  0  0  0  0  0  0  0  0  0  0  0  # atno 10167 bound_to 10162
  157.5511  131.1094  150.8701 H   0  0  0  0  0  0  0  0  0  0  0  0  # atno 10718 bound_to 10713
  154.2858  135.6263  153.5365 H   0  0  0  0  0  0  0  0  0  0  0  0  # atno 10763 bound_to 10752
  152.9859  135.5644  154.5445 H   0  0  0  0  0  0  0  0  0  0  0  0  # atno 10764 bound_to 10752
  154.5045  135.2873  155.1369 H   0  0  0  0  0  0  0  0  0  0  0  0  # atno 10765 bound_to 10752
  140.6219  134.4741  157.5224 H   0  0  0  0  0  0  0  0  0  0  0  0  # atno 11005 bound_to 11000
  145.7038  139.1667  143.2578 LP  0  0  0  0  0  0  0  0  0  0  0  0  # atno 17320 bound_to 7965
  146.1396  140.7075  142.9373 LP  0  0  0  0  0  0  0  0  0  0  0  0  # atno 17321 bound_to 7965
  139.5967  144.1383  152.2151 LP  0  0  0  0  0  0  0  0  0  0  0  0  # atno 17342 bound_to 10162
  140.0754  144.5744  150.7161 LP  0  0  0  0  0  0  0  0  0  0  0  0  # atno 17343 bound_to 10162
  156.9225  130.5320  149.5279 LP  0  0  0  0  0  0  0  0  0  0  0  0  # atno 17370 bound_to 10713
  156.0577  130.5636  150.9127 LP  0  0  0  0  0  0  0  0  0  0  0  0  # atno 17371 bound_to 10713
  139.9150  134.8265  156.1398 LP  0  0  0  0  0  0  0  0  0  0  0  0  # atno 17394 bound_to 11000
  141.0736  133.6785  156.2191 LP  0  0  0  0  0  0  0  0  0  0  0  0  # atno 17395 bound_to 11000

$$$$
