AV-unprocessed.smi:837|AV-procd|sdf|3898|dock6
  -GOLD-   22720 1353D 1   1.00000     0.00000
 Structure written by MMmdl.
 50 52  0  0  0  0  0  0  0  0  2 V2000
  145.2538  136.9656  159.3728 C   0  0  0  0  0  0  0  0  0  0  0  0
  145.7323  136.0873  160.5486 C   0  0  2  0  0  0  0  0  0  0  0  0
  145.8234  136.9169  161.8480 C   0  0  0  0  0  0  0  0  0  0  0  0
  146.2082  136.0451  163.0532 C   0  0  0  0  0  0  0  0  0  0  0  0
  147.5236  135.2933  162.8071 C   0  0  0  0  0  0  0  0  0  0  0  0
  147.4537  134.4573  161.5168 C   0  0  0  0  0  0  0  0  0  0  0  0
  147.0469  135.2894  160.2745 C   0  0  1  0  0  0  0  0  0  0  0  0
  146.8962  134.4111  159.1272 N   0  0  0  0  0  0  0  0  0  0  0  0
  147.7609  134.6769  158.1411 C   0  0  0  0  0  0  0  0  0  0  0  0
  147.8182  134.0789  157.0674 O   0  0  0  0  0  0  0  0  0  0  0  0
  148.5352  135.7069  158.5243 N   0  0  0  0  0  0  0  0  0  0  0  0
  149.5695  136.3162  157.6789 C   0  0  0  0  0  0  0  0  0  0  0  0
  149.3694  137.8269  157.4976 C   0  0  0  0  0  0  0  0  0  0  0  0
  148.3818  138.2660  156.9071 O   0  0  0  0  0  0  0  0  0  0  0  0
  150.3237  138.6142  158.0155 N   0  0  0  0  0  0  0  0  0  0  0  0
  150.3495  140.0718  157.9306 C   0  0  0  0  0  0  0  0  0  0  0  0
  151.7549  140.6678  158.1553 C   0  0  0  0  0  0  0  0  0  0  0  0
  151.7623  142.1822  158.2775 C   0  0  0  0  0  0  0  0  0  0  0  0
  152.5838  142.8239  159.2315 C   0  0  0  0  0  0  0  0  0  0  0  0
  152.5600  144.2303  159.3306 C   0  0  0  0  0  0  0  0  0  0  0  0
  151.7181  144.9647  158.4710 C   0  0  0  0  0  0  0  0  0  0  0  0
  150.9485  144.3169  157.5687 N   0  3  0  0  0  0  0  0  0  0  0  0
  150.9412  142.9713  157.4437 C   0  0  0  0  0  0  0  0  0  0  0  0
  148.2034  136.1421  159.7478 C   0  0  0  0  0  0  0  0  0  0  0  0
  148.7181  137.0783  160.3595 O   0  0  0  0  0  0  0  0  0  0  0  0
  145.9533  137.7743  159.1593 H   0  0  0  0  0  0  0  0  0  0  0  0
  144.2900  137.4227  159.5985 H   0  0  0  0  0  0  0  0  0  0  0  0
  145.1268  136.3845  158.4594 H   0  0  0  0  0  0  0  0  0  0  0  0
  144.9466  135.3468  160.7074 H   0  0  0  0  0  0  0  0  0  0  0  0
  146.5458  137.7253  161.7337 H   0  0  0  0  0  0  0  0  0  0  0  0
  144.8648  137.3973  162.0472 H   0  0  0  0  0  0  0  0  0  0  0  0
  146.2976  136.6648  163.9459 H   0  0  0  0  0  0  0  0  0  0  0  0
  145.4107  135.3285  163.2542 H   0  0  0  0  0  0  0  0  0  0  0  0
  148.3489  136.0034  162.7537 H   0  0  0  0  0  0  0  0  0  0  0  0
  147.7403  134.6428  163.6548 H   0  0  0  0  0  0  0  0  0  0  0  0
  148.4161  133.9700  161.3524 H   0  0  0  0  0  0  0  0  0  0  0  0
  146.7332  133.6506  161.6595 H   0  0  0  0  0  0  0  0  0  0  0  0
  146.1992  133.6816  159.0893 H   0  0  0  0  0  0  0  0  0  0  0  0
  150.5609  136.1467  158.1022 H   0  0  0  0  0  0  0  0  0  0  0  0
  149.5756  135.8269  156.7029 H   0  0  0  0  0  0  0  0  0  0  0  0
  151.0945  138.1708  158.4941 H   0  0  0  0  0  0  0  0  0  0  0  0
  149.9459  140.3996  156.9715 H   0  0  0  0  0  0  0  0  0  0  0  0
  149.6707  140.4508  158.6949 H   0  0  0  0  0  0  0  0  0  0  0  0
  152.1982  140.2387  159.0546 H   0  0  0  0  0  0  0  0  0  0  0  0
  152.4107  140.3768  157.3340 H   0  0  0  0  0  0  0  0  0  0  0  0
  153.2192  142.2462  159.8874 H   0  0  0  0  0  0  0  0  0  0  0  0
  153.1767  144.7371  160.0588 H   0  0  0  0  0  0  0  0  0  0  0  0
  151.6369  146.0419  158.4782 H   0  0  0  0  0  0  0  0  0  0  0  0
  150.2808  142.5701  156.6888 H   0  0  0  0  0  0  0  0  0  0  0  0
  150.3463  144.8674  156.9560 H   0  0  0  0  0  0  0  0  0  0  0  0
  1  2  1  0  0  0  0
  1 26  1  0  0  0  0
  1 27  1  0  0  0  0
  1 28  1  0  0  0  0
  2  7  1  0  0  0  0
  2  3  1  0  0  0  0
  2 29  1  0  0  0  0
  3  4  1  0  0  0  0
  3 30  1  0  0  0  0
  3 31  1  0  0  0  0
  4  5  1  0  0  0  0
  4 32  1  0  0  0  0
  4 33  1  0  0  0  0
  5  6  1  0  0  0  0
  5 34  1  0  0  0  0
  5 35  1  0  0  0  0
  6  7  1  0  0  0  0
  6 36  1  0  0  0  0
  6 37  1  0  0  0  0
  7 24  1  0  0  0  0
  7  8  1  0  0  0  0
  8  9  1  0  0  0  0
  8 38  1  0  0  0  0
  9 10  2  0  0  0  0
  9 11  1  0  0  0  0
 11 12  1  0  0  0  0
 11 24  1  0  0  0  0
 12 13  1  0  0  0  0
 12 39  1  0  0  0  0
 12 40  1  0  0  0  0
 13 14  2  0  0  0  0
 13 15  1  0  0  0  0
 15 16  1  0  0  0  0
 15 41  1  0  0  0  0
 16 17  1  0  0  0  0
 16 42  1  0  0  0  0
 16 43  1  0  0  0  0
 17 18  1  0  0  0  0
 17 44  1  0  0  0  0
 17 45  1  0  0  0  0
 18 23  1  0  0  0  0
 18 19  2  0  0  0  0
 19 20  1  0  0  0  0
 19 46  1  0  0  0  0
 20 21  2  0  0  0  0
 20 47  1  0  0  0  0
 21 22  1  0  0  0  0
 21 48  1  0  0  0  0
 22 23  2  0  0  0  0
 22 50  1  0  0  0  0
 23 49  1  0  0  0  0
 24 25  2  0  0  0  0
M  CHG  1  22   1
M  END
> <s_m_source_file>
AV-unprocessed.smi

> <i_m_source_file_index>
837

> <i_lp_mmshare_version>
43012

> <i_f3d_flags>
0

> <s_epik_input>
W0NIMl0xW0NIMl1bQ0gyXVtDSDJdW0NAQEhdKFtDSDNdKVtDQEBdMTJbTkhdQyg9TylOKEMyPU8pW0NIMl1DKD1PKVtOSF1bQ0gyXVtDSDJdYzNbY0hdW2NIXVtjSF1uW2NIXTM=

> <s_epik_cmdline>
J2VwaWtfcHl0aG9uJywgJy1waCcsICc3LjAnLCAnLXRuJywgJzgnLCAnLW1hJywgJzIwMCcsICctbWV0YWxfYmluZGluZycsICctaW1hZScsICc8aW5maWxlLm1hZT4nLCAnLW9tYWUnLCAnPG91dGZpbGUubWFlPic=

> <r_lp_tautomer_probability>
1

> <r_epik_Ionization_Penalty>
2.28139

> <r_epik_Ionization_Penalty_Charging>
2.28135

> <r_epik_Ionization_Penalty_Neutral>
4.65525e-05

> <r_epik_State_Penalty>
2.43066

> <r_epik_Charging_Adjusted_Penalty>
4.71201

> <i_epik_Tot_Q>
1

> <i_epik_Tot_abs_Q>
1

> <r_epik_Metal_State_Penalty>
2.4646

> <b_epik_Metal_Only>
0

> <s_lp_Force_Field>
OPLS_2005

> <r_lp_Energy>
25.0324

> <b_lp_Chiralities_Consistent>
1

> <s_lp_Variant>
AV-unprocessed.smi:837-7

> <Gold.Version>
5.8.1

> <Gold.Id.Protein>
6NUR|6NUR_protein|mol2

> <Gold.PLP.Fitness>
46.4129

> <Gold.PLP.PLP>
-39.4478

> <Gold.PLP.part.hbond>
-2.5815

> <Gold.PLP.part.metal>
0.0000

> <Gold.PLP.part.buried>
-7.1641

> <Gold.PLP.part.nonpolar>
-31.1920

> <Gold.PLP.part.repulsive>
0.1610

> <Gold.PLP.ligand.clash>
0.0000

> <Gold.PLP.ligand.torsion>
0.4940

> <Gold.PLP.Chemscore.Hbond>
2.6400

> <Gold.PLP.Chemscore.CHOScore>
0.0000

> <Gold.PLP.Chemscore.Metal>
0.0000

> <Gold.Chemscore.Hbonds>
donor molecule, donor type, donor heavy atom, donor atom, acceptor molecule, acceptor atom, score
      L1  H    22    50       P1  8028  1.79
      P1  H  6931  6943       L1    25  0.69

> <Gold.PLP.Chemscore.Internal.Correction>
0.0332

> <Gold.Rescore>
     Score         DG    S(hbond)    S(metal)    S(lipo)     H(rot)  DE(clash)    DE(int)     intcor
     16.82     -19.89       1.88        0.00     112.49       1.96       1.71       1.36       ----

> <Gold.Chemscore.Fitness>
16.8192

> <Gold.Chemscore.DG>
-19.8851

> <Gold.Chemscore.ZeroCoef>
-5.4800

> <Gold.Chemscore.Hbond>
1.8776

> <Gold.Chemscore.Metal>
0.0000

> <Gold.Chemscore.Lipo>
112.4902

> <Gold.Chemscore.Internal_Hbond>
0.0000

> <Gold.Chemscore.DEClash>
1.7097

> <Gold.Chemscore.DEInternal>
1.3563

> <Gold.Chemscore.Rot>
1.9638

> <Gold.Chemscore.Internal.Correction>
   9.000000E+99

> <Gold.Chemscore.Hbonds>
donor molecule, donor type, donor heavy atom, donor atom, acceptor molecule, acceptor atom, score
      L1  H    22    50       P1  8028  0.39
      P1  H  6931  6943       L1    25  0.67

> <Gold.Chemscore.Hbond.Weighted>
-6.2712

> <Gold.Chemscore.Metal.Weighted>
-0.0000

> <Gold.Chemscore.Lipo.Weighted>
-13.1614

> <Gold.Chemscore.Internal_Hbond.Weighted>
0.0000

> <Gold.Chemscore.DEClash.Weighted>
1.7097

> <Gold.Chemscore.DEInternal.Weighted>
1.3563

> <Gold.Chemscore.Rot.Weighted>
5.0274

> <Gold.Chemscore.Internal.Correction.Weighted>
   9.000000E+99

> <Gold.Protein.RotatedTorsions>
[ 6907 6896 6895 6894 ] final  -69.15 input  -60.11 | X-H torsion
[ 7974 7965 7964 7962 ] final -112.18 input  175.53 | X-H torsion
[ 8008 7997 7996 7995 ] final   86.90 input   59.86 | X-H torsion
[ 10167 10162 10161 10158 ] final  -38.71 input  -65.29 | X-H torsion
[ 10718 10713 10712 10709 ] final  170.19 input   66.30 | X-H torsion
[ 10763 10752 10751 10750 ] final  151.21 input  -60.55 | X-H torsion
[ 11005 11000 10999 10996 ] final   30.11 input  -57.11 | X-H torsion

> <Gold.Protein.ActiveResidues>
 VAL166  LYS551  ARG553  GLY616  TRP617  ASP618  TYR619  PRO620  LYS621  CYS622 
 ASP623  PHE694  ASN695  SER759  ASP760  ASP761  ALA762  ILE779  LEU786  VAL792 
 PHE793  MET794  SER795  GLU796  ALA797  LYS798  CYS799  TRP800  GLU811  SER814 

> <Gold.Protein.RotatedAtoms>
  150.7320  134.5638  159.5855 H   0  0  0  0  0  0  0  0  0  0  0  0  # atno 6907 bound_to 6896
  152.3095  134.7512  160.0349 H   0  0  0  0  0  0  0  0  0  0  0  0  # atno 6908 bound_to 6896
  151.8065  133.3341  159.3579 H   0  0  0  0  0  0  0  0  0  0  0  0  # atno 6909 bound_to 6896
  145.1471  140.8809  143.3668 H   0  0  0  0  0  0  0  0  0  0  0  0  # atno 7974 bound_to 7965
  155.9686  140.3387  155.6555 H   0  0  0  0  0  0  0  0  0  0  0  0  # atno 8008 bound_to 7997
  155.6704  140.0726  157.2540 H   0  0  0  0  0  0  0  0  0  0  0  0  # atno 8009 bound_to 7997
  154.4161  140.1692  156.1860 H   0  0  0  0  0  0  0  0  0  0  0  0  # atno 8010 bound_to 7997
  140.7085  143.3260  151.2679 H   0  0  0  0  0  0  0  0  0  0  0  0  # atno 10167 bound_to 10162
  157.0118  131.0206  151.2801 H   0  0  0  0  0  0  0  0  0  0  0  0  # atno 10718 bound_to 10713
  154.1002  135.2846  155.3253 H   0  0  0  0  0  0  0  0  0  0  0  0  # atno 10763 bound_to 10752
  154.6561  135.5351  153.7963 H   0  0  0  0  0  0  0  0  0  0  0  0  # atno 10764 bound_to 10752
  153.0382  135.6522  154.1166 H   0  0  0  0  0  0  0  0  0  0  0  0  # atno 10765 bound_to 10752
  140.2978  134.2791  155.7761 H   0  0  0  0  0  0  0  0  0  0  0  0  # atno 11005 bound_to 11000
  145.0470  139.3213  143.5948 LP  0  0  0  0  0  0  0  0  0  0  0  0  # atno 17320 bound_to 7965
  146.3499  139.9864  142.8690 LP  0  0  0  0  0  0  0  0  0  0  0  0  # atno 17321 bound_to 7965
  139.6728  143.9990  152.2763 LP  0  0  0  0  0  0  0  0  0  0  0  0  # atno 17342 bound_to 10162
  139.9594  144.6568  150.8094 LP  0  0  0  0  0  0  0  0  0  0  0  0  # atno 17343 bound_to 10162
  157.5315  130.8061  149.7922 LP  0  0  0  0  0  0  0  0  0  0  0  0  # atno 17370 bound_to 10713
  156.0133  130.3824  150.2191 LP  0  0  0  0  0  0  0  0  0  0  0  0  # atno 17371 bound_to 10713
  141.2134  133.7626  156.9722 LP  0  0  0  0  0  0  0  0  0  0  0  0  # atno 17394 bound_to 11000
  140.1136  134.9461  157.2102 LP  0  0  0  0  0  0  0  0  0  0  0  0  # atno 17395 bound_to 11000

$$$$
