AV-unprocessed.smi:235|AV-procd|sdf|1805|dock4
  -GOLD-   2262020383D 1   1.00000     0.00000
 Structure written by MMmdl.
 54 58  0  0  0  0  0  0  0  0  1 V2000
  149.2075  135.4116  158.5762 O   0  0  0  0  0  0  0  0  0  0  0  0
  148.1694  136.0667  158.6784 C   0  0  0  0  0  0  0  0  0  0  0  0
  147.5342  136.2654  159.8426 N   0  0  0  0  0  0  0  0  0  0  0  0
  147.9550  135.7596  161.1071 C   0  0  0  0  0  0  0  0  0  0  0  0
  147.1545  134.6226  161.7031 C   0  0  0  0  0  0  0  0  0  0  0  0
  147.0599  136.0002  162.3018 C   0  0  0  0  0  0  0  0  0  0  0  0
  147.5428  136.7308  157.4443 C   0  0  2  0  0  0  0  0  0  0  0  0
  146.1566  136.1504  157.0949 C   0  0  0  0  0  0  0  0  0  0  0  0
  146.1147  136.1736  155.5725 C   0  0  0  0  0  0  0  0  0  0  0  0
  147.5628  135.8672  155.2119 C   0  0  0  0  0  0  0  0  0  0  0  0
  148.3683  136.5047  156.2509 N   0  0  0  0  0  0  0  0  0  0  0  0
  149.1357  137.5723  155.9136 C   0  0  0  0  0  0  0  0  0  0  0  0
  149.1415  138.0338  154.6344 N   0  0  0  0  0  0  0  0  0  0  0  0
  149.8454  139.1244  154.3162 C   0  0  0  0  0  0  0  0  0  0  0  0
  150.5871  139.9002  155.1092 N   0  0  0  0  0  0  0  0  0  0  0  0
  150.5812  139.4418  156.3936 C   0  0  0  0  0  0  0  0  0  0  0  0
  149.8960  138.2918  156.8754 C   0  0  0  0  0  0  0  0  0  0  0  0
  150.1322  138.1356  158.2359 N   0  0  0  0  0  0  0  0  0  0  0  0
  150.8943  139.1479  158.5464 C   0  0  0  0  0  0  0  0  0  0  0  0
  151.2009  139.9904  157.5020 N   0  0  0  0  0  0  0  0  0  0  0  0
  151.9991  141.2002  157.5654 C   0  0  0  0  0  0  0  0  0  0  0  0
  151.1436  142.4776  157.7071 C   0  0  2  0  0  0  0  0  0  0  0  0
  150.9235  142.9800  156.4045 O   0  0  0  0  0  0  0  0  0  0  0  0
  151.7834  143.5873  158.5726 C   0  0  1  0  0  0  0  0  0  0  0  0
  151.0043  144.9070  158.5811 C   0  0  0  0  0  0  0  0  0  0  0  0
  151.3550  145.5420  159.9190 C   0  0  0  0  0  0  0  0  0  0  0  0
  152.0721  144.4281  160.6814 C   0  0  0  0  0  0  0  0  0  0  0  0
  151.7727  143.2486  159.9525 O   0  0  0  0  0  0  0  0  0  0  0  0
  146.6952  136.8270  159.8331 H   0  0  0  0  0  0  0  0  0  0  0  0
  149.0268  135.7344  161.2994 H   0  0  0  0  0  0  0  0  0  0  0  0
  146.2925  134.2577  161.1480 H   0  0  0  0  0  0  0  0  0  0  0  0
  147.6985  133.8672  162.2667 H   0  0  0  0  0  0  0  0  0  0  0  0
  147.5423  136.1657  163.2630 H   0  0  0  0  0  0  0  0  0  0  0  0
  146.1439  136.5647  162.1389 H   0  0  0  0  0  0  0  0  0  0  0  0
  147.4289  137.8035  157.6223 H   0  0  0  0  0  0  0  0  0  0  0  0
  146.0523  135.1196  157.4378 H   0  0  0  0  0  0  0  0  0  0  0  0
  145.3430  136.7261  157.5371 H   0  0  0  0  0  0  0  0  0  0  0  0
  145.4089  135.4569  155.1520 H   0  0  0  0  0  0  0  0  0  0  0  0
  145.8432  137.1698  155.2201 H   0  0  0  0  0  0  0  0  0  0  0  0
  147.7423  134.7927  155.2662 H   0  0  0  0  0  0  0  0  0  0  0  0
  147.8063  136.1747  154.1941 H   0  0  0  0  0  0  0  0  0  0  0  0
  149.7993  139.4234  153.2794 H   0  0  0  0  0  0  0  0  0  0  0  0
  151.2413  139.3168  159.5555 H   0  0  0  0  0  0  0  0  0  0  0  0
  152.6914  141.1139  158.4042 H   0  0  0  0  0  0  0  0  0  0  0  0
  152.6076  141.2496  156.6613 H   0  0  0  0  0  0  0  0  0  0  0  0
  150.1699  142.2178  158.1241 H   0  0  0  0  0  0  0  0  0  0  0  0
  150.2339  143.6251  156.4448 H   0  0  0  0  0  0  0  0  0  0  0  0
  152.8141  143.7668  158.2603 H   0  0  0  0  0  0  0  0  0  0  0  0
  151.2566  145.5442  157.7329 H   0  0  0  0  0  0  0  0  0  0  0  0
  149.9315  144.7124  158.5440 H   0  0  0  0  0  0  0  0  0  0  0  0
  152.0017  146.4121  159.8007 H   0  0  0  0  0  0  0  0  0  0  0  0
  150.4514  145.8618  160.4395 H   0  0  0  0  0  0  0  0  0  0  0  0
  153.1500  144.5933  160.6721 H   0  0  0  0  0  0  0  0  0  0  0  0
  151.7471  144.3472  161.7187 H   0  0  0  0  0  0  0  0  0  0  0  0
  1  2  2  0  0  0  0
  2  3  1  0  0  0  0
  2  7  1  0  0  0  0
  3  4  1  0  0  0  0
  3 29  1  0  0  0  0
  4  6  1  0  0  0  0
  4  5  1  0  0  0  0
  4 30  1  0  0  0  0
  5  6  1  0  0  0  0
  5 31  1  0  0  0  0
  5 32  1  0  0  0  0
  6 33  1  0  0  0  0
  6 34  1  0  0  0  0
  7 11  1  0  0  0  0
  7  8  1  0  0  0  0
  7 35  1  0  0  0  0
  8  9  1  0  0  0  0
  8 36  1  0  0  0  0
  8 37  1  0  0  0  0
  9 10  1  0  0  0  0
  9 38  1  0  0  0  0
  9 39  1  0  0  0  0
 10 11  1  0  0  0  0
 10 40  1  0  0  0  0
 10 41  1  0  0  0  0
 11 12  1  0  0  0  0
 12 17  1  0  0  0  0
 12 13  2  0  0  0  0
 13 14  1  0  0  0  0
 14 15  2  0  0  0  0
 14 42  1  0  0  0  0
 15 16  1  0  0  0  0
 16 20  1  0  0  0  0
 16 17  2  0  0  0  0
 17 18  1  0  0  0  0
 18 19  2  0  0  0  0
 19 20  1  0  0  0  0
 19 43  1  0  0  0  0
 20 21  1  0  0  0  0
 21 22  1  0  0  0  0
 21 44  1  0  0  0  0
 21 45  1  0  0  0  0
 22 23  1  0  0  0  0
 22 24  1  0  0  0  0
 22 46  1  0  0  0  0
 23 47  1  0  0  0  0
 24 28  1  0  0  0  0
 24 25  1  0  0  0  0
 24 48  1  0  0  0  0
 25 26  1  0  0  0  0
 25 49  1  0  0  0  0
 25 50  1  0  0  0  0
 26 27  1  0  0  0  0
 26 51  1  0  0  0  0
 26 52  1  0  0  0  0
 27 28  1  0  0  0  0
 27 53  1  0  0  0  0
 27 54  1  0  0  0  0
M  END
> <s_m_source_file>
AV-unprocessed.smi

> <i_m_source_file_index>
235

> <i_lp_mmshare_version>
43012

> <i_f3d_flags>
0

> <s_epik_input>
W0NIMl0xW0NIMl1bQ0hdMVtOSF1DKD1PKVtDQEBIXTJbQ0gyXVtDSDJdW0NIMl1OMmMobltjSF1uMyljKGMzNCluW2NIXW40W0NIMl1bQ0BIXShbT0hdKVtDQEBIXTVbQ0gyXVtDSDJdW0NIMl1PNQ==

> <s_epik_cmdline>
J2VwaWtfcHl0aG9uJywgJy1waCcsICc3LjAnLCAnLXRuJywgJzgnLCAnLW1hJywgJzIwMCcsICctbWV0YWxfYmluZGluZycsICctaW1hZScsICc8aW5maWxlLm1hZT4nLCAnLW9tYWUnLCAnPG91dGZpbGUubWFlPic=

> <r_lp_tautomer_probability>
1

> <r_epik_Ionization_Penalty>
0.000526714

> <r_epik_Ionization_Penalty_Charging>
0

> <r_epik_Ionization_Penalty_Neutral>
0.000526714

> <r_epik_State_Penalty>
0.000272704

> <r_epik_Charging_Adjusted_Penalty>
0.000272704

> <i_epik_Tot_Q>
0

> <i_epik_Tot_abs_Q>
0

> <r_epik_Metal_State_Penalty>
-0

> <b_epik_Metal_Only>
0

> <s_lp_Force_Field>
OPLS_2005

> <r_lp_Energy>
59.397

> <b_lp_Chiralities_Consistent>
1

> <s_lp_Variant>
AV-unprocessed.smi:235-5

> <Gold.Version>
5.8.1

> <Gold.Id.Protein>
6NUR|6NUR_protein|mol2

> <Gold.PLP.Fitness>
49.5292

> <Gold.PLP.PLP>
-41.3308

> <Gold.PLP.part.hbond>
-2.4523

> <Gold.PLP.part.metal>
0.0000

> <Gold.PLP.part.buried>
-8.3830

> <Gold.PLP.part.nonpolar>
-30.1708

> <Gold.PLP.part.repulsive>
0.3874

> <Gold.PLP.ligand.clash>
0.0000

> <Gold.PLP.ligand.torsion>
1.1407

> <Gold.PLP.Chemscore.Hbond>
2.3868

> <Gold.PLP.Chemscore.CHOScore>
1.0000

> <Gold.PLP.Chemscore.Metal>
0.0000

> <Gold.Chemscore.Hbonds>
donor molecule, donor type, donor heavy atom, donor atom, acceptor molecule, acceptor atom, score
      L1  H    23    47       P1  8028  1.00
      P1  H  6896  6908       L1     1  1.00
      P1  H  7989  7998       L1    15  0.52
      L1  C    14    42       P1  7957  1.00

> <Gold.PLP.Chemscore.Internal.Correction>
0.3194

> <Gold.Rescore>
     Score         DG    S(hbond)    S(metal)    S(lipo)     H(rot)  DE(clash)    DE(int)     intcor
     11.30     -15.94       2.13        0.00      94.18       3.00       0.12       4.53       ----

> <Gold.Chemscore.Fitness>
11.2972

> <Gold.Chemscore.DG>
-15.9424

> <Gold.Chemscore.ZeroCoef>
-5.4800

> <Gold.Chemscore.Hbond>
2.1317

> <Gold.Chemscore.Metal>
0.0000

> <Gold.Chemscore.Lipo>
94.1846

> <Gold.Chemscore.Internal_Hbond>
0.0000

> <Gold.Chemscore.DEClash>
0.1196

> <Gold.Chemscore.DEInternal>
4.5255

> <Gold.Chemscore.Rot>
2.9989

> <Gold.Chemscore.Internal.Correction>
   9.000000E+99

> <Gold.Chemscore.Hbonds>
donor molecule, donor type, donor heavy atom, donor atom, acceptor molecule, acceptor atom, score
      L1  H    23    47       P1  8028  0.97
      P1  H  6896  6908       L1     1  0.99
      P1  H  7989  7998       L1    15  0.06

> <Gold.Chemscore.Hbond.Weighted>
-7.1200

> <Gold.Chemscore.Metal.Weighted>
-0.0000

> <Gold.Chemscore.Lipo.Weighted>
-11.0196

> <Gold.Chemscore.Internal_Hbond.Weighted>
0.0000

> <Gold.Chemscore.DEClash.Weighted>
0.1196

> <Gold.Chemscore.DEInternal.Weighted>
4.5255

> <Gold.Chemscore.Rot.Weighted>
7.6772

> <Gold.Chemscore.Internal.Correction.Weighted>
   9.000000E+99

> <Gold.Protein.RotatedTorsions>
[ 6907 6896 6895 6894 ] final  164.34 input  -60.11 | X-H torsion
[ 7974 7965 7964 7962 ] final  -35.35 input  175.53 | X-H torsion
[ 8008 7997 7996 7995 ] final -122.43 input   59.86 | X-H torsion
[ 10167 10162 10161 10158 ] final -173.16 input  -65.29 | X-H torsion
[ 10718 10713 10712 10709 ] final   76.60 input   66.30 | X-H torsion
[ 10763 10752 10751 10750 ] final   68.27 input  -60.55 | X-H torsion
[ 11005 11000 10999 10996 ] final  -55.15 input  -57.11 | X-H torsion

> <Gold.Protein.ActiveResidues>
 VAL166  LYS551  ARG553  GLY616  TRP617  ASP618  TYR619  PRO620  LYS621  CYS622 
 ASP623  PHE694  ASN695  SER759  ASP760  ASP761  ALA762  ILE779  LEU786  VAL792 
 PHE793  MET794  SER795  GLU796  ALA797  LYS798  CYS799  TRP800  GLU811  SER814 

> <Gold.Protein.RotatedAtoms>
  151.9114  133.3562  159.3864 H   0  0  0  0  0  0  0  0  0  0  0  0  # atno 6907 bound_to 6896
  150.7057  134.4728  159.5443 H   0  0  0  0  0  0  0  0  0  0  0  0  # atno 6908 bound_to 6896
  152.2335  134.8299  160.0521 H   0  0  0  0  0  0  0  0  0  0  0  0  # atno 6909 bound_to 6896
  146.0753  140.6149  142.8933 H   0  0  0  0  0  0  0  0  0  0  0  0  # atno 7974 bound_to 7965
  155.1641  140.0406  157.2849 H   0  0  0  0  0  0  0  0  0  0  0  0  # atno 8008 bound_to 7997
  154.6315  140.2525  155.7401 H   0  0  0  0  0  0  0  0  0  0  0  0  # atno 8009 bound_to 7997
  156.2487  140.2874  156.0669 H   0  0  0  0  0  0  0  0  0  0  0  0  # atno 8010 bound_to 7997
  139.5704  144.1655  152.1375 H   0  0  0  0  0  0  0  0  0  0  0  0  # atno 10167 bound_to 10162
  157.6679  130.9782  150.1520 H   0  0  0  0  0  0  0  0  0  0  0  0  # atno 10718 bound_to 10713
  153.0227  135.5253  154.7108 H   0  0  0  0  0  0  0  0  0  0  0  0  # atno 10763 bound_to 10752
  154.6191  135.2887  155.0349 H   0  0  0  0  0  0  0  0  0  0  0  0  # atno 10764 bound_to 10752
  154.1342  135.6588  153.4981 H   0  0  0  0  0  0  0  0  0  0  0  0  # atno 10765 bound_to 10752
  141.1060  133.6613  156.4427 H   0  0  0  0  0  0  0  0  0  0  0  0  # atno 11005 bound_to 11000
  144.7258  140.4519  143.6974 LP  0  0  0  0  0  0  0  0  0  0  0  0  # atno 17320 bound_to 7965
  145.6316  139.1537  143.2966 LP  0  0  0  0  0  0  0  0  0  0  0  0  # atno 17321 bound_to 7965
  140.1187  144.5393  150.6877 LP  0  0  0  0  0  0  0  0  0  0  0  0  # atno 17342 bound_to 10162
  140.6988  143.2421  151.4923 LP  0  0  0  0  0  0  0  0  0  0  0  0  # atno 17343 bound_to 10162
  156.2317  130.3682  149.8438 LP  0  0  0  0  0  0  0  0  0  0  0  0  # atno 17370 bound_to 10713
  156.6262  130.8647  151.3486 LP  0  0  0  0  0  0  0  0  0  0  0  0  # atno 17371 bound_to 10713
  140.4900  134.6584  157.5207 LP  0  0  0  0  0  0  0  0  0  0  0  0  # atno 17394 bound_to 11000
  139.9931  134.6954  155.9656 LP  0  0  0  0  0  0  0  0  0  0  0  0  # atno 17395 bound_to 11000

$$$$
