AV-unprocessed.smi:1055|AV-procd|sdf|4626|dock2
  -GOLD-   22720 3123D 1   1.00000     0.00000
 Structure written by MMmdl.
 51 52  0  0  0  0  0  0  0  0  2 V2000
  146.3397  134.2572  151.4667 C   0  0  0  0  0  0  0  0  0  0  0  0
  145.3609  135.1164  151.7959 C   0  0  0  0  0  0  0  0  0  0  0  0
  144.0208  134.6426  152.3264 C   0  0  0  0  0  0  0  0  0  0  0  0
  145.5259  136.6214  151.6536 C   0  0  0  0  0  0  0  0  0  0  0  0
  146.5863  137.1496  152.5482 N   0  3  2  0  0  0  0  0  0  0  0  0
  146.4076  136.6996  153.9523 C   0  0  0  0  0  0  0  0  0  0  0  0
  147.5861  137.1424  154.8352 C   0  0  0  0  0  0  0  0  0  0  0  0
  147.7791  138.6688  154.7770 C   0  0  1  0  0  0  0  0  0  0  0  0
  148.9500  139.0811  155.5459 N   0  0  0  0  0  0  0  0  0  0  0  0
  149.0051  140.1517  156.3515 C   0  0  0  0  0  0  0  0  0  0  0  0
  148.0507  140.9048  156.5426 O   0  0  0  0  0  0  0  0  0  0  0  0
  150.2281  140.2925  156.8910 N   0  0  0  0  0  0  0  0  0  0  0  0
  150.6842  141.2923  157.7919 C   0  0  0  0  0  0  0  0  0  0  0  0
  151.6883  140.9456  158.7155 C   0  0  0  0  0  0  0  0  0  0  0  0
  152.1471  141.9109  159.6317 C   0  0  0  0  0  0  0  0  0  0  0  0
  151.5801  143.2095  159.6107 C   0  0  0  0  0  0  0  0  0  0  0  0
  152.0069  144.2160  160.5071 N   0  0  0  0  0  0  0  0  0  0  0  0
  152.5071  143.8582  161.8287 C   0  0  0  0  0  0  0  0  0  0  0  0
  151.9193  145.6200  160.1178 C   0  0  0  0  0  0  0  0  0  0  0  0
  150.6022  143.5345  158.7302 N   0  0  0  0  0  0  0  0  0  0  0  0
  150.1664  142.6071  157.8520 C   0  0  0  0  0  0  0  0  0  0  0  0
  147.9328  139.1082  153.3125 C   0  0  0  0  0  0  0  0  0  0  0  0
  146.7470  138.6257  152.4600 C   0  0  0  0  0  0  0  0  0  0  0  0
  146.2076  133.1899  151.5704 H   0  0  0  0  0  0  0  0  0  0  0  0
  147.2894  134.6065  151.0881 H   0  0  0  0  0  0  0  0  0  0  0  0
  143.2147  134.9861  151.6776 H   0  0  0  0  0  0  0  0  0  0  0  0
  143.8446  135.0316  153.3295 H   0  0  0  0  0  0  0  0  0  0  0  0
  143.9752  133.5542  152.3745 H   0  0  0  0  0  0  0  0  0  0  0  0
  145.7495  136.8892  150.6194 H   0  0  0  0  0  0  0  0  0  0  0  0
  144.5678  137.0832  151.8965 H   0  0  0  0  0  0  0  0  0  0  0  0
  145.4716  137.0976  154.3471 H   0  0  0  0  0  0  0  0  0  0  0  0
  146.3272  135.6124  153.9823 H   0  0  0  0  0  0  0  0  0  0  0  0
  147.4112  136.8218  155.8630 H   0  0  0  0  0  0  0  0  0  0  0  0
  148.4963  136.6394  154.5055 H   0  0  0  0  0  0  0  0  0  0  0  0
  146.8937  139.1568  155.1899 H   0  0  0  0  0  0  0  0  0  0  0  0
  149.7836  138.5206  155.4452 H   0  0  0  0  0  0  0  0  0  0  0  0
  150.9328  139.6434  156.5730 H   0  0  0  0  0  0  0  0  0  0  0  0
  152.1102  139.9511  158.7221 H   0  0  0  0  0  0  0  0  0  0  0  0
  152.9226  141.6354  160.3301 H   0  0  0  0  0  0  0  0  0  0  0  0
  151.7424  143.3284  162.3975 H   0  0  0  0  0  0  0  0  0  0  0  0
  152.7915  144.7429  162.3989 H   0  0  0  0  0  0  0  0  0  0  0  0
  153.3877  143.2207  161.7450 H   0  0  0  0  0  0  0  0  0  0  0  0
  150.8848  145.8964  159.9112 H   0  0  0  0  0  0  0  0  0  0  0  0
  152.5134  145.8071  159.2226 H   0  0  0  0  0  0  0  0  0  0  0  0
  152.2892  146.2765  160.9056 H   0  0  0  0  0  0  0  0  0  0  0  0
  149.3693  142.9385  157.2050 H   0  0  0  0  0  0  0  0  0  0  0  0
  148.0092  140.1947  153.2536 H   0  0  0  0  0  0  0  0  0  0  0  0
  148.8609  138.7102  152.8993 H   0  0  0  0  0  0  0  0  0  0  0  0
  146.9119  138.9269  151.4253 H   0  0  0  0  0  0  0  0  0  0  0  0
  145.8272  139.1130  152.7874 H   0  0  0  0  0  0  0  0  0  0  0  0
  147.4535  136.7418  152.2291 H   0  0  0  0  0  0  0  0  0  0  0  0
  1  2  2  0  0  0  0
  1 24  1  0  0  0  0
  1 25  1  0  0  0  0
  2  3  1  0  0  0  0
  2  4  1  0  0  0  0
  3 26  1  0  0  0  0
  3 27  1  0  0  0  0
  3 28  1  0  0  0  0
  4  5  1  0  0  0  0
  4 29  1  0  0  0  0
  4 30  1  0  0  0  0
  5 23  1  0  0  0  0
  5  6  1  0  0  0  0
  5 51  1  0  0  0  0
  6  7  1  0  0  0  0
  6 31  1  0  0  0  0
  6 32  1  0  0  0  0
  7  8  1  0  0  0  0
  7 33  1  0  0  0  0
  7 34  1  0  0  0  0
  8  9  1  0  0  0  0
  8 22  1  0  0  0  0
  8 35  1  0  0  0  0
  9 10  1  0  0  0  0
  9 36  1  0  0  0  0
 10 11  2  0  0  0  0
 10 12  1  0  0  0  0
 12 13  1  0  0  0  0
 12 37  1  0  0  0  0
 13 21  1  0  0  0  0
 13 14  2  0  0  0  0
 14 15  1  0  0  0  0
 14 38  1  0  0  0  0
 15 16  2  0  0  0  0
 15 39  1  0  0  0  0
 16 17  1  0  0  0  0
 16 20  1  0  0  0  0
 17 18  1  0  0  0  0
 17 19  1  0  0  0  0
 18 40  1  0  0  0  0
 18 41  1  0  0  0  0
 18 42  1  0  0  0  0
 19 43  1  0  0  0  0
 19 44  1  0  0  0  0
 19 45  1  0  0  0  0
 20 21  2  0  0  0  0
 21 46  1  0  0  0  0
 22 23  1  0  0  0  0
 22 47  1  0  0  0  0
 22 48  1  0  0  0  0
 23 49  1  0  0  0  0
 23 50  1  0  0  0  0
M  CHG  1   5   1
M  END
> <s_m_source_file>
AV-unprocessed.smi

> <i_m_source_file_index>
1055

> <i_lp_mmshare_version>
43012

> <i_f3d_flags>
0

> <s_epik_input>
W0NIMl09QyhbQ0gzXSlbQ0gyXU4xW0NIMl1bQ0gyXVtDSF0oW0NIMl1bQ0gyXTEpW05IXUMoPU8pW05IXWMyW2NIXVtjSF1jKE4oW0NIM10pW0NIM10pbltjSF0y

> <s_epik_cmdline>
J2VwaWtfcHl0aG9uJywgJy1waCcsICc3LjAnLCAnLXRuJywgJzgnLCAnLW1hJywgJzIwMCcsICctbWV0YWxfYmluZGluZycsICctaW1hZScsICc8aW5maWxlLm1hZT4nLCAnLW9tYWUnLCAnPG91dGZpbGUubWFlPic=

> <r_lp_tautomer_probability>
1

> <r_epik_Ionization_Penalty>
0.534133

> <r_epik_Ionization_Penalty_Charging>
0.0193505

> <r_epik_Ionization_Penalty_Neutral>
0.514782

> <r_epik_State_Penalty>
0.557749

> <r_epik_Charging_Adjusted_Penalty>
0.5771

> <i_epik_Tot_Q>
1

> <i_epik_Tot_abs_Q>
1

> <r_epik_Metal_State_Penalty>
0.306227

> <b_epik_Metal_Only>
0

> <s_lp_Force_Field>
OPLS_2005

> <r_lp_Energy>
20.3338

> <b_lp_Chiralities_Consistent>
1

> <s_lp_Variant>
AV-unprocessed.smi:1055-3

> <Gold.Version>
5.8.1

> <Gold.Id.Protein>
6NUR|6NUR_protein|mol2

> <Gold.PLP.Fitness>
44.0584

> <Gold.PLP.PLP>
-36.6977

> <Gold.PLP.part.hbond>
-1.0000

> <Gold.PLP.part.metal>
0.0000

> <Gold.PLP.part.buried>
-3.0460

> <Gold.PLP.part.nonpolar>
-33.0317

> <Gold.PLP.part.repulsive>
0.2458

> <Gold.PLP.ligand.clash>
0.0000

> <Gold.PLP.ligand.torsion>
0.8394

> <Gold.PLP.Chemscore.Hbond>
2.0000

> <Gold.PLP.Chemscore.CHOScore>
1.0000

> <Gold.PLP.Chemscore.Metal>
0.0000

> <Gold.Chemscore.Hbonds>
donor molecule, donor type, donor heavy atom, donor atom, acceptor molecule, acceptor atom, score
      L1  H     5    51       P1  7948  2.00
      L1  C    21    46       P1  8028  1.00

> <Gold.PLP.Chemscore.Internal.Correction>
0.0395

> <Gold.Rescore>
     Score         DG    S(hbond)    S(metal)    S(lipo)     H(rot)  DE(clash)    DE(int)     intcor
     13.83     -15.99       1.00        0.00      90.33       1.33       0.43       1.73       ----

> <Gold.Chemscore.Fitness>
13.8344

> <Gold.Chemscore.DG>
-15.9928

> <Gold.Chemscore.ZeroCoef>
-5.4800

> <Gold.Chemscore.Hbond>
1.0000

> <Gold.Chemscore.Metal>
0.0000

> <Gold.Chemscore.Lipo>
90.3340

> <Gold.Chemscore.Internal_Hbond>
0.0000

> <Gold.Chemscore.DEClash>
0.4317

> <Gold.Chemscore.DEInternal>
1.7267

> <Gold.Chemscore.Rot>
1.3266

> <Gold.Chemscore.Internal.Correction>
   9.000000E+99

> <Gold.Chemscore.Hbonds>
donor molecule, donor type, donor heavy atom, donor atom, acceptor molecule, acceptor atom, score
      L1  H     5    51       P1  7948  0.99

> <Gold.Chemscore.Hbond.Weighted>
-3.3399

> <Gold.Chemscore.Metal.Weighted>
-0.0000

> <Gold.Chemscore.Lipo.Weighted>
-10.5691

> <Gold.Chemscore.Internal_Hbond.Weighted>
0.0000

> <Gold.Chemscore.DEClash.Weighted>
0.4317

> <Gold.Chemscore.DEInternal.Weighted>
1.7267

> <Gold.Chemscore.Rot.Weighted>
3.3962

> <Gold.Chemscore.Internal.Correction.Weighted>
   9.000000E+99

> <Gold.Protein.RotatedTorsions>
[ 6907 6896 6895 6894 ] final   66.80 input  -60.11 | X-H torsion
[ 7974 7965 7964 7962 ] final -121.32 input  175.53 | X-H torsion
[ 8008 7997 7996 7995 ] final   62.18 input   59.86 | X-H torsion
[ 10167 10162 10161 10158 ] final   77.85 input  -65.29 | X-H torsion
[ 10718 10713 10712 10709 ] final -121.30 input   66.30 | X-H torsion
[ 10763 10752 10751 10750 ] final -102.42 input  -60.55 | X-H torsion
[ 11005 11000 10999 10996 ] final   65.22 input  -57.11 | X-H torsion

> <Gold.Protein.ActiveResidues>
 VAL166  LYS551  ARG553  GLY616  TRP617  ASP618  TYR619  PRO620  LYS621  CYS622 
 ASP623  PHE694  ASN695  SER759  ASP760  ASP761  ALA762  ILE779  LEU786  VAL792 
 PHE793  MET794  SER795  GLU796  ALA797  LYS798  CYS799  TRP800  GLU811  SER814 

> <Gold.Protein.RotatedAtoms>
  152.4507  134.5399  159.9835 H   0  0  0  0  0  0  0  0  0  0  0  0  # atno 6907 bound_to 6896
  151.5473  133.3417  159.2954 H   0  0  0  0  0  0  0  0  0  0  0  0  # atno 6908 bound_to 6896
  150.8435  134.7768  159.7015 H   0  0  0  0  0  0  0  0  0  0  0  0  # atno 6909 bound_to 6896
  145.0416  140.8149  143.4263 H   0  0  0  0  0  0  0  0  0  0  0  0  # atno 7974 bound_to 7965
  155.6103  140.3495  155.4620 H   0  0  0  0  0  0  0  0  0  0  0  0  # atno 8008 bound_to 7997
  156.0160  140.1243  157.0430 H   0  0  0  0  0  0  0  0  0  0  0  0  # atno 8009 bound_to 7997
  154.4297  140.1072  156.5882 H   0  0  0  0  0  0  0  0  0  0  0  0  # atno 8010 bound_to 7997
  139.9772  144.5852  150.7933 H   0  0  0  0  0  0  0  0  0  0  0  0  # atno 10167 bound_to 10162
  156.1326  130.6407  150.9646 H   0  0  0  0  0  0  0  0  0  0  0  0  # atno 10718 bound_to 10713
  154.7732  135.4861  153.9691 H   0  0  0  0  0  0  0  0  0  0  0  0  # atno 10763 bound_to 10752
  153.1395  135.6769  153.9058 H   0  0  0  0  0  0  0  0  0  0  0  0  # atno 10764 bound_to 10752
  153.8737  135.3140  155.3421 H   0  0  0  0  0  0  0  0  0  0  0  0  # atno 10765 bound_to 10752
  139.9908  134.6594  156.0094 H   0  0  0  0  0  0  0  0  0  0  0  0  # atno 11005 bound_to 11000
  145.1640  139.2442  143.5376 LP  0  0  0  0  0  0  0  0  0  0  0  0  # atno 17320 bound_to 7965
  146.3510  140.1375  142.8595 LP  0  0  0  0  0  0  0  0  0  0  0  0  # atno 17321 bound_to 7965
  140.7502  143.2951  151.3227 LP  0  0  0  0  0  0  0  0  0  0  0  0  # atno 17342 bound_to 10162
  139.6437  144.0491  152.2574 LP  0  0  0  0  0  0  0  0  0  0  0  0  # atno 17343 bound_to 10162
  157.6503  131.0898  150.8066 LP  0  0  0  0  0  0  0  0  0  0  0  0  # atno 17370 bound_to 10713
  156.8149  130.4965  149.5351 LP  0  0  0  0  0  0  0  0  0  0  0  0  # atno 17371 bound_to 10713
  141.1564  133.6542  156.4176 LP  0  0  0  0  0  0  0  0  0  0  0  0  # atno 17394 bound_to 11000
  140.4912  134.6574  157.5211 LP  0  0  0  0  0  0  0  0  0  0  0  0  # atno 17395 bound_to 11000

$$$$
