AV-unprocessed.smi:1471|AV-procd|sdf|5963|dock2
  -GOLD-   22720 6 53D 1   1.00000     0.00000
 Structure written by MMmdl.
 42 43  0  0  0  0  0  0  0  0  1 V2000
  147.3561  132.5197  157.6955 C   0  0  0  0  0  0  0  0  0  0  0  0
  147.2864  133.7519  158.5570 C   0  0  0  0  0  0  0  0  0  0  0  0
  147.5750  134.8755  157.9870 N   0  0  0  0  0  0  0  0  0  0  0  0
  147.5476  136.0647  158.6875 N   0  0  0  0  0  0  0  0  0  0  0  0
  147.9072  137.2382  157.8834 C   0  0  0  0  0  0  0  0  0  0  0  0
  148.9980  138.0956  158.5636 C   0  0  1  0  0  0  0  0  0  0  0  0
  150.1372  137.2895  158.7898 O   0  0  0  0  0  0  0  0  0  0  0  0
  149.4408  139.2710  157.6802 C   0  0  0  0  0  0  0  0  0  0  0  0
  150.3232  140.0964  158.4266 O   0  0  0  0  0  0  0  0  0  0  0  0
  151.3492  140.6953  157.6486 C   0  0  0  0  0  0  0  0  0  0  0  0
  151.9274  141.9480  158.2863 C   0  0  0  0  0  0  0  0  0  0  0  0
  151.6611  143.2143  157.7229 C   0  0  0  0  0  0  0  0  0  0  0  0
  152.1984  144.3776  158.3074 C   0  0  0  0  0  0  0  0  0  0  0  0
  153.0080  144.2797  159.4553 C   0  0  0  0  0  0  0  0  0  0  0  0
  153.2816  143.0178  160.0171 C   0  0  0  0  0  0  0  0  0  0  0  0
  152.7454  141.8530  159.4338 C   0  0  0  0  0  0  0  0  0  0  0  0
  153.0193  140.6449  159.9821 F   0  0  0  0  0  0  0  0  0  0  0  0
  147.2325  136.1815  160.0092 C   0  0  0  0  0  0  0  0  0  0  0  0
  147.2330  137.2637  160.5979 O   0  0  0  0  0  0  0  0  0  0  0  0
  146.9016  134.9055  160.6478 C   0  0  0  0  0  0  0  0  0  0  0  0
  146.5653  134.9819  162.0330 C   0  0  0  0  0  0  0  0  0  0  0  0
  146.3124  135.0394  163.1613 N   0  0  0  0  0  0  0  0  0  0  0  0
  146.9168  133.7313  159.9688 C   0  0  0  0  0  0  0  0  0  0  0  0
  146.5818  132.3807  160.5867 C   0  0  0  0  0  0  0  0  0  0  0  0
  147.9980  131.7640  158.1490 H   0  0  0  0  0  0  0  0  0  0  0  0
  147.7587  132.7380  156.7050 H   0  0  0  0  0  0  0  0  0  0  0  0
  146.3647  132.0864  157.5619 H   0  0  0  0  0  0  0  0  0  0  0  0
  148.2203  136.9450  156.8792 H   0  0  0  0  0  0  0  0  0  0  0  0
  147.0076  137.8362  157.7259 H   0  0  0  0  0  0  0  0  0  0  0  0
  148.6540  138.4859  159.5222 H   0  0  0  0  0  0  0  0  0  0  0  0
  150.0221  136.4715  158.3311 H   0  0  0  0  0  0  0  0  0  0  0  0
  149.9645  138.9038  156.7960 H   0  0  0  0  0  0  0  0  0  0  0  0
  148.5697  139.8310  157.3361 H   0  0  0  0  0  0  0  0  0  0  0  0
  152.1563  139.9703  157.5433 H   0  0  0  0  0  0  0  0  0  0  0  0
  150.9864  140.9016  156.6404 H   0  0  0  0  0  0  0  0  0  0  0  0
  151.0414  143.2986  156.8423 H   0  0  0  0  0  0  0  0  0  0  0  0
  151.9900  145.3449  157.8742 H   0  0  0  0  0  0  0  0  0  0  0  0
  153.4206  145.1718  159.9031 H   0  0  0  0  0  0  0  0  0  0  0  0
  153.9050  142.9426  160.8960 H   0  0  0  0  0  0  0  0  0  0  0  0
  146.1984  132.4767  161.6020 H   0  0  0  0  0  0  0  0  0  0  0  0
  147.4707  131.7503  160.6258 H   0  0  0  0  0  0  0  0  0  0  0  0
  145.8195  131.8653  160.0017 H   0  0  0  0  0  0  0  0  0  0  0  0
  1  2  1  0  0  0  0
  1 25  1  0  0  0  0
  1 26  1  0  0  0  0
  1 27  1  0  0  0  0
  2 23  1  0  0  0  0
  2  3  2  0  0  0  0
  3  4  1  0  0  0  0
  4  5  1  0  0  0  0
  4 18  1  0  0  0  0
  5  6  1  0  0  0  0
  5 28  1  0  0  0  0
  5 29  1  0  0  0  0
  6  7  1  0  0  0  0
  6  8  1  0  0  0  0
  6 30  1  0  0  0  0
  7 31  1  0  0  0  0
  8  9  1  0  0  0  0
  8 32  1  0  0  0  0
  8 33  1  0  0  0  0
  9 10  1  0  0  0  0
 10 11  1  0  0  0  0
 10 34  1  0  0  0  0
 10 35  1  0  0  0  0
 11 16  1  0  0  0  0
 11 12  2  0  0  0  0
 12 13  1  0  0  0  0
 12 36  1  0  0  0  0
 13 14  2  0  0  0  0
 13 37  1  0  0  0  0
 14 15  1  0  0  0  0
 14 38  1  0  0  0  0
 15 16  2  0  0  0  0
 15 39  1  0  0  0  0
 16 17  1  0  0  0  0
 18 19  2  0  0  0  0
 18 20  1  0  0  0  0
 20 21  1  0  0  0  0
 20 23  2  0  0  0  0
 21 22  3  0  0  0  0
 23 24  1  0  0  0  0
 24 40  1  0  0  0  0
 24 41  1  0  0  0  0
 24 42  1  0  0  0  0
M  END
> <s_m_source_file>
AV-unprocessed.smi

> <i_m_source_file_index>
1471

> <i_lp_mmshare_version>
43012

> <i_f3d_flags>
0

> <s_epik_input>
TiNDYyhjMVtDSDNdKWMoPU8pbihuYzFbQ0gzXSlbQ0gyXVtDQEhdKFtPSF0pW0NIMl1PW0NIMl1jMltjSF1bY0hdW2NIXVtjSF1jMkY=

> <s_epik_cmdline>
J2VwaWtfcHl0aG9uJywgJy1waCcsICc3LjAnLCAnLXRuJywgJzgnLCAnLW1hJywgJzIwMCcsICctbWV0YWxfYmluZGluZycsICctaW1hZScsICc8aW5maWxlLm1hZT4nLCAnLW9tYWUnLCAnPG91dGZpbGUubWFlPic=

> <r_lp_tautomer_probability>
1

> <r_epik_Ionization_Penalty>
6.13319e-08

> <r_epik_Ionization_Penalty_Charging>
2.19172e-10

> <r_epik_Ionization_Penalty_Neutral>
6.11128e-08

> <r_epik_State_Penalty>
-0

> <r_epik_Charging_Adjusted_Penalty>
2.19172e-10

> <i_epik_Tot_Q>
0

> <i_epik_Tot_abs_Q>
0

> <r_epik_Metal_State_Penalty>
-0

> <b_epik_Metal_Only>
0

> <s_lp_Force_Field>
OPLS_2005

> <r_lp_Energy>
30.1465

> <b_lp_Chiralities_Consistent>
1

> <s_lp_Variant>
AV-unprocessed.smi:1471-2

> <Gold.Version>
5.8.1

> <Gold.Id.Protein>
6NUR|6NUR_protein|mol2

> <Gold.PLP.Fitness>
51.4477

> <Gold.PLP.PLP>
-46.9173

> <Gold.PLP.part.hbond>
-3.7208

> <Gold.PLP.part.metal>
0.0000

> <Gold.PLP.part.buried>
-5.0092

> <Gold.PLP.part.nonpolar>
-38.2851

> <Gold.PLP.part.repulsive>
0.0418

> <Gold.PLP.ligand.clash>
0.0000

> <Gold.PLP.ligand.torsion>
0.5703

> <Gold.PLP.Chemscore.Hbond>
1.8320

> <Gold.PLP.Chemscore.CHOScore>
0.0000

> <Gold.PLP.Chemscore.Metal>
0.0000

> <Gold.Chemscore.Hbonds>
donor molecule, donor type, donor heavy atom, donor atom, acceptor molecule, acceptor atom, score
      P1  H  6934  6947       L1    19  1.00

> <Gold.PLP.Chemscore.Internal.Correction>
0.1749

> <Gold.Rescore>
     Score         DG    S(hbond)    S(metal)    S(lipo)     H(rot)  DE(clash)    DE(int)     intcor
     14.44     -16.67       1.72        0.00     104.51       2.65       0.17       2.07       ----

> <Gold.Chemscore.Fitness>
14.4388

> <Gold.Chemscore.DG>
-16.6743

> <Gold.Chemscore.ZeroCoef>
-5.4800

> <Gold.Chemscore.Hbond>
1.7193

> <Gold.Chemscore.Metal>
0.0000

> <Gold.Chemscore.Lipo>
104.5138

> <Gold.Chemscore.Internal_Hbond>
0.0000

> <Gold.Chemscore.DEClash>
0.1657

> <Gold.Chemscore.DEInternal>
2.0698

> <Gold.Chemscore.Rot>
2.6470

> <Gold.Chemscore.Internal.Correction>
   9.000000E+99

> <Gold.Chemscore.Hbonds>
donor molecule, donor type, donor heavy atom, donor atom, acceptor molecule, acceptor atom, score
      P1  H  6931  6943       L1    19  0.05
      P1  H  6934  6947       L1    19  0.99

> <Gold.Chemscore.Hbond.Weighted>
-5.7424

> <Gold.Chemscore.Metal.Weighted>
-0.0000

> <Gold.Chemscore.Lipo.Weighted>
-12.2281

> <Gold.Chemscore.Internal_Hbond.Weighted>
0.0000

> <Gold.Chemscore.DEClash.Weighted>
0.1657

> <Gold.Chemscore.DEInternal.Weighted>
2.0698

> <Gold.Chemscore.Rot.Weighted>
6.7762

> <Gold.Chemscore.Internal.Correction.Weighted>
   9.000000E+99

> <Gold.Protein.RotatedTorsions>
[ 6907 6896 6895 6894 ] final  125.48 input  -60.11 | X-H torsion
[ 7974 7965 7964 7962 ] final   18.23 input  175.53 | X-H torsion
[ 8008 7997 7996 7995 ] final  -20.82 input   59.86 | X-H torsion
[ 10167 10162 10161 10158 ] final   76.74 input  -65.29 | X-H torsion
[ 10718 10713 10712 10709 ] final  147.72 input   66.30 | X-H torsion
[ 10763 10752 10751 10750 ] final   88.26 input  -60.55 | X-H torsion
[ 11005 11000 10999 10996 ] final  -45.84 input  -57.11 | X-H torsion

> <Gold.Protein.ActiveResidues>
 VAL166  LYS551  ARG553  GLY616  TRP617  ASP618  TYR619  PRO620  LYS621  CYS622 
 ASP623  PHE694  ASN695  SER759  ASP760  ASP761  ALA762  ILE779  LEU786  VAL792 
 PHE793  MET794  SER795  GLU796  ALA797  LYS798  CYS799  TRP800  GLU811  SER814 

> <Gold.Protein.RotatedAtoms>
  152.3988  133.6787  159.6298 H   0  0  0  0  0  0  0  0  0  0  0  0  # atno 6907 bound_to 6896
  150.7883  133.8827  159.3299 H   0  0  0  0  0  0  0  0  0  0  0  0  # atno 6908 bound_to 6896
  151.6598  135.0992  160.0228 H   0  0  0  0  0  0  0  0  0  0  0  0  # atno 6909 bound_to 6896
  146.2192  139.8488  142.8626 H   0  0  0  0  0  0  0  0  0  0  0  0  # atno 7974 bound_to 7965
  154.4745  140.2051  155.9912 H   0  0  0  0  0  0  0  0  0  0  0  0  # atno 8008 bound_to 7997
  156.1066  140.3235  155.7985 H   0  0  0  0  0  0  0  0  0  0  0  0  # atno 8009 bound_to 7997
  155.4706  140.0531  157.2970 H   0  0  0  0  0  0  0  0  0  0  0  0  # atno 8010 bound_to 7997
  139.9890  144.5771  150.7834 H   0  0  0  0  0  0  0  0  0  0  0  0  # atno 10167 bound_to 10162
  157.3175  131.0898  151.1267 H   0  0  0  0  0  0  0  0  0  0  0  0  # atno 10718 bound_to 10713
  153.1751  135.4513  154.9954 H   0  0  0  0  0  0  0  0  0  0  0  0  # atno 10763 bound_to 10752
  154.7992  135.3249  154.7594 H   0  0  0  0  0  0  0  0  0  0  0  0  # atno 10764 bound_to 10752
  153.8065  135.6958  153.4902 H   0  0  0  0  0  0  0  0  0  0  0  0  # atno 10765 bound_to 10752
  141.0541  133.6732  156.3069 H   0  0  0  0  0  0  0  0  0  0  0  0  # atno 11005 bound_to 11000
  145.2823  141.0142  143.3710 LP  0  0  0  0  0  0  0  0  0  0  0  0  # atno 17320 bound_to 7965
  144.9140  139.4493  143.6573 LP  0  0  0  0  0  0  0  0  0  0  0  0  # atno 17321 bound_to 7965
  140.7462  143.2886  151.3392 LP  0  0  0  0  0  0  0  0  0  0  0  0  # atno 17342 bound_to 10162
  139.6354  144.0641  152.2511 LP  0  0  0  0  0  0  0  0  0  0  0  0  # atno 17343 bound_to 10162
  157.2565  130.6639  149.5955 LP  0  0  0  0  0  0  0  0  0  0  0  0  # atno 17370 bound_to 10713
  155.9683  130.4522  150.5764 LP  0  0  0  0  0  0  0  0  0  0  0  0  # atno 17371 bound_to 10713
  140.5999  134.5566  157.5515 LP  0  0  0  0  0  0  0  0  0  0  0  0  # atno 17394 bound_to 11000
  139.9375  134.7848  156.0765 LP  0  0  0  0  0  0  0  0  0  0  0  0  # atno 17395 bound_to 11000

$$$$
