AV-unprocessed.smi:246|AV-procd|sdf|1880|dock5
  -GOLD-   2262020523D 1   1.00000     0.00000
 Structure written by MMmdl.
 57 60  0  0  0  0  0  0  0  0  1 V2000
  145.0330  143.6244  162.0170 C   0  0  0  0  0  0  0  0  0  0  0  0
  144.8466  144.2051  160.6086 C   0  0  0  0  0  0  0  0  0  0  0  0
  146.0782  144.6351  160.0461 O   0  0  0  0  0  0  0  0  0  0  0  0
  146.6389  145.7821  160.6686 C   0  0  0  0  0  0  0  0  0  0  0  0
  147.9024  145.3624  161.4250 C   0  0  0  0  0  0  0  0  0  0  0  0
  148.4721  144.2300  160.7853 O   0  0  0  0  0  0  0  0  0  0  0  0
  149.2590  144.5533  159.6480 C   0  0  1  0  0  0  0  0  0  0  0  0
  150.6919  144.9429  160.0056 C   0  0  0  0  0  0  0  0  0  0  0  0
  151.4520  144.6204  158.7217 C   0  0  0  0  0  0  0  0  0  0  0  0
  150.7638  143.4833  158.1156 N   0  0  0  0  0  0  0  0  0  0  0  0
  151.4574  142.3260  158.0204 C   0  0  0  0  0  0  0  0  0  0  0  0
  151.3256  141.5353  156.9219 N   0  0  0  0  0  0  0  0  0  0  0  0
  152.0305  140.4039  156.8248 C   0  0  0  0  0  0  0  0  0  0  0  0
  152.9041  139.8873  157.6921 N   0  0  0  0  0  0  0  0  0  0  0  0
  153.0394  140.6822  158.7925 C   0  0  0  0  0  0  0  0  0  0  0  0
  152.3638  141.9114  159.0309 C   0  0  0  0  0  0  0  0  0  0  0  0
  152.7581  142.4442  160.2515 N   0  0  0  0  0  0  0  0  0  0  0  0
  153.6139  141.5736  160.7141 C   0  0  0  0  0  0  0  0  0  0  0  0
  153.8288  140.4758  159.9105 N   0  0  0  0  0  0  0  0  0  0  0  0
  154.7246  139.3645  160.1792 C   0  0  0  0  0  0  0  0  0  0  0  0
  155.2639  139.3318  161.6280 C   0  0  2  0  0  0  0  0  0  0  0  0
  156.6362  139.6554  161.5276 O   0  0  0  0  0  0  0  0  0  0  0  0
  155.1694  137.9629  162.3423 C   0  0  2  0  0  0  0  0  0  0  0  0
  153.7578  137.3934  162.5266 C   0  0  0  0  0  0  0  0  0  0  0  0
  153.8458  136.5562  163.7940 C   0  0  0  0  0  0  0  0  0  0  0  0
  155.2066  136.9224  164.3828 C   0  0  0  0  0  0  0  0  0  0  0  0
  155.5757  138.1076  163.6962 O   0  0  0  0  0  0  0  0  0  0  0  0
  149.4626  143.3220  158.7600 C   0  0  0  0  0  0  0  0  0  0  0  0
  148.7907  145.3437  159.0583 H   0  0  0  0  0  0  0  0  0  0  0  0
  144.0680  143.3908  162.4668 H   0  0  0  0  0  0  0  0  0  0  0  0
  145.5396  144.3364  162.6689 H   0  0  0  0  0  0  0  0  0  0  0  0
  145.6170  142.7046  162.0041 H   0  0  0  0  0  0  0  0  0  0  0  0
  144.3446  143.4929  159.9522 H   0  0  0  0  0  0  0  0  0  0  0  0
  144.1953  145.0772  160.6726 H   0  0  0  0  0  0  0  0  0  0  0  0
  146.8734  146.5627  159.9447 H   0  0  0  0  0  0  0  0  0  0  0  0
  145.9169  146.1946  161.3748 H   0  0  0  0  0  0  0  0  0  0  0  0
  148.6255  146.1792  161.4117 H   0  0  0  0  0  0  0  0  0  0  0  0
  147.6607  145.1566  162.4682 H   0  0  0  0  0  0  0  0  0  0  0  0
  150.7954  145.9855  160.3066 H   0  0  0  0  0  0  0  0  0  0  0  0
  151.0584  144.3143  160.8184 H   0  0  0  0  0  0  0  0  0  0  0  0
  151.3858  145.4590  158.0279 H   0  0  0  0  0  0  0  0  0  0  0  0
  152.5117  144.4437  158.9112 H   0  0  0  0  0  0  0  0  0  0  0  0
  151.8714  139.8307  155.9233 H   0  0  0  0  0  0  0  0  0  0  0  0
  154.1099  141.7056  161.6649 H   0  0  0  0  0  0  0  0  0  0  0  0
  154.2175  138.4285  159.9422 H   0  0  0  0  0  0  0  0  0  0  0  0
  155.5546  139.4505  159.4762 H   0  0  0  0  0  0  0  0  0  0  0  0
  154.7762  140.1026  162.2256 H   0  0  0  0  0  0  0  0  0  0  0  0
  157.1235  139.0775  162.0947 H   0  0  0  0  0  0  0  0  0  0  0  0
  155.8028  137.2228  161.8487 H   0  0  0  0  0  0  0  0  0  0  0  0
  153.0388  138.1989  162.6798 H   0  0  0  0  0  0  0  0  0  0  0  0
  153.4307  136.8049  161.6702 H   0  0  0  0  0  0  0  0  0  0  0  0
  153.0359  136.8130  164.4778 H   0  0  0  0  0  0  0  0  0  0  0  0
  153.7836  135.4878  163.5844 H   0  0  0  0  0  0  0  0  0  0  0  0
  155.1715  137.0802  165.4608 H   0  0  0  0  0  0  0  0  0  0  0  0
  155.9395  136.1414  164.1743 H   0  0  0  0  0  0  0  0  0  0  0  0
  149.4475  142.4165  159.3700 H   0  0  0  0  0  0  0  0  0  0  0  0
  148.6691  143.2309  158.0180 H   0  0  0  0  0  0  0  0  0  0  0  0
  1  2  1  0  0  0  0
  1 30  1  0  0  0  0
  1 31  1  0  0  0  0
  1 32  1  0  0  0  0
  2  3  1  0  0  0  0
  2 33  1  0  0  0  0
  2 34  1  0  0  0  0
  3  4  1  0  0  0  0
  4  5  1  0  0  0  0
  4 35  1  0  0  0  0
  4 36  1  0  0  0  0
  5  6  1  0  0  0  0
  5 37  1  0  0  0  0
  5 38  1  0  0  0  0
  6  7  1  0  0  0  0
  7 29  1  0  0  0  0
  7 28  1  0  0  0  0
  7  8  1  0  0  0  0
  8  9  1  0  0  0  0
  8 39  1  0  0  0  0
  8 40  1  0  0  0  0
  9 10  1  0  0  0  0
  9 41  1  0  0  0  0
  9 42  1  0  0  0  0
 10 11  1  0  0  0  0
 10 28  1  0  0  0  0
 11 16  1  0  0  0  0
 11 12  2  0  0  0  0
 12 13  1  0  0  0  0
 13 14  2  0  0  0  0
 13 43  1  0  0  0  0
 14 15  1  0  0  0  0
 15 19  1  0  0  0  0
 15 16  2  0  0  0  0
 16 17  1  0  0  0  0
 17 18  2  0  0  0  0
 18 19  1  0  0  0  0
 18 44  1  0  0  0  0
 19 20  1  0  0  0  0
 20 21  1  0  0  0  0
 20 45  1  0  0  0  0
 20 46  1  0  0  0  0
 21 22  1  0  0  0  0
 21 23  1  0  0  0  0
 21 47  1  0  0  0  0
 22 48  1  0  0  0  0
 23 27  1  0  0  0  0
 23 24  1  0  0  0  0
 23 49  1  0  0  0  0
 24 25  1  0  0  0  0
 24 50  1  0  0  0  0
 24 51  1  0  0  0  0
 25 26  1  0  0  0  0
 25 52  1  0  0  0  0
 25 53  1  0  0  0  0
 26 27  1  0  0  0  0
 26 54  1  0  0  0  0
 26 55  1  0  0  0  0
 28 56  1  0  0  0  0
 28 57  1  0  0  0  0
M  END
> <s_m_source_file>
AV-unprocessed.smi

> <i_m_source_file_index>
246

> <i_lp_mmshare_version>
43012

> <i_f3d_flags>
0

> <s_epik_input>
W0NIM11bQ0gyXU9bQ0gyXVtDSDJdT1tDQEhdMVtDSDJdW0NIMl1OKFtDSDJdMSljKG5bY0hdbjIpYyhjMjMpbltjSF1uM1tDSDJdW0NASF0oW09IXSlbQ0BASF00W0NIMl1bQ0gyXVtDSDJdTzQ=

> <s_epik_cmdline>
J2VwaWtfcHl0aG9uJywgJy1waCcsICc3LjAnLCAnLXRuJywgJzgnLCAnLW1hJywgJzIwMCcsICctbWV0YWxfYmluZGluZycsICctaW1hZScsICc8aW5maWxlLm1hZT4nLCAnLW9tYWUnLCAnPG91dGZpbGUubWFlPic=

> <r_lp_tautomer_probability>
1

> <r_epik_Ionization_Penalty>
0.0024631

> <r_epik_Ionization_Penalty_Charging>
0

> <r_epik_Ionization_Penalty_Neutral>
0.0024631

> <r_epik_State_Penalty>
0.00162428

> <r_epik_Charging_Adjusted_Penalty>
0.00162428

> <i_epik_Tot_Q>
0

> <i_epik_Tot_abs_Q>
0

> <r_epik_Metal_State_Penalty>
-0

> <b_epik_Metal_Only>
0

> <s_lp_Force_Field>
OPLS_2005

> <r_lp_Energy>
54.9549

> <b_lp_Chiralities_Consistent>
1

> <s_lp_Variant>
AV-unprocessed.smi:246-1

> <Gold.Version>
5.8.1

> <Gold.Id.Protein>
6NUR|6NUR_protein|mol2

> <Gold.PLP.Fitness>
54.3616

> <Gold.PLP.PLP>
-52.8185

> <Gold.PLP.part.hbond>
-2.0000

> <Gold.PLP.part.metal>
0.0000

> <Gold.PLP.part.buried>
-8.7557

> <Gold.PLP.part.nonpolar>
-43.8692

> <Gold.PLP.part.repulsive>
0.4940

> <Gold.PLP.ligand.clash>
0.0000

> <Gold.PLP.ligand.torsion>
2.4136

> <Gold.PLP.Chemscore.Hbond>
1.9120

> <Gold.PLP.Chemscore.CHOScore>
0.0000

> <Gold.PLP.Chemscore.Metal>
0.0000

> <Gold.Chemscore.Hbonds>
donor molecule, donor type, donor heavy atom, donor atom, acceptor molecule, acceptor atom, score
      P1  H  6933  6944       L1     6  0.94
      P1  H  7997  8009       L1    14  0.90

> <Gold.PLP.Chemscore.Internal.Correction>
0.6344

> <Gold.Rescore>
     Score         DG    S(hbond)    S(metal)    S(lipo)     H(rot)  DE(clash)    DE(int)     intcor
     10.20     -13.86       1.22        0.00     110.56       3.37       0.05       3.61       ----

> <Gold.Chemscore.Fitness>
10.2001

> <Gold.Chemscore.DG>
-13.8554

> <Gold.Chemscore.ZeroCoef>
-5.4800

> <Gold.Chemscore.Hbond>
1.2206

> <Gold.Chemscore.Metal>
0.0000

> <Gold.Chemscore.Lipo>
110.5605

> <Gold.Chemscore.Internal_Hbond>
0.0000

> <Gold.Chemscore.DEClash>
0.0464

> <Gold.Chemscore.DEInternal>
3.6089

> <Gold.Chemscore.Rot>
3.3739

> <Gold.Chemscore.Internal.Correction>
   9.000000E+99

> <Gold.Chemscore.Hbonds>
donor molecule, donor type, donor heavy atom, donor atom, acceptor molecule, acceptor atom, score
      P1  H  6933  6944       L1     6  0.87
      P1  H  7997  8009       L1    14  0.11

> <Gold.Chemscore.Hbond.Weighted>
-4.0770

> <Gold.Chemscore.Metal.Weighted>
-0.0000

> <Gold.Chemscore.Lipo.Weighted>
-12.9356

> <Gold.Chemscore.Internal_Hbond.Weighted>
0.0000

> <Gold.Chemscore.DEClash.Weighted>
0.0464

> <Gold.Chemscore.DEInternal.Weighted>
3.6089

> <Gold.Chemscore.Rot.Weighted>
8.6371

> <Gold.Chemscore.Internal.Correction.Weighted>
   9.000000E+99

> <Gold.Protein.RotatedTorsions>
[ 6907 6896 6895 6894 ] final   79.69 input  -60.11 | X-H torsion
[ 7974 7965 7964 7962 ] final   10.84 input  175.53 | X-H torsion
[ 8008 7997 7996 7995 ] final  178.67 input   59.86 | X-H torsion
[ 10167 10162 10161 10158 ] final   -8.56 input  -65.29 | X-H torsion
[ 10718 10713 10712 10709 ] final  159.93 input   66.30 | X-H torsion
[ 10763 10752 10751 10750 ] final -149.71 input  -60.55 | X-H torsion
[ 11005 11000 10999 10996 ] final -123.14 input  -57.11 | X-H torsion

> <Gold.Protein.ActiveResidues>
 VAL166  LYS551  ARG553  GLY616  TRP617  ASP618  TYR619  PRO620  LYS621  CYS622 
 ASP623  PHE694  ASN695  SER759  ASP760  ASP761  ALA762  ILE779  LEU786  VAL792 
 PHE793  MET794  SER795  GLU796  ALA797  LYS798  CYS799  TRP800  GLU811  SER814 

> <Gold.Protein.RotatedAtoms>
  152.5208  134.3473  159.9238 H   0  0  0  0  0  0  0  0  0  0  0  0  # atno 6907 bound_to 6896
  151.3423  133.3951  159.2680 H   0  0  0  0  0  0  0  0  0  0  0  0  # atno 6908 bound_to 6896
  150.9793  134.9169  159.7892 H   0  0  0  0  0  0  0  0  0  0  0  0  # atno 6909 bound_to 6896
  146.2381  139.9574  142.8463 H   0  0  0  0  0  0  0  0  0  0  0  0  # atno 7974 bound_to 7965
  156.0520  140.1327  157.0039 H   0  0  0  0  0  0  0  0  0  0  0  0  # atno 8008 bound_to 7997
  154.4440  140.1009  156.6461 H   0  0  0  0  0  0  0  0  0  0  0  0  # atno 8009 bound_to 7997
  155.5508  140.3463  155.4470 H   0  0  0  0  0  0  0  0  0  0  0  0  # atno 8010 bound_to 7997
  140.7062  143.5955  150.8850 H   0  0  0  0  0  0  0  0  0  0  0  0  # atno 10167 bound_to 10162
  157.1575  131.0579  151.2249 H   0  0  0  0  0  0  0  0  0  0  0  0  # atno 10718 bound_to 10713
  154.8161  135.3302  154.7171 H   0  0  0  0  0  0  0  0  0  0  0  0  # atno 10763 bound_to 10752
  153.7812  135.6918  153.4892 H   0  0  0  0  0  0  0  0  0  0  0  0  # atno 10764 bound_to 10752
  153.1979  135.4527  155.0178 H   0  0  0  0  0  0  0  0  0  0  0  0  # atno 10765 bound_to 10752
  140.9942  134.0495  157.3618 H   0  0  0  0  0  0  0  0  0  0  0  0  # atno 11005 bound_to 11000
  145.1803  140.9764  143.4270 LP  0  0  0  0  0  0  0  0  0  0  0  0  # atno 17320 bound_to 7965
  144.9948  139.3655  143.6197 LP  0  0  0  0  0  0  0  0  0  0  0  0  # atno 17321 bound_to 7965
  139.9680  143.6089  152.2982 LP  0  0  0  0  0  0  0  0  0  0  0  0  # atno 17342 bound_to 10162
  139.6665  144.7662  151.1863 LP  0  0  0  0  0  0  0  0  0  0  0  0  # atno 17343 bound_to 10162
  157.4164  130.7413  149.6878 LP  0  0  0  0  0  0  0  0  0  0  0  0  # atno 17370 bound_to 10713
  155.9759  130.4082  150.3813 LP  0  0  0  0  0  0  0  0  0  0  0  0  # atno 17371 bound_to 10713
  139.9007  135.0163  156.7252 LP  0  0  0  0  0  0  0  0  0  0  0  0  # atno 17394 bound_to 11000
  140.6992  133.9321  155.8014 LP  0  0  0  0  0  0  0  0  0  0  0  0  # atno 17395 bound_to 11000

$$$$
