AV-unprocessed.smi:1576|AV-procd|sdf|6344|dock7
  -GOLD-   22720 6563D 1   1.00000     0.00000
 Structure written by MMmdl.
 45 47  0  0  0  0  0  0  0  0  1 V2000
  149.5821  135.4587  156.3790 O   0  0  0  0  0  0  0  0  0  0  0  0
  149.5052  135.7278  155.1808 C   0  0  0  0  0  0  0  0  0  0  0  0
  149.8031  136.9159  154.6272 N   0  0  0  0  0  0  0  0  0  0  0  0
  150.2421  138.1092  155.2631 C   0  0  0  0  0  0  0  0  0  0  0  0
  150.1568  139.4003  154.6921 C   0  0  0  0  0  0  0  0  0  0  0  0
  150.6438  140.5021  155.4214 C   0  0  0  0  0  0  0  0  0  0  0  0
  151.2123  140.2912  156.6995 C   0  0  0  0  0  0  0  0  0  0  0  0
  151.7049  141.3836  157.4461 N   0  0  0  0  0  0  0  0  0  0  0  0
  152.1748  141.0605  158.7947 C   0  0  0  0  0  0  0  0  0  0  0  0
  153.0500  142.1904  159.3639 C   0  0  0  0  0  0  0  0  0  0  0  0
  152.3209  143.5407  159.3002 C   0  0  0  0  0  0  0  0  0  0  0  0
  151.8613  143.8219  157.8622 C   0  0  0  0  0  0  0  0  0  0  0  0
  151.0056  142.6649  157.3191 C   0  0  0  0  0  0  0  0  0  0  0  0
  151.2997  139.0510  157.2398 N   0  0  0  0  0  0  0  0  0  0  0  0
  150.8334  137.9981  156.5371 C   0  0  0  0  0  0  0  0  0  0  0  0
  149.1210  134.8432  154.2495 N   0  0  0  0  0  0  0  0  0  0  0  0
  148.7502  133.4559  154.5139 C   0  0  1  0  0  0  0  0  0  0  0  0
  148.6895  132.6107  153.2247 C   0  0  0  0  0  0  0  0  0  0  0  0
  148.6687  131.1266  153.6109 C   0  0  0  0  0  0  0  0  0  0  0  0
  149.6240  130.9929  155.1691 S   0  0  0  0  0  0  0  0  0  0  0  0
  148.7690  130.3897  156.2026 O   0  0  0  0  0  0  0  0  0  0  0  0
  150.9616  130.4524  154.8830 O   0  0  0  0  0  0  0  0  0  0  0  0
  149.7597  132.7965  155.4644 C   0  0  0  0  0  0  0  0  0  0  0  0
  149.7613  136.9567  153.6194 H   0  0  0  0  0  0  0  0  0  0  0  0
  149.7403  139.5701  153.7119 H   0  0  0  0  0  0  0  0  0  0  0  0
  150.5663  141.4930  154.9992 H   0  0  0  0  0  0  0  0  0  0  0  0
  151.3062  140.9064  159.4362 H   0  0  0  0  0  0  0  0  0  0  0  0
  152.7427  140.1312  158.8129 H   0  0  0  0  0  0  0  0  0  0  0  0
  153.3281  141.9636  160.3934 H   0  0  0  0  0  0  0  0  0  0  0  0
  153.9806  142.2509  158.7978 H   0  0  0  0  0  0  0  0  0  0  0  0
  151.4578  143.5253  159.9668 H   0  0  0  0  0  0  0  0  0  0  0  0
  152.9747  144.3397  159.6507 H   0  0  0  0  0  0  0  0  0  0  0  0
  151.2964  144.7536  157.8240 H   0  0  0  0  0  0  0  0  0  0  0  0
  152.7332  143.9614  157.2217 H   0  0  0  0  0  0  0  0  0  0  0  0
  150.7659  142.8613  156.2732 H   0  0  0  0  0  0  0  0  0  0  0  0
  150.0612  142.6122  157.8625 H   0  0  0  0  0  0  0  0  0  0  0  0
  150.9326  137.0335  157.0133 H   0  0  0  0  0  0  0  0  0  0  0  0
  149.0904  135.1482  153.2878 H   0  0  0  0  0  0  0  0  0  0  0  0
  147.7695  133.4266  154.9929 H   0  0  0  0  0  0  0  0  0  0  0  0
  147.8309  132.8714  152.6052 H   0  0  0  0  0  0  0  0  0  0  0  0
  149.5820  132.8028  152.6275 H   0  0  0  0  0  0  0  0  0  0  0  0
  147.6499  130.7951  153.8128 H   0  0  0  0  0  0  0  0  0  0  0  0
  149.0998  130.4807  152.8458 H   0  0  0  0  0  0  0  0  0  0  0  0
  150.7818  133.0929  155.2263 H   0  0  0  0  0  0  0  0  0  0  0  0
  149.5675  133.0209  156.5138 H   0  0  0  0  0  0  0  0  0  0  0  0
  1  2  2  0  0  0  0
  2  3  1  0  0  0  0
  2 16  1  0  0  0  0
  3  4  1  0  0  0  0
  3 24  1  0  0  0  0
  4 15  1  0  0  0  0
  4  5  2  0  0  0  0
  5  6  1  0  0  0  0
  5 25  1  0  0  0  0
  6  7  2  0  0  0  0
  6 26  1  0  0  0  0
  7  8  1  0  0  0  0
  7 14  1  0  0  0  0
  8 13  1  0  0  0  0
  8  9  1  0  0  0  0
  9 10  1  0  0  0  0
  9 27  1  0  0  0  0
  9 28  1  0  0  0  0
 10 11  1  0  0  0  0
 10 29  1  0  0  0  0
 10 30  1  0  0  0  0
 11 12  1  0  0  0  0
 11 31  1  0  0  0  0
 11 32  1  0  0  0  0
 12 13  1  0  0  0  0
 12 33  1  0  0  0  0
 12 34  1  0  0  0  0
 13 35  1  0  0  0  0
 13 36  1  0  0  0  0
 14 15  2  0  0  0  0
 15 37  1  0  0  0  0
 16 17  1  0  0  0  0
 16 38  1  0  0  0  0
 17 23  1  0  0  0  0
 17 18  1  0  0  0  0
 17 39  1  0  0  0  0
 18 19  1  0  0  0  0
 18 40  1  0  0  0  0
 18 41  1  0  0  0  0
 19 20  1  0  0  0  0
 19 42  1  0  0  0  0
 19 43  1  0  0  0  0
 20 21  2  0  0  0  0
 20 22  2  0  0  0  0
 20 23  1  0  0  0  0
 23 44  1  0  0  0  0
 23 45  1  0  0  0  0
M  END
> <s_m_source_file>
AV-unprocessed.smi

> <i_m_source_file_index>
1576

> <i_lp_mmshare_version>
43012

> <i_f3d_flags>
0

> <s_epik_input>
Tz1TMSg9TylbQ0gyXVtDSDJdW0NASF0oW0NIMl0xKVtOSF1DKD1PKVtOSF1jMltjSF1bY0hdYyhuW2NIXTIpTjNbQ0gyXVtDSDJdW0NIMl1bQ0gyXVtDSDJdMw==

> <s_epik_cmdline>
J2VwaWtfcHl0aG9uJywgJy1waCcsICc3LjAnLCAnLXRuJywgJzgnLCAnLW1hJywgJzIwMCcsICctbWV0YWxfYmluZGluZycsICctaW1hZScsICc8aW5maWxlLm1hZT4nLCAnLW9tYWUnLCAnPG91dGZpbGUubWFlPic=

> <r_lp_tautomer_probability>
1

> <r_epik_Ionization_Penalty>
0.0900267

> <r_epik_Ionization_Penalty_Charging>
0

> <r_epik_Ionization_Penalty_Neutral>
0.0900267

> <r_epik_State_Penalty>
0.0748882

> <r_epik_Charging_Adjusted_Penalty>
0.0748882

> <i_epik_Tot_Q>
0

> <i_epik_Tot_abs_Q>
0

> <r_epik_Metal_State_Penalty>
0.0662821

> <b_epik_Metal_Only>
0

> <s_lp_Force_Field>
OPLS_2005

> <r_lp_Energy>
22.1821

> <b_lp_Chiralities_Consistent>
1

> <s_lp_Variant>
AV-unprocessed.smi:1576-2

> <Gold.Version>
5.8.1

> <Gold.Id.Protein>
6NUR|6NUR_protein|mol2

> <Gold.PLP.Fitness>
43.7427

> <Gold.PLP.PLP>
-38.6323

> <Gold.PLP.part.hbond>
-2.0000

> <Gold.PLP.part.metal>
0.0000

> <Gold.PLP.part.buried>
-2.3872

> <Gold.PLP.part.nonpolar>
-34.6991

> <Gold.PLP.part.repulsive>
0.1098

> <Gold.PLP.ligand.clash>
0.0000

> <Gold.PLP.ligand.torsion>
0.6438

> <Gold.PLP.Chemscore.Hbond>
1.9920

> <Gold.PLP.Chemscore.CHOScore>
0.0000

> <Gold.PLP.Chemscore.Metal>
0.0000

> <Gold.Chemscore.Hbonds>
donor molecule, donor type, donor heavy atom, donor atom, acceptor molecule, acceptor atom, score
      L1  H     3    24       P1  7948  0.98
      L1  H    16    38       P1  7948  1.00

> <Gold.PLP.Chemscore.Internal.Correction>
0.4219

> <Gold.Rescore>
     Score         DG    S(hbond)    S(metal)    S(lipo)     H(rot)  DE(clash)    DE(int)     intcor
     15.82     -19.16       1.67        0.00      96.35       1.24       0.00       3.33       ----

> <Gold.Chemscore.Fitness>
15.8232

> <Gold.Chemscore.DG>
-19.1559

> <Gold.Chemscore.ZeroCoef>
-5.4800

> <Gold.Chemscore.Hbond>
1.6671

> <Gold.Chemscore.Metal>
0.0000

> <Gold.Chemscore.Lipo>
96.3544

> <Gold.Chemscore.Internal_Hbond>
0.0000

> <Gold.Chemscore.DEClash>
0.0000

> <Gold.Chemscore.DEInternal>
3.3327

> <Gold.Chemscore.Rot>
1.2366

> <Gold.Chemscore.Internal.Correction>
   9.000000E+99

> <Gold.Chemscore.Hbonds>
donor molecule, donor type, donor heavy atom, donor atom, acceptor molecule, acceptor atom, score
      L1  H     3    24       P1  7948  0.53
      L1  H    16    38       P1  7948  0.26

> <Gold.Chemscore.Hbond.Weighted>
-5.5681

> <Gold.Chemscore.Metal.Weighted>
-0.0000

> <Gold.Chemscore.Lipo.Weighted>
-11.2735

> <Gold.Chemscore.Internal_Hbond.Weighted>
0.0000

> <Gold.Chemscore.DEClash.Weighted>
0.0000

> <Gold.Chemscore.DEInternal.Weighted>
3.3327

> <Gold.Chemscore.Rot.Weighted>
3.1657

> <Gold.Chemscore.Internal.Correction.Weighted>
   9.000000E+99

> <Gold.Protein.RotatedTorsions>
[ 6907 6896 6895 6894 ] final   41.35 input  -60.11 | X-H torsion
[ 7974 7965 7964 7962 ] final   62.32 input  175.53 | X-H torsion
[ 8008 7997 7996 7995 ] final   73.60 input   59.86 | X-H torsion
[ 10167 10162 10161 10158 ] final   39.09 input  -65.29 | X-H torsion
[ 10718 10713 10712 10709 ] final  -10.21 input   66.30 | X-H torsion
[ 10763 10752 10751 10750 ] final   71.41 input  -60.55 | X-H torsion
[ 11005 11000 10999 10996 ] final -114.86 input  -57.11 | X-H torsion

> <Gold.Protein.ActiveResidues>
 VAL166  LYS551  ARG553  GLY616  TRP617  ASP618  TYR619  PRO620  LYS621  CYS622 
 ASP623  PHE694  ASN695  SER759  ASP760  ASP761  ALA762  ILE779  LEU786  VAL792 
 PHE793  MET794  SER795  GLU796  ALA797  LYS798  CYS799  TRP800  GLU811  SER814 

> <Gold.Protein.RotatedAtoms>
  152.1942  134.8645  160.0514 H   0  0  0  0  0  0  0  0  0  0  0  0  # atno 6907 bound_to 6896
  151.9523  133.3664  159.4012 H   0  0  0  0  0  0  0  0  0  0  0  0  # atno 6908 bound_to 6896
  150.6941  134.4251  159.5267 H   0  0  0  0  0  0  0  0  0  0  0  0  # atno 6909 bound_to 6896
  145.8747  139.3401  143.0742 H   0  0  0  0  0  0  0  0  0  0  0  0  # atno 7974 bound_to 7965
  155.7861  140.3480  155.5323 H   0  0  0  0  0  0  0  0  0  0  0  0  # atno 8008 bound_to 7997
  155.8680  140.0982  157.1589 H   0  0  0  0  0  0  0  0  0  0  0  0  # atno 8009 bound_to 7997
  154.4016  140.1346  156.4031 H   0  0  0  0  0  0  0  0  0  0  0  0  # atno 8010 bound_to 7997
  140.3873  144.1899  150.6130 H   0  0  0  0  0  0  0  0  0  0  0  0  # atno 10167 bound_to 10162
  156.6768  130.5025  149.5983 H   0  0  0  0  0  0  0  0  0  0  0  0  # atno 10718 bound_to 10713
  153.0397  135.5138  154.7588 H   0  0  0  0  0  0  0  0  0  0  0  0  # atno 10763 bound_to 10752
  154.6536  135.2928  154.9958 H   0  0  0  0  0  0  0  0  0  0  0  0  # atno 10764 bound_to 10752
  154.0834  135.6660  153.4894 H   0  0  0  0  0  0  0  0  0  0  0  0  # atno 10765 bound_to 10752
  141.0525  133.9665  157.2812 H   0  0  0  0  0  0  0  0  0  0  0  0  # atno 11005 bound_to 11000
  145.9095  140.9189  143.0461 LP  0  0  0  0  0  0  0  0  0  0  0  0  # atno 17320 bound_to 7965
  144.6726  140.1141  143.7453 LP  0  0  0  0  0  0  0  0  0  0  0  0  # atno 17321 bound_to 7965
  140.4876  143.2358  151.8866 LP  0  0  0  0  0  0  0  0  0  0  0  0  # atno 17342 bound_to 10162
  139.4791  144.5201  151.8813 LP  0  0  0  0  0  0  0  0  0  0  0  0  # atno 17343 bound_to 10162
  156.1897  130.6552  151.1048 LP  0  0  0  0  0  0  0  0  0  0  0  0  # atno 17370 bound_to 10713
  157.7058  131.0757  150.6672 LP  0  0  0  0  0  0  0  0  0  0  0  0  # atno 17371 bound_to 10713
  139.9362  135.0196  156.8562 LP  0  0  0  0  0  0  0  0  0  0  0  0  # atno 17394 bound_to 11000
  140.6028  134.0155  155.7544 LP  0  0  0  0  0  0  0  0  0  0  0  0  # atno 17395 bound_to 11000

$$$$
