AV-unprocessed.smi:20|AV-procd|sdf|114|dock4
  -GOLD-   2262015283D 1   1.00000     0.00000
 Structure written by MMmdl.
 57 61  0  0  0  0  0  0  0  0  1 V2000
  157.4065  139.3342  159.6097 O   0  0  0  0  0  0  0  0  0  0  0  0
  156.3509  139.5234  160.2092 C   0  0  0  0  0  0  0  0  0  0  0  0
  155.5145  140.7841  160.0702 C   0  0  0  0  0  0  0  0  0  0  0  0
  154.1541  140.3754  160.6828 C   0  0  1  0  0  0  0  0  0  0  0  0
  153.4632  141.5211  161.4578 C   0  0  0  0  0  0  0  0  0  0  0  0
  152.9607  142.6222  160.5088 C   0  0  0  0  0  0  0  0  0  0  0  0
  152.0509  142.0391  159.4167 C   0  0  0  0  0  0  0  0  0  0  0  0
  152.7233  140.9412  158.7241 N   0  0  0  0  0  0  0  0  0  0  0  0
  152.2529  140.5588  157.5107 C   0  0  0  0  0  0  0  0  0  0  0  0
  152.9365  139.6403  156.7769 N   0  0  0  0  0  0  0  0  0  0  0  0
  152.4867  139.2668  155.5751 C   0  0  0  0  0  0  0  0  0  0  0  0
  151.3944  139.6774  154.9280 N   0  0  0  0  0  0  0  0  0  0  0  0
  150.7001  140.5919  155.6634 C   0  0  0  0  0  0  0  0  0  0  0  0
  151.0527  141.0822  156.9520 C   0  0  0  0  0  0  0  0  0  0  0  0
  150.0955  141.9910  157.3897 N   0  0  0  0  0  0  0  0  0  0  0  0
  149.2338  142.0441  156.4109 C   0  0  0  0  0  0  0  0  0  0  0  0
  149.5250  141.2410  155.3315 N   0  0  0  0  0  0  0  0  0  0  0  0
  148.7525  141.1060  154.1098 C   0  0  0  0  0  0  0  0  0  0  0  0
  147.2649  140.7596  154.3682 C   0  0  2  0  0  0  0  0  0  0  0  0
  146.6037  140.0390  153.1679 C   0  0  0  0  0  0  0  0  0  0  0  0
  145.4889  139.2721  153.5754 O   0  0  0  0  0  0  0  0  0  0  0  0
  146.4590  142.0006  154.8279 C   0  0  2  0  0  0  0  0  0  0  0  0
  145.0469  141.7018  155.3007 C   0  0  0  0  0  0  0  0  0  0  0  0
  144.3834  143.0719  155.2207 C   0  0  0  0  0  0  0  0  0  0  0  0
  145.0018  143.7326  154.1229 O   0  0  0  0  0  0  0  0  0  0  0  0
  146.1705  143.0233  153.7231 C   0  0  0  0  0  0  0  0  0  0  0  0
  153.1919  139.8551  159.5849 C   0  0  0  0  0  0  0  0  0  0  0  0
  154.5419  139.2081  161.6195 C   0  0  0  0  0  0  0  0  0  0  0  0
  155.7729  138.6806  161.0623 N   0  0  0  0  0  0  0  0  0  0  0  0
  155.9923  141.5816  160.6404 H   0  0  0  0  0  0  0  0  0  0  0  0
  155.4428  141.1045  159.0304 H   0  0  0  0  0  0  0  0  0  0  0  0
  152.6164  141.1213  162.0174 H   0  0  0  0  0  0  0  0  0  0  0  0
  154.1425  141.9483  162.1962 H   0  0  0  0  0  0  0  0  0  0  0  0
  152.4235  143.3852  161.0723 H   0  0  0  0  0  0  0  0  0  0  0  0
  153.8112  143.1234  160.0449 H   0  0  0  0  0  0  0  0  0  0  0  0
  151.1243  141.6707  159.8585 H   0  0  0  0  0  0  0  0  0  0  0  0
  151.7830  142.8261  158.7103 H   0  0  0  0  0  0  0  0  0  0  0  0
  153.0892  138.5352  155.0574 H   0  0  0  0  0  0  0  0  0  0  0  0
  148.3608  142.6796  156.4461 H   0  0  0  0  0  0  0  0  0  0  0  0
  148.8408  142.0434  153.5607 H   0  0  0  0  0  0  0  0  0  0  0  0
  149.2177  140.3396  153.4886 H   0  0  0  0  0  0  0  0  0  0  0  0
  147.2474  140.0473  155.1945 H   0  0  0  0  0  0  0  0  0  0  0  0
  146.2782  140.7547  152.4128 H   0  0  0  0  0  0  0  0  0  0  0  0
  147.3153  139.3827  152.6676 H   0  0  0  0  0  0  0  0  0  0  0  0
  144.7652  139.4646  152.9989 H   0  0  0  0  0  0  0  0  0  0  0  0
  146.9911  142.5043  155.6368 H   0  0  0  0  0  0  0  0  0  0  0  0
  144.5540  141.0077  154.6184 H   0  0  0  0  0  0  0  0  0  0  0  0
  145.0073  141.2796  156.3052 H   0  0  0  0  0  0  0  0  0  0  0  0
  143.3032  143.0061  155.0912 H   0  0  0  0  0  0  0  0  0  0  0  0
  144.5825  143.6445  156.1273 H   0  0  0  0  0  0  0  0  0  0  0  0
  147.0045  143.7063  153.5605 H   0  0  0  0  0  0  0  0  0  0  0  0
  145.9566  142.5227  152.7778 H   0  0  0  0  0  0  0  0  0  0  0  0
  153.6741  139.0650  159.0102 H   0  0  0  0  0  0  0  0  0  0  0  0
  152.3166  139.3976  160.0482 H   0  0  0  0  0  0  0  0  0  0  0  0
  154.7462  139.5580  162.6326 H   0  0  0  0  0  0  0  0  0  0  0  0
  153.7722  138.4382  161.6816 H   0  0  0  0  0  0  0  0  0  0  0  0
  156.1466  137.7766  161.3131 H   0  0  0  0  0  0  0  0  0  0  0  0
  1  2  2  0  0  0  0
  2 29  1  0  0  0  0
  2  3  1  0  0  0  0
  3  4  1  0  0  0  0
  3 30  1  0  0  0  0
  3 31  1  0  0  0  0
  4 27  1  0  0  0  0
  4  5  1  0  0  0  0
  4 28  1  0  0  0  0
  5  6  1  0  0  0  0
  5 32  1  0  0  0  0
  5 33  1  0  0  0  0
  6  7  1  0  0  0  0
  6 34  1  0  0  0  0
  6 35  1  0  0  0  0
  7  8  1  0  0  0  0
  7 36  1  0  0  0  0
  7 37  1  0  0  0  0
  8  9  1  0  0  0  0
  8 27  1  0  0  0  0
  9 14  1  0  0  0  0
  9 10  2  0  0  0  0
 10 11  1  0  0  0  0
 11 12  2  0  0  0  0
 11 38  1  0  0  0  0
 12 13  1  0  0  0  0
 13 17  1  0  0  0  0
 13 14  2  0  0  0  0
 14 15  1  0  0  0  0
 15 16  2  0  0  0  0
 16 17  1  0  0  0  0
 16 39  1  0  0  0  0
 17 18  1  0  0  0  0
 18 19  1  0  0  0  0
 18 40  1  0  0  0  0
 18 41  1  0  0  0  0
 19 20  1  0  0  0  0
 19 22  1  0  0  0  0
 19 42  1  0  0  0  0
 20 21  1  0  0  0  0
 20 43  1  0  0  0  0
 20 44  1  0  0  0  0
 21 45  1  0  0  0  0
 22 26  1  0  0  0  0
 22 23  1  0  0  0  0
 22 46  1  0  0  0  0
 23 24  1  0  0  0  0
 23 47  1  0  0  0  0
 23 48  1  0  0  0  0
 24 25  1  0  0  0  0
 24 49  1  0  0  0  0
 24 50  1  0  0  0  0
 25 26  1  0  0  0  0
 26 51  1  0  0  0  0
 26 52  1  0  0  0  0
 27 53  1  0  0  0  0
 27 54  1  0  0  0  0
 28 29  1  0  0  0  0
 28 55  1  0  0  0  0
 28 56  1  0  0  0  0
 29 57  1  0  0  0  0
M  END
> <s_m_source_file>
AV-unprocessed.smi

> <i_m_source_file_index>
20

> <i_lp_mmshare_version>
43012

> <i_f3d_flags>
0

> <s_epik_input>
W0NIMl0xW05IXUMoPU8pW0NIMl1bQ0BAXTEyW0NIMl1bQ0gyXVtDSDJdTihbQ0gyXTIpYyhuW2NIXW4zKWMoYzM0KW5bY0hdbjRbQ0gyXVtDQEhdKFtDSDJdW09IXSlbQ0BASF01W0NIMl1bQ0gyXU9bQ0gyXTU=

> <s_epik_cmdline>
J2VwaWtfcHl0aG9uJywgJy1waCcsICc3LjAnLCAnLXRuJywgJzgnLCAnLW1hJywgJzIwMCcsICctbWV0YWxfYmluZGluZycsICctaW1hZScsICc8aW5maWxlLm1hZT4nLCAnLW9tYWUnLCAnPG91dGZpbGUubWFlPic=

> <r_lp_tautomer_probability>
1

> <r_epik_Ionization_Penalty>
0.0019697

> <r_epik_Ionization_Penalty_Charging>
0

> <r_epik_Ionization_Penalty_Neutral>
0.0019697

> <r_epik_State_Penalty>
0.00113613

> <r_epik_Charging_Adjusted_Penalty>
0.00113613

> <i_epik_Tot_Q>
0

> <i_epik_Tot_abs_Q>
0

> <r_epik_Metal_State_Penalty>
-0

> <b_epik_Metal_Only>
0

> <s_lp_Force_Field>
OPLS_2005

> <r_lp_Energy>
58.2949

> <b_lp_Chiralities_Consistent>
1

> <s_lp_Variant>
AV-unprocessed.smi:20-2

> <Gold.Version>
5.8.1

> <Gold.Id.Protein>
6NUR|6NUR_protein|mol2

> <Gold.PLP.Fitness>
56.3709

> <Gold.PLP.PLP>
-47.4602

> <Gold.PLP.part.hbond>
-2.6906

> <Gold.PLP.part.metal>
0.0000

> <Gold.PLP.part.buried>
-1.3776

> <Gold.PLP.part.nonpolar>
-43.7122

> <Gold.PLP.part.repulsive>
0.4267

> <Gold.PLP.ligand.clash>
0.0000

> <Gold.PLP.ligand.torsion>
0.7548

> <Gold.PLP.Chemscore.Hbond>
2.6500

> <Gold.PLP.Chemscore.CHOScore>
0.6314

> <Gold.PLP.Chemscore.Metal>
0.0000

> <Gold.Chemscore.Hbonds>
donor molecule, donor type, donor heavy atom, donor atom, acceptor molecule, acceptor atom, score
      L1  H    21    45       P1 10175  1.00
      P1  H  7989  7998       L1    12  0.65
      P1  H  7997  8010       L1    10  1.00
      L1  C    16    39       P1  8028  0.61

> <Gold.PLP.Chemscore.Internal.Correction>
0.5763

> <Gold.Rescore>
     Score         DG    S(hbond)    S(metal)    S(lipo)     H(rot)  DE(clash)    DE(int)     intcor
     12.70     -16.40       2.05        0.00      94.64       2.74       1.26       2.43       ----

> <Gold.Chemscore.Fitness>
12.7031

> <Gold.Chemscore.DG>
-16.3964

> <Gold.Chemscore.ZeroCoef>
-5.4800

> <Gold.Chemscore.Hbond>
2.0544

> <Gold.Chemscore.Metal>
0.0000

> <Gold.Chemscore.Lipo>
94.6396

> <Gold.Chemscore.Internal_Hbond>
0.0000

> <Gold.Chemscore.DEClash>
1.2603

> <Gold.Chemscore.DEInternal>
2.4329

> <Gold.Chemscore.Rot>
2.7415

> <Gold.Chemscore.Internal.Correction>
   9.000000E+99

> <Gold.Chemscore.Hbonds>
donor molecule, donor type, donor heavy atom, donor atom, acceptor molecule, acceptor atom, score
      L1  H    21    45       P1 10175  0.91
      P1  H  7989  7998       L1    12  0.05
      P1  H  7997  8010       L1    10  0.52

> <Gold.Chemscore.Hbond.Weighted>
-6.8617

> <Gold.Chemscore.Metal.Weighted>
-0.0000

> <Gold.Chemscore.Lipo.Weighted>
-11.0728

> <Gold.Chemscore.Internal_Hbond.Weighted>
0.0000

> <Gold.Chemscore.DEClash.Weighted>
1.2603

> <Gold.Chemscore.DEInternal.Weighted>
2.4329

> <Gold.Chemscore.Rot.Weighted>
7.0182

> <Gold.Chemscore.Internal.Correction.Weighted>
   9.000000E+99

> <Gold.Protein.RotatedTorsions>
[ 6907 6896 6895 6894 ] final -131.68 input  -60.11 | X-H torsion
[ 7974 7965 7964 7962 ] final  165.89 input  175.53 | X-H torsion
[ 8008 7997 7996 7995 ] final   51.81 input   59.86 | X-H torsion
[ 10167 10162 10161 10158 ] final  169.93 input  -65.29 | X-H torsion
[ 10718 10713 10712 10709 ] final  154.96 input   66.30 | X-H torsion
[ 10763 10752 10751 10750 ] final -139.34 input  -60.55 | X-H torsion
[ 11005 11000 10999 10996 ] final  122.94 input  -57.11 | X-H torsion

> <Gold.Protein.ActiveResidues>
 VAL166  LYS551  ARG553  GLY616  TRP617  ASP618  TYR619  PRO620  LYS621  CYS622 
 ASP623  PHE694  ASN695  SER759  ASP760  ASP761  ALA762  ILE779  LEU786  VAL792 
 PHE793  MET794  SER795  GLU796  ALA797  LYS798  CYS799  TRP800  GLU811  SER814 

> <Gold.Protein.RotatedAtoms>
  150.9537  133.6521  159.2766 H   0  0  0  0  0  0  0  0  0  0  0  0  # atno 6907 bound_to 6896
  151.3868  135.0948  159.9523 H   0  0  0  0  0  0  0  0  0  0  0  0  # atno 6908 bound_to 6896
  152.5120  133.9060  159.7519 H   0  0  0  0  0  0  0  0  0  0  0  0  # atno 6909 bound_to 6896
  144.7484  139.8536  143.6374 H   0  0  0  0  0  0  0  0  0  0  0  0  # atno 7974 bound_to 7965
  155.4414  140.3454  155.4290 H   0  0  0  0  0  0  0  0  0  0  0  0  # atno 8008 bound_to 7997
  156.1276  140.1505  156.9143 H   0  0  0  0  0  0  0  0  0  0  0  0  # atno 8009 bound_to 7997
  154.4870  140.0852  156.7489 H   0  0  0  0  0  0  0  0  0  0  0  0  # atno 8010 bound_to 7997
  139.5005  144.3652  151.9783 H   0  0  0  0  0  0  0  0  0  0  0  0  # atno 10167 bound_to 10162
  157.2247  131.0726  151.1890 H   0  0  0  0  0  0  0  0  0  0  0  0  # atno 10718 bound_to 10713
  154.8612  135.3585  154.5530 H   0  0  0  0  0  0  0  0  0  0  0  0  # atno 10763 bound_to 10752
  153.6148  135.7008  153.5338 H   0  0  0  0  0  0  0  0  0  0  0  0  # atno 10764 bound_to 10752
  153.3179  135.4160  155.1352 H   0  0  0  0  0  0  0  0  0  0  0  0  # atno 10765 bound_to 10752
  139.9290  134.9641  156.8185 H   0  0  0  0  0  0  0  0  0  0  0  0  # atno 11005 bound_to 11000
  146.1399  139.4453  143.0116 LP  0  0  0  0  0  0  0  0  0  0  0  0  # atno 17320 bound_to 7965
  145.7035  141.0128  143.1491 LP  0  0  0  0  0  0  0  0  0  0  0  0  # atno 17321 bound_to 7965
  140.3088  144.3561  150.6039 LP  0  0  0  0  0  0  0  0  0  0  0  0  # atno 17342 bound_to 10162
  140.5815  143.2172  151.7420 LP  0  0  0  0  0  0  0  0  0  0  0  0  # atno 17343 bound_to 10162
  157.3539  130.7096  149.6458 LP  0  0  0  0  0  0  0  0  0  0  0  0  # atno 17370 bound_to 10713
  155.9679  130.4244  150.4609 LP  0  0  0  0  0  0  0  0  0  0  0  0  # atno 17371 bound_to 10713
  140.6254  133.9955  155.7637 LP  0  0  0  0  0  0  0  0  0  0  0  0  # atno 17394 bound_to 11000
  141.0867  133.9979  157.3302 LP  0  0  0  0  0  0  0  0  0  0  0  0  # atno 17395 bound_to 11000

$$$$
