AV-unprocessed.smi:16|AV-procd|sdf|96|dock1
  -GOLD-   2262015243D 1   1.00000     0.00000
 Structure written by MMmdl.
 59 63  0  0  0  0  0  0  0  0  1 V2000
  152.4602  145.2781  159.0807 C   0  0  0  0  0  0  0  0  0  0  0  0
  151.9200  143.9363  158.5607 C   0  0  0  0  0  0  0  0  0  0  0  0
  152.8032  142.8158  158.8841 N   0  0  0  0  0  0  0  0  0  0  0  0
  153.1563  142.8921  160.3047 C   0  0  0  0  0  0  0  0  0  0  0  0
  154.1397  141.7712  160.6826 C   0  0  0  0  0  0  0  0  0  0  0  0
  153.5202  140.4046  160.3807 C   0  0  2  0  0  0  0  0  0  0  0  0
  154.4549  139.3669  160.6577 O   0  0  0  0  0  0  0  0  0  0  0  0
  153.8863  138.0794  160.4390 C   0  0  0  0  0  0  0  0  0  0  0  0
  153.4575  137.9508  158.9679 C   0  0  0  0  0  0  0  0  0  0  0  0
  152.5433  139.0325  158.6068 N   0  0  0  0  0  0  0  0  0  0  0  0
  152.0069  138.8997  157.3713 C   0  0  0  0  0  0  0  0  0  0  0  0
  152.7704  139.1067  156.2661 N   0  0  0  0  0  0  0  0  0  0  0  0
  152.2263  139.0002  155.0499 C   0  0  0  0  0  0  0  0  0  0  0  0
  150.9657  138.7083  154.7212 N   0  0  0  0  0  0  0  0  0  0  0  0
  150.1973  138.5028  155.8299 C   0  0  0  0  0  0  0  0  0  0  0  0
  150.6372  138.5780  157.1809 C   0  0  0  0  0  0  0  0  0  0  0  0
  149.5806  138.3218  158.0443 N   0  0  0  0  0  0  0  0  0  0  0  0
  148.5686  138.1116  157.2476 C   0  0  0  0  0  0  0  0  0  0  0  0
  148.8497  138.1915  155.9011 N   0  0  0  0  0  0  0  0  0  0  0  0
  147.9206  138.0247  154.8192 C   0  0  0  0  0  0  0  0  0  0  0  0
  148.3316  138.3762  153.3881 C   0  0  0  0  0  0  0  0  0  0  0  0
  146.9196  138.9370  153.1048 C   0  0  0  0  0  0  0  0  0  0  0  0
  146.9137  140.3098  152.4150 C   0  0  0  0  0  0  0  0  0  0  0  0
  147.9416  141.1430  152.9114 O   0  0  0  0  0  0  0  0  0  0  0  0
  145.9710  138.0193  152.3029 C   0  0  0  0  0  0  0  0  0  0  0  0
  146.3742  137.8400  150.9602 O   0  0  0  0  0  0  0  0  0  0  0  0
  146.7318  138.9729  154.6384 C   0  0  0  0  0  0  0  0  0  0  0  0
  153.1087  140.3531  158.8964 C   0  0  1  0  0  0  0  0  0  0  0  0
  152.1500  141.5325  158.5985 C   0  0  0  0  0  0  0  0  0  0  0  0
  152.6420  140.2713  161.0162 H   0  0  0  0  0  0  0  0  0  0  0  0
  154.0016  140.4719  158.2796 H   0  0  0  0  0  0  0  0  0  0  0  0
  151.7147  146.0627  158.9499 H   0  0  0  0  0  0  0  0  0  0  0  0
  153.3557  145.5988  158.5494 H   0  0  0  0  0  0  0  0  0  0  0  0
  152.6969  145.2238  160.1437 H   0  0  0  0  0  0  0  0  0  0  0  0
  150.9509  143.7670  159.0319 H   0  0  0  0  0  0  0  0  0  0  0  0
  151.7392  143.9840  157.4857 H   0  0  0  0  0  0  0  0  0  0  0  0
  153.6184  143.8571  160.5167 H   0  0  0  0  0  0  0  0  0  0  0  0
  152.2560  142.8268  160.9181 H   0  0  0  0  0  0  0  0  0  0  0  0
  155.0717  141.8922  160.1289 H   0  0  0  0  0  0  0  0  0  0  0  0
  154.3935  141.8402  161.7406 H   0  0  0  0  0  0  0  0  0  0  0  0
  154.6260  137.3172  160.6836 H   0  0  0  0  0  0  0  0  0  0  0  0
  153.0369  137.9250  161.1064 H   0  0  0  0  0  0  0  0  0  0  0  0
  154.3424  137.9826  158.3304 H   0  0  0  0  0  0  0  0  0  0  0  0
  152.9748  136.9865  158.8036 H   0  0  0  0  0  0  0  0  0  0  0  0
  152.8961  139.1774  154.2215 H   0  0  0  0  0  0  0  0  0  0  0  0
  147.5801  137.8951  157.6258 H   0  0  0  0  0  0  0  0  0  0  0  0
  147.5649  136.9948  154.8662 H   0  0  0  0  0  0  0  0  0  0  0  0
  149.1092  139.1410  153.3557 H   0  0  0  0  0  0  0  0  0  0  0  0
  148.6141  137.5150  152.7816 H   0  0  0  0  0  0  0  0  0  0  0  0
  147.0630  140.2051  151.3398 H   0  0  0  0  0  0  0  0  0  0  0  0
  145.9552  140.8134  152.5446 H   0  0  0  0  0  0  0  0  0  0  0  0
  148.7242  140.9897  152.4043 H   0  0  0  0  0  0  0  0  0  0  0  0
  145.9061  137.0305  152.7578 H   0  0  0  0  0  0  0  0  0  0  0  0
  144.9590  138.4252  152.2924 H   0  0  0  0  0  0  0  0  0  0  0  0
  145.7293  138.2400  150.3970 H   0  0  0  0  0  0  0  0  0  0  0  0
  145.7814  138.5684  154.9884 H   0  0  0  0  0  0  0  0  0  0  0  0
  146.9073  139.9629  155.0614 H   0  0  0  0  0  0  0  0  0  0  0  0
  151.2337  141.4377  159.1835 H   0  0  0  0  0  0  0  0  0  0  0  0
  151.8657  141.5060  157.5481 H   0  0  0  0  0  0  0  0  0  0  0  0
  1  2  1  0  0  0  0
  1 32  1  0  0  0  0
  1 33  1  0  0  0  0
  1 34  1  0  0  0  0
  2  3  1  0  0  0  0
  2 35  1  0  0  0  0
  2 36  1  0  0  0  0
  3 29  1  0  0  0  0
  3  4  1  0  0  0  0
  4  5  1  0  0  0  0
  4 37  1  0  0  0  0
  4 38  1  0  0  0  0
  5  6  1  0  0  0  0
  5 39  1  0  0  0  0
  5 40  1  0  0  0  0
  6 30  1  0  0  0  0
  6 28  1  0  0  0  0
  6  7  1  0  0  0  0
  7  8  1  0  0  0  0
  8  9  1  0  0  0  0
  8 41  1  0  0  0  0
  8 42  1  0  0  0  0
  9 10  1  0  0  0  0
  9 43  1  0  0  0  0
  9 44  1  0  0  0  0
 10 11  1  0  0  0  0
 10 28  1  0  0  0  0
 11 16  1  0  0  0  0
 11 12  2  0  0  0  0
 12 13  1  0  0  0  0
 13 14  2  0  0  0  0
 13 45  1  0  0  0  0
 14 15  1  0  0  0  0
 15 19  1  0  0  0  0
 15 16  2  0  0  0  0
 16 17  1  0  0  0  0
 17 18  2  0  0  0  0
 18 19  1  0  0  0  0
 18 46  1  0  0  0  0
 19 20  1  0  0  0  0
 20 27  1  0  0  0  0
 20 21  1  0  0  0  0
 20 47  1  0  0  0  0
 21 22  1  0  0  0  0
 21 48  1  0  0  0  0
 21 49  1  0  0  0  0
 22 23  1  0  0  0  0
 22 25  1  0  0  0  0
 22 27  1  0  0  0  0
 23 24  1  0  0  0  0
 23 50  1  0  0  0  0
 23 51  1  0  0  0  0
 24 52  1  0  0  0  0
 25 26  1  0  0  0  0
 25 53  1  0  0  0  0
 25 54  1  0  0  0  0
 26 55  1  0  0  0  0
 27 56  1  0  0  0  0
 27 57  1  0  0  0  0
 28 31  1  0  0  0  0
 28 29  1  0  0  0  0
 29 58  1  0  0  0  0
 29 59  1  0  0  0  0
M  END
> <s_m_source_file>
AV-unprocessed.smi

> <i_m_source_file_index>
16

> <i_lp_mmshare_version>
43012

> <i_f3d_flags>
0

> <s_epik_input>
W0NIM11bQ0gyXU4oW0NIMl1bQ0gyXTEpW0NIMl1bQ0BASF0oW0NAQEhdMTIpTihbQ0gyXVtDSDJdTzIpYyhuW2NIXW4zKWMoYzM0KW5bY0hdbjRbQ0hdKFtDSDJdNSlbQ0gyXUM1KFtDSDJdW09IXSlbQ0gyXVtPSF0=

> <s_epik_cmdline>
J2VwaWtfcHl0aG9uJywgJy1waCcsICc3LjAnLCAnLXRuJywgJzgnLCAnLW1hJywgJzIwMCcsICctbWV0YWxfYmluZGluZycsICctaW1hZScsICc8aW5maWxlLm1hZT4nLCAnLW9tYWUnLCAnPG91dGZpbGUubWFlPic=

> <r_lp_tautomer_probability>
1

> <r_epik_Ionization_Penalty>
2.27341

> <r_epik_Ionization_Penalty_Charging>
0

> <r_epik_Ionization_Penalty_Neutral>
2.27341

> <r_epik_State_Penalty>
2.41121

> <r_epik_Charging_Adjusted_Penalty>
2.41121

> <i_epik_Tot_Q>
0

> <i_epik_Tot_abs_Q>
0

> <r_epik_Metal_State_Penalty>
2.40177

> <b_epik_Metal_Only>
0

> <s_lp_Force_Field>
OPLS_2005

> <r_lp_Energy>
56.9359

> <b_lp_Chiralities_Consistent>
1

> <s_lp_Variant>
AV-unprocessed.smi:16-10

> <Gold.Version>
5.8.1

> <Gold.Id.Protein>
6NUR|6NUR_protein|mol2

> <Gold.PLP.Fitness>
52.8462

> <Gold.PLP.PLP>
-41.1491

> <Gold.PLP.part.hbond>
-5.1566

> <Gold.PLP.part.metal>
0.0000

> <Gold.PLP.part.buried>
0.2032

> <Gold.PLP.part.nonpolar>
-37.0032

> <Gold.PLP.part.repulsive>
0.1281

> <Gold.PLP.ligand.clash>
0.0000

> <Gold.PLP.ligand.torsion>
0.4709

> <Gold.PLP.Chemscore.Hbond>
4.0000

> <Gold.PLP.Chemscore.CHOScore>
0.0000

> <Gold.PLP.Chemscore.Metal>
0.0000

> <Gold.Chemscore.Hbonds>
donor molecule, donor type, donor heavy atom, donor atom, acceptor molecule, acceptor atom, score
      L1  H    24    52       P1  7957  0.99
      L1  H    26    55       P1 10171  1.00
      P1  H  7954  7966       L1    26  0.88
      P1  H  7997  8010       L1    12  1.00

> <Gold.PLP.Chemscore.Internal.Correction>
0.6389

> <Gold.Rescore>
     Score         DG    S(hbond)    S(metal)    S(lipo)     H(rot)  DE(clash)    DE(int)     intcor
     16.75     -22.70       3.42        0.00     121.32       3.28       4.20       1.75       ----

> <Gold.Chemscore.Fitness>
16.7453

> <Gold.Chemscore.DG>
-22.6967

> <Gold.Chemscore.ZeroCoef>
-5.4800

> <Gold.Chemscore.Hbond>
3.4172

> <Gold.Chemscore.Metal>
0.0000

> <Gold.Chemscore.Lipo>
121.3154

> <Gold.Chemscore.Internal_Hbond>
0.0000

> <Gold.Chemscore.DEClash>
4.1978

> <Gold.Chemscore.DEInternal>
1.7536

> <Gold.Chemscore.Rot>
3.2776

> <Gold.Chemscore.Internal.Correction>
   9.000000E+99

> <Gold.Chemscore.Hbonds>
donor molecule, donor type, donor heavy atom, donor atom, acceptor molecule, acceptor atom, score
      L1  H    24    52       P1  7957  0.94
      L1  H    26    55       P1 10171  0.96
      P1  H  7954  7966       L1    26  0.47
      P1  H  7997  8010       L1    12  0.93

> <Gold.Chemscore.Hbond.Weighted>
-11.4135

> <Gold.Chemscore.Metal.Weighted>
-0.0000

> <Gold.Chemscore.Lipo.Weighted>
-14.1939

> <Gold.Chemscore.Internal_Hbond.Weighted>
0.0000

> <Gold.Chemscore.DEClash.Weighted>
4.1978

> <Gold.Chemscore.DEInternal.Weighted>
1.7536

> <Gold.Chemscore.Rot.Weighted>
8.3907

> <Gold.Chemscore.Internal.Correction.Weighted>
   9.000000E+99

> <Gold.Protein.RotatedTorsions>
[ 6907 6896 6895 6894 ] final  102.85 input  -60.11 | X-H torsion
[ 7974 7965 7964 7962 ] final -102.53 input  175.53 | X-H torsion
[ 8008 7997 7996 7995 ] final   72.01 input   59.86 | X-H torsion
[ 10167 10162 10161 10158 ] final  150.22 input  -65.29 | X-H torsion
[ 10718 10713 10712 10709 ] final  133.26 input   66.30 | X-H torsion
[ 10763 10752 10751 10750 ] final   82.99 input  -60.55 | X-H torsion
[ 11005 11000 10999 10996 ] final -104.27 input  -57.11 | X-H torsion

> <Gold.Protein.ActiveResidues>
 VAL166  LYS551  ARG553  GLY616  TRP617  ASP618  TYR619  PRO620  LYS621  CYS622 
 ASP623  PHE694  ASN695  SER759  ASP760  ASP761  ALA762  ILE779  LEU786  VAL792 
 PHE793  MET794  SER795  GLU796  ALA797  LYS798  CYS799  TRP800  GLU811  SER814 

> <Gold.Protein.RotatedAtoms>
  152.5312  133.9913  159.7851 H   0  0  0  0  0  0  0  0  0  0  0  0  # atno 6907 bound_to 6896
  151.0149  133.5923  159.2685 H   0  0  0  0  0  0  0  0  0  0  0  0  # atno 6908 bound_to 6896
  151.2984  135.0768  159.9283 H   0  0  0  0  0  0  0  0  0  0  0  0  # atno 6909 bound_to 6896
  145.2675  140.9288  143.3005 H   0  0  0  0  0  0  0  0  0  0  0  0  # atno 7974 bound_to 7965
  155.7625  140.3486  155.5205 H   0  0  0  0  0  0  0  0  0  0  0  0  # atno 8008 bound_to 7997
  155.8900  140.1016  157.1446 H   0  0  0  0  0  0  0  0  0  0  0  0  # atno 8009 bound_to 7997
  154.4032  140.1306  156.4291 H   0  0  0  0  0  0  0  0  0  0  0  0  # atno 8010 bound_to 7997
  139.4852  144.5539  151.7351 H   0  0  0  0  0  0  0  0  0  0  0  0  # atno 10167 bound_to 10162
  157.4790  131.1084  150.9706 H   0  0  0  0  0  0  0  0  0  0  0  0  # atno 10718 bound_to 10713
  153.1251  135.4708  154.9259 H   0  0  0  0  0  0  0  0  0  0  0  0  # atno 10763 bound_to 10752
  154.7612  135.3132  154.8376 H   0  0  0  0  0  0  0  0  0  0  0  0  # atno 10764 bound_to 10752
  153.8931  135.6882  153.4813 H   0  0  0  0  0  0  0  0  0  0  0  0  # atno 10765 bound_to 10752
  141.1108  133.8709  157.1590 H   0  0  0  0  0  0  0  0  0  0  0  0  # atno 11005 bound_to 11000
  144.9364  139.4239  143.6470 LP  0  0  0  0  0  0  0  0  0  0  0  0  # atno 17320 bound_to 7965
  146.3257  139.8302  142.8910 LP  0  0  0  0  0  0  0  0  0  0  0  0  # atno 17321 bound_to 7965
  140.5098  144.1043  150.5992 LP  0  0  0  0  0  0  0  0  0  0  0  0  # atno 17342 bound_to 10162
  140.3964  143.2726  151.9999 LP  0  0  0  0  0  0  0  0  0  0  0  0  # atno 17343 bound_to 10162
  157.0445  130.5762  149.5361 LP  0  0  0  0  0  0  0  0  0  0  0  0  # atno 17370 bound_to 10713
  156.0112  130.5203  150.7993 LP  0  0  0  0  0  0  0  0  0  0  0  0  # atno 17371 bound_to 10713
  140.0001  135.0031  157.0171 LP  0  0  0  0  0  0  0  0  0  0  0  0  # atno 17394 bound_to 11000
  140.4780  134.1318  155.7212 LP  0  0  0  0  0  0  0  0  0  0  0  0  # atno 17395 bound_to 11000

$$$$
