#       Name:                AV-unprocessed.smi:2732
#       Creating user name   scv26
#       Creation time:       Fri Mar 27 14:57:55 2020


#       File generated by GOLD software.
#

@<TRIPOS>MOLECULE
AV-unprocessed.smi:2732
    39    40     1
SMALL
NO_CHARGES


@<TRIPOS>ATOM
      1 ****        -0.2909  -2.5449  -2.6445 C.3            1 S1                 0.0000
      2 ****        -0.0170  -1.9494  -1.2555 C.3            1 S1                 0.0000
      3 ****         1.3839  -2.0508  -1.0140 O.3            1 S1                 0.0000
      4 ****         1.7874  -1.8243   0.3308 C.3            1 S1                 0.0000
      5 ****         3.2862  -2.0079   0.4253 C.3            1 S1                 0.0000
      6 ****         4.0625  -1.3932   1.5679 C.3            1 S1                 0.0000
      7 ****         4.2191  -0.8452   0.1723 C.3            1 S1                 0.0000
      8 ****        -0.4662  -0.4808  -1.1783 C.2            1 S1                 0.0000
      9 ****        -0.0398   0.3264  -2.0031 O.2            1 S1                 0.0000
     10 ****        -1.3013  -0.1823  -0.1651 N.am           1 S1                 0.0000
     11 ****        -1.8853   1.0635   0.1985 C.ar           1 S1                 0.0000
     12 ****        -1.7691   2.2657  -0.5421 C.ar           1 S1                 0.0000
     13 ****        -2.4050   3.4266  -0.0606 C.ar           1 S1                 0.0000
     14 ****        -3.1361   3.3472   1.1408 C.ar           1 S1                 0.0000
     15 ****        -3.7763   4.4759   1.6460 N.pl3          1 S1                 0.0000
     16 ****        -3.2586   2.2087   1.8536 N.ar           1 S1                 0.0000
     17 ****        -2.6465   1.0997   1.3864 C.ar           1 S1                 0.0000
     18 ****        -1.3494  -2.4841  -2.8999 H              1 S1                 0.0000
     19 ****        -0.0051  -3.5965  -2.6762 H              1 S1                 0.0000
     20 ****         0.2729  -2.0282  -3.4223 H              1 S1                 0.0000
     21 ****        -0.5553  -2.5448  -0.5152 H              1 S1                 0.0000
     22 ****         1.5246  -0.8207   0.6675 H              1 S1                 0.0000
     23 ****         1.3011  -2.5389   0.9960 H              1 S1                 0.0000
     24 ****         3.6318  -2.9839   0.0895 H              1 S1                 0.0000
     25 ****         3.5151  -0.7860   2.2863 H              1 S1                 0.0000
     26 ****         4.8913  -1.9667   1.9779 H              1 S1                 0.0000
     27 ****         5.1505  -1.0546  -0.3502 H              1 S1                 0.0000
     28 ****         3.7734   0.1247  -0.0402 H              1 S1                 0.0000
     29 ****        -1.5373  -0.9549   0.4409 H              1 S1                 0.0000
     30 ****        -1.2160   2.3320  -1.4646 H              1 S1                 0.0000
     31 ****        -2.3305   4.3559  -0.6063 H              1 S1                 0.0000
     32 ****        -3.7331   5.3658   1.1711 H              1 S1                 0.0000
     33 ****        -4.3117   4.4372   2.5016 H              1 S1                 0.0000
     34 ****        -2.7691   0.2090   1.9853 H              1 S1                 0.0000
     35 ****         1.8464  -1.3790  -1.5925 LP             1 S1                 0.0000
     36 ****         1.6761  -2.9713  -1.2732 LP             1 S1                 0.0000
     37 ****         0.5935   0.0254  -2.7161 LP             1 S1                 0.0000
     38 ****        -0.3265   1.2835  -1.9605 LP             1 S1                 0.0000
     39 ****        -3.7868   2.1867   2.7024 LP             1 S1                 0.0000
@<TRIPOS>BOND
    1    1    2 1     
    2    1   18 1     
    3    1   19 1     
    4    1   20 1     
    5    2    3 1     
    6    2    8 1     
    7    2   21 1     
    8    3    4 1     
    9    4    5 1     
   10    4   22 1     
   11    4   23 1     
   12    5    7 1     
   13    5    6 1     
   14    5   24 1     
   15    6    7 1     
   16    6   25 1     
   17    6   26 1     
   18    7   27 1     
   19    7   28 1     
   20    8    9 2     
   21    8   10 am    
   22   10   11 1     
   23   10   29 1     
   24   11   17 ar    
   25   11   12 ar    
   26   12   13 ar    
   27   12   30 1     
   28   13   14 ar    
   29   13   31 1     
   30   14   15 1     
   31   14   16 ar    
   32   15   32 1     
   33   15   33 1     
   34   16   17 ar    
   35   17   34 1     
   36    3   35 1     
   37    3   36 1     
   38    9   37 1     
   39    9   38 1     
   40   16   39 1     
@<TRIPOS>SUBSTRUCTURE
      1 S1             1
@<TRIPOS>SET
LONE_PAIRS      STATIC     ATOMS    <user>   **** ""
5 35 36 37 38 39
DONOR_HYDROGENS      STATIC     ATOMS    <user>   **** ""
3 29 32 33
ATOM$BLUE        STATIC     ATOMS    COLORGROUP SYSTEM
5 35 36 37 38 39
ATOM$RED        STATIC     ATOMS    COLORGROUP SYSTEM
3 29 32 33
