AV-unprocessed.smi:2456|AV-procd|sdf|9701|dock1
  -GOLD-   2272013343D 1   1.00000     0.00000
 Structure written by MMmdl.
 34 35  0  0  0  0  0  0  0  0  1 V2000
  152.3072  137.8118  157.1231 C   0  0  0  0  0  0  0  0  0  0  0  0
  150.9353  138.3007  156.6086 C   0  0  1  0  0  0  0  0  0  0  0  0
  149.8823  138.1801  157.6228 N   0  0  0  0  0  0  0  0  0  0  0  0
  149.7379  137.2227  158.5542 C   0  0  0  0  0  0  0  0  0  0  0  0
  150.5409  136.3064  158.7282 O   0  0  0  0  0  0  0  0  0  0  0  0
  148.6136  137.4118  159.2669 N   0  0  0  0  0  0  0  0  0  0  0  0
  148.1041  136.6210  160.3302 C   0  0  0  0  0  0  0  0  0  0  0  0
  147.6577  137.1138  161.4915 N   0  0  0  0  0  0  0  0  0  0  0  0
  147.2155  136.1071  162.3531 C   0  0  0  0  0  0  0  0  0  0  0  0
  147.3343  134.8443  161.8283 C   0  0  0  0  0  0  0  0  0  0  0  0
  148.0090  134.8697  160.2211 S   0  0  0  0  0  0  0  0  0  0  0  0
  150.9587  139.7050  155.9695 C   0  0  0  0  0  0  0  0  0  0  0  0
  150.8101  139.8092  154.7512 O   0  0  0  0  0  0  0  0  0  0  0  0
  151.1572  140.7865  156.7553 N   0  0  0  0  0  0  0  0  0  0  0  0
  151.3334  140.7852  158.2082 C   0  0  0  0  0  0  0  0  0  0  0  0
  151.7371  142.2120  158.5806 C   0  0  0  0  0  0  0  0  0  0  0  0
  151.1641  143.0673  157.4600 C   0  0  0  0  0  0  0  0  0  0  0  0
  151.2043  142.1526  156.2361 C   0  0  0  0  0  0  0  0  0  0  0  0
  153.0329  137.7719  156.3101 H   0  0  0  0  0  0  0  0  0  0  0  0
  152.2329  136.8076  157.5408 H   0  0  0  0  0  0  0  0  0  0  0  0
  152.7235  138.4612  157.8932 H   0  0  0  0  0  0  0  0  0  0  0  0
  150.6587  137.5995  155.8213 H   0  0  0  0  0  0  0  0  0  0  0  0
  149.1670  138.8913  157.5894 H   0  0  0  0  0  0  0  0  0  0  0  0
  148.0523  138.2119  159.0164 H   0  0  0  0  0  0  0  0  0  0  0  0
  146.8300  136.3796  163.3244 H   0  0  0  0  0  0  0  0  0  0  0  0
  147.0663  133.9046  162.2881 H   0  0  0  0  0  0  0  0  0  0  0  0
  150.3859  140.5238  158.6814 H   0  0  0  0  0  0  0  0  0  0  0  0
  152.0890  140.0730  158.5395 H   0  0  0  0  0  0  0  0  0  0  0  0
  151.3780  142.5096  159.5662 H   0  0  0  0  0  0  0  0  0  0  0  0
  152.8247  142.2949  158.5820 H   0  0  0  0  0  0  0  0  0  0  0  0
  150.1298  143.3257  157.6899 H   0  0  0  0  0  0  0  0  0  0  0  0
  151.7157  143.9962  157.3120 H   0  0  0  0  0  0  0  0  0  0  0  0
  152.1370  142.2890  155.6868 H   0  0  0  0  0  0  0  0  0  0  0  0
  150.3769  142.3649  155.5570 H   0  0  0  0  0  0  0  0  0  0  0  0
  1  2  1  0  0  0  0
  1 19  1  0  0  0  0
  1 20  1  0  0  0  0
  1 21  1  0  0  0  0
  2  3  1  0  0  0  0
  2 12  1  0  0  0  0
  2 22  1  0  0  0  0
  3  4  1  0  0  0  0
  3 23  1  0  0  0  0
  4  5  2  0  0  0  0
  4  6  1  0  0  0  0
  6  7  1  0  0  0  0
  6 24  1  0  0  0  0
  7 11  1  0  0  0  0
  7  8  2  0  0  0  0
  8  9  1  0  0  0  0
  9 10  2  0  0  0  0
  9 25  1  0  0  0  0
 10 11  1  0  0  0  0
 10 26  1  0  0  0  0
 12 13  2  0  0  0  0
 12 14  1  0  0  0  0
 14 18  1  0  0  0  0
 14 15  1  0  0  0  0
 15 16  1  0  0  0  0
 15 27  1  0  0  0  0
 15 28  1  0  0  0  0
 16 17  1  0  0  0  0
 16 29  1  0  0  0  0
 16 30  1  0  0  0  0
 17 18  1  0  0  0  0
 17 31  1  0  0  0  0
 17 32  1  0  0  0  0
 18 33  1  0  0  0  0
 18 34  1  0  0  0  0
M  END
> <s_m_source_file>
AV-unprocessed.smi

> <i_m_source_file_index>
2456

> <i_lp_mmshare_version>
43012

> <i_f3d_flags>
0

> <s_epik_input>
W0NIMl0xW0NIMl1bQ0gyXVtDSDJdTjFDKD1PKVtDQEhdKFtDSDNdKVtOSF1DKD1PKVtOSF1jMm5bY0hdW2NIXXMy

> <s_epik_cmdline>
J2VwaWtfcHl0aG9uJywgJy1waCcsICc3LjAnLCAnLXRuJywgJzgnLCAnLW1hJywgJzIwMCcsICctbWV0YWxfYmluZGluZycsICctaW1hZScsICc8aW5maWxlLm1hZT4nLCAnLW9tYWUnLCAnPG91dGZpbGUubWFlPic=

> <r_lp_tautomer_probability>
1

> <r_epik_Ionization_Penalty>
0.000150201

> <r_epik_Ionization_Penalty_Charging>
0

> <r_epik_Ionization_Penalty_Neutral>
0.000150201

> <r_epik_State_Penalty>
-0

> <r_epik_Charging_Adjusted_Penalty>
0

> <i_epik_Tot_Q>
0

> <i_epik_Tot_abs_Q>
0

> <r_epik_Metal_State_Penalty>
0.0705602

> <b_epik_Metal_Only>
0

> <s_lp_Force_Field>
OPLS_2005

> <r_lp_Energy>
30.7

> <b_lp_Chiralities_Consistent>
1

> <s_lp_Variant>
AV-unprocessed.smi:2456-2

> <Gold.Version>
5.8.1

> <Gold.Id.Protein>
6NUR|6NUR_protein|mol2

> <Gold.PLP.Fitness>
39.4388

> <Gold.PLP.PLP>
-29.5323

> <Gold.PLP.part.hbond>
-4.0000

> <Gold.PLP.part.metal>
0.0000

> <Gold.PLP.part.buried>
-4.9181

> <Gold.PLP.part.nonpolar>
-20.1081

> <Gold.PLP.part.repulsive>
0.3370

> <Gold.PLP.ligand.clash>
0.0000

> <Gold.PLP.ligand.torsion>
0.7660

> <Gold.PLP.Chemscore.Hbond>
3.7644

> <Gold.PLP.Chemscore.CHOScore>
0.0000

> <Gold.PLP.Chemscore.Metal>
0.0000

> <Gold.Chemscore.Hbonds>
donor molecule, donor type, donor heavy atom, donor atom, acceptor molecule, acceptor atom, score
      P1  H  6896  6908       L1     5  1.00
      P1  H  6931  6943       L1     8  1.00
      P1  H  6934  6947       L1     8  0.78
      P1  H  7989  7998       L1    13  1.00

> <Gold.PLP.Chemscore.Internal.Correction>
0.1453

> <Gold.Rescore>
     Score         DG    S(hbond)    S(metal)    S(lipo)     H(rot)  DE(clash)    DE(int)     intcor
     16.03     -18.14       2.51        0.00      65.98       1.34       0.08       2.04       ----

> <Gold.Chemscore.Fitness>
16.0320

> <Gold.Chemscore.DG>
-18.1445

> <Gold.Chemscore.ZeroCoef>
-5.4800

> <Gold.Chemscore.Hbond>
2.5111

> <Gold.Chemscore.Metal>
0.0000

> <Gold.Chemscore.Lipo>
65.9836

> <Gold.Chemscore.Internal_Hbond>
0.0000

> <Gold.Chemscore.DEClash>
0.0764

> <Gold.Chemscore.DEInternal>
2.0362

> <Gold.Chemscore.Rot>
1.3448

> <Gold.Chemscore.Internal.Correction>
   9.000000E+99

> <Gold.Chemscore.Hbonds>
donor molecule, donor type, donor heavy atom, donor atom, acceptor molecule, acceptor atom, score
      P1  H  6896  6908       L1     5  0.94
      P1  H  6931  6943       L1     8  0.24
      P1  H  6934  6947       L1     8  0.22
      P1  H  7989  7998       L1    13  1.00

> <Gold.Chemscore.Hbond.Weighted>
-8.3872

> <Gold.Chemscore.Metal.Weighted>
-0.0000

> <Gold.Chemscore.Lipo.Weighted>
-7.7201

> <Gold.Chemscore.Internal_Hbond.Weighted>
0.0000

> <Gold.Chemscore.DEClash.Weighted>
0.0764

> <Gold.Chemscore.DEInternal.Weighted>
2.0362

> <Gold.Chemscore.Rot.Weighted>
3.4427

> <Gold.Chemscore.Internal.Correction.Weighted>
   9.000000E+99

> <Gold.Protein.RotatedTorsions>
[ 6907 6896 6895 6894 ] final -158.30 input  -60.11 | X-H torsion
[ 7974 7965 7964 7962 ] final -100.94 input  175.53 | X-H torsion
[ 8008 7997 7996 7995 ] final  -82.63 input   59.86 | X-H torsion
[ 10167 10162 10161 10158 ] final  -57.39 input  -65.29 | X-H torsion
[ 10718 10713 10712 10709 ] final   28.38 input   66.30 | X-H torsion
[ 10763 10752 10751 10750 ] final   78.63 input  -60.55 | X-H torsion
[ 11005 11000 10999 10996 ] final  158.63 input  -57.11 | X-H torsion

> <Gold.Protein.ActiveResidues>
 VAL166  LYS551  ARG553  GLY616  TRP617  ASP618  TYR619  PRO620  LYS621  CYS622 
 ASP623  PHE694  ASN695  SER759  ASP760  ASP761  ALA762  ILE779  LEU786  VAL792 
 PHE793  MET794  SER795  GLU796  ALA797  LYS798  CYS799  TRP800  GLU811  SER814 

> <Gold.Protein.RotatedAtoms>
  151.3160  133.4060  159.2650 H   0  0  0  0  0  0  0  0  0  0  0  0  # atno 6907 bound_to 6896
  151.0074  134.9370  159.7998 H   0  0  0  0  0  0  0  0  0  0  0  0  # atno 6908 bound_to 6896
  152.5291  134.3125  159.9171 H   0  0  0  0  0  0  0  0  0  0  0  0  # atno 6909 bound_to 6896
  145.2880  140.9345  143.2894 H   0  0  0  0  0  0  0  0  0  0  0  0  # atno 7974 bound_to 7965
  154.6107  140.0630  156.9489 H   0  0  0  0  0  0  0  0  0  0  0  0  # atno 8008 bound_to 7997
  155.1979  140.3312  155.4329 H   0  0  0  0  0  0  0  0  0  0  0  0  # atno 8009 bound_to 7997
  156.2374  140.1870  156.7064 H   0  0  0  0  0  0  0  0  0  0  0  0  # atno 8010 bound_to 7997
  140.6261  143.2439  151.5361 H   0  0  0  0  0  0  0  0  0  0  0  0  # atno 10167 bound_to 10162
  157.2327  130.7031  149.6321 H   0  0  0  0  0  0  0  0  0  0  0  0  # atno 10718 bound_to 10713
  153.0890  135.4869  154.8652 H   0  0  0  0  0  0  0  0  0  0  0  0  # atno 10763 bound_to 10752
  154.7245  135.3046  154.8995 H   0  0  0  0  0  0  0  0  0  0  0  0  # atno 10764 bound_to 10752
  153.9649  135.6808  153.4799 H   0  0  0  0  0  0  0  0  0  0  0  0  # atno 10765 bound_to 10752
  140.1884  134.8425  157.2884 H   0  0  0  0  0  0  0  0  0  0  0  0  # atno 11005 bound_to 11000
  144.9196  139.4427  143.6547 LP  0  0  0  0  0  0  0  0  0  0  0  0  # atno 17320 bound_to 7965
  146.3194  139.8050  142.8957 LP  0  0  0  0  0  0  0  0  0  0  0  0  # atno 17321 bound_to 7965
  139.5481  144.2468  152.1480 LP  0  0  0  0  0  0  0  0  0  0  0  0  # atno 17342 bound_to 10162
  140.1699  144.4945  150.6585 LP  0  0  0  0  0  0  0  0  0  0  0  0  # atno 17343 bound_to 10162
  155.9674  130.4484  150.5617 LP  0  0  0  0  0  0  0  0  0  0  0  0  # atno 17370 bound_to 10713
  157.3462  131.0725  151.1749 LP  0  0  0  0  0  0  0  0  0  0  0  0  # atno 17371 bound_to 10713
  140.2188  134.4049  155.7576 LP  0  0  0  0  0  0  0  0  0  0  0  0  # atno 17394 bound_to 11000
  141.2225  133.7155  156.8456 LP  0  0  0  0  0  0  0  0  0  0  0  0  # atno 17395 bound_to 11000

$$$$
