AV-unprocessed.smi:1762|AV-procd|sdf|7116|dock8
  -GOLD-   22720 8343D 1   1.00000     0.00000
 Structure written by MMmdl.
 53 54  0  0  0  0  0  0  0  0  2 V2000
  152.3771  142.1990  158.1928 C   0  0  0  0  0  0  0  0  0  0  0  0
  151.9213  140.7290  158.2305 C   0  0  1  0  0  0  0  0  0  0  0  0
  150.3886  140.5609  158.2072 C   0  0  0  0  0  0  0  0  0  0  0  0
  149.8236  140.8476  156.8588 N   0  3  2  0  0  0  0  0  0  0  0  0
  148.3252  140.7688  156.7596 C   0  0  2  0  0  0  0  0  0  0  0  0
  147.8428  139.3043  156.8403 C   0  0  0  0  0  0  0  0  0  0  0  0
  147.2722  138.7864  155.8794 O   0  0  0  0  0  0  0  0  0  0  0  0
  148.0803  138.6516  157.9877 N   0  0  0  0  0  0  0  0  0  0  0  0
  147.7013  137.2680  158.2387 C   0  0  0  0  0  0  0  0  0  0  0  0
  148.7203  136.5853  159.1612 C   0  0  0  0  0  0  0  0  0  0  0  0
  148.0817  136.0625  160.4343 C   0  0  0  0  0  0  0  0  0  0  0  0
  148.0065  134.6759  160.6863 C   0  0  0  0  0  0  0  0  0  0  0  0
  147.4112  134.2438  161.8872 C   0  0  0  0  0  0  0  0  0  0  0  0
  146.9166  135.2093  162.7851 C   0  0  0  0  0  0  0  0  0  0  0  0
  147.0404  136.5702  162.4409 C   0  0  0  0  0  0  0  0  0  0  0  0
  147.6098  136.9954  161.2922 N   0  0  0  0  0  0  0  0  0  0  0  0
  147.7242  141.4777  155.4983 C   0  0  0  0  0  0  0  0  0  0  0  0
  146.1844  141.5525  155.5186 C   0  0  0  0  0  0  0  0  0  0  0  0
  148.2077  140.8889  154.1561 C   0  0  0  0  0  0  0  0  0  0  0  0
  150.5203  139.9919  155.8566 C   0  0  0  0  0  0  0  0  0  0  0  0
  152.0400  140.2241  155.8927 C   0  0  2  0  0  0  0  0  0  0  0  0
  152.7833  139.3071  154.9150 C   0  0  0  0  0  0  0  0  0  0  0  0
  152.5252  139.9498  157.2014 O   0  0  0  0  0  0  0  0  0  0  0  0
  152.0180  142.7369  159.0706 H   0  0  0  0  0  0  0  0  0  0  0  0
  152.0029  142.7274  157.3163 H   0  0  0  0  0  0  0  0  0  0  0  0
  153.4651  142.2688  158.1876 H   0  0  0  0  0  0  0  0  0  0  0  0
  152.2846  140.3137  159.1712 H   0  0  0  0  0  0  0  0  0  0  0  0
  150.1231  139.5421  158.4938 H   0  0  0  0  0  0  0  0  0  0  0  0
  149.9802  141.2208  158.9697 H   0  0  0  0  0  0  0  0  0  0  0  0
  147.9354  141.2940  157.6340 H   0  0  0  0  0  0  0  0  0  0  0  0
  148.5520  139.1421  158.7339 H   0  0  0  0  0  0  0  0  0  0  0  0
  146.7090  137.2450  158.6917 H   0  0  0  0  0  0  0  0  0  0  0  0
  147.6374  136.7289  157.2919 H   0  0  0  0  0  0  0  0  0  0  0  0
  149.1988  135.7545  158.6403 H   0  0  0  0  0  0  0  0  0  0  0  0
  149.5168  137.2842  159.4208 H   0  0  0  0  0  0  0  0  0  0  0  0
  148.3970  133.9587  159.9790 H   0  0  0  0  0  0  0  0  0  0  0  0
  147.3360  133.1910  162.1160 H   0  0  0  0  0  0  0  0  0  0  0  0
  146.4546  134.9142  163.7156 H   0  0  0  0  0  0  0  0  0  0  0  0
  146.6730  137.3373  163.1065 H   0  0  0  0  0  0  0  0  0  0  0  0
  148.0323  142.5220  155.5255 H   0  0  0  0  0  0  0  0  0  0  0  0
  145.7228  140.5729  155.3918 H   0  0  0  0  0  0  0  0  0  0  0  0
  145.8163  142.1877  154.7123 H   0  0  0  0  0  0  0  0  0  0  0  0
  145.8223  141.9752  156.4562 H   0  0  0  0  0  0  0  0  0  0  0  0
  147.8280  139.8793  153.9985 H   0  0  0  0  0  0  0  0  0  0  0  0
  149.2947  140.8438  154.0948 H   0  0  0  0  0  0  0  0  0  0  0  0
  147.8623  141.4971  153.3195 H   0  0  0  0  0  0  0  0  0  0  0  0
  150.2945  138.9431  156.0573 H   0  0  0  0  0  0  0  0  0  0  0  0
  150.1725  140.1971  154.8446 H   0  0  0  0  0  0  0  0  0  0  0  0
  152.2612  141.2565  155.6210 H   0  0  0  0  0  0  0  0  0  0  0  0
  152.4573  139.4795  153.8889 H   0  0  0  0  0  0  0  0  0  0  0  0
  152.6105  138.2562  155.1492 H   0  0  0  0  0  0  0  0  0  0  0  0
  153.8584  139.4846  154.9552 H   0  0  0  0  0  0  0  0  0  0  0  0
  150.0655  141.8050  156.6443 H   0  0  0  0  0  0  0  0  0  0  0  0
  1  2  1  0  0  0  0
  1 24  1  0  0  0  0
  1 25  1  0  0  0  0
  1 26  1  0  0  0  0
  2 23  1  0  0  0  0
  2  3  1  0  0  0  0
  2 27  1  0  0  0  0
  3  4  1  0  0  0  0
  3 28  1  0  0  0  0
  3 29  1  0  0  0  0
  4  5  1  0  0  0  0
  4 20  1  0  0  0  0
  4 53  1  0  0  0  0
  5  6  1  0  0  0  0
  5 17  1  0  0  0  0
  5 30  1  0  0  0  0
  6  7  2  0  0  0  0
  6  8  1  0  0  0  0
  8  9  1  0  0  0  0
  8 31  1  0  0  0  0
  9 10  1  0  0  0  0
  9 32  1  0  0  0  0
  9 33  1  0  0  0  0
 10 11  1  0  0  0  0
 10 34  1  0  0  0  0
 10 35  1  0  0  0  0
 11 16  1  0  0  0  0
 11 12  2  0  0  0  0
 12 13  1  0  0  0  0
 12 36  1  0  0  0  0
 13 14  2  0  0  0  0
 13 37  1  0  0  0  0
 14 15  1  0  0  0  0
 14 38  1  0  0  0  0
 15 16  2  0  0  0  0
 15 39  1  0  0  0  0
 17 18  1  0  0  0  0
 17 19  1  0  0  0  0
 17 40  1  0  0  0  0
 18 41  1  0  0  0  0
 18 42  1  0  0  0  0
 18 43  1  0  0  0  0
 19 44  1  0  0  0  0
 19 45  1  0  0  0  0
 19 46  1  0  0  0  0
 20 21  1  0  0  0  0
 20 47  1  0  0  0  0
 20 48  1  0  0  0  0
 21 22  1  0  0  0  0
 21 23  1  0  0  0  0
 21 49  1  0  0  0  0
 22 50  1  0  0  0  0
 22 51  1  0  0  0  0
 22 52  1  0  0  0  0
M  CHG  1   4   1
M  END
> <s_m_source_file>
AV-unprocessed.smi

> <i_m_source_file_index>
1762

> <i_lp_mmshare_version>
43012

> <i_f3d_flags>
0

> <s_epik_input>
W0NIM11bQ0BASF0xW0NIMl1OKFtDSDJdW0NASF0oTzEpW0NIM10pW0NAQEhdKFtDSF0oW0NIM10pW0NIM10pQyg9TylbTkhdW0NIMl1bQ0gyXWMyW2NIXVtjSF1bY0hdW2NIXW4y

> <s_epik_cmdline>
J2VwaWtfcHl0aG9uJywgJy1waCcsICc3LjAnLCAnLXRuJywgJzgnLCAnLW1hJywgJzIwMCcsICctbWV0YWxfYmluZGluZycsICctaW1hZScsICc8aW5maWxlLm1hZT4nLCAnLW9tYWUnLCAnPG91dGZpbGUubWFlPic=

> <r_epik_Ionization_Penalty>
2.27005

> <r_epik_Ionization_Penalty_Charging>
2.24983

> <r_epik_Ionization_Penalty_Neutral>
0.0202209

> <r_epik_State_Penalty>
2.40228

> <r_epik_Charging_Adjusted_Penalty>
4.65211

> <i_epik_Tot_Q>
1

> <i_epik_Tot_abs_Q>
1

> <r_epik_Metal_State_Penalty>
2.40762

> <b_epik_Metal_Only>
0

> <s_lp_Force_Field>
OPLS_2005

> <r_lp_Energy>
24.3613

> <b_lp_Chiralities_Consistent>
1

> <s_lp_Variant>
AV-unprocessed.smi:1762-18

> <Gold.Version>
5.8.1

> <Gold.Id.Protein>
6NUR|6NUR_protein|mol2

> <Gold.PLP.Fitness>
43.4709

> <Gold.PLP.PLP>
-36.3232

> <Gold.PLP.part.hbond>
-3.0000

> <Gold.PLP.part.metal>
0.0000

> <Gold.PLP.part.buried>
-3.5991

> <Gold.PLP.part.nonpolar>
-29.0623

> <Gold.PLP.part.repulsive>
0.1576

> <Gold.PLP.ligand.clash>
0.0000

> <Gold.PLP.ligand.torsion>
0.9161

> <Gold.PLP.Chemscore.Hbond>
2.9040

> <Gold.PLP.Chemscore.CHOScore>
0.0000

> <Gold.PLP.Chemscore.Metal>
0.0000

> <Gold.Chemscore.Hbonds>
donor molecule, donor type, donor heavy atom, donor atom, acceptor molecule, acceptor atom, score
      P1  H  6931  6943       L1    16  1.00
      P1  H  6934  6947       L1    16  0.74
      P1  H  7997  8009       L1    23  1.00

> <Gold.PLP.Chemscore.Internal.Correction>
0.2678

> <Gold.Rescore>
     Score         DG    S(hbond)    S(metal)    S(lipo)     H(rot)  DE(clash)    DE(int)     intcor
     15.04     -19.54       1.74        0.00     107.01       1.66       1.51       2.99       ----

> <Gold.Chemscore.Fitness>
15.0404

> <Gold.Chemscore.DG>
-19.5429

> <Gold.Chemscore.ZeroCoef>
-5.4800

> <Gold.Chemscore.Hbond>
1.7370

> <Gold.Chemscore.Metal>
0.0000

> <Gold.Chemscore.Lipo>
107.0083

> <Gold.Chemscore.Internal_Hbond>
0.0000

> <Gold.Chemscore.DEClash>
1.5126

> <Gold.Chemscore.DEInternal>
2.9899

> <Gold.Chemscore.Rot>
1.6635

> <Gold.Chemscore.Internal.Correction>
   9.000000E+99

> <Gold.Chemscore.Hbonds>
donor molecule, donor type, donor heavy atom, donor atom, acceptor molecule, acceptor atom, score
      P1  H  6931  6943       L1    16  0.36
      P1  H  6934  6947       L1    16  0.56
      P1  H  7997  8009       L1    23  0.23

> <Gold.Chemscore.Hbond.Weighted>
-5.8016

> <Gold.Chemscore.Metal.Weighted>
-0.0000

> <Gold.Chemscore.Lipo.Weighted>
-12.5200

> <Gold.Chemscore.Internal_Hbond.Weighted>
0.0000

> <Gold.Chemscore.DEClash.Weighted>
1.5126

> <Gold.Chemscore.DEInternal.Weighted>
2.9899

> <Gold.Chemscore.Rot.Weighted>
4.2586

> <Gold.Chemscore.Internal.Correction.Weighted>
   9.000000E+99

> <Gold.Protein.RotatedTorsions>
[ 6907 6896 6895 6894 ] final -125.26 input  -60.11 | X-H torsion
[ 7974 7965 7964 7962 ] final   28.06 input  175.53 | X-H torsion
[ 8008 7997 7996 7995 ] final  164.69 input   59.86 | X-H torsion
[ 10167 10162 10161 10158 ] final -178.41 input  -65.29 | X-H torsion
[ 10718 10713 10712 10709 ] final  -39.30 input   66.30 | X-H torsion
[ 10763 10752 10751 10750 ] final  -44.72 input  -60.55 | X-H torsion
[ 11005 11000 10999 10996 ] final   69.53 input  -57.11 | X-H torsion

> <Gold.Protein.ActiveResidues>
 VAL166  LYS551  ARG553  GLY616  TRP617  ASP618  TYR619  PRO620  LYS621  CYS622 
 ASP623  PHE694  ASN695  SER759  ASP760  ASP761  ALA762  ILE779  LEU786  VAL792 
 PHE793  MET794  SER795  GLU796  ALA797  LYS798  CYS799  TRP800  GLU811  SER814 

> <Gold.Protein.RotatedAtoms>
  150.8849  133.7321  159.2920 H   0  0  0  0  0  0  0  0  0  0  0  0  # atno 6907 bound_to 6896
  151.4890  135.1055  159.9808 H   0  0  0  0  0  0  0  0  0  0  0  0  # atno 6908 bound_to 6896
  152.4784  133.8147  159.7077 H   0  0  0  0  0  0  0  0  0  0  0  0  # atno 6909 bound_to 6896
  146.1750  139.7107  142.8941 H   0  0  0  0  0  0  0  0  0  0  0  0  # atno 7974 bound_to 7965
  156.1860  140.1690  156.8184 H   0  0  0  0  0  0  0  0  0  0  0  0  # atno 8008 bound_to 7997
  154.5415  140.0736  156.8549 H   0  0  0  0  0  0  0  0  0  0  0  0  # atno 8009 bound_to 7997
  155.3206  140.3373  155.4243 H   0  0  0  0  0  0  0  0  0  0  0  0  # atno 8010 bound_to 7997
  139.5433  144.2303  152.0939 H   0  0  0  0  0  0  0  0  0  0  0  0  # atno 10167 bound_to 10162
  156.2940  130.4232  149.8210 H   0  0  0  0  0  0  0  0  0  0  0  0  # atno 10718 bound_to 10713
  154.0167  135.6674  153.4769 H   0  0  0  0  0  0  0  0  0  0  0  0  # atno 10763 bound_to 10752
  153.0598  135.5035  154.8062 H   0  0  0  0  0  0  0  0  0  0  0  0  # atno 10764 bound_to 10752
  154.6962  135.3070  154.9371 H   0  0  0  0  0  0  0  0  0  0  0  0  # atno 10765 bound_to 10752
  139.9648  134.6999  156.0568 H   0  0  0  0  0  0  0  0  0  0  0  0  # atno 11005 bound_to 11000
  145.4237  141.0409  143.2949 LP  0  0  0  0  0  0  0  0  0  0  0  0  # atno 17320 bound_to 7965
  144.8221  139.5773  143.6982 LP  0  0  0  0  0  0  0  0  0  0  0  0  # atno 17321 bound_to 7965
  140.1785  144.4867  150.6541 LP  0  0  0  0  0  0  0  0  0  0  0  0  # atno 17342 bound_to 10162
  140.6672  143.2272  151.5713 LP  0  0  0  0  0  0  0  0  0  0  0  0  # atno 17343 bound_to 10162
  156.5613  130.8384  151.3329 LP  0  0  0  0  0  0  0  0  0  0  0  0  # atno 17370 bound_to 10713
  157.7350  130.9755  150.2059 LP  0  0  0  0  0  0  0  0  0  0  0  0  # atno 17371 bound_to 10713
  141.1327  133.6582  156.3510 LP  0  0  0  0  0  0  0  0  0  0  0  0  # atno 17394 bound_to 11000
  140.5420  134.6111  157.5382 LP  0  0  0  0  0  0  0  0  0  0  0  0  # atno 17395 bound_to 11000

$$$$
