#       Name:                AV-unprocessed.smi:3147
#       Creating user name   scv26
#       Creation time:       Fri Mar 27 17:39:44 2020


#       File generated by GOLD software.
#

@<TRIPOS>MOLECULE
AV-unprocessed.smi:3147
    41    42     1
SMALL
NO_CHARGES


@<TRIPOS>ATOM
      1 ****        -5.1885  -1.6970  -1.8664 C.3            1 S1                 0.0000
      2 ****        -3.8647  -0.9958  -1.8544 C.2            1 S1                 0.0000
      3 ****        -3.8016   0.3955  -1.8375 N.2            1 S1                 0.0000
      4 ****        -2.5020   0.6548  -1.8295 C.2            1 S1                 0.0000
      5 ****        -1.7181  -0.4317  -1.8431 N.pl3          1 S1                 0.0000
      6 ****        -0.2626  -0.4468  -1.8397 C.3            1 S1                 0.0000
      7 ****         0.3312  -0.5152  -0.4272 C.2            1 S1                 0.0000
      8 ****        -0.3690  -0.7955   0.5470 O.2            1 S1                 0.0000
      9 ****         1.6446  -0.2586  -0.3352 N.am           1 S1                 0.0000
     10 ****         2.4196  -0.2751   0.9002 C.3            1 S1                 0.0000
     11 ****         2.2302   1.0188   1.7093 C.3            1 S1                 0.0000
     12 ****         2.9918   1.0349   3.0311 C.3            1 S1                 0.0000
     13 ****         3.0532   2.5175   3.3240 C.3            1 S1                 0.0000
     14 ****         3.2107   3.1251   1.9298 C.3            1 S1                 0.0000
     15 ****         2.7546   2.1392   1.0053 O.3            1 S1                 0.0000
     16 ****        -2.5881  -1.5212  -1.8559 C.2            1 S1                 0.0000
     17 ****        -2.1162  -2.9407  -1.8655 C.3            1 S1                 0.0000
     18 ****        -5.0774  -2.7803  -1.8907 H              1 S1                 0.0000
     19 ****        -5.7756  -1.4095  -2.7387 H              1 S1                 0.0000
     20 ****        -5.7713  -1.4476  -0.9794 H              1 S1                 0.0000
     21 ****        -2.1102   1.6613  -1.8149 H              1 S1                 0.0000
     22 ****         0.0882  -1.2980  -2.4239 H              1 S1                 0.0000
     23 ****         0.0948   0.4530  -2.3428 H              1 S1                 0.0000
     24 ****         2.1451  -0.0323  -1.1825 H              1 S1                 0.0000
     25 ****         2.1353  -1.1403   1.5015 H              1 S1                 0.0000
     26 ****         3.4713  -0.4080   0.6449 H              1 S1                 0.0000
     27 ****         1.1719   1.1995   1.9062 H              1 S1                 0.0000
     28 ****         2.4960   0.4629   3.8160 H              1 S1                 0.0000
     29 ****         3.9994   0.6375   2.9000 H              1 S1                 0.0000
     30 ****         2.1135   2.8455   3.7704 H              1 S1                 0.0000
     31 ****         3.8637   2.7875   4.0015 H              1 S1                 0.0000
     32 ****         2.6434   4.0504   1.8258 H              1 S1                 0.0000
     33 ****         4.2573   3.3446   1.7167 H              1 S1                 0.0000
     34 ****        -2.9478  -3.6411  -1.8009 H              1 S1                 0.0000
     35 ****        -1.4554  -3.1348  -1.0205 H              1 S1                 0.0000
     36 ****        -1.5669  -3.1599  -2.7812 H              1 S1                 0.0000
     37 ****        -4.5603   1.0470  -1.8325 LP             1 S1                 0.0000
     38 ****        -1.3435  -0.9835   0.4248 LP             1 S1                 0.0000
     39 ****         0.0372  -0.8350   1.4599 LP             1 S1                 0.0000
     40 ****         2.0390   2.5323   0.4279 LP             1 S1                 0.0000
     41 ****         3.5192   1.8427   0.4331 LP             1 S1                 0.0000
@<TRIPOS>BOND
    1    1    2 1     
    2    1   18 1     
    3    1   19 1     
    4    1   20 1     
    5    2   16 2     
    6    2    3 1     
    7    3    4 2     
    8    4    5 1     
    9    4   21 1     
   10    5    6 1     
   11    5   16 1     
   12    6    7 1     
   13    6   22 1     
   14    6   23 1     
   15    7    8 2     
   16    7    9 am    
   17    9   10 1     
   18    9   24 1     
   19   10   11 1     
   20   10   25 1     
   21   10   26 1     
   22   11   15 1     
   23   11   12 1     
   24   11   27 1     
   25   12   13 1     
   26   12   28 1     
   27   12   29 1     
   28   13   14 1     
   29   13   30 1     
   30   13   31 1     
   31   14   15 1     
   32   14   32 1     
   33   14   33 1     
   34   16   17 1     
   35   17   34 1     
   36   17   35 1     
   37   17   36 1     
   38    3   37 1     
   39    8   38 1     
   40    8   39 1     
   41   15   40 1     
   42   15   41 1     
@<TRIPOS>SUBSTRUCTURE
      1 S1             1
@<TRIPOS>SET
LONE_PAIRS      STATIC     ATOMS    <user>   **** ""
5 37 38 39 40 41
DONOR_HYDROGENS      STATIC     ATOMS    <user>   **** ""
1 24
ATOM$BLUE        STATIC     ATOMS    COLORGROUP SYSTEM
5 37 38 39 40 41
ATOM$RED        STATIC     ATOMS    COLORGROUP SYSTEM
1 24
