AV-unprocessed.smi:3025|AV-procd|sdf|11511|dock5
  -GOLD-   2272016453D 1   1.00000     0.00000
 Structure written by MMmdl.
 41 42  0  0  0  0  0  0  0  0  3 V2000
  153.5711  142.9012  163.6745 C   0  0  0  0  0  0  0  0  0  0  0  0
  152.6964  143.0498  162.4246 C   0  0  0  0  0  0  0  0  0  0  0  0
  153.2009  142.1955  161.2491 C   0  0  0  0  0  0  0  0  0  0  0  0
  152.2060  142.0843  160.0754 C   0  0  2  0  0  0  0  0  0  0  0  0
  152.8259  141.4094  158.8328 C   0  0  0  0  0  0  0  0  0  0  0  0
  151.8298  141.3315  157.6644 C   0  0  0  0  0  0  0  0  0  0  0  0
  151.2800  142.7235  157.2919 C   0  0  1  0  0  0  0  0  0  0  0  0
  150.2777  142.6414  156.2063 N   0  3  0  0  0  0  0  0  0  0  0  0
  149.3852  141.4659  156.2605 C   0  0  0  0  0  0  0  0  0  0  0  0
  149.1833  140.8671  154.8647 C   0  0  0  0  0  0  0  0  0  0  0  0
  150.3199  139.9465  154.4848 C   0  0  0  0  0  0  0  0  0  0  0  0
  151.6318  140.2165  154.6376 N   0  5  0  0  0  0  0  0  0  0  0  0
  152.3543  139.1852  154.2454 N   0  0  0  0  0  0  0  0  0  0  0  0
  151.4489  138.2775  153.8616 C   0  0  0  0  0  0  0  0  0  0  0  0
  150.1922  138.7128  154.0046 N   0  0  0  0  0  0  0  0  0  0  0  0
  150.6546  143.3900  158.5302 C   0  0  0  0  0  0  0  0  0  0  0  0
  151.6553  143.4729  159.6937 C   0  0  0  0  0  0  0  0  0  0  0  0
  153.1938  143.5211  164.4882 H   0  0  0  0  0  0  0  0  0  0  0  0
  154.5992  143.2050  163.4748 H   0  0  0  0  0  0  0  0  0  0  0  0
  153.5874  141.8682  164.0235 H   0  0  0  0  0  0  0  0  0  0  0  0
  151.6737  142.7741  162.6802 H   0  0  0  0  0  0  0  0  0  0  0  0
  152.6704  144.0996  162.1305 H   0  0  0  0  0  0  0  0  0  0  0  0
  154.1281  142.6376  160.8819 H   0  0  0  0  0  0  0  0  0  0  0  0
  153.4645  141.1986  161.6051 H   0  0  0  0  0  0  0  0  0  0  0  0
  151.3631  141.4763  160.4081 H   0  0  0  0  0  0  0  0  0  0  0  0
  153.7126  141.9613  158.5173 H   0  0  0  0  0  0  0  0  0  0  0  0
  153.1612  140.4009  159.0735 H   0  0  0  0  0  0  0  0  0  0  0  0
  152.3271  140.8731  156.8097 H   0  0  0  0  0  0  0  0  0  0  0  0
  151.0062  140.6686  157.9341 H   0  0  0  0  0  0  0  0  0  0  0  0
  152.1027  143.3532  156.9495 H   0  0  0  0  0  0  0  0  0  0  0  0
  149.7186  143.4824  156.2103 H   0  0  0  0  0  0  0  0  0  0  0  0
  149.8153  140.7156  156.9254 H   0  0  0  0  0  0  0  0  0  0  0  0
  148.4185  141.7506  156.6762 H   0  0  0  0  0  0  0  0  0  0  0  0
  148.2489  140.3061  154.8238 H   0  0  0  0  0  0  0  0  0  0  0  0
  149.1108  141.6590  154.1181 H   0  0  0  0  0  0  0  0  0  0  0  0
  151.7063  137.2967  153.4811 H   0  0  0  0  0  0  0  0  0  0  0  0
  150.3063  144.3927  158.2787 H   0  0  0  0  0  0  0  0  0  0  0  0
  149.7750  142.8294  158.8500 H   0  0  0  0  0  0  0  0  0  0  0  0
  151.1684  143.9309  160.5556 H   0  0  0  0  0  0  0  0  0  0  0  0
  152.4787  144.1339  159.4192 H   0  0  0  0  0  0  0  0  0  0  0  0
  150.7778  142.5936  155.3302 H   0  0  0  0  0  0  0  0  0  0  0  0
  1  2  1  0  0  0  0
  1 18  1  0  0  0  0
  1 19  1  0  0  0  0
  1 20  1  0  0  0  0
  2  3  1  0  0  0  0
  2 21  1  0  0  0  0
  2 22  1  0  0  0  0
  3  4  1  0  0  0  0
  3 23  1  0  0  0  0
  3 24  1  0  0  0  0
  4 17  1  0  0  0  0
  4  5  1  0  0  0  0
  4 25  1  0  0  0  0
  5  6  1  0  0  0  0
  5 26  1  0  0  0  0
  5 27  1  0  0  0  0
  6  7  1  0  0  0  0
  6 28  1  0  0  0  0
  6 29  1  0  0  0  0
  7  8  1  0  0  0  0
  7 16  1  0  0  0  0
  7 30  1  0  0  0  0
  8  9  1  0  0  0  0
  8 31  1  0  0  0  0
  8 41  1  0  0  0  0
  9 10  1  0  0  0  0
  9 32  1  0  0  0  0
  9 33  1  0  0  0  0
 10 34  1  0  0  0  0
 10 35  1  0  0  0  0
 10 11  1  0  0  0  0
 11 15  2  0  0  0  0
 11 12  1  0  0  0  0
 12 13  1  0  0  0  0
 13 14  2  0  0  0  0
 14 15  1  0  0  0  0
 14 36  1  0  0  0  0
 16 17  1  0  0  0  0
 16 37  1  0  0  0  0
 16 38  1  0  0  0  0
 17 39  1  0  0  0  0
 17 40  1  0  0  0  0
M  CHG  1   8   1
M  CHG  1  12  -1
M  END
> <s_m_source_file>
AV-unprocessed.smi

> <i_m_source_file_index>
3025

> <i_lp_mmshare_version>
43012

> <i_f3d_flags>
0

> <s_epik_input>
W0NIM11bQ0gyXVtDSDJdW0NAQEhdMVtDSDJdW0NIMl1bQ0BIXShbQ0gyXVtDSDJdMSlbTkhdW0NIMl1bQ0gyXWMybm5bY0hdW25IXTI=

> <s_epik_cmdline>
J2VwaWtfcHl0aG9uJywgJy1waCcsICc3LjAnLCAnLXRuJywgJzgnLCAnLW1hJywgJzIwMCcsICctbWV0YWxfYmluZGluZycsICctaW1hZScsICc8aW5maWxlLm1hZT4nLCAnLW9tYWUnLCAnPG91dGZpbGUubWFlPic=

> <r_lp_tautomer_probability>
0.948284

> <r_epik_Ionization_Penalty>
6.65342

> <r_epik_Ionization_Penalty_Charging>
6.65342

> <r_epik_Ionization_Penalty_Neutral>
1.40767e-13

> <r_epik_State_Penalty>
2.88894

> <r_epik_Charging_Adjusted_Penalty>
9.54236

> <i_epik_Tot_Q>
0

> <i_epik_Tot_abs_Q>
2

> <r_epik_Metal_State_Penalty>
0.664188

> <b_epik_Metal_Only>
1

> <s_lp_Force_Field>
OPLS_2005

> <r_lp_Energy>
6.5819

> <b_lp_Chiralities_Consistent>
1

> <s_lp_Variant>
AV-unprocessed.smi:3025-7

> <Gold.Version>
5.8.1

> <Gold.Id.Protein>
6NUR|6NUR_protein|mol2

> <Gold.PLP.Fitness>
50.1786

> <Gold.PLP.PLP>
-39.9153

> <Gold.PLP.part.hbond>
-2.9138

> <Gold.PLP.part.metal>
0.0000

> <Gold.PLP.part.buried>
-5.0460

> <Gold.PLP.part.nonpolar>
-31.7085

> <Gold.PLP.part.repulsive>
0.4928

> <Gold.PLP.ligand.clash>
0.0000

> <Gold.PLP.ligand.torsion>
0.8950

> <Gold.PLP.Chemscore.Hbond>
3.0000

> <Gold.PLP.Chemscore.CHOScore>
0.9931

> <Gold.PLP.Chemscore.Metal>
0.0000

> <Gold.Chemscore.Hbonds>
donor molecule, donor type, donor heavy atom, donor atom, acceptor molecule, acceptor atom, score
      L1  H     8    31       P1  8028  2.00
      P1  H  7989  7998       L1    12  0.21
      L1  C    14    36       P1  7949  1.00

> <Gold.PLP.Chemscore.Internal.Correction>
0.0741

> <Gold.Rescore>
     Score         DG    S(hbond)    S(metal)    S(lipo)     H(rot)  DE(clash)    DE(int)     intcor
     15.89     -16.70       1.70        0.00     102.02       2.50       0.10       0.71       ----

> <Gold.Chemscore.Fitness>
15.8888

> <Gold.Chemscore.DG>
-16.6952

> <Gold.Chemscore.ZeroCoef>
-5.4800

> <Gold.Chemscore.Hbond>
1.7017

> <Gold.Chemscore.Metal>
0.0000

> <Gold.Chemscore.Lipo>
102.0200

> <Gold.Chemscore.Internal_Hbond>
0.0000

> <Gold.Chemscore.DEClash>
0.1007

> <Gold.Chemscore.DEInternal>
0.7056

> <Gold.Chemscore.Rot>
2.5019

> <Gold.Chemscore.Internal.Correction>
   9.000000E+99

> <Gold.Chemscore.Hbonds>
donor molecule, donor type, donor heavy atom, donor atom, acceptor molecule, acceptor atom, score
      L1  H     8    31       P1  8028  0.97

> <Gold.Chemscore.Hbond.Weighted>
-5.6838

> <Gold.Chemscore.Metal.Weighted>
-0.0000

> <Gold.Chemscore.Lipo.Weighted>
-11.9363

> <Gold.Chemscore.Internal_Hbond.Weighted>
0.0000

> <Gold.Chemscore.DEClash.Weighted>
0.1007

> <Gold.Chemscore.DEInternal.Weighted>
0.7056

> <Gold.Chemscore.Rot.Weighted>
6.4049

> <Gold.Chemscore.Internal.Correction.Weighted>
   9.000000E+99

> <Gold.Protein.RotatedTorsions>
[ 6907 6896 6895 6894 ] final   34.33 input  -60.11 | X-H torsion
[ 7974 7965 7964 7962 ] final -154.26 input  175.53 | X-H torsion
[ 8008 7997 7996 7995 ] final   13.74 input   59.86 | X-H torsion
[ 10167 10162 10161 10158 ] final   -6.67 input  -65.29 | X-H torsion
[ 10718 10713 10712 10709 ] final   46.79 input   66.30 | X-H torsion
[ 10763 10752 10751 10750 ] final  -38.11 input  -60.55 | X-H torsion
[ 11005 11000 10999 10996 ] final  157.32 input  -57.11 | X-H torsion

> <Gold.Protein.ActiveResidues>
 VAL166  LYS551  ARG553  GLY616  TRP617  ASP618  TYR619  PRO620  LYS621  CYS622 
 ASP623  PHE694  ASN695  SER759  ASP760  ASP761  ALA762  ILE779  LEU786  VAL792 
 PHE793  MET794  SER795  GLU796  ALA797  LYS798  CYS799  TRP800  GLU811  SER814 

> <Gold.Protein.RotatedAtoms>
  152.1009  134.9342  160.0569 H   0  0  0  0  0  0  0  0  0  0  0  0  # atno 6907 bound_to 6896
  152.0557  133.4034  159.4404 H   0  0  0  0  0  0  0  0  0  0  0  0  # atno 6908 bound_to 6896
  150.6839  134.3177  159.4817 H   0  0  0  0  0  0  0  0  0  0  0  0  # atno 6909 bound_to 6896
  144.7698  140.4413  143.5915 H   0  0  0  0  0  0  0  0  0  0  0  0  # atno 7974 bound_to 7965
  154.8387  140.2911  155.5674 H   0  0  0  0  0  0  0  0  0  0  0  0  # atno 8008 bound_to 7997
  156.3010  140.2518  156.3257 H   0  0  0  0  0  0  0  0  0  0  0  0  # atno 8009 bound_to 7997
  154.9150  140.0387  157.1956 H   0  0  0  0  0  0  0  0  0  0  0  0  # atno 8010 bound_to 7997
  140.7004  143.6167  150.8651 H   0  0  0  0  0  0  0  0  0  0  0  0  # atno 10167 bound_to 10162
  157.4518  130.8143  149.7796 H   0  0  0  0  0  0  0  0  0  0  0  0  # atno 10718 bound_to 10713
  153.9075  135.6796  153.4752 H   0  0  0  0  0  0  0  0  0  0  0  0  # atno 10763 bound_to 10752
  153.1096  135.4789  154.9010 H   0  0  0  0  0  0  0  0  0  0  0  0  # atno 10764 bound_to 10752
  154.7544  135.3193  154.8452 H   0  0  0  0  0  0  0  0  0  0  0  0  # atno 10765 bound_to 10752
  140.1758  134.8510  157.2745 H   0  0  0  0  0  0  0  0  0  0  0  0  # atno 11005 bound_to 11000
  145.6357  139.1542  143.2944 LP  0  0  0  0  0  0  0  0  0  0  0  0  # atno 17320 bound_to 7965
  146.1836  140.6457  142.9178 LP  0  0  0  0  0  0  0  0  0  0  0  0  # atno 17321 bound_to 7965
  139.9889  143.5869  152.2917 LP  0  0  0  0  0  0  0  0  0  0  0  0  # atno 17342 bound_to 10162
  139.6517  144.7661  151.2135 LP  0  0  0  0  0  0  0  0  0  0  0  0  # atno 17343 bound_to 10162
  155.9990  130.3891  150.2680 LP  0  0  0  0  0  0  0  0  0  0  0  0  # atno 17370 bound_to 10713
  157.0852  131.0154  151.3142 LP  0  0  0  0  0  0  0  0  0  0  0  0  # atno 17371 bound_to 10713
  140.2324  134.3893  155.7516 LP  0  0  0  0  0  0  0  0  0  0  0  0  # atno 17394 bound_to 11000
  141.2220  133.7222  156.8661 LP  0  0  0  0  0  0  0  0  0  0  0  0  # atno 17395 bound_to 11000

$$$$
