AV-unprocessed.smi:3269|AV-procd|sdf|12511|dock9
  -GOLD-   2272018423D 1   1.00000     0.00000
 Structure written by MMmdl.
 39 40  0  0  0  0  0  0  0  0  1 V2000
  151.6792  138.6091  154.8183 C   0  0  0  0  0  0  0  0  0  0  0  0
  151.5924  139.6485  155.8991 C   0  0  0  0  0  0  0  0  0  0  0  0
  152.3567  139.5354  156.9726 N   0  0  0  0  0  0  0  0  0  0  0  0
  152.0522  140.6105  157.7265 N   0  0  0  0  0  0  0  0  0  0  0  0
  152.7297  140.8064  158.9934 C   0  0  0  0  0  0  0  0  0  0  0  0
  151.0892  141.4016  157.1309 C   0  0  0  0  0  0  0  0  0  0  0  0
  150.5876  142.6576  157.7680 C   0  0  0  0  0  0  0  0  0  0  0  0
  150.7647  140.8087  155.9390 C   0  0  0  0  0  0  0  0  0  0  0  0
  149.7798  141.2644  154.8918 C   0  0  0  0  0  0  0  0  0  0  0  0
  148.3595  141.0587  155.4164 C   0  0  0  0  0  0  0  0  0  0  0  0
  147.9333  139.9208  155.6136 O   0  0  0  0  0  0  0  0  0  0  0  0
  147.6285  142.1677  155.6039 N   0  0  0  0  0  0  0  0  0  0  0  0
  146.2127  142.1913  155.9466 C   0  0  0  0  0  0  0  0  0  0  0  0
  145.5963  143.5613  155.6203 C   0  0  1  0  0  0  0  0  0  0  0  0
  145.4456  143.8401  154.1267 C   0  0  0  0  0  0  0  0  0  0  0  0
  144.2891  144.8276  154.0630 C   0  0  0  0  0  0  0  0  0  0  0  0
  143.6604  144.7623  155.4583 C   0  0  0  0  0  0  0  0  0  0  0  0
  144.2546  143.6310  156.0769 O   0  0  0  0  0  0  0  0  0  0  0  0
  151.8228  139.0738  153.8426 H   0  0  0  0  0  0  0  0  0  0  0  0
  150.7645  138.0181  154.7730 H   0  0  0  0  0  0  0  0  0  0  0  0
  152.5107  137.9224  154.9816 H   0  0  0  0  0  0  0  0  0  0  0  0
  151.9983  140.8254  159.8017 H   0  0  0  0  0  0  0  0  0  0  0  0
  153.2690  141.7537  158.9770 H   0  0  0  0  0  0  0  0  0  0  0  0
  153.4399  139.9995  159.1800 H   0  0  0  0  0  0  0  0  0  0  0  0
  149.7376  143.0668  157.2228 H   0  0  0  0  0  0  0  0  0  0  0  0
  151.3689  143.4173  157.7884 H   0  0  0  0  0  0  0  0  0  0  0  0
  150.2658  142.4735  158.7930 H   0  0  0  0  0  0  0  0  0  0  0  0
  149.9135  142.3190  154.6485 H   0  0  0  0  0  0  0  0  0  0  0  0
  149.9119  140.7212  153.9552 H   0  0  0  0  0  0  0  0  0  0  0  0
  148.0646  143.0591  155.4178 H   0  0  0  0  0  0  0  0  0  0  0  0
  145.6834  141.3986  155.4153 H   0  0  0  0  0  0  0  0  0  0  0  0
  146.1114  141.9753  157.0105 H   0  0  0  0  0  0  0  0  0  0  0  0
  146.1723  144.3638  156.0860 H   0  0  0  0  0  0  0  0  0  0  0  0
  146.3610  144.2283  153.6789 H   0  0  0  0  0  0  0  0  0  0  0  0
  145.1735  142.9261  153.5967 H   0  0  0  0  0  0  0  0  0  0  0  0
  144.6343  145.8385  153.8432 H   0  0  0  0  0  0  0  0  0  0  0  0
  143.5778  144.5396  153.2883 H   0  0  0  0  0  0  0  0  0  0  0  0
  143.9087  145.6554  156.0340 H   0  0  0  0  0  0  0  0  0  0  0  0
  142.5747  144.6690  155.4265 H   0  0  0  0  0  0  0  0  0  0  0  0
  1  2  1  0  0  0  0
  1 19  1  0  0  0  0
  1 20  1  0  0  0  0
  1 21  1  0  0  0  0
  2  8  1  0  0  0  0
  2  3  2  0  0  0  0
  3  4  1  0  0  0  0
  4  5  1  0  0  0  0
  4  6  1  0  0  0  0
  5 22  1  0  0  0  0
  5 23  1  0  0  0  0
  5 24  1  0  0  0  0
  6  7  1  0  0  0  0
  6  8  2  0  0  0  0
  7 25  1  0  0  0  0
  7 26  1  0  0  0  0
  7 27  1  0  0  0  0
  8  9  1  0  0  0  0
  9 10  1  0  0  0  0
  9 28  1  0  0  0  0
  9 29  1  0  0  0  0
 10 11  2  0  0  0  0
 10 12  1  0  0  0  0
 12 13  1  0  0  0  0
 12 30  1  0  0  0  0
 13 14  1  0  0  0  0
 13 31  1  0  0  0  0
 13 32  1  0  0  0  0
 14 18  1  0  0  0  0
 14 15  1  0  0  0  0
 14 33  1  0  0  0  0
 15 16  1  0  0  0  0
 15 34  1  0  0  0  0
 15 35  1  0  0  0  0
 16 17  1  0  0  0  0
 16 36  1  0  0  0  0
 16 37  1  0  0  0  0
 17 18  1  0  0  0  0
 17 38  1  0  0  0  0
 17 39  1  0  0  0  0
M  END
> <s_m_source_file>
AV-unprocessed.smi

> <i_m_source_file_index>
3269

> <i_lp_mmshare_version>
43012

> <i_f3d_flags>
0

> <s_epik_input>
W0NIM11jMW5uKFtDSDNdKWMoW0NIM10pYzFbQ0gyXUMoPU8pW05IXVtDSDJdW0NAQEhdMltDSDJdW0NIMl1bQ0gyXU8y

> <s_epik_cmdline>
J2VwaWtfcHl0aG9uJywgJy1waCcsICc3LjAnLCAnLXRuJywgJzgnLCAnLW1hJywgJzIwMCcsICctbWV0YWxfYmluZGluZycsICctaW1hZScsICc8aW5maWxlLm1hZT4nLCAnLW9tYWUnLCAnPG91dGZpbGUubWFlPic=

> <r_lp_tautomer_probability>
1

> <r_epik_Ionization_Penalty>
0.00306713

> <r_epik_Ionization_Penalty_Charging>
0

> <r_epik_Ionization_Penalty_Neutral>
0.00306713

> <r_epik_State_Penalty>
0.00215672

> <r_epik_Charging_Adjusted_Penalty>
0.00215672

> <i_epik_Tot_Q>
0

> <i_epik_Tot_abs_Q>
0

> <r_epik_Metal_State_Penalty>
-0

> <b_epik_Metal_Only>
0

> <s_lp_Force_Field>
OPLS_2005

> <r_lp_Energy>
10.8306

> <b_lp_Chiralities_Consistent>
1

> <s_lp_Variant>
AV-unprocessed.smi:3269-2

> <Gold.Version>
5.8.1

> <Gold.Id.Protein>
6NUR|6NUR_protein|mol2

> <Gold.PLP.Fitness>
38.1071

> <Gold.PLP.PLP>
-32.7464

> <Gold.PLP.part.hbond>
-2.0000

> <Gold.PLP.part.metal>
0.0000

> <Gold.PLP.part.buried>
-2.3597

> <Gold.PLP.part.nonpolar>
-28.9526

> <Gold.PLP.part.repulsive>
0.2469

> <Gold.PLP.ligand.clash>
0.0000

> <Gold.PLP.ligand.torsion>
0.3266

> <Gold.PLP.Chemscore.Hbond>
2.0000

> <Gold.PLP.Chemscore.CHOScore>
0.0000

> <Gold.PLP.Chemscore.Metal>
0.0000

> <Gold.Chemscore.Hbonds>
donor molecule, donor type, donor heavy atom, donor atom, acceptor molecule, acceptor atom, score
      L1  H    12    30       P1  8028  1.00
      P1  H  7997  8010       L1     3  0.59

> <Gold.PLP.Chemscore.Internal.Correction>
0.0139

> <Gold.Rescore>
     Score         DG    S(hbond)    S(metal)    S(lipo)     H(rot)  DE(clash)    DE(int)     intcor
     15.26     -16.06       1.48        0.00      80.96       1.50       0.37       0.43       ----

> <Gold.Chemscore.Fitness>
15.2596

> <Gold.Chemscore.DG>
-16.0631

> <Gold.Chemscore.ZeroCoef>
-5.4800

> <Gold.Chemscore.Hbond>
1.4815

> <Gold.Chemscore.Metal>
0.0000

> <Gold.Chemscore.Lipo>
80.9562

> <Gold.Chemscore.Internal_Hbond>
0.0000

> <Gold.Chemscore.DEClash>
0.3703

> <Gold.Chemscore.DEInternal>
0.4332

> <Gold.Chemscore.Rot>
1.4989

> <Gold.Chemscore.Internal.Correction>
   9.000000E+99

> <Gold.Chemscore.Hbonds>
donor molecule, donor type, donor heavy atom, donor atom, acceptor molecule, acceptor atom, score
      L1  H    12    30       P1  8028  0.88
      P1  H  7997  8010       L1     3  0.06

> <Gold.Chemscore.Hbond.Weighted>
-4.9483

> <Gold.Chemscore.Metal.Weighted>
-0.0000

> <Gold.Chemscore.Lipo.Weighted>
-9.4719

> <Gold.Chemscore.Internal_Hbond.Weighted>
0.0000

> <Gold.Chemscore.DEClash.Weighted>
0.3703

> <Gold.Chemscore.DEInternal.Weighted>
0.4332

> <Gold.Chemscore.Rot.Weighted>
3.8371

> <Gold.Chemscore.Internal.Correction.Weighted>
   9.000000E+99

> <Gold.Protein.RotatedTorsions>
[ 6907 6896 6895 6894 ] final   97.42 input  -60.11 | X-H torsion
[ 7974 7965 7964 7962 ] final   -3.26 input  175.53 | X-H torsion
[ 8008 7997 7996 7995 ] final   59.04 input   59.86 | X-H torsion
[ 10167 10162 10161 10158 ] final -105.68 input  -65.29 | X-H torsion
[ 10718 10713 10712 10709 ] final  -20.70 input   66.30 | X-H torsion
[ 10763 10752 10751 10750 ] final  -84.67 input  -60.55 | X-H torsion
[ 11005 11000 10999 10996 ] final   61.84 input  -57.11 | X-H torsion

> <Gold.Protein.ActiveResidues>
 VAL166  LYS551  ARG553  GLY616  TRP617  ASP618  TYR619  PRO620  LYS621  CYS622 
 ASP623  PHE694  ASN695  SER759  ASP760  ASP761  ALA762  ILE779  LEU786  VAL792 
 PHE793  MET794  SER795  GLU796  ALA797  LYS798  CYS799  TRP800  GLU811  SER814 

> <Gold.Protein.RotatedAtoms>
  152.5423  134.0736  159.8204 H   0  0  0  0  0  0  0  0  0  0  0  0  # atno 6907 bound_to 6896
  151.0847  133.5355  159.2626 H   0  0  0  0  0  0  0  0  0  0  0  0  # atno 6908 bound_to 6896
  151.2169  135.0512  159.8988 H   0  0  0  0  0  0  0  0  0  0  0  0  # atno 6909 bound_to 6896
  146.2392  140.1695  142.8332 H   0  0  0  0  0  0  0  0  0  0  0  0  # atno 7974 bound_to 7965
  155.5597  140.3488  155.4488 H   0  0  0  0  0  0  0  0  0  0  0  0  # atno 8008 bound_to 7997
  156.0523  140.1320  157.0062 H   0  0  0  0  0  0  0  0  0  0  0  0  # atno 8009 bound_to 7997
  154.4440  140.1002  156.6380 H   0  0  0  0  0  0  0  0  0  0  0  0  # atno 8010 bound_to 7997
  140.1960  143.3855  152.1168 H   0  0  0  0  0  0  0  0  0  0  0  0  # atno 10167 bound_to 10162
  156.5282  130.4649  149.6561 H   0  0  0  0  0  0  0  0  0  0  0  0  # atno 10718 bound_to 10713
  154.6022  135.5512  153.7386 H   0  0  0  0  0  0  0  0  0  0  0  0  # atno 10763 bound_to 10752
  153.0159  135.6369  154.1698 H   0  0  0  0  0  0  0  0  0  0  0  0  # atno 10764 bound_to 10752
  154.1638  135.2896  155.3081 H   0  0  0  0  0  0  0  0  0  0  0  0  # atno 10765 bound_to 10752
  140.0133  134.6263  155.9747 H   0  0  0  0  0  0  0  0  0  0  0  0  # atno 11005 bound_to 11000
  145.0023  140.8643  143.5274 LP  0  0  0  0  0  0  0  0  0  0  0  0  # atno 17320 bound_to 7965
  145.1716  139.2401  143.5339 LP  0  0  0  0  0  0  0  0  0  0  0  0  # atno 17321 bound_to 7965
  139.5236  144.7074  151.5312 LP  0  0  0  0  0  0  0  0  0  0  0  0  # atno 17342 bound_to 10162
  140.6423  143.8863  150.6704 LP  0  0  0  0  0  0  0  0  0  0  0  0  # atno 17343 bound_to 10162
  156.3084  130.7215  151.2103 LP  0  0  0  0  0  0  0  0  0  0  0  0  # atno 17370 bound_to 10713
  157.7426  131.0487  150.5012 LP  0  0  0  0  0  0  0  0  0  0  0  0  # atno 17371 bound_to 10713
  141.1726  133.6538  156.4707 LP  0  0  0  0  0  0  0  0  0  0  0  0  # atno 17394 bound_to 11000
  140.4515  134.6924  157.5042 LP  0  0  0  0  0  0  0  0  0  0  0  0  # atno 17395 bound_to 11000

$$$$
