#       Name:                AV-unprocessed.smi:72
#       Creating user name   scv26
#       Creation time:       Thu Mar 26 17:06:22 2020


#       File generated by GOLD software.
#

@<TRIPOS>MOLECULE
AV-unprocessed.smi:72
    41    42     1
SMALL
NO_CHARGES


@<TRIPOS>ATOM
      1 ****        -4.0683   2.5140  -2.0459 N.2            1 S1                 0.0000
      2 ****        -3.0905   2.0981  -1.3671 C.2            1 S1                 0.0000
      3 ****        -1.7925   1.9456  -1.9864 N.2            1 S1                 0.0000
      4 ****        -0.8258   1.4759  -1.2593 C.2            1 S1                 0.0000
      5 ****        -1.0262   1.0851   0.1324 N.am           1 S1                 0.0000
      6 ****         0.0980   0.5399   1.0021 C.3            1 S1                 0.0000
      7 ****         1.3034   0.5298   0.2952 O.3            1 S1                 0.0000
      8 ****         1.5078  -0.7525  -0.2852 C.3            1 S1                 0.0000
      9 ****         2.9937  -0.9428  -0.6242 C.3            1 S1                 0.0000
     10 ****         3.2866  -0.3484  -1.8708 O.3            1 S1                 0.0000
     11 ****         1.0059  -1.6841   0.8188 C.3            1 S1                 0.0000
     12 ****         0.5813  -2.9155   0.2698 O.3            1 S1                 0.0000
     13 ****        -0.1754  -0.9235   1.4164 C.3            1 S1                 0.0000
     14 ****        -0.1902  -1.0730   2.8214 O.3            1 S1                 0.0000
     15 ****        -2.2983   1.3058   0.7280 C.2            1 S1                 0.0000
     16 ****        -2.4337   1.0368   1.9221 O.2            1 S1                 0.0000
     17 ****        -3.3068   1.8049  -0.0393 N.pl3          1 S1                -1.0000
     18 ****         0.1692   1.2422   1.8347 H              1 S1                 0.0000
     19 ****         0.8844  -0.8654  -1.1745 H              1 S1                 0.0000
     20 ****         1.7882  -1.8441   1.5631 H              1 S1                 0.0000
     21 ****        -1.1224  -1.2636   0.9934 H              1 S1                 0.0000
     22 ****        -4.9183   2.5809  -1.5054 H              1 S1                 0.0000
     23 ****         0.1845   1.3506  -1.6483 H              1 S1                 0.0000
     24 ****         3.6349  -0.5300   0.1552 H              1 S1                 0.0000
     25 ****         3.2258  -2.0049  -0.7063 H              1 S1                 0.0000
     26 ****         4.2004  -0.4907  -2.0642 H              1 S1                 0.0000
     27 ****         0.1994  -3.4326   0.9625 H              1 S1                 0.0000
     28 ****        -0.9088  -0.5621   3.1636 H              1 S1                 0.0000
     29 ****        -4.0083   2.7520  -3.0153 LP             1 S1                 0.0000
     30 ****        -1.6448   2.1940  -2.9438 LP             1 S1                 0.0000
     31 ****         2.0567   0.7359   0.9196 LP             1 S1                 0.0000
     32 ****         1.2708   1.2204  -0.4273 LP             1 S1                 0.0000
     33 ****         3.0997   0.6331  -1.8286 LP             1 S1                 0.0000
     34 ****         2.7222  -0.7647  -2.5837 LP             1 S1                 0.0000
     35 ****         1.3641  -3.3994  -0.1214 LP             1 S1                 0.0000
     36 ****        -0.0994  -2.7509  -0.4441 LP             1 S1                 0.0000
     37 ****         0.6724  -0.7450   3.2063 LP             1 S1                 0.0000
     38 ****        -0.3161  -2.0363   3.0585 LP             1 S1                 0.0000
     39 ****        -1.6614   0.6743   2.4437 LP             1 S1                 0.0000
     40 ****        -3.3161   1.1808   2.3701 LP             1 S1                 0.0000
     41 ****        -4.2089   1.9592   0.3637 LP             1 S1                 0.0000
@<TRIPOS>BOND
    1    1    2 2     
    2    1   22 1     
    3    2   17 1     
    4    2    3 1     
    5    3    4 2     
    6    4    5 1     
    7    4   23 1     
    8    5    6 1     
    9    5   15 am    
   10    6   18 1     
   11    6   13 1     
   12    6    7 1     
   13    7    8 1     
   14    8   19 1     
   15    8    9 1     
   16    8   11 1     
   17    9   10 1     
   18    9   24 1     
   19    9   25 1     
   20   10   26 1     
   21   11   20 1     
   22   11   12 1     
   23   11   13 1     
   24   12   27 1     
   25   13   21 1     
   26   13   14 1     
   27   14   28 1     
   28   15   16 2     
   29   15   17 1     
   30    1   29 1     
   31    3   30 1     
   32    7   31 1     
   33    7   32 1     
   34   10   33 1     
   35   10   34 1     
   36   12   35 1     
   37   12   36 1     
   38   14   37 1     
   39   14   38 1     
   40   16   39 1     
   41   16   40 1     
   42   17   41 1     
@<TRIPOS>SUBSTRUCTURE
      1 S1             1
@<TRIPOS>SET
LONE_PAIRS      STATIC     ATOMS    <user>   **** ""
13 29 30 31 32 33 34 35 36 37 38 39 40 41
DONOR_HYDROGENS      STATIC     ATOMS    <user>   **** ""
4 22 26 27 28
ATOM$BLUE        STATIC     ATOMS    COLORGROUP SYSTEM
13 29 30 31 32 33 34 35 36 37 38 39 40 41
ATOM$RED        STATIC     ATOMS    COLORGROUP SYSTEM
4 22 26 27 28
