AV-unprocessed.smi:2456|AV-procd|sdf|9702|dock2
  -GOLD-   2272013343D 1   1.00000     0.00000
 Structure written by MMmdl.
 33 34  0  0  0  0  0  0  0  0  2 V2000
  151.3850  139.1999  156.4588 C   0  0  0  0  0  0  0  0  0  0  0  0
  151.1259  139.3651  157.9657 C   0  0  2  0  0  0  0  0  0  0  0  0
  149.8692  138.6850  158.2818 N   0  0  0  0  0  0  0  0  0  0  0  0
  149.7308  137.6192  159.0852 C   0  0  0  0  0  0  0  0  0  0  0  0
  150.7215  137.1297  159.6333 O   0  0  0  0  0  0  0  0  0  0  0  0
  148.4546  137.1866  159.2013 N   0  5  0  0  0  0  0  0  0  0  0  0
  148.0652  136.5288  160.3055 C   0  0  0  0  0  0  0  0  0  0  0  0
  147.7893  137.1444  161.4608 N   0  0  0  0  0  0  0  0  0  0  0  0
  147.3951  136.2705  162.4755 C   0  0  0  0  0  0  0  0  0  0  0  0
  147.3607  134.9594  162.0814 C   0  0  0  0  0  0  0  0  0  0  0  0
  147.8262  134.7822  160.4135 S   0  0  0  0  0  0  0  0  0  0  0  0
  151.0241  140.8767  158.2689 C   0  0  0  0  0  0  0  0  0  0  0  0
  150.1763  141.5534  157.6833 O   0  0  0  0  0  0  0  0  0  0  0  0
  151.8840  141.4278  159.1528 N   0  0  0  0  0  0  0  0  0  0  0  0
  151.8662  142.8455  159.5096 C   0  0  0  0  0  0  0  0  0  0  0  0
  152.8134  142.9878  160.7009 C   0  0  0  0  0  0  0  0  0  0  0  0
  153.7802  141.8226  160.5471 C   0  0  0  0  0  0  0  0  0  0  0  0
  152.9454  140.7303  159.8783 C   0  0  0  0  0  0  0  0  0  0  0  0
  152.3162  139.6829  156.1601 H   0  0  0  0  0  0  0  0  0  0  0  0
  150.5804  139.6284  155.8592 H   0  0  0  0  0  0  0  0  0  0  0  0
  151.4674  138.1456  156.1927 H   0  0  0  0  0  0  0  0  0  0  0  0
  151.9292  138.8877  158.5271 H   0  0  0  0  0  0  0  0  0  0  0  0
  149.0312  139.0591  157.8618 H   0  0  0  0  0  0  0  0  0  0  0  0
  147.1561  136.6694  163.4500 H   0  0  0  0  0  0  0  0  0  0  0  0
  147.0911  134.0925  162.6652 H   0  0  0  0  0  0  0  0  0  0  0  0
  152.2271  143.4286  158.6612 H   0  0  0  0  0  0  0  0  0  0  0  0
  150.8623  143.1941  159.7581 H   0  0  0  0  0  0  0  0  0  0  0  0
  153.3160  143.9550  160.7285 H   0  0  0  0  0  0  0  0  0  0  0  0
  152.2524  142.8757  161.6296 H   0  0  0  0  0  0  0  0  0  0  0  0
  154.5986  142.1133  159.8870 H   0  0  0  0  0  0  0  0  0  0  0  0
  154.2133  141.5032  161.4952 H   0  0  0  0  0  0  0  0  0  0  0  0
  152.4935  140.0826  160.6313 H   0  0  0  0  0  0  0  0  0  0  0  0
  153.5619  140.1151  159.2214 H   0  0  0  0  0  0  0  0  0  0  0  0
  1  2  1  0  0  0  0
  1 19  1  0  0  0  0
  1 20  1  0  0  0  0
  1 21  1  0  0  0  0
  2  3  1  0  0  0  0
  2 12  1  0  0  0  0
  2 22  1  0  0  0  0
  3  4  1  0  0  0  0
  3 23  1  0  0  0  0
  4  5  2  0  0  0  0
  4  6  1  0  0  0  0
  6  7  1  0  0  0  0
  7 11  1  0  0  0  0
  7  8  2  0  0  0  0
  8  9  1  0  0  0  0
  9 10  2  0  0  0  0
  9 24  1  0  0  0  0
 10 11  1  0  0  0  0
 10 25  1  0  0  0  0
 12 13  2  0  0  0  0
 12 14  1  0  0  0  0
 14 18  1  0  0  0  0
 14 15  1  0  0  0  0
 15 16  1  0  0  0  0
 15 26  1  0  0  0  0
 15 27  1  0  0  0  0
 16 17  1  0  0  0  0
 16 28  1  0  0  0  0
 16 29  1  0  0  0  0
 17 18  1  0  0  0  0
 17 30  1  0  0  0  0
 17 31  1  0  0  0  0
 18 32  1  0  0  0  0
 18 33  1  0  0  0  0
M  CHG  1   6  -1
M  END
> <s_m_source_file>
AV-unprocessed.smi

> <i_m_source_file_index>
2456

> <i_lp_mmshare_version>
43012

> <i_f3d_flags>
0

> <s_epik_input>
W0NIMl0xW0NIMl1bQ0gyXVtDSDJdTjFDKD1PKVtDQEhdKFtDSDNdKVtOSF1DKD1PKVtOSF1jMm5bY0hdW2NIXXMy

> <s_epik_cmdline>
J2VwaWtfcHl0aG9uJywgJy1waCcsICc3LjAnLCAnLXRuJywgJzgnLCAnLW1hJywgJzIwMCcsICctbWV0YWxfYmluZGluZycsICctaW1hZScsICc8aW5maWxlLm1hZT4nLCAnLW9tYWUnLCAnPG91dGZpbGUubWFlPic=

> <r_lp_tautomer_probability>
1

> <r_epik_Ionization_Penalty>
5.99337

> <r_epik_Ionization_Penalty_Charging>
5.23786

> <r_epik_Ionization_Penalty_Neutral>
0.755512

> <r_epik_State_Penalty>
5.23778

> <r_epik_Charging_Adjusted_Penalty>
10.4756

> <i_epik_Tot_Q>
-1

> <i_epik_Tot_abs_Q>
1

> <r_epik_Metal_State_Penalty>
1.29566

> <b_epik_Metal_Only>
1

> <s_lp_Force_Field>
OPLS_2005

> <r_lp_Energy>
24.4134

> <b_lp_Chiralities_Consistent>
1

> <s_lp_Variant>
AV-unprocessed.smi:2456-3

> <Gold.Version>
5.8.1

> <Gold.Id.Protein>
6NUR|6NUR_protein|mol2

> <Gold.PLP.Fitness>
43.4076

> <Gold.PLP.PLP>
-36.9021

> <Gold.PLP.part.hbond>
-3.0000

> <Gold.PLP.part.metal>
0.0000

> <Gold.PLP.part.buried>
-4.8313

> <Gold.PLP.part.nonpolar>
-29.2798

> <Gold.PLP.part.repulsive>
0.1795

> <Gold.PLP.ligand.clash>
0.0000

> <Gold.PLP.ligand.torsion>
0.8915

> <Gold.PLP.Chemscore.Hbond>
2.7520

> <Gold.PLP.Chemscore.CHOScore>
0.0000

> <Gold.PLP.Chemscore.Metal>
0.0000

> <Gold.Chemscore.Hbonds>
donor molecule, donor type, donor heavy atom, donor atom, acceptor molecule, acceptor atom, score
      P1  H  6896  6908       L1     5  0.88
      P1  H  6931  6943       L1     8  1.00
      P1  H  6934  6947       L1     8  0.75

> <Gold.PLP.Chemscore.Internal.Correction>
0.0325

> <Gold.Rescore>
     Score         DG    S(hbond)    S(metal)    S(lipo)     H(rot)  DE(clash)    DE(int)     intcor
     18.11     -18.95       2.49        0.00      73.08       1.33       0.03       0.81       ----

> <Gold.Chemscore.Fitness>
18.1132

> <Gold.Chemscore.DG>
-18.9523

> <Gold.Chemscore.ZeroCoef>
-5.4800

> <Gold.Chemscore.Hbond>
2.4921

> <Gold.Chemscore.Metal>
0.0000

> <Gold.Chemscore.Lipo>
73.0803

> <Gold.Chemscore.Internal_Hbond>
0.0000

> <Gold.Chemscore.DEClash>
0.0339

> <Gold.Chemscore.DEInternal>
0.8052

> <Gold.Chemscore.Rot>
1.3288

> <Gold.Chemscore.Internal.Correction>
   9.000000E+99

> <Gold.Chemscore.Hbonds>
donor molecule, donor type, donor heavy atom, donor atom, acceptor molecule, acceptor atom, score
      P1  H  6896  6908       L1     5  0.84
      P1  H  6931  6943       L1     8  0.72
      P1  H  6934  6947       L1     8  0.39

> <Gold.Chemscore.Hbond.Weighted>
-8.3235

> <Gold.Chemscore.Metal.Weighted>
-0.0000

> <Gold.Chemscore.Lipo.Weighted>
-8.5504

> <Gold.Chemscore.Internal_Hbond.Weighted>
0.0000

> <Gold.Chemscore.DEClash.Weighted>
0.0339

> <Gold.Chemscore.DEInternal.Weighted>
0.8052

> <Gold.Chemscore.Rot.Weighted>
3.4017

> <Gold.Chemscore.Internal.Correction.Weighted>
   9.000000E+99

> <Gold.Protein.RotatedTorsions>
[ 6907 6896 6895 6894 ] final -140.48 input  -60.11 | X-H torsion
[ 7974 7965 7964 7962 ] final   27.83 input  175.53 | X-H torsion
[ 8008 7997 7996 7995 ] final  -68.28 input   59.86 | X-H torsion
[ 10167 10162 10161 10158 ] final -101.71 input  -65.29 | X-H torsion
[ 10718 10713 10712 10709 ] final  -50.96 input   66.30 | X-H torsion
[ 10763 10752 10751 10750 ] final   89.06 input  -60.55 | X-H torsion
[ 11005 11000 10999 10996 ] final  158.57 input  -57.11 | X-H torsion

> <Gold.Protein.ActiveResidues>
 VAL166  LYS551  ARG553  GLY616  TRP617  ASP618  TYR619  PRO620  LYS621  CYS622 
 ASP623  PHE694  ASN695  SER759  ASP760  ASP761  ALA762  ILE779  LEU786  VAL792 
 PHE793  MET794  SER795  GLU796  ALA797  LYS798  CYS799  TRP800  GLU811  SER814 

> <Gold.Protein.RotatedAtoms>
  151.0612  133.5542  159.2633 H   0  0  0  0  0  0  0  0  0  0  0  0  # atno 6907 bound_to 6896
  151.2517  135.0623  159.9074 H   0  0  0  0  0  0  0  0  0  0  0  0  # atno 6908 bound_to 6896
  152.5398  134.0372  159.8105 H   0  0  0  0  0  0  0  0  0  0  0  0  # atno 6909 bound_to 6896
  146.1763  139.7138  142.8932 H   0  0  0  0  0  0  0  0  0  0  0  0  # atno 7974 bound_to 7965
  154.4857  140.0876  156.7481 H   0  0  0  0  0  0  0  0  0  0  0  0  # atno 8008 bound_to 7997
  155.4357  140.3451  155.4266 H   0  0  0  0  0  0  0  0  0  0  0  0  # atno 8009 bound_to 7997
  156.1257  140.1487  156.9127 H   0  0  0  0  0  0  0  0  0  0  0  0  # atno 8010 bound_to 7997
  140.2384  143.3556  152.0824 H   0  0  0  0  0  0  0  0  0  0  0  0  # atno 10167 bound_to 10162
  156.1753  130.4150  149.9587 H   0  0  0  0  0  0  0  0  0  0  0  0  # atno 10718 bound_to 10713
  153.1832  135.4484  155.0055 H   0  0  0  0  0  0  0  0  0  0  0  0  # atno 10763 bound_to 10752
  154.8043  135.3268  154.7473 H   0  0  0  0  0  0  0  0  0  0  0  0  # atno 10764 bound_to 10752
  153.7934  135.6968  153.4922 H   0  0  0  0  0  0  0  0  0  0  0  0  # atno 10765 bound_to 10752
  140.1878  134.8429  157.2877 H   0  0  0  0  0  0  0  0  0  0  0  0  # atno 11005 bound_to 11000
  145.4203  141.0406  143.2967 LP  0  0  0  0  0  0  0  0  0  0  0  0  # atno 17320 bound_to 7965
  144.8241  139.5740  143.6973 LP  0  0  0  0  0  0  0  0  0  0  0  0  # atno 17321 bound_to 7965
  139.5086  144.6852  151.5906 LP  0  0  0  0  0  0  0  0  0  0  0  0  # atno 17342 bound_to 10162
  140.6132  143.9397  150.6469 LP  0  0  0  0  0  0  0  0  0  0  0  0  # atno 17343 bound_to 10162
  156.7374  130.9066  151.3630 LP  0  0  0  0  0  0  0  0  0  0  0  0  # atno 17370 bound_to 10713
  157.6831  130.9159  150.0317 LP  0  0  0  0  0  0  0  0  0  0  0  0  # atno 17371 bound_to 10713
  140.2194  134.4042  155.7573 LP  0  0  0  0  0  0  0  0  0  0  0  0  # atno 17394 bound_to 11000
  141.2225  133.7158  156.8465 LP  0  0  0  0  0  0  0  0  0  0  0  0  # atno 17395 bound_to 11000

$$$$
