AV-unprocessed.smi:1799|AV-procd|sdf|7262|dock1
  -GOLD-   22720 8513D 1   1.00000     0.00000
 Structure written by MMmdl.
 40 41  0  0  0  0  0  0  0  0  3 V2000
  146.5204  142.4780  156.2869 C   0  0  0  0  0  0  0  0  0  0  0  0
  146.3964  142.0448  154.8092 C   0  0  0  0  0  0  0  0  0  0  0  0
  145.6084  143.1576  154.0913 C   0  0  0  0  0  0  0  0  0  0  0  0
  147.7764  141.9135  154.1123 C   0  0  0  0  0  0  0  0  0  0  0  0
  148.5341  140.6084  154.4026 C   0  0  0  0  0  0  0  0  0  0  0  0
  149.1399  140.6169  155.7319 N   0  0  0  0  0  0  0  0  0  0  0  0
  150.4422  140.4818  156.0182 C   0  0  0  0  0  0  0  0  0  0  0  0
  151.2667  140.3732  155.1080 O   0  0  0  0  0  0  0  0  0  0  0  0
  150.7031  140.4666  157.3445 N   0  5  0  0  0  0  0  0  0  0  0  0
  150.9740  141.6144  157.9874 C   0  0  0  0  0  0  0  0  0  0  0  0
  151.0171  141.6972  159.3268 N   0  0  0  0  0  0  0  0  0  0  0  0
  151.3169  142.9730  159.7852 N   0  0  0  0  0  0  0  0  0  0  0  0
  151.5012  143.8218  158.7742 C   0  0  0  0  0  0  0  0  0  0  0  0
  151.3280  143.1396  157.1710 S   0  0  0  0  0  0  0  0  0  0  0  0
  147.6105  139.4003  154.1535 C   0  0  0  0  0  0  0  0  0  0  0  0
  146.2375  139.4670  154.8671 C   0  0  0  0  0  0  0  0  0  0  0  0
  145.3128  138.4238  154.2102 C   0  0  0  0  0  0  0  0  0  0  0  0
  146.3284  139.0917  156.3631 C   0  0  0  0  0  0  0  0  0  0  0  0
  145.5930  140.7964  154.6720 N   0  3  0  0  0  0  0  0  0  0  0  0
  146.9688  143.4693  156.3635 H   0  0  0  0  0  0  0  0  0  0  0  0
  147.1412  141.8210  156.8871 H   0  0  0  0  0  0  0  0  0  0  0  0
  145.5428  142.5291  156.7676 H   0  0  0  0  0  0  0  0  0  0  0  0
  146.1401  144.1094  154.1257 H   0  0  0  0  0  0  0  0  0  0  0  0
  144.6301  143.3129  154.5482 H   0  0  0  0  0  0  0  0  0  0  0  0
  145.4404  142.9164  153.0407 H   0  0  0  0  0  0  0  0  0  0  0  0
  147.6252  141.9562  153.0325 H   0  0  0  0  0  0  0  0  0  0  0  0
  148.4049  142.7742  154.3477 H   0  0  0  0  0  0  0  0  0  0  0  0
  149.3604  140.5518  153.6918 H   0  0  0  0  0  0  0  0  0  0  0  0
  148.5113  140.7152  156.5158 H   0  0  0  0  0  0  0  0  0  0  0  0
  151.7437  144.8547  158.9734 H   0  0  0  0  0  0  0  0  0  0  0  0
  147.4393  139.3532  153.0769 H   0  0  0  0  0  0  0  0  0  0  0  0
  148.1175  138.4666  154.3992 H   0  0  0  0  0  0  0  0  0  0  0  0
  145.7297  137.4186  154.2868 H   0  0  0  0  0  0  0  0  0  0  0  0
  145.1593  138.6329  153.1508 H   0  0  0  0  0  0  0  0  0  0  0  0
  144.3298  138.4064  154.6830 H   0  0  0  0  0  0  0  0  0  0  0  0
  146.6766  138.0652  156.4840 H   0  0  0  0  0  0  0  0  0  0  0  0
  145.3545  139.1615  156.8486 H   0  0  0  0  0  0  0  0  0  0  0  0
  147.0153  139.7095  156.9314 H   0  0  0  0  0  0  0  0  0  0  0  0
  144.7833  140.8592  155.2723 H   0  0  0  0  0  0  0  0  0  0  0  0
  145.2664  140.7942  153.7165 H   0  0  0  0  0  0  0  0  0  0  0  0
  1  2  1  0  0  0  0
  1 20  1  0  0  0  0
  1 21  1  0  0  0  0
  1 22  1  0  0  0  0
  2 19  1  0  0  0  0
  2  3  1  0  0  0  0
  2  4  1  0  0  0  0
  3 23  1  0  0  0  0
  3 24  1  0  0  0  0
  3 25  1  0  0  0  0
  4  5  1  0  0  0  0
  4 26  1  0  0  0  0
  4 27  1  0  0  0  0
  5  6  1  0  0  0  0
  5 15  1  0  0  0  0
  5 28  1  0  0  0  0
  6  7  1  0  0  0  0
  6 29  1  0  0  0  0
  7  8  2  0  0  0  0
  7  9  1  0  0  0  0
  9 10  1  0  0  0  0
 10 14  1  0  0  0  0
 10 11  2  0  0  0  0
 11 12  1  0  0  0  0
 12 13  2  0  0  0  0
 13 14  1  0  0  0  0
 13 30  1  0  0  0  0
 15 16  1  0  0  0  0
 15 31  1  0  0  0  0
 15 32  1  0  0  0  0
 16 17  1  0  0  0  0
 16 18  1  0  0  0  0
 16 19  1  0  0  0  0
 17 33  1  0  0  0  0
 17 34  1  0  0  0  0
 17 35  1  0  0  0  0
 18 36  1  0  0  0  0
 18 37  1  0  0  0  0
 18 38  1  0  0  0  0
 19 39  1  0  0  0  0
 19 40  1  0  0  0  0
M  CHG  1   9  -1
M  CHG  1  19   1
M  END
> <s_m_source_file>
AV-unprocessed.smi

> <i_m_source_file_index>
1799

> <i_lp_mmshare_version>
43012

> <i_f3d_flags>
0

> <s_epik_input>
W0NIM11DMShbQ0gzXSlbQ0gyXVtDSF0oW0NIMl1DKFtDSDNdKShbQ0gzXSlbTkhdMSlbTkhdQyg9TylbTkhdYzJubltjSF1zMg==

> <s_epik_cmdline>
J2VwaWtfcHl0aG9uJywgJy1waCcsICc3LjAnLCAnLXRuJywgJzgnLCAnLW1hJywgJzIwMCcsICctbWV0YWxfYmluZGluZycsICctaW1hZScsICc8aW5maWxlLm1hZT4nLCAnLW9tYWUnLCAnPG91dGZpbGUubWFlPic=

> <r_lp_tautomer_probability>
1

> <r_epik_Ionization_Penalty>
4.14205

> <r_epik_Ionization_Penalty_Charging>
4.10837

> <r_epik_Ionization_Penalty_Neutral>
0.0336815

> <r_epik_State_Penalty>
4.10769

> <r_epik_Charging_Adjusted_Penalty>
8.21606

> <i_epik_Tot_Q>
0

> <i_epik_Tot_abs_Q>
2

> <r_epik_Metal_State_Penalty>
0.655549

> <b_epik_Metal_Only>
1

> <s_lp_Force_Field>
OPLS_2005

> <r_lp_Energy>
17.9013

> <b_lp_Chiralities_Consistent>
1

> <s_lp_Variant>
AV-unprocessed.smi:1799-2

> <Gold.Version>
5.8.1

> <Gold.Id.Protein>
6NUR|6NUR_protein|mol2

> <Gold.PLP.Fitness>
35.7800

> <Gold.PLP.PLP>
-28.7857

> <Gold.PLP.part.hbond>
-3.2174

> <Gold.PLP.part.metal>
0.0000

> <Gold.PLP.part.buried>
-4.4238

> <Gold.PLP.part.nonpolar>
-21.9890

> <Gold.PLP.part.repulsive>
0.1144

> <Gold.PLP.ligand.clash>
0.0000

> <Gold.PLP.ligand.torsion>
0.8012

> <Gold.PLP.Chemscore.Hbond>
2.8560

> <Gold.PLP.Chemscore.CHOScore>
0.0000

> <Gold.PLP.Chemscore.Metal>
0.0000

> <Gold.Chemscore.Hbonds>
donor molecule, donor type, donor heavy atom, donor atom, acceptor molecule, acceptor atom, score
      L1  H    19    40       P1 10175  1.82
      P1  H  7989  7998       L1     8  1.00

> <Gold.PLP.Chemscore.Internal.Correction>
0.0286

> <Gold.Rescore>
     Score         DG    S(hbond)    S(metal)    S(lipo)     H(rot)  DE(clash)    DE(int)     intcor
     15.09     -15.88       1.85        0.00      57.97       1.00       0.00       0.79       ----

> <Gold.Chemscore.Fitness>
15.0892

> <Gold.Chemscore.DG>
-15.8826

> <Gold.Chemscore.ZeroCoef>
-5.4800

> <Gold.Chemscore.Hbond>
1.8503

> <Gold.Chemscore.Metal>
0.0000

> <Gold.Chemscore.Lipo>
57.9720

> <Gold.Chemscore.Internal_Hbond>
0.0000

> <Gold.Chemscore.DEClash>
0.0000

> <Gold.Chemscore.DEInternal>
0.7934

> <Gold.Chemscore.Rot>
1.0000

> <Gold.Chemscore.Internal.Correction>
   9.000000E+99

> <Gold.Chemscore.Hbonds>
donor molecule, donor type, donor heavy atom, donor atom, acceptor molecule, acceptor atom, score
      L1  H    19    40       P1 10175  0.78
      P1  H  7989  7998       L1     8  0.95

> <Gold.Chemscore.Hbond.Weighted>
-6.1799

> <Gold.Chemscore.Metal.Weighted>
-0.0000

> <Gold.Chemscore.Lipo.Weighted>
-6.7827

> <Gold.Chemscore.Internal_Hbond.Weighted>
0.0000

> <Gold.Chemscore.DEClash.Weighted>
0.0000

> <Gold.Chemscore.DEInternal.Weighted>
0.7934

> <Gold.Chemscore.Rot.Weighted>
2.5600

> <Gold.Chemscore.Internal.Correction.Weighted>
   9.000000E+99

> <Gold.Protein.RotatedTorsions>
[ 6907 6896 6895 6894 ] final   29.87 input  -60.11 | X-H torsion
[ 7974 7965 7964 7962 ] final   -5.60 input  175.53 | X-H torsion
[ 8008 7997 7996 7995 ] final  106.49 input   59.86 | X-H torsion
[ 10167 10162 10161 10158 ] final -174.80 input  -65.29 | X-H torsion
[ 10718 10713 10712 10709 ] final  178.75 input   66.30 | X-H torsion
[ 10763 10752 10751 10750 ] final   87.66 input  -60.55 | X-H torsion
[ 11005 11000 10999 10996 ] final   68.67 input  -57.11 | X-H torsion

> <Gold.Protein.ActiveResidues>
 VAL166  LYS551  ARG553  GLY616  TRP617  ASP618  TYR619  PRO620  LYS621  CYS622 
 ASP623  PHE694  ASN695  SER759  ASP760  ASP761  ALA762  ILE779  LEU786  VAL792 
 PHE793  MET794  SER795  GLU796  ALA797  LYS798  CYS799  TRP800  GLU811  SER814 

> <Gold.Protein.RotatedAtoms>
  152.0378  134.9729  160.0573 H   0  0  0  0  0  0  0  0  0  0  0  0  # atno 6907 bound_to 6896
  152.1180  133.4333  159.4670 H   0  0  0  0  0  0  0  0  0  0  0  0  # atno 6908 bound_to 6896
  150.6847  134.2487  159.4545 H   0  0  0  0  0  0  0  0  0  0  0  0  # atno 6909 bound_to 6896
  146.2349  140.2046  142.8334 H   0  0  0  0  0  0  0  0  0  0  0  0  # atno 7974 bound_to 7965
  156.1747  140.3112  155.9037 H   0  0  0  0  0  0  0  0  0  0  0  0  # atno 8008 bound_to 7997
  155.3513  140.0471  157.3063 H   0  0  0  0  0  0  0  0  0  0  0  0  # atno 8009 bound_to 7997
  154.5278  140.2220  155.8870 H   0  0  0  0  0  0  0  0  0  0  0  0  # atno 8010 bound_to 7997
  139.5614  144.1860  152.1245 H   0  0  0  0  0  0  0  0  0  0  0  0  # atno 10167 bound_to 10162
  156.8859  130.9831  151.3056 H   0  0  0  0  0  0  0  0  0  0  0  0  # atno 10718 bound_to 10713
  153.1690  135.4535  154.9877 H   0  0  0  0  0  0  0  0  0  0  0  0  # atno 10763 bound_to 10752
  154.7952  135.3235  154.7685 H   0  0  0  0  0  0  0  0  0  0  0  0  # atno 10764 bound_to 10752
  153.8164  135.6950  153.4888 H   0  0  0  0  0  0  0  0  0  0  0  0  # atno 10765 bound_to 10752
  139.9698  134.6920  156.0471 H   0  0  0  0  0  0  0  0  0  0  0  0  # atno 11005 bound_to 11000
  144.9755  140.8410  143.5429 LP  0  0  0  0  0  0  0  0  0  0  0  0  # atno 17320 bound_to 7965
  145.2032  139.2241  143.5182 LP  0  0  0  0  0  0  0  0  0  0  0  0  # atno 17321 bound_to 7965
  140.1374  144.5233  150.6765 LP  0  0  0  0  0  0  0  0  0  0  0  0  # atno 17342 bound_to 10162
  140.6894  143.2368  151.5171 LP  0  0  0  0  0  0  0  0  0  0  0  0  # atno 17343 bound_to 10162
  157.6113  130.8585  149.8956 LP  0  0  0  0  0  0  0  0  0  0  0  0  # atno 17370 bound_to 10713
  156.0653  130.3693  150.0891 LP  0  0  0  0  0  0  0  0  0  0  0  0  # atno 17371 bound_to 10713
  141.1377  133.6571  156.3641 LP  0  0  0  0  0  0  0  0  0  0  0  0  # atno 17394 bound_to 11000
  140.5319  134.6205  157.5352 LP  0  0  0  0  0  0  0  0  0  0  0  0  # atno 17395 bound_to 11000

$$$$
