AV-unprocessed.smi:447|AV-procd|sdf|2604|dock7
  -GOLD-   2262023 03D 1   1.00000     0.00000
 Structure written by MMmdl.
 46 48  0  0  0  0  0  0  0  0  2 V2000
  147.2418  133.4678  151.8997 C   0  0  0  0  0  0  0  0  0  0  0  0
  146.8951  133.8465  153.3350 C   0  0  0  0  0  0  0  0  0  0  0  0
  146.0112  133.2395  153.9361 O   0  0  0  0  0  0  0  0  0  0  0  0
  147.5941  134.8620  153.8653 N   0  0  0  0  0  0  0  0  0  0  0  0
  147.4889  135.3664  155.2352 C   0  0  1  0  0  0  0  0  0  0  0  0
  147.8236  134.2203  156.2015 C   0  0  0  0  0  0  0  0  0  0  0  0
  148.3642  136.5593  155.5145 C   0  0  0  0  0  0  0  0  0  0  0  0
  149.2117  137.1539  154.6251 N   0  3  0  0  0  0  0  0  0  0  0  0
  149.8917  138.2029  155.2393 C   0  0  0  0  0  0  0  0  0  0  0  0
  150.8407  139.0878  154.7372 C   0  0  0  0  0  0  0  0  0  0  0  0
  151.3559  140.0415  155.6388 C   0  0  0  0  0  0  0  0  0  0  0  0
  150.9289  140.0860  156.9814 C   0  0  0  0  0  0  0  0  0  0  0  0
  149.9662  139.1824  157.4770 C   0  0  0  0  0  0  0  0  0  0  0  0
  149.4526  138.2475  156.5773 C   0  0  0  0  0  0  0  0  0  0  0  0
  148.5011  137.2247  156.7026 N   0  0  0  0  0  0  0  0  0  0  0  0
  147.8646  136.9947  158.0163 C   0  0  0  0  0  0  0  0  0  0  0  0
  148.6031  135.9977  158.9405 C   0  0  1  0  0  0  0  0  0  0  0  0
  149.9229  136.4317  159.2047 O   0  0  0  0  0  0  0  0  0  0  0  0
  147.8181  135.6607  160.2018 C   0  0  0  0  0  0  0  0  0  0  0  0
  148.2029  136.1600  161.4668 C   0  0  0  0  0  0  0  0  0  0  0  0
  147.4671  135.8188  162.6183 C   0  0  0  0  0  0  0  0  0  0  0  0
  146.3346  134.9899  162.5133 C   0  0  0  0  0  0  0  0  0  0  0  0
  145.9418  134.4946  161.2559 C   0  0  0  0  0  0  0  0  0  0  0  0
  146.6831  134.8264  160.1055 C   0  0  0  0  0  0  0  0  0  0  0  0
  147.0476  134.3043  151.2279 H   0  0  0  0  0  0  0  0  0  0  0  0
  146.6456  132.6173  151.5677 H   0  0  0  0  0  0  0  0  0  0  0  0
  148.2951  133.1969  151.8210 H   0  0  0  0  0  0  0  0  0  0  0  0
  148.2941  135.2971  153.2818 H   0  0  0  0  0  0  0  0  0  0  0  0
  146.4518  135.6579  155.3955 H   0  0  0  0  0  0  0  0  0  0  0  0
  147.7020  134.5201  157.2418 H   0  0  0  0  0  0  0  0  0  0  0  0
  148.8538  133.8846  156.0752 H   0  0  0  0  0  0  0  0  0  0  0  0
  147.1719  133.3623  156.0331 H   0  0  0  0  0  0  0  0  0  0  0  0
  151.1725  139.0511  153.7100 H   0  0  0  0  0  0  0  0  0  0  0  0
  152.0947  140.7510  155.2949 H   0  0  0  0  0  0  0  0  0  0  0  0
  151.3467  140.8287  157.6455 H   0  0  0  0  0  0  0  0  0  0  0  0
  149.6452  139.2298  158.5069 H   0  0  0  0  0  0  0  0  0  0  0  0
  147.7671  137.9568  158.5176 H   0  0  0  0  0  0  0  0  0  0  0  0
  146.8431  136.6562  157.8408 H   0  0  0  0  0  0  0  0  0  0  0  0
  148.7117  135.0634  158.3882 H   0  0  0  0  0  0  0  0  0  0  0  0
  150.2872  136.7806  158.4054 H   0  0  0  0  0  0  0  0  0  0  0  0
  149.0604  136.8091  161.5656 H   0  0  0  0  0  0  0  0  0  0  0  0
  147.7659  136.2036  163.5823 H   0  0  0  0  0  0  0  0  0  0  0  0
  145.7678  134.7350  163.3967 H   0  0  0  0  0  0  0  0  0  0  0  0
  145.0736  133.8576  161.1738 H   0  0  0  0  0  0  0  0  0  0  0  0
  146.3756  134.4393  159.1451 H   0  0  0  0  0  0  0  0  0  0  0  0
  149.3100  136.8591  153.6624 H   0  0  0  0  0  0  0  0  0  0  0  0
  1  2  1  0  0  0  0
  1 25  1  0  0  0  0
  1 26  1  0  0  0  0
  1 27  1  0  0  0  0
  2  3  2  0  0  0  0
  2  4  1  0  0  0  0
  4  5  1  0  0  0  0
  4 28  1  0  0  0  0
  5  6  1  0  0  0  0
  5  7  1  0  0  0  0
  5 29  1  0  0  0  0
  6 30  1  0  0  0  0
  6 31  1  0  0  0  0
  6 32  1  0  0  0  0
  7 15  1  0  0  0  0
  7  8  2  0  0  0  0
  8  9  1  0  0  0  0
  8 46  1  0  0  0  0
  9 14  2  0  0  0  0
  9 10  1  0  0  0  0
 10 11  2  0  0  0  0
 10 33  1  0  0  0  0
 11 12  1  0  0  0  0
 11 34  1  0  0  0  0
 12 13  2  0  0  0  0
 12 35  1  0  0  0  0
 13 14  1  0  0  0  0
 13 36  1  0  0  0  0
 14 15  1  0  0  0  0
 15 16  1  0  0  0  0
 16 17  1  0  0  0  0
 16 37  1  0  0  0  0
 16 38  1  0  0  0  0
 17 18  1  0  0  0  0
 17 19  1  0  0  0  0
 17 39  1  0  0  0  0
 18 40  1  0  0  0  0
 19 24  1  0  0  0  0
 19 20  2  0  0  0  0
 20 21  1  0  0  0  0
 20 41  1  0  0  0  0
 21 22  2  0  0  0  0
 21 42  1  0  0  0  0
 22 23  1  0  0  0  0
 22 43  1  0  0  0  0
 23 24  2  0  0  0  0
 23 44  1  0  0  0  0
 24 45  1  0  0  0  0
M  CHG  1   8   1
M  END
> <s_m_source_file>
AV-unprocessed.smi

> <i_m_source_file_index>
447

> <i_lp_mmshare_version>
43012

> <i_f3d_flags>
0

> <s_epik_input>
W0NIM11DKD1PKVtOSF1bQ0BIXShbQ0gzXSljKG4xKW4oYyhjMTIpW2NIXVtjSF1bY0hdW2NIXTIpW0NIMl1bQ0BIXShbT0hdKWMzW2NIXVtjSF1bY0hdW2NIXVtjSF0z

> <s_epik_cmdline>
J2VwaWtfcHl0aG9uJywgJy1waCcsICc3LjAnLCAnLXRuJywgJzgnLCAnLW1hJywgJzIwMCcsICctbWV0YWxfYmluZGluZycsICctaW1hZScsICc8aW5maWxlLm1hZT4nLCAnLW9tYWUnLCAnPG91dGZpbGUubWFlPic=

> <r_epik_Ionization_Penalty>
0.950381

> <r_epik_Ionization_Penalty_Charging>
0.950379

> <r_epik_Ionization_Penalty_Neutral>
1.42115e-06

> <r_epik_State_Penalty>
0.994584

> <r_epik_Charging_Adjusted_Penalty>
1.94496

> <i_epik_Tot_Q>
1

> <i_epik_Tot_abs_Q>
1

> <r_epik_Metal_State_Penalty>
1.10485

> <b_epik_Metal_Only>
0

> <s_lp_Force_Field>
OPLS_2005

> <r_lp_Energy>
11.8

> <b_lp_Chiralities_Consistent>
1

> <s_lp_Variant>
AV-unprocessed.smi:447-8

> <Gold.Version>
5.8.1

> <Gold.Id.Protein>
6NUR|6NUR_protein|mol2

> <Gold.PLP.Fitness>
43.8289

> <Gold.PLP.PLP>
-33.3485

> <Gold.PLP.part.hbond>
-3.0000

> <Gold.PLP.part.metal>
0.0000

> <Gold.PLP.part.buried>
-2.2629

> <Gold.PLP.part.nonpolar>
-27.2377

> <Gold.PLP.part.repulsive>
0.0874

> <Gold.PLP.ligand.clash>
0.0000

> <Gold.PLP.ligand.torsion>
0.8296

> <Gold.PLP.Chemscore.Hbond>
4.0000

> <Gold.PLP.Chemscore.CHOScore>
0.0000

> <Gold.PLP.Chemscore.Metal>
0.0000

> <Gold.Chemscore.Hbonds>
donor molecule, donor type, donor heavy atom, donor atom, acceptor molecule, acceptor atom, score
      L1  H     4    28       P1  7948  1.00
      L1  H     8    46       P1  7948  2.00
      P1  H  6896  6909       L1    18  1.00

> <Gold.PLP.Chemscore.Internal.Correction>
0.1395

> <Gold.Rescore>
     Score         DG    S(hbond)    S(metal)    S(lipo)     H(rot)  DE(clash)    DE(int)     intcor
     16.73     -18.72       2.92        0.00      82.64       2.41       0.02       1.98       ----

> <Gold.Chemscore.Fitness>
16.7310

> <Gold.Chemscore.DG>
-18.7226

> <Gold.Chemscore.ZeroCoef>
-5.4800

> <Gold.Chemscore.Hbond>
2.9182

> <Gold.Chemscore.Metal>
0.0000

> <Gold.Chemscore.Lipo>
82.6374

> <Gold.Chemscore.Internal_Hbond>
0.0000

> <Gold.Chemscore.DEClash>
0.0154

> <Gold.Chemscore.DEInternal>
1.9763

> <Gold.Chemscore.Rot>
2.4112

> <Gold.Chemscore.Internal.Correction>
   9.000000E+99

> <Gold.Chemscore.Hbonds>
donor molecule, donor type, donor heavy atom, donor atom, acceptor molecule, acceptor atom, score
      L1  H     4    28       P1  7948  0.98
      L1  H     8    46       P1  7948  0.96
      P1  H  6896  6909       L1    18  0.49

> <Gold.Chemscore.Hbond.Weighted>
-9.7467

> <Gold.Chemscore.Metal.Weighted>
-0.0000

> <Gold.Chemscore.Lipo.Weighted>
-9.6686

> <Gold.Chemscore.Internal_Hbond.Weighted>
0.0000

> <Gold.Chemscore.DEClash.Weighted>
0.0154

> <Gold.Chemscore.DEInternal.Weighted>
1.9763

> <Gold.Chemscore.Rot.Weighted>
6.1727

> <Gold.Chemscore.Internal.Correction.Weighted>
   9.000000E+99

> <Gold.Protein.RotatedTorsions>
[ 6907 6896 6895 6894 ] final   78.05 input  -60.11 | X-H torsion
[ 7974 7965 7964 7962 ] final   65.08 input  175.53 | X-H torsion
[ 8008 7997 7996 7995 ] final   62.66 input   59.86 | X-H torsion
[ 10167 10162 10161 10158 ] final -171.14 input  -65.29 | X-H torsion
[ 10718 10713 10712 10709 ] final  -63.50 input   66.30 | X-H torsion
[ 10763 10752 10751 10750 ] final   66.16 input  -60.55 | X-H torsion
[ 11005 11000 10999 10996 ] final   67.92 input  -57.11 | X-H torsion

> <Gold.Protein.ActiveResidues>
 VAL166  LYS551  ARG553  GLY616  TRP617  ASP618  TYR619  PRO620  LYS621  CYS622 
 ASP623  PHE694  ASN695  SER759  ASP760  ASP761  ALA762  ILE779  LEU786  VAL792 
 PHE793  MET794  SER795  GLU796  ALA797  LYS798  CYS799  TRP800  GLU811  SER814 

> <Gold.Protein.RotatedAtoms>
  152.5143  134.3723  159.9322 H   0  0  0  0  0  0  0  0  0  0  0  0  # atno 6907 bound_to 6896
  151.3678  133.3859  159.2704 H   0  0  0  0  0  0  0  0  0  0  0  0  # atno 6908 bound_to 6896
  150.9601  134.9010  159.7784 H   0  0  0  0  0  0  0  0  0  0  0  0  # atno 6909 bound_to 6896
  145.8427  139.3205  143.0922 H   0  0  0  0  0  0  0  0  0  0  0  0  # atno 7974 bound_to 7965
  155.6179  140.3495  155.4643 H   0  0  0  0  0  0  0  0  0  0  0  0  # atno 8008 bound_to 7997
  156.0102  140.1231  157.0485 H   0  0  0  0  0  0  0  0  0  0  0  0  # atno 8009 bound_to 7997
  154.4278  140.1083  156.5805 H   0  0  0  0  0  0  0  0  0  0  0  0  # atno 8010 bound_to 7997
  139.5820  144.1403  152.1527 H   0  0  0  0  0  0  0  0  0  0  0  0  # atno 10167 bound_to 10162
  156.0787  130.4221  150.1286 H   0  0  0  0  0  0  0  0  0  0  0  0  # atno 10718 bound_to 10713
  153.0127  135.5331  154.6780 H   0  0  0  0  0  0  0  0  0  0  0  0  # atno 10763 bound_to 10752
  154.5947  135.2862  155.0601 H   0  0  0  0  0  0  0  0  0  0  0  0  # atno 10764 bound_to 10752
  154.1680  135.6536  153.5055 H   0  0  0  0  0  0  0  0  0  0  0  0  # atno 10765 bound_to 10752
  139.9742  134.6850  156.0387 H   0  0  0  0  0  0  0  0  0  0  0  0  # atno 11005 bound_to 11000
  145.9447  140.8953  143.0290 LP  0  0  0  0  0  0  0  0  0  0  0  0  # atno 17320 bound_to 7965
  144.6733  140.1597  143.7423 LP  0  0  0  0  0  0  0  0  0  0  0  0  # atno 17321 bound_to 7965
  140.0958  144.5582  150.7023 LP  0  0  0  0  0  0  0  0  0  0  0  0  # atno 17342 bound_to 10162
  140.7097  143.2495  151.4619 LP  0  0  0  0  0  0  0  0  0  0  0  0  # atno 17343 bound_to 10162
  156.9321  130.9717  151.3531 LP  0  0  0  0  0  0  0  0  0  0  0  0  # atno 17370 bound_to 10713
  157.5895  130.8433  149.8638 LP  0  0  0  0  0  0  0  0  0  0  0  0  # atno 17371 bound_to 10713
  141.1420  133.6563  156.3757 LP  0  0  0  0  0  0  0  0  0  0  0  0  # atno 17394 bound_to 11000
  140.5230  134.6286  157.5324 LP  0  0  0  0  0  0  0  0  0  0  0  0  # atno 17395 bound_to 11000

$$$$
