AV-unprocessed.smi:1280|AV-procd|sdf|5358|dock1
  -GOLD-   22720 4493D 1   1.00000     0.00000
 Structure written by MMmdl.
 44 45  0  0  0  0  0  0  0  0  2 V2000
  155.9475  136.8352  158.5453 C   0  0  0  0  0  0  0  0  0  0  0  0
  154.7738  135.4368  158.7480 S   0  0  0  0  0  0  0  0  0  0  0  0
  154.2610  135.1446  157.3996 O   0  0  0  0  0  0  0  0  0  0  0  0
  155.5330  134.3724  159.4241 O   0  0  0  0  0  0  0  0  0  0  0  0
  153.6601  136.1189  159.7076 N   0  5  0  0  0  0  0  0  0  0  0  0
  154.0935  136.9674  160.8050 C   0  0  0  0  0  0  0  0  0  0  0  0
  153.5811  138.4085  160.6066 C   0  0  0  0  0  0  0  0  0  0  0  0
  153.8579  139.0191  159.2140 C   0  0  0  0  0  0  0  0  0  0  0  0
  153.1081  140.2564  159.0254 N   0  0  0  0  0  0  0  0  0  0  0  0
  153.4091  141.4391  159.5865 C   0  0  0  0  0  0  0  0  0  0  0  0
  154.3514  141.6079  160.3602 O   0  0  0  0  0  0  0  0  0  0  0  0
  152.4662  142.5701  159.2724 C   0  0  0  0  0  0  0  0  0  0  0  0
  152.7292  143.8412  159.8298 C   0  0  0  0  0  0  0  0  0  0  0  0
  151.8562  144.9109  159.5641 C   0  0  0  0  0  0  0  0  0  0  0  0
  150.7458  144.6722  158.7367 C   0  0  0  0  0  0  0  0  0  0  0  0
  150.4892  143.4732  158.1762 N   0  0  0  0  0  0  0  0  0  0  0  0
  151.3283  142.4353  158.4209 C   0  0  0  0  0  0  0  0  0  0  0  0
  151.0525  141.2308  157.7424 N   0  0  0  0  0  0  0  0  0  0  0  0
  149.8778  140.4797  158.1737 C   0  0  0  0  0  0  0  0  0  0  0  0
  149.8463  139.1121  157.4713 C   0  0  0  0  0  0  0  0  0  0  0  0
  149.8710  139.3044  156.0598 O   0  0  0  0  0  0  0  0  0  0  0  0
  151.0546  139.9713  155.6306 C   0  0  0  0  0  0  0  0  0  0  0  0
  151.1439  141.3576  156.2925 C   0  0  0  0  0  0  0  0  0  0  0  0
  156.7732  136.5223  157.9070 H   0  0  0  0  0  0  0  0  0  0  0  0
  156.3339  137.1296  159.5207 H   0  0  0  0  0  0  0  0  0  0  0  0
  155.4330  137.6788  158.0862 H   0  0  0  0  0  0  0  0  0  0  0  0
  153.7190  136.5971  161.7596 H   0  0  0  0  0  0  0  0  0  0  0  0
  155.1796  136.9880  160.9022 H   0  0  0  0  0  0  0  0  0  0  0  0
  152.5133  138.4501  160.8267 H   0  0  0  0  0  0  0  0  0  0  0  0
  154.0637  139.0381  161.3540 H   0  0  0  0  0  0  0  0  0  0  0  0
  154.9158  139.2630  159.1013 H   0  0  0  0  0  0  0  0  0  0  0  0
  153.6156  138.3186  158.4116 H   0  0  0  0  0  0  0  0  0  0  0  0
  152.3016  140.2123  158.4196 H   0  0  0  0  0  0  0  0  0  0  0  0
  153.5862  143.9973  160.4690 H   0  0  0  0  0  0  0  0  0  0  0  0
  152.0323  145.8887  159.9873 H   0  0  0  0  0  0  0  0  0  0  0  0
  150.0501  145.4667  158.5108 H   0  0  0  0  0  0  0  0  0  0  0  0
  149.9009  140.3462  159.2561 H   0  0  0  0  0  0  0  0  0  0  0  0
  148.9709  141.0359  157.9320 H   0  0  0  0  0  0  0  0  0  0  0  0
  150.6909  138.4945  157.7812 H   0  0  0  0  0  0  0  0  0  0  0  0
  148.9389  138.5719  157.7407 H   0  0  0  0  0  0  0  0  0  0  0  0
  151.9295  139.3677  155.8732 H   0  0  0  0  0  0  0  0  0  0  0  0
  151.0317  140.0741  154.5457 H   0  0  0  0  0  0  0  0  0  0  0  0
  150.3319  141.9938  155.9381 H   0  0  0  0  0  0  0  0  0  0  0  0
  152.0779  141.8431  156.0079 H   0  0  0  0  0  0  0  0  0  0  0  0
  1  2  1  0  0  0  0
  1 24  1  0  0  0  0
  1 25  1  0  0  0  0
  1 26  1  0  0  0  0
  2  3  2  0  0  0  0
  2  4  2  0  0  0  0
  2  5  1  0  0  0  0
  5  6  1  0  0  0  0
  6  7  1  0  0  0  0
  6 27  1  0  0  0  0
  6 28  1  0  0  0  0
  7  8  1  0  0  0  0
  7 29  1  0  0  0  0
  7 30  1  0  0  0  0
  8  9  1  0  0  0  0
  8 31  1  0  0  0  0
  8 32  1  0  0  0  0
  9 10  1  0  0  0  0
  9 33  1  0  0  0  0
 10 11  2  0  0  0  0
 10 12  1  0  0  0  0
 12 17  1  0  0  0  0
 12 13  2  0  0  0  0
 13 14  1  0  0  0  0
 13 34  1  0  0  0  0
 14 15  2  0  0  0  0
 14 35  1  0  0  0  0
 15 16  1  0  0  0  0
 15 36  1  0  0  0  0
 16 17  2  0  0  0  0
 17 18  1  0  0  0  0
 18 23  1  0  0  0  0
 18 19  1  0  0  0  0
 19 20  1  0  0  0  0
 19 37  1  0  0  0  0
 19 38  1  0  0  0  0
 20 21  1  0  0  0  0
 20 39  1  0  0  0  0
 20 40  1  0  0  0  0
 21 22  1  0  0  0  0
 22 23  1  0  0  0  0
 22 41  1  0  0  0  0
 22 42  1  0  0  0  0
 23 43  1  0  0  0  0
 23 44  1  0  0  0  0
M  CHG  1   5  -1
M  END
> <s_m_source_file>
AV-unprocessed.smi

> <i_m_source_file_index>
1280

> <i_lp_mmshare_version>
43012

> <i_f3d_flags>
0

> <s_epik_input>
W0NIM11TKD1PKSg9TylbTkhdW0NIMl1bQ0gyXVtDSDJdW05IXUMoPU8pYzFbY0hdW2NIXVtjSF1uYzFOMltDSDJdW0NIMl1PW0NIMl1bQ0gyXTI=

> <s_epik_cmdline>
J2VwaWtfcHl0aG9uJywgJy1waCcsICc3LjAnLCAnLXRuJywgJzgnLCAnLW1hJywgJzIwMCcsICctbWV0YWxfYmluZGluZycsICctaW1hZScsICc8aW5maWxlLm1hZT4nLCAnLW9tYWUnLCAnPG91dGZpbGUubWFlPic=

> <r_lp_tautomer_probability>
1

> <r_epik_Ionization_Penalty>
6.65739

> <r_epik_Ionization_Penalty_Charging>
6.65737

> <r_epik_Ionization_Penalty_Neutral>
1.70916e-05

> <r_epik_State_Penalty>
6.65736

> <r_epik_Charging_Adjusted_Penalty>
13.3147

> <i_epik_Tot_Q>
-1

> <i_epik_Tot_abs_Q>
1

> <r_epik_Metal_State_Penalty>
2.58004

> <b_epik_Metal_Only>
1

> <s_lp_Force_Field>
OPLS_2005

> <r_lp_Energy>
24.7135

> <b_lp_Chiralities_Consistent>
1

> <s_lp_Variant>
AV-unprocessed.smi:1280-2

> <Gold.Version>
5.8.1

> <Gold.Id.Protein>
6NUR|6NUR_protein|mol2

> <Gold.PLP.Fitness>
47.3966

> <Gold.PLP.PLP>
-35.9071

> <Gold.PLP.part.hbond>
-2.0000

> <Gold.PLP.part.metal>
0.0000

> <Gold.PLP.part.buried>
-6.4318

> <Gold.PLP.part.nonpolar>
-28.1745

> <Gold.PLP.part.repulsive>
0.2929

> <Gold.PLP.ligand.clash>
0.0000

> <Gold.PLP.ligand.torsion>
0.8434

> <Gold.PLP.Chemscore.Hbond>
3.0000

> <Gold.PLP.Chemscore.CHOScore>
0.9805

> <Gold.PLP.Chemscore.Metal>
0.0000

> <Gold.Chemscore.Hbonds>
donor molecule, donor type, donor heavy atom, donor atom, acceptor molecule, acceptor atom, score
      P1  H  6896  6908       L1     5  2.00
      P1  H 10752 10764       L1     3  0.96
      L1  C    15    36       P1  8029  1.00

> <Gold.PLP.Chemscore.Internal.Correction>
1.2347

> <Gold.Rescore>
     Score         DG    S(hbond)    S(metal)    S(lipo)     H(rot)  DE(clash)    DE(int)     intcor
     12.94     -15.29       1.87        0.00      77.68       2.16       0.00       2.35       ----

> <Gold.Chemscore.Fitness>
12.9408

> <Gold.Chemscore.DG>
-15.2923

> <Gold.Chemscore.ZeroCoef>
-5.4800

> <Gold.Chemscore.Hbond>
1.8686

> <Gold.Chemscore.Metal>
0.0000

> <Gold.Chemscore.Lipo>
77.6845

> <Gold.Chemscore.Internal_Hbond>
0.0000

> <Gold.Chemscore.DEClash>
0.0000

> <Gold.Chemscore.DEInternal>
2.3515

> <Gold.Chemscore.Rot>
2.1554

> <Gold.Chemscore.Internal.Correction>
   9.000000E+99

> <Gold.Chemscore.Hbonds>
donor molecule, donor type, donor heavy atom, donor atom, acceptor molecule, acceptor atom, score
      P1  H  6896  6908       L1     5  0.29
      P1  H 10752 10764       L1     3  0.90

> <Gold.Chemscore.Hbond.Weighted>
-6.2410

> <Gold.Chemscore.Metal.Weighted>
-0.0000

> <Gold.Chemscore.Lipo.Weighted>
-9.0891

> <Gold.Chemscore.Internal_Hbond.Weighted>
0.0000

> <Gold.Chemscore.DEClash.Weighted>
0.0000

> <Gold.Chemscore.DEInternal.Weighted>
2.3515

> <Gold.Chemscore.Rot.Weighted>
5.5178

> <Gold.Chemscore.Internal.Correction.Weighted>
   9.000000E+99

> <Gold.Protein.RotatedTorsions>
[ 6907 6896 6895 6894 ] final  -56.21 input  -60.11 | X-H torsion
[ 7974 7965 7964 7962 ] final   -2.90 input  175.53 | X-H torsion
[ 8008 7997 7996 7995 ] final  139.09 input   59.86 | X-H torsion
[ 10167 10162 10161 10158 ] final   82.48 input  -65.29 | X-H torsion
[ 10718 10713 10712 10709 ] final -100.79 input   66.30 | X-H torsion
[ 10763 10752 10751 10750 ] final   40.42 input  -60.55 | X-H torsion
[ 11005 11000 10999 10996 ] final -129.66 input  -57.11 | X-H torsion

> <Gold.Protein.ActiveResidues>
 VAL166  LYS551  ARG553  GLY616  TRP617  ASP618  TYR619  PRO620  LYS621  CYS622 
 ASP623  PHE694  ASN695  SER759  ASP760  ASP761  ALA762  ILE779  LEU786  VAL792 
 PHE793  MET794  SER795  GLU796  ALA797  LYS798  CYS799  TRP800  GLU811  SER814 

> <Gold.Protein.RotatedAtoms>
  150.8186  134.7382  159.6752 H   0  0  0  0  0  0  0  0  0  0  0  0  # atno 6907 bound_to 6896
  152.4304  134.5786  159.9951 H   0  0  0  0  0  0  0  0  0  0  0  0  # atno 6908 bound_to 6896
  151.5976  133.3322  159.3076 H   0  0  0  0  0  0  0  0  0  0  0  0  # atno 6909 bound_to 6896
  146.2398  140.1640  142.8332 H   0  0  0  0  0  0  0  0  0  0  0  0  # atno 7974 bound_to 7965
  156.2992  140.2376  156.4181 H   0  0  0  0  0  0  0  0  0  0  0  0  # atno 8008 bound_to 7997
  154.8380  140.0429  157.1542 H   0  0  0  0  0  0  0  0  0  0  0  0  # atno 8009 bound_to 7997
  154.9134  140.2993  155.5258 H   0  0  0  0  0  0  0  0  0  0  0  0  # atno 8010 bound_to 7997
  139.9284  144.6168  150.8369 H   0  0  0  0  0  0  0  0  0  0  0  0  # atno 10167 bound_to 10162
  156.0174  130.5344  150.6869 H   0  0  0  0  0  0  0  0  0  0  0  0  # atno 10718 bound_to 10713
  152.9937  135.6192  154.2622 H   0  0  0  0  0  0  0  0  0  0  0  0  # atno 10763 bound_to 10752
  154.2358  135.2790  155.2874 H   0  0  0  0  0  0  0  0  0  0  0  0  # atno 10764 bound_to 10752
  154.5411  135.5760  153.6898 H   0  0  0  0  0  0  0  0  0  0  0  0  # atno 10765 bound_to 10752
  140.9413  134.1190  157.4148 H   0  0  0  0  0  0  0  0  0  0  0  0  # atno 11005 bound_to 11000
  145.0066  140.8678  143.5249 LP  0  0  0  0  0  0  0  0  0  0  0  0  # atno 17320 bound_to 7965
  145.1667  139.2427  143.5363 LP  0  0  0  0  0  0  0  0  0  0  0  0  # atno 17321 bound_to 7965
  140.7644  143.3247  151.2542 LP  0  0  0  0  0  0  0  0  0  0  0  0  # atno 17342 bound_to 10162
  139.6803  143.9866  152.2804 LP  0  0  0  0  0  0  0  0  0  0  0  0  # atno 17343 bound_to 10162
  157.4559  131.0878  151.0797 LP  0  0  0  0  0  0  0  0  0  0  0  0  # atno 17370 bound_to 10713
  157.1299  130.6098  149.5527 LP  0  0  0  0  0  0  0  0  0  0  0  0  # atno 17371 bound_to 10713
  139.8821  135.0037  156.6204 LP  0  0  0  0  0  0  0  0  0  0  0  0  # atno 17394 bound_to 11000
  140.7731  133.8722  155.8507 LP  0  0  0  0  0  0  0  0  0  0  0  0  # atno 17395 bound_to 11000

$$$$
