AV-unprocessed.smi:1388|AV-procd|sdf|5641|dock3
  -GOLD-   22720 5253D 1   1.00000     0.00000
 Structure written by MMmdl.
 45 46  0  0  0  0  0  0  0  0  1 V2000
  145.1405  135.4819  151.5740 C   0  0  0  0  0  0  0  0  0  0  0  0
  145.4781  136.8932  151.4723 N   0  0  0  0  0  0  0  0  0  0  0  0
  146.1682  137.5741  152.3987 C   0  0  0  0  0  0  0  0  0  0  0  0
  146.5847  137.0691  153.4410 O   0  0  0  0  0  0  0  0  0  0  0  0
  146.4250  139.0566  152.1059 C   0  0  0  0  0  0  0  0  0  0  0  0
  147.0708  139.8004  153.2124 N   0  0  0  0  0  0  0  0  0  0  0  0
  147.1702  141.2413  152.9353 C   0  0  0  0  0  0  0  0  0  0  0  0
  147.7872  141.9849  154.1334 C   0  0  0  0  0  0  0  0  0  0  0  0
  149.1705  141.4194  154.4914 C   0  0  0  0  0  0  0  0  0  0  0  0
  149.6810  142.0418  155.7095 N   0  0  0  0  0  0  0  0  0  0  0  0
  150.6684  141.5509  156.4731 C   0  0  0  0  0  0  0  0  0  0  0  0
  151.2493  140.4916  156.2339 O   0  0  0  0  0  0  0  0  0  0  0  0
  150.9351  142.3693  157.5065 N   0  0  0  0  0  0  0  0  0  0  0  0
  151.8863  142.1952  158.5515 C   0  0  0  0  0  0  0  0  0  0  0  0
  152.4736  141.0007  158.8151 N   0  0  0  0  0  0  0  0  0  0  0  0
  153.3623  140.9043  159.8249 C   0  0  0  0  0  0  0  0  0  0  0  0
  153.7218  141.9931  160.6375 C   0  0  0  0  0  0  0  0  0  0  0  0
  153.1224  143.2375  160.3791 C   0  0  0  0  0  0  0  0  0  0  0  0
  152.1908  143.3478  159.3247 C   0  0  0  0  0  0  0  0  0  0  0  0
  151.5424  144.6933  159.0426 C   0  0  0  0  0  0  0  0  0  0  0  0
  149.0539  139.9013  154.6840 C   0  0  0  0  0  0  0  0  0  0  0  0
  148.4035  139.2387  153.4572 C   0  0  0  0  0  0  0  0  0  0  0  0
  144.5578  135.1761  150.7052 H   0  0  0  0  0  0  0  0  0  0  0  0
  144.5472  135.2864  152.4684 H   0  0  0  0  0  0  0  0  0  0  0  0
  146.0421  134.8694  151.6128 H   0  0  0  0  0  0  0  0  0  0  0  0
  145.1755  137.3846  150.6435 H   0  0  0  0  0  0  0  0  0  0  0  0
  147.0549  139.1059  151.2165 H   0  0  0  0  0  0  0  0  0  0  0  0
  145.4806  139.5364  151.8415 H   0  0  0  0  0  0  0  0  0  0  0  0
  147.7675  141.4109  152.0377 H   0  0  0  0  0  0  0  0  0  0  0  0
  146.1868  141.6704  152.7438 H   0  0  0  0  0  0  0  0  0  0  0  0
  147.8663  143.0480  153.9034 H   0  0  0  0  0  0  0  0  0  0  0  0
  147.1181  141.9042  154.9916 H   0  0  0  0  0  0  0  0  0  0  0  0
  149.8581  141.6070  153.6643 H   0  0  0  0  0  0  0  0  0  0  0  0
  149.2601  142.9183  155.9812 H   0  0  0  0  0  0  0  0  0  0  0  0
  150.3963  143.2212  157.5521 H   0  0  0  0  0  0  0  0  0  0  0  0
  153.7984  139.9304  159.9900 H   0  0  0  0  0  0  0  0  0  0  0  0
  154.4381  141.8760  161.4374 H   0  0  0  0  0  0  0  0  0  0  0  0
  153.3766  144.0949  160.9852 H   0  0  0  0  0  0  0  0  0  0  0  0
  151.8933  145.4573  159.7371 H   0  0  0  0  0  0  0  0  0  0  0  0
  150.4587  144.6231  159.1412 H   0  0  0  0  0  0  0  0  0  0  0  0
  151.7785  145.0255  158.0312 H   0  0  0  0  0  0  0  0  0  0  0  0
  150.0409  139.4700  154.8557 H   0  0  0  0  0  0  0  0  0  0  0  0
  148.4603  139.6794  155.5724 H   0  0  0  0  0  0  0  0  0  0  0  0
  148.3252  138.1658  153.6382 H   0  0  0  0  0  0  0  0  0  0  0  0
  149.0378  139.3663  152.5780 H   0  0  0  0  0  0  0  0  0  0  0  0
  1  2  1  0  0  0  0
  1 23  1  0  0  0  0
  1 24  1  0  0  0  0
  1 25  1  0  0  0  0
  2  3  1  0  0  0  0
  2 26  1  0  0  0  0
  3  4  2  0  0  0  0
  3  5  1  0  0  0  0
  5  6  1  0  0  0  0
  5 27  1  0  0  0  0
  5 28  1  0  0  0  0
  6 22  1  0  0  0  0
  6  7  1  0  0  0  0
  7  8  1  0  0  0  0
  7 29  1  0  0  0  0
  7 30  1  0  0  0  0
  8  9  1  0  0  0  0
  8 31  1  0  0  0  0
  8 32  1  0  0  0  0
  9 10  1  0  0  0  0
  9 21  1  0  0  0  0
  9 33  1  0  0  0  0
 10 11  1  0  0  0  0
 10 34  1  0  0  0  0
 11 12  2  0  0  0  0
 11 13  1  0  0  0  0
 13 14  1  0  0  0  0
 13 35  1  0  0  0  0
 14 19  1  0  0  0  0
 14 15  2  0  0  0  0
 15 16  1  0  0  0  0
 16 17  2  0  0  0  0
 16 36  1  0  0  0  0
 17 18  1  0  0  0  0
 17 37  1  0  0  0  0
 18 19  2  0  0  0  0
 18 38  1  0  0  0  0
 19 20  1  0  0  0  0
 20 39  1  0  0  0  0
 20 40  1  0  0  0  0
 20 41  1  0  0  0  0
 21 22  1  0  0  0  0
 21 42  1  0  0  0  0
 21 43  1  0  0  0  0
 22 44  1  0  0  0  0
 22 45  1  0  0  0  0
M  END
> <s_m_source_file>
AV-unprocessed.smi

> <i_m_source_file_index>
1388

> <i_lp_mmshare_version>
43012

> <i_f3d_flags>
0

> <s_epik_input>
W0NIM11bTkhdQyg9TylbQ0gyXU4xW0NIMl1bQ0gyXVtDSF0oW0NIMl1bQ0gyXTEpW05IXUMoPU8pW05IXWMybltjSF1bY0hdW2NIXWMyW0NIM10=

> <s_epik_cmdline>
J2VwaWtfcHl0aG9uJywgJy1waCcsICc3LjAnLCAnLXRuJywgJzgnLCAnLW1hJywgJzIwMCcsICctbWV0YWxfYmluZGluZycsICctaW1hZScsICc8aW5maWxlLm1hZT4nLCAnLW9tYWUnLCAnPG91dGZpbGUubWFlPic=

> <r_epik_Ionization_Penalty>
0.164795

> <r_epik_Ionization_Penalty_Charging>
0

> <r_epik_Ionization_Penalty_Neutral>
0.164795

> <r_epik_State_Penalty>
0.154069

> <r_epik_Charging_Adjusted_Penalty>
0.154069

> <i_epik_Tot_Q>
0

> <i_epik_Tot_abs_Q>
0

> <r_epik_Metal_State_Penalty>
0.158585

> <b_epik_Metal_Only>
0

> <s_lp_Force_Field>
OPLS_2005

> <r_lp_Energy>
17.3475

> <b_lp_Chiralities_Consistent>
1

> <s_lp_Variant>
AV-unprocessed.smi:1388-1

> <Gold.Version>
5.8.1

> <Gold.Id.Protein>
6NUR|6NUR_protein|mol2

> <Gold.PLP.Fitness>
48.2019

> <Gold.PLP.PLP>
-42.8785

> <Gold.PLP.part.hbond>
-2.0000

> <Gold.PLP.part.metal>
0.0000

> <Gold.PLP.part.buried>
-1.9762

> <Gold.PLP.part.nonpolar>
-39.4333

> <Gold.PLP.part.repulsive>
0.9975

> <Gold.PLP.ligand.clash>
0.0000

> <Gold.PLP.ligand.torsion>
0.3468

> <Gold.PLP.Chemscore.Hbond>
1.9920

> <Gold.PLP.Chemscore.CHOScore>
0.0000

> <Gold.PLP.Chemscore.Metal>
0.0000

> <Gold.Chemscore.Hbonds>
donor molecule, donor type, donor heavy atom, donor atom, acceptor molecule, acceptor atom, score
      L1  H     2    26       P1 10171  0.98
      L1  H    10    34       P1  8028  1.00

> <Gold.PLP.Chemscore.Internal.Correction>
0.0410

> <Gold.Rescore>
     Score         DG    S(hbond)    S(metal)    S(lipo)     H(rot)  DE(clash)    DE(int)     intcor
     14.55     -19.50       1.88        0.00     102.64       1.66       0.62       4.34       ----

> <Gold.Chemscore.Fitness>
14.5470

> <Gold.Chemscore.DG>
-19.5024

> <Gold.Chemscore.ZeroCoef>
-5.4800

> <Gold.Chemscore.Hbond>
1.8763

> <Gold.Chemscore.Metal>
0.0000

> <Gold.Chemscore.Lipo>
102.6433

> <Gold.Chemscore.Internal_Hbond>
0.0000

> <Gold.Chemscore.DEClash>
0.6185

> <Gold.Chemscore.DEInternal>
4.3370

> <Gold.Chemscore.Rot>
1.6616

> <Gold.Chemscore.Internal.Correction>
   9.000000E+99

> <Gold.Chemscore.Hbonds>
donor molecule, donor type, donor heavy atom, donor atom, acceptor molecule, acceptor atom, score
      L1  H     2    26       P1 10171  0.92
      L1  H    10    34       P1  8028  0.95

> <Gold.Chemscore.Hbond.Weighted>
-6.2670

> <Gold.Chemscore.Metal.Weighted>
-0.0000

> <Gold.Chemscore.Lipo.Weighted>
-12.0093

> <Gold.Chemscore.Internal_Hbond.Weighted>
0.0000

> <Gold.Chemscore.DEClash.Weighted>
0.6185

> <Gold.Chemscore.DEInternal.Weighted>
4.3370

> <Gold.Chemscore.Rot.Weighted>
4.2538

> <Gold.Chemscore.Internal.Correction.Weighted>
   9.000000E+99

> <Gold.Protein.RotatedTorsions>
[ 6907 6896 6895 6894 ] final -151.30 input  -60.11 | X-H torsion
[ 7974 7965 7964 7962 ] final  169.50 input  175.53 | X-H torsion
[ 8008 7997 7996 7995 ] final  164.06 input   59.86 | X-H torsion
[ 10167 10162 10161 10158 ] final   92.18 input  -65.29 | X-H torsion
[ 10718 10713 10712 10709 ] final -161.49 input   66.30 | X-H torsion
[ 10763 10752 10751 10750 ] final    0.70 input  -60.55 | X-H torsion
[ 11005 11000 10999 10996 ] final   18.30 input  -57.11 | X-H torsion

> <Gold.Protein.ActiveResidues>
 VAL166  LYS551  ARG553  GLY616  TRP617  ASP618  TYR619  PRO620  LYS621  CYS622 
 ASP623  PHE694  ASN695  SER759  ASP760  ASP761  ALA762  ILE779  LEU786  VAL792 
 PHE793  MET794  SER795  GLU796  ALA797  LYS798  CYS799  TRP800  GLU811  SER814 

> <Gold.Protein.RotatedAtoms>
  151.2110  133.4556  159.2598 H   0  0  0  0  0  0  0  0  0  0  0  0  # atno 6907 bound_to 6896
  151.0976  134.9953  159.8443 H   0  0  0  0  0  0  0  0  0  0  0  0  # atno 6908 bound_to 6896
  152.5440  134.2039  159.8776 H   0  0  0  0  0  0  0  0  0  0  0  0  # atno 6909 bound_to 6896
  144.7353  139.9063  143.6412 H   0  0  0  0  0  0  0  0  0  0  0  0  # atno 7974 bound_to 7965
  156.1909  140.1707  156.8093 H   0  0  0  0  0  0  0  0  0  0  0  0  # atno 8008 bound_to 7997
  154.5470  140.0725  156.8638 H   0  0  0  0  0  0  0  0  0  0  0  0  # atno 8009 bound_to 7997
  155.3102  140.3367  155.4246 H   0  0  0  0  0  0  0  0  0  0  0  0  # atno 8010 bound_to 7997
  139.8302  144.6691  150.9410 H   0  0  0  0  0  0  0  0  0  0  0  0  # atno 10167 bound_to 10162
  156.5970  130.8794  151.2904 H   0  0  0  0  0  0  0  0  0  0  0  0  # atno 10718 bound_to 10713
  153.3173  135.6967  153.7062 H   0  0  0  0  0  0  0  0  0  0  0  0  # atno 10763 bound_to 10752
  153.5916  135.3479  155.2913 H   0  0  0  0  0  0  0  0  0  0  0  0  # atno 10764 bound_to 10752
  154.8589  135.4319  154.2327 H   0  0  0  0  0  0  0  0  0  0  0  0  # atno 10765 bound_to 10752
  140.4263  134.1466  155.7677 H   0  0  0  0  0  0  0  0  0  0  0  0  # atno 11005 bound_to 11000
  146.1034  139.4032  143.0332 LP  0  0  0  0  0  0  0  0  0  0  0  0  # atno 17320 bound_to 7965
  145.7546  140.9959  143.1232 LP  0  0  0  0  0  0  0  0  0  0  0  0  # atno 17321 bound_to 7965
  140.7807  143.4008  151.1152 LP  0  0  0  0  0  0  0  0  0  0  0  0  # atno 17342 bound_to 10162
  139.7663  143.8561  152.3111 LP  0  0  0  0  0  0  0  0  0  0  0  0  # atno 17343 bound_to 10162
  157.7289  130.9663  150.1764 LP  0  0  0  0  0  0  0  0  0  0  0  0  # atno 17370 bound_to 10713
  156.2501  130.3699  149.8242 LP  0  0  0  0  0  0  0  0  0  0  0  0  # atno 17371 bound_to 10713
  141.1764  133.8505  157.1407 LP  0  0  0  0  0  0  0  0  0  0  0  0  # atno 17394 bound_to 11000
  140.0165  134.9965  157.0504 LP  0  0  0  0  0  0  0  0  0  0  0  0  # atno 17395 bound_to 11000

$$$$
