AV-unprocessed.smi:168|AV-procd|sdf|1397|dock3
  -GOLD-   2262019143D 1   1.00000     0.00000
 Structure written by MMmdl.
 62 66  0  0  0  0  0  0  0  0  1 V2000
  146.6649  137.1294  157.4134 C   0  0  0  0  0  0  0  0  0  0  0  0
  146.8867  138.6432  157.2864 C   0  0  0  0  0  0  0  0  0  0  0  0
  145.7509  139.3980  158.0126 C   0  0  0  0  0  0  0  0  0  0  0  0
  147.1551  139.0548  155.8136 C   0  0  1  0  0  0  0  0  0  0  0  0
  145.9271  139.0236  155.0150 N   0  0  0  0  0  0  0  0  0  0  0  0
  145.9833  138.3252  153.7634 C   0  0  0  0  0  0  0  0  0  0  0  0
  146.8399  138.7678  152.8026 N   0  0  0  0  0  0  0  0  0  0  0  0
  146.9247  138.1727  151.6105 C   0  0  0  0  0  0  0  0  0  0  0  0
  146.2390  137.1267  151.1531 N   0  0  0  0  0  0  0  0  0  0  0  0
  145.3556  136.6785  152.0879 C   0  0  0  0  0  0  0  0  0  0  0  0
  145.1595  137.2179  153.3938 C   0  0  0  0  0  0  0  0  0  0  0  0
  144.1486  136.5110  154.0344 N   0  0  0  0  0  0  0  0  0  0  0  0
  143.7736  135.6129  153.1668 C   0  0  0  0  0  0  0  0  0  0  0  0
  144.4679  135.6215  151.9801 N   0  0  0  0  0  0  0  0  0  0  0  0
  144.2310  134.7791  150.8438 C   0  0  0  0  0  0  0  0  0  0  0  0
  143.8745  133.2994  151.0184 C   0  0  0  0  0  0  0  0  0  0  0  0
  144.6983  132.9384  149.7623 C   0  0  0  0  0  0  0  0  0  0  0  0
  145.6411  131.7357  149.9219 C   0  0  0  0  0  0  0  0  0  0  0  0
  146.6818  131.7651  148.9660 O   0  0  0  0  0  0  0  0  0  0  0  0
  143.9211  132.7338  148.4425 C   0  0  0  0  0  0  0  0  0  0  0  0
  143.4880  133.9438  147.8550 O   0  0  0  0  0  0  0  0  0  0  0  0
  145.3818  134.3120  149.9470 C   0  0  0  0  0  0  0  0  0  0  0  0
  145.8630  140.4824  154.9445 C   0  0  0  0  0  0  0  0  0  0  0  0
  147.3411  140.5269  155.3553 C   0  0  0  0  0  0  0  0  0  0  0  0
  148.3175  140.7400  154.1769 C   0  0  0  0  0  0  0  0  0  0  0  0
  149.7958  140.6141  154.5805 C   0  0  0  0  0  0  0  0  0  0  0  0
  150.1520  141.6185  155.6814 C   0  0  0  0  0  0  0  0  0  0  0  0
  149.1906  141.4931  156.8683 C   0  0  0  0  0  0  0  0  0  0  0  0
  147.7229  141.5842  156.4121 C   0  0  0  0  0  0  0  0  0  0  0  0
  145.7488  136.8209  156.9089 H   0  0  0  0  0  0  0  0  0  0  0  0
  146.5835  136.8296  158.4585 H   0  0  0  0  0  0  0  0  0  0  0  0
  147.4940  136.5709  156.9784 H   0  0  0  0  0  0  0  0  0  0  0  0
  147.7945  138.8467  157.8525 H   0  0  0  0  0  0  0  0  0  0  0  0
  144.7797  139.1935  157.5613 H   0  0  0  0  0  0  0  0  0  0  0  0
  145.8939  140.4759  158.0156 H   0  0  0  0  0  0  0  0  0  0  0  0
  145.6896  139.0865  159.0556 H   0  0  0  0  0  0  0  0  0  0  0  0
  147.9586  138.4612  155.3801 H   0  0  0  0  0  0  0  0  0  0  0  0
  147.6448  138.5962  150.9260 H   0  0  0  0  0  0  0  0  0  0  0  0
  142.9761  134.9141  153.3740 H   0  0  0  0  0  0  0  0  0  0  0  0
  143.4689  135.2897  150.2538 H   0  0  0  0  0  0  0  0  0  0  0  0
  144.2946  132.8756  151.9322 H   0  0  0  0  0  0  0  0  0  0  0  0
  142.8083  133.0829  150.9443 H   0  0  0  0  0  0  0  0  0  0  0  0
  146.0791  131.7067  150.9201 H   0  0  0  0  0  0  0  0  0  0  0  0
  145.1013  130.7967  149.7954 H   0  0  0  0  0  0  0  0  0  0  0  0
  147.4328  131.3189  149.3263 H   0  0  0  0  0  0  0  0  0  0  0  0
  144.5377  132.2129  147.7094 H   0  0  0  0  0  0  0  0  0  0  0  0
  143.0367  132.1159  148.5995 H   0  0  0  0  0  0  0  0  0  0  0  0
  144.2485  134.4637  147.6441 H   0  0  0  0  0  0  0  0  0  0  0  0
  145.4997  134.8933  149.0318 H   0  0  0  0  0  0  0  0  0  0  0  0
  146.3269  134.2493  150.4889 H   0  0  0  0  0  0  0  0  0  0  0  0
  145.6637  140.9289  153.9705 H   0  0  0  0  0  0  0  0  0  0  0  0
  145.1919  140.8906  155.6999 H   0  0  0  0  0  0  0  0  0  0  0  0
  148.1181  140.0270  153.3772 H   0  0  0  0  0  0  0  0  0  0  0  0
  148.1526  141.7220  153.7317 H   0  0  0  0  0  0  0  0  0  0  0  0
  149.9989  139.6004  154.9276 H   0  0  0  0  0  0  0  0  0  0  0  0
  150.4336  140.7761  153.7112 H   0  0  0  0  0  0  0  0  0  0  0  0
  151.1802  141.4678  156.0113 H   0  0  0  0  0  0  0  0  0  0  0  0
  150.1002  142.6308  155.2788 H   0  0  0  0  0  0  0  0  0  0  0  0
  149.3663  140.5454  157.3765 H   0  0  0  0  0  0  0  0  0  0  0  0
  149.4016  142.2757  157.5977 H   0  0  0  0  0  0  0  0  0  0  0  0
  147.5425  142.5825  156.0111 H   0  0  0  0  0  0  0  0  0  0  0  0
  147.0829  141.5164  157.2885 H   0  0  0  0  0  0  0  0  0  0  0  0
  1  2  1  0  0  0  0
  1 30  1  0  0  0  0
  1 31  1  0  0  0  0
  1 32  1  0  0  0  0
  2  3  1  0  0  0  0
  2  4  1  0  0  0  0
  2 33  1  0  0  0  0
  3 34  1  0  0  0  0
  3 35  1  0  0  0  0
  3 36  1  0  0  0  0
  4 24  1  0  0  0  0
  4  5  1  0  0  0  0
  4 37  1  0  0  0  0
  5  6  1  0  0  0  0
  5 23  1  0  0  0  0
  6 11  1  0  0  0  0
  6  7  2  0  0  0  0
  7  8  1  0  0  0  0
  8  9  2  0  0  0  0
  8 38  1  0  0  0  0
  9 10  1  0  0  0  0
 10 14  1  0  0  0  0
 10 11  2  0  0  0  0
 11 12  1  0  0  0  0
 12 13  2  0  0  0  0
 13 14  1  0  0  0  0
 13 39  1  0  0  0  0
 14 15  1  0  0  0  0
 15 22  1  0  0  0  0
 15 16  1  0  0  0  0
 15 40  1  0  0  0  0
 16 17  1  0  0  0  0
 16 41  1  0  0  0  0
 16 42  1  0  0  0  0
 17 18  1  0  0  0  0
 17 20  1  0  0  0  0
 17 22  1  0  0  0  0
 18 19  1  0  0  0  0
 18 43  1  0  0  0  0
 18 44  1  0  0  0  0
 19 45  1  0  0  0  0
 20 21  1  0  0  0  0
 20 46  1  0  0  0  0
 20 47  1  0  0  0  0
 21 48  1  0  0  0  0
 22 49  1  0  0  0  0
 22 50  1  0  0  0  0
 23 24  1  0  0  0  0
 23 51  1  0  0  0  0
 23 52  1  0  0  0  0
 24 29  1  0  0  0  0
 24 25  1  0  0  0  0
 25 26  1  0  0  0  0
 25 53  1  0  0  0  0
 25 54  1  0  0  0  0
 26 27  1  0  0  0  0
 26 55  1  0  0  0  0
 26 56  1  0  0  0  0
 27 28  1  0  0  0  0
 27 57  1  0  0  0  0
 27 58  1  0  0  0  0
 28 29  1  0  0  0  0
 28 59  1  0  0  0  0
 28 60  1  0  0  0  0
 29 61  1  0  0  0  0
 29 62  1  0  0  0  0
M  END
> <s_m_source_file>
AV-unprocessed.smi

> <i_m_source_file_index>
168

> <i_lp_mmshare_version>
43012

> <i_f3d_flags>
0

> <s_epik_input>
W0NIMl0xW0NIMl1bQ0gyXVtDSDJdW0NIMl1DMTJbQ0BIXShbQ0hdKFtDSDNdKVtDSDNdKU4oW0NIMl0yKWMobltjSF1uMyljKGMzNCluW2NIXW40W0NIXShbQ0gyXTUpW0NIMl1DNShbQ0gyXVtPSF0pW0NIMl1bT0hd

> <s_epik_cmdline>
J2VwaWtfcHl0aG9uJywgJy1waCcsICc3LjAnLCAnLXRuJywgJzgnLCAnLW1hJywgJzIwMCcsICctbWV0YWxfYmluZGluZycsICctaW1hZScsICc8aW5maWxlLm1hZT4nLCAnLW9tYWUnLCAnPG91dGZpbGUubWFlPic=

> <r_lp_tautomer_probability>
1

> <r_epik_Ionization_Penalty>
0.00324652

> <r_epik_Ionization_Penalty_Charging>
0

> <r_epik_Ionization_Penalty_Neutral>
0.00324652

> <r_epik_State_Penalty>
0.00223464

> <r_epik_Charging_Adjusted_Penalty>
0.00223464

> <i_epik_Tot_Q>
0

> <i_epik_Tot_abs_Q>
0

> <r_epik_Metal_State_Penalty>
-0

> <b_epik_Metal_Only>
0

> <s_lp_Force_Field>
OPLS_2005

> <r_lp_Energy>
69.202

> <b_lp_Chiralities_Consistent>
1

> <s_lp_Variant>
AV-unprocessed.smi:168-2

> <Gold.Version>
5.8.1

> <Gold.Id.Protein>
6NUR|6NUR_protein|mol2

> <Gold.PLP.Fitness>
50.0850

> <Gold.PLP.PLP>
-40.1811

> <Gold.PLP.part.hbond>
-4.6921

> <Gold.PLP.part.metal>
0.0000

> <Gold.PLP.part.buried>
-2.5064

> <Gold.PLP.part.nonpolar>
-35.5868

> <Gold.PLP.part.repulsive>
1.9649

> <Gold.PLP.ligand.clash>
0.0000

> <Gold.PLP.ligand.torsion>
1.4756

> <Gold.PLP.Chemscore.Hbond>
3.0000

> <Gold.PLP.Chemscore.CHOScore>
1.0223

> <Gold.PLP.Chemscore.Metal>
0.0000

> <Gold.Chemscore.Hbonds>
donor molecule, donor type, donor heavy atom, donor atom, acceptor molecule, acceptor atom, score
      L1  H    19    45       P1 10747  1.00
      L1  H    21    48       P1  7921  1.00
      P1  H 10192 10197       L1    21  0.99
      L1  C     8    38       P1  7957  0.84

> <Gold.PLP.Chemscore.Internal.Correction>
0.7883

> <Gold.Rescore>
     Score         DG    S(hbond)    S(metal)    S(lipo)     H(rot)  DE(clash)    DE(int)     intcor
      9.86     -16.96       2.73        0.00      88.48       3.12       3.20       3.90       ----

> <Gold.Chemscore.Fitness>
9.8621

> <Gold.Chemscore.DG>
-16.9617

> <Gold.Chemscore.ZeroCoef>
-5.4800

> <Gold.Chemscore.Hbond>
2.7280

> <Gold.Chemscore.Metal>
0.0000

> <Gold.Chemscore.Lipo>
88.4828

> <Gold.Chemscore.Internal_Hbond>
0.0000

> <Gold.Chemscore.DEClash>
3.1951

> <Gold.Chemscore.DEInternal>
3.9045

> <Gold.Chemscore.Rot>
3.1181

> <Gold.Chemscore.Internal.Correction>
   9.000000E+99

> <Gold.Chemscore.Hbonds>
donor molecule, donor type, donor heavy atom, donor atom, acceptor molecule, acceptor atom, score
      L1  H    19    45       P1 10747  1.00
      L1  H    21    48       P1  7921  0.97
      P1  H 10192 10197       L1    21  0.24

> <Gold.Chemscore.Hbond.Weighted>
-9.1115

> <Gold.Chemscore.Metal.Weighted>
-0.0000

> <Gold.Chemscore.Lipo.Weighted>
-10.3525

> <Gold.Chemscore.Internal_Hbond.Weighted>
0.0000

> <Gold.Chemscore.DEClash.Weighted>
3.1951

> <Gold.Chemscore.DEInternal.Weighted>
3.9045

> <Gold.Chemscore.Rot.Weighted>
7.9823

> <Gold.Chemscore.Internal.Correction.Weighted>
   9.000000E+99

> <Gold.Protein.RotatedTorsions>
[ 6907 6896 6895 6894 ] final  139.89 input  -60.11 | X-H torsion
[ 7974 7965 7964 7962 ] final  131.97 input  175.53 | X-H torsion
[ 8008 7997 7996 7995 ] final   -0.50 input   59.86 | X-H torsion
[ 10167 10162 10161 10158 ] final   71.46 input  -65.29 | X-H torsion
[ 10718 10713 10712 10709 ] final  -14.11 input   66.30 | X-H torsion
[ 10763 10752 10751 10750 ] final  -20.67 input  -60.55 | X-H torsion
[ 11005 11000 10999 10996 ] final -136.66 input  -57.11 | X-H torsion

> <Gold.Protein.ActiveResidues>
 VAL166  LYS551  ARG553  GLY616  TRP617  ASP618  TYR619  PRO620  LYS621  CYS622 
 ASP623  PHE694  ASN695  SER759  ASP760  ASP761  ALA762  ILE779  LEU786  VAL792 
 PHE793  MET794  SER795  GLU796  ALA797  LYS798  CYS799  TRP800  GLU811  SER814 

> <Gold.Protein.RotatedAtoms>
  152.2495  133.5203  159.5316 H   0  0  0  0  0  0  0  0  0  0  0  0  # atno 6907 bound_to 6896
  150.7089  134.0979  159.3964 H   0  0  0  0  0  0  0  0  0  0  0  0  # atno 6908 bound_to 6896
  151.8899  135.0420  160.0547 H   0  0  0  0  0  0  0  0  0  0  0  0  # atno 6909 bound_to 6896
  145.0017  139.4305  143.5289 H   0  0  0  0  0  0  0  0  0  0  0  0  # atno 7974 bound_to 7965
  154.6573  140.2582  155.7147 H   0  0  0  0  0  0  0  0  0  0  0  0  # atno 8008 bound_to 7997
  156.2603  140.2855  156.0953 H   0  0  0  0  0  0  0  0  0  0  0  0  # atno 8009 bound_to 7997
  155.1360  140.0379  157.2777 H   0  0  0  0  0  0  0  0  0  0  0  0  # atno 8010 bound_to 7997
  140.0459  144.5351  150.7399 H   0  0  0  0  0  0  0  0  0  0  0  0  # atno 10167 bound_to 10162
  156.6206  130.4874  149.6166 H   0  0  0  0  0  0  0  0  0  0  0  0  # atno 10718 bound_to 10713
  153.6241  135.6991  153.5299 H   0  0  0  0  0  0  0  0  0  0  0  0  # atno 10763 bound_to 10752
  153.2913  135.4156  155.1169 H   0  0  0  0  0  0  0  0  0  0  0  0  # atno 10764 bound_to 10752
  154.8536  135.3626  154.5783 H   0  0  0  0  0  0  0  0  0  0  0  0  # atno 10765 bound_to 10752
  140.8784  134.1963  157.4607 H   0  0  0  0  0  0  0  0  0  0  0  0  # atno 11005 bound_to 11000
  146.3453  139.9409  142.8741 LP  0  0  0  0  0  0  0  0  0  0  0  0  # atno 17320 bound_to 7965
  145.2144  140.9909  143.4082 LP  0  0  0  0  0  0  0  0  0  0  0  0  # atno 17321 bound_to 7965
  140.7239  143.2616  151.4186 LP  0  0  0  0  0  0  0  0  0  0  0  0  # atno 17342 bound_to 10162
  139.5984  144.1348  152.2170 LP  0  0  0  0  0  0  0  0  0  0  0  0  # atno 17343 bound_to 10162
  156.2315  130.6797  151.1468 LP  0  0  0  0  0  0  0  0  0  0  0  0  # atno 17370 bound_to 10713
  157.7229  131.0670  150.6060 LP  0  0  0  0  0  0  0  0  0  0  0  0  # atno 17371 bound_to 10713
  139.8717  134.9806  156.5083 LP  0  0  0  0  0  0  0  0  0  0  0  0  # atno 17394 bound_to 11000
  140.8491  133.8146  155.9150 LP  0  0  0  0  0  0  0  0  0  0  0  0  # atno 17395 bound_to 11000

$$$$
