#       Name:                AV-unprocessed.smi:1
#       Creating user name   scv26
#       Creation time:       Thu Mar 26 15:12:49 2020


#       File generated by GOLD software.
#

@<TRIPOS>MOLECULE
AV-unprocessed.smi:1
    66    71     1
SMALL
NO_CHARGES


@<TRIPOS>ATOM
      1 ****        -5.3987  -0.3625   0.3902 O.2            1 S1                 0.0000
      2 ****        -5.6381   0.0321  -0.7530 C.2            1 S1                 0.0000
      3 ****        -4.7717   0.5727  -1.6468 N.pl3          1 S1                -1.0000
      4 ****        -3.4687   0.6769  -1.3442 C.ar           1 S1                 0.0000
      5 ****        -2.9595   1.8564  -0.9064 N.ar           1 S1                 0.0000
      6 ****        -1.6557   1.9677  -0.6272 C.ar           1 S1                 0.0000
      7 ****        -0.6945   1.0441  -0.7211 N.ar           1 S1                 0.0000
      8 ****        -1.1932  -0.1482  -1.1614 C.ar           1 S1                 0.0000
      9 ****        -2.5562  -0.4038  -1.4917 C.ar           1 S1                 0.0000
     10 ****        -2.7242  -1.7153  -1.9111 N.2            1 S1                 0.0000
     11 ****        -1.4844  -2.1891  -1.8144 C.2            1 S1                 0.0000
     12 ****        -0.5266  -1.3431  -1.3866 N.pl3          1 S1                 0.0000
     13 ****         0.9255  -1.6456  -1.1992 C.3            1 S1                 0.0000
     14 ****         1.6591  -0.4877  -1.4459 O.3            1 S1                 0.0000
     15 ****         2.8418  -0.5272  -0.6644 C.3            1 S1                 0.0000
     16 ****         3.4685   0.8681  -0.5452 C.3            1 S1                 0.0000
     17 ****         4.6913   0.7656   0.1718 O.3            1 S1                 0.0000
     18 ****         5.0027   1.6421   1.1501 C.2            1 S1                 0.0000
     19 ****         4.2920   2.5967   1.4706 O.2            1 S1                 0.0000
     20 ****         6.3073   1.3352   1.8052 C.ar           1 S1                 0.0000
     21 ****         6.8073   2.2104   2.7977 C.ar           1 S1                 0.0000
     22 ****         8.0348   1.9459   3.4357 C.ar           1 S1                 0.0000
     23 ****         8.7767   0.8014   3.0905 C.ar           1 S1                 0.0000
     24 ****         8.2901  -0.0777   2.1056 C.ar           1 S1                 0.0000
     25 ****         7.0634   0.1861   1.4653 C.ar           1 S1                 0.0000
     26 ****         2.3845  -1.1554   0.6541 C.3            1 S1                 0.0000
     27 ****         1.8519  -0.1842   1.5377 O.3            1 S1                 0.0000
     28 ****         0.4938  -0.8279   2.2601 S.o2           1 S1                 0.0000
     29 ****         0.9141  -1.5017   3.4984 O.2            1 S1                 0.0000
     30 ****        -0.5774   0.1789   2.2349 O.2            1 S1                 0.0000
     31 ****         0.1549  -2.0036   1.1236 O.3            1 S1                 0.0000
     32 ****         1.2567  -2.1128   0.2321 C.3            1 S1                 0.0000
     33 ****        -7.0580  -0.0080  -1.2530 C.ar           1 S1                 0.0000
     34 ****        -8.1246   0.2226  -0.3542 C.ar           1 S1                 0.0000
     35 ****        -9.4605   0.1650  -0.7973 C.ar           1 S1                 0.0000
     36 ****        -9.7452  -0.1327  -2.1430 C.ar           1 S1                 0.0000
     37 ****        -8.6927  -0.3782  -3.0443 C.ar           1 S1                 0.0000
     38 ****        -7.3566  -0.3210  -2.6020 C.ar           1 S1                 0.0000
     39 ****        -1.3352   2.9396  -0.2827 H              1 S1                 0.0000
     40 ****        -1.2583  -3.2141  -2.0692 H              1 S1                 0.0000
     41 ****         1.1560  -2.3996  -1.9532 H              1 S1                 0.0000
     42 ****         3.5398  -1.2033  -1.1617 H              1 S1                 0.0000
     43 ****         3.6814   1.2679  -1.5368 H              1 S1                 0.0000
     44 ****         2.7603   1.5516  -0.0751 H              1 S1                 0.0000
     45 ****         6.2554   3.0955   3.0799 H              1 S1                 0.0000
     46 ****         8.4070   2.6224   4.1910 H              1 S1                 0.0000
     47 ****         9.7175   0.5981   3.5804 H              1 S1                 0.0000
     48 ****         8.8586  -0.9569   1.8400 H              1 S1                 0.0000
     49 ****         6.7185  -0.5107   0.7155 H              1 S1                 0.0000
     50 ****         3.1985  -1.6757   1.1599 H              1 S1                 0.0000
     51 ****         1.6054  -3.1450   0.1902 H              1 S1                 0.0000
     52 ****        -7.9236   0.4512   0.6825 H              1 S1                 0.0000
     53 ****       -10.2671   0.3492  -0.1032 H              1 S1                 0.0000
     54 ****       -10.7693  -0.1768  -2.4827 H              1 S1                 0.0000
     55 ****        -8.9090  -0.6135  -4.0759 H              1 S1                 0.0000
     56 ****        -6.5641  -0.5229  -3.3082 H              1 S1                 0.0000
     57 ****        -4.4701  -0.3011   0.7561 LP             1 S1                 0.0000
     58 ****        -6.1332  -0.7439   0.9515 LP             1 S1                 0.0000
     59 ****        -5.1053   0.8942  -2.5331 LP             1 S1                 0.0000
     60 ****        -3.5619   2.6464  -0.7920 LP             1 S1                 0.0000
     61 ****         0.2667   1.2055  -0.4976 LP             1 S1                 0.0000
     62 ****        -3.5575  -2.1818  -2.2079 LP             1 S1                 0.0000
     63 ****         1.1167   0.3145  -1.1962 LP             1 S1                 0.0000
     64 ****         1.8975  -0.4400  -2.4159 LP             1 S1                 0.0000
     65 ****         3.4268   2.7576   0.9956 LP             1 S1                 0.0000
     66 ****         4.5805   3.2104   2.2055 LP             1 S1                 0.0000
@<TRIPOS>BOND
    1    1    2 2     
    2    2    3 1     
    3    2   33 1     
    4    3    4 1     
    5    4    9 ar    
    6    4    5 ar    
    7    5    6 ar    
    8    6    7 ar    
    9    6   39 1     
   10    7    8 ar    
   11    8   12 1     
   12    8    9 ar    
   13    9   10 1     
   14   10   11 2     
   15   11   12 1     
   16   11   40 1     
   17   12   13 1     
   18   13   32 1     
   19   13   14 1     
   20   13   41 1     
   21   14   15 1     
   22   15   16 1     
   23   15   26 1     
   24   15   42 1     
   25   16   17 1     
   26   16   43 1     
   27   16   44 1     
   28   17   18 1     
   29   18   19 2     
   30   18   20 1     
   31   20   25 ar    
   32   20   21 ar    
   33   21   22 ar    
   34   21   45 1     
   35   22   23 ar    
   36   22   46 1     
   37   23   24 ar    
   38   23   47 1     
   39   24   25 ar    
   40   24   48 1     
   41   25   49 1     
   42   26   32 1     
   43   26   27 1     
   44   26   50 1     
   45   27   28 1     
   46   28   29 2     
   47   28   30 2     
   48   28   31 1     
   49   31   32 1     
   50   32   51 1     
   51   33   38 ar    
   52   33   34 ar    
   53   34   35 ar    
   54   34   52 1     
   55   35   36 ar    
   56   35   53 1     
   57   36   37 ar    
   58   36   54 1     
   59   37   38 ar    
   60   37   55 1     
   61   38   56 1     
   62    1   57 1     
   63    1   58 1     
   64    3   59 1     
   65    5   60 1     
   66    7   61 1     
   67   10   62 1     
   68   14   63 1     
   69   14   64 1     
   70   19   65 1     
   71   19   66 1     
@<TRIPOS>SUBSTRUCTURE
      1 S1             1
@<TRIPOS>SET
LONE_PAIRS      STATIC     ATOMS    <user>   **** ""
12 57 58 59 60 61 62 63 64 65 66 29 30
ATOM$BLUE        STATIC     ATOMS    COLORGROUP SYSTEM
12 57 58 59 60 61 62 63 64 65 66 29 30
