AV-unprocessed.smi:1475|AV-procd|sdf|5977|dock6
  -GOLD-   22720 6 73D 1   1.00000     0.00000
 Structure written by MMmdl.
 50 51  0  0  0  0  0  0  0  0  2 V2000
  151.8649  141.4628  157.8263 C   0  0  0  0  0  0  0  0  0  0  0  0
  151.1753  140.8197  156.6596 C   0  0  0  0  0  0  0  0  0  0  0  0
  149.9668  141.2166  156.0223 C   0  0  0  0  0  0  0  0  0  0  0  0
  149.7927  140.2984  155.0254 C   0  0  0  0  0  0  0  0  0  0  0  0
  148.7072  140.1787  154.0063 C   0  0  0  0  0  0  0  0  0  0  0  0
  150.8587  139.4188  155.0999 N   0  0  0  0  0  0  0  0  0  0  0  0
  151.1594  138.2669  154.2649 C   0  0  0  0  0  0  0  0  0  0  0  0
  151.0550  136.9686  155.0660 C   0  0  0  0  0  0  0  0  0  0  0  0
  151.8774  136.7187  155.9469 O   0  0  0  0  0  0  0  0  0  0  0  0
  150.0355  136.1531  154.7549 N   0  0  0  0  0  0  0  0  0  0  0  0
  149.7354  134.8949  155.4272 C   0  0  0  0  0  0  0  0  0  0  0  0
  148.7850  134.0132  154.5922 C   0  0  0  0  0  0  0  0  0  0  0  0
  148.8990  132.5720  154.9289 N   0  3  1  0  0  0  0  0  0  0  0  0
  148.2102  131.7118  153.9313 C   0  0  0  0  0  0  0  0  0  0  0  0
  148.2014  130.2314  154.3601 C   0  0  2  0  0  0  0  0  0  0  0  0
  147.2300  129.9694  155.5243 C   0  0  0  0  0  0  0  0  0  0  0  0
  149.6329  129.7441  154.6505 C   0  0  0  0  0  0  0  0  0  0  0  0
  150.3598  130.6701  155.6423 C   0  0  1  0  0  0  0  0  0  0  0  0
  151.8075  130.2143  155.8743 C   0  0  0  0  0  0  0  0  0  0  0  0
  150.3018  132.1298  155.1517 C   0  0  0  0  0  0  0  0  0  0  0  0
  151.7048  139.7429  156.1025 N   0  0  0  0  0  0  0  0  0  0  0  0
  151.2943  142.3127  158.2014 H   0  0  0  0  0  0  0  0  0  0  0  0
  152.8543  141.8253  157.5465 H   0  0  0  0  0  0  0  0  0  0  0  0
  151.9874  140.7572  158.6484 H   0  0  0  0  0  0  0  0  0  0  0  0
  149.3245  142.0514  156.2607 H   0  0  0  0  0  0  0  0  0  0  0  0
  147.9928  140.9967  154.1003 H   0  0  0  0  0  0  0  0  0  0  0  0
  148.1614  139.2429  154.1275 H   0  0  0  0  0  0  0  0  0  0  0  0
  149.1146  140.2073  152.9958 H   0  0  0  0  0  0  0  0  0  0  0  0
  150.4733  138.2448  153.4165 H   0  0  0  0  0  0  0  0  0  0  0  0
  152.1644  138.3721  153.8546 H   0  0  0  0  0  0  0  0  0  0  0  0
  149.4038  136.4450  154.0224 H   0  0  0  0  0  0  0  0  0  0  0  0
  150.6741  134.3853  155.6452 H   0  0  0  0  0  0  0  0  0  0  0  0
  149.2775  135.1273  156.3891 H   0  0  0  0  0  0  0  0  0  0  0  0
  147.7642  134.3470  154.7843 H   0  0  0  0  0  0  0  0  0  0  0  0
  148.9552  134.1479  153.5230 H   0  0  0  0  0  0  0  0  0  0  0  0
  147.1842  132.0528  153.7866 H   0  0  0  0  0  0  0  0  0  0  0  0
  148.7113  131.8159  152.9675 H   0  0  0  0  0  0  0  0  0  0  0  0
  147.8281  129.6501  153.5159 H   0  0  0  0  0  0  0  0  0  0  0  0
  147.4964  130.5387  156.4146 H   0  0  0  0  0  0  0  0  0  0  0  0
  147.2195  128.9134  155.7958 H   0  0  0  0  0  0  0  0  0  0  0  0
  146.2111  130.2456  155.2510 H   0  0  0  0  0  0  0  0  0  0  0  0
  149.6130  128.7213  155.0287 H   0  0  0  0  0  0  0  0  0  0  0  0
  150.1929  129.7103  153.7147 H   0  0  0  0  0  0  0  0  0  0  0  0
  149.8474  130.6157  156.6038 H   0  0  0  0  0  0  0  0  0  0  0  0
  152.3873  130.2470  154.9512 H   0  0  0  0  0  0  0  0  0  0  0  0
  151.8413  129.1920  156.2523 H   0  0  0  0  0  0  0  0  0  0  0  0
  152.3083  130.8512  156.6043 H   0  0  0  0  0  0  0  0  0  0  0  0
  150.8693  132.2427  154.2264 H   0  0  0  0  0  0  0  0  0  0  0  0
  150.7843  132.7659  155.8925 H   0  0  0  0  0  0  0  0  0  0  0  0
  148.4060  132.4423  155.8008 H   0  0  0  0  0  0  0  0  0  0  0  0
  1  2  1  0  0  0  0
  1 22  1  0  0  0  0
  1 23  1  0  0  0  0
  1 24  1  0  0  0  0
  2 21  2  0  0  0  0
  2  3  1  0  0  0  0
  3  4  2  0  0  0  0
  3 25  1  0  0  0  0
  4  5  1  0  0  0  0
  4  6  1  0  0  0  0
  5 26  1  0  0  0  0
  5 27  1  0  0  0  0
  5 28  1  0  0  0  0
  6  7  1  0  0  0  0
  6 21  1  0  0  0  0
  7  8  1  0  0  0  0
  7 29  1  0  0  0  0
  7 30  1  0  0  0  0
  8  9  2  0  0  0  0
  8 10  1  0  0  0  0
 10 11  1  0  0  0  0
 10 31  1  0  0  0  0
 11 12  1  0  0  0  0
 11 32  1  0  0  0  0
 11 33  1  0  0  0  0
 12 13  1  0  0  0  0
 12 34  1  0  0  0  0
 12 35  1  0  0  0  0
 13 20  1  0  0  0  0
 13 14  1  0  0  0  0
 13 50  1  0  0  0  0
 14 15  1  0  0  0  0
 14 36  1  0  0  0  0
 14 37  1  0  0  0  0
 15 16  1  0  0  0  0
 15 17  1  0  0  0  0
 15 38  1  0  0  0  0
 16 39  1  0  0  0  0
 16 40  1  0  0  0  0
 16 41  1  0  0  0  0
 17 18  1  0  0  0  0
 17 42  1  0  0  0  0
 17 43  1  0  0  0  0
 18 19  1  0  0  0  0
 18 20  1  0  0  0  0
 18 44  1  0  0  0  0
 19 45  1  0  0  0  0
 19 46  1  0  0  0  0
 19 47  1  0  0  0  0
 20 48  1  0  0  0  0
 20 49  1  0  0  0  0
M  CHG  1  13   1
M  END
> <s_m_source_file>
AV-unprocessed.smi

> <i_m_source_file_index>
1475

> <i_lp_mmshare_version>
43012

> <i_f3d_flags>
0

> <s_epik_input>
W0NIM11jMVtjSF1jKFtDSDNdKW4objEpW0NIMl1DKD1PKVtOSF1bQ0gyXVtDSDJdTjJbQ0gyXVtDQEBIXShbQ0gzXSlbQ0gyXVtDQEBIXShbQ0gzXSlbQ0gyXTI=

> <s_epik_cmdline>
J2VwaWtfcHl0aG9uJywgJy1waCcsICc3LjAnLCAnLXRuJywgJzgnLCAnLW1hJywgJzIwMCcsICctbWV0YWxfYmluZGluZycsICctaW1hZScsICc8aW5maWxlLm1hZT4nLCAnLW9tYWUnLCAnPG91dGZpbGUubWFlPic=

> <r_lp_tautomer_probability>
1

> <r_epik_Ionization_Penalty>
0.00206431

> <r_epik_Ionization_Penalty_Charging>
0.00187095

> <r_epik_Ionization_Penalty_Neutral>
0.000193364

> <r_epik_State_Penalty>
-0

> <r_epik_Charging_Adjusted_Penalty>
0.00187095

> <i_epik_Tot_Q>
1

> <i_epik_Tot_abs_Q>
1

> <r_epik_Metal_State_Penalty>
-0

> <b_epik_Metal_Only>
0

> <s_lp_Force_Field>
OPLS_2005

> <r_lp_Energy>
16.4698

> <b_lp_Chiralities_Consistent>
1

> <s_lp_Variant>
AV-unprocessed.smi:1475-2

> <Gold.Version>
5.8.1

> <Gold.Id.Protein>
6NUR|6NUR_protein|mol2

> <Gold.PLP.Fitness>
41.3576

> <Gold.PLP.PLP>
-37.0176

> <Gold.PLP.part.hbond>
-2.3162

> <Gold.PLP.part.metal>
0.0000

> <Gold.PLP.part.buried>
-1.6974

> <Gold.PLP.part.nonpolar>
-31.8311

> <Gold.PLP.part.repulsive>
0.0925

> <Gold.PLP.ligand.clash>
0.0000

> <Gold.PLP.ligand.torsion>
0.4891

> <Gold.PLP.Chemscore.Hbond>
1.7520

> <Gold.PLP.Chemscore.CHOScore>
0.0000

> <Gold.PLP.Chemscore.Metal>
0.0000

> <Gold.Chemscore.Hbonds>
donor molecule, donor type, donor heavy atom, donor atom, acceptor molecule, acceptor atom, score
      L1  H    10    31       P1  7948  0.51
      P1  H 10752 10765       L1     9  0.75

> <Gold.PLP.Chemscore.Internal.Correction>
0.0622

> <Gold.Rescore>
     Score         DG    S(hbond)    S(metal)    S(lipo)     H(rot)  DE(clash)    DE(int)     intcor
     15.13     -16.03       1.41        0.00      85.79       1.64       0.28       0.62       ----

> <Gold.Chemscore.Fitness>
15.1328

> <Gold.Chemscore.DG>
-16.0277

> <Gold.Chemscore.ZeroCoef>
-5.4800

> <Gold.Chemscore.Hbond>
1.4095

> <Gold.Chemscore.Metal>
0.0000

> <Gold.Chemscore.Lipo>
85.7948

> <Gold.Chemscore.Internal_Hbond>
0.0000

> <Gold.Chemscore.DEClash>
0.2797

> <Gold.Chemscore.DEInternal>
0.6152

> <Gold.Chemscore.Rot>
1.6399

> <Gold.Chemscore.Internal.Correction>
   9.000000E+99

> <Gold.Chemscore.Hbonds>
donor molecule, donor type, donor heavy atom, donor atom, acceptor molecule, acceptor atom, score
      L1  H    10    31       P1  7948  0.43
      P1  H 10752 10765       L1     9  0.09

> <Gold.Chemscore.Hbond.Weighted>
-4.7079

> <Gold.Chemscore.Metal.Weighted>
-0.0000

> <Gold.Chemscore.Lipo.Weighted>
-10.0380

> <Gold.Chemscore.Internal_Hbond.Weighted>
0.0000

> <Gold.Chemscore.DEClash.Weighted>
0.2797

> <Gold.Chemscore.DEInternal.Weighted>
0.6152

> <Gold.Chemscore.Rot.Weighted>
4.1982

> <Gold.Chemscore.Internal.Correction.Weighted>
   9.000000E+99

> <Gold.Protein.RotatedTorsions>
[ 6907 6896 6895 6894 ] final  143.59 input  -60.11 | X-H torsion
[ 7974 7965 7964 7962 ] final  -56.89 input  175.53 | X-H torsion
[ 8008 7997 7996 7995 ] final  -43.58 input   59.86 | X-H torsion
[ 10167 10162 10161 10158 ] final  -13.09 input  -65.29 | X-H torsion
[ 10718 10713 10712 10709 ] final   75.50 input   66.30 | X-H torsion
[ 10763 10752 10751 10750 ] final -168.87 input  -60.55 | X-H torsion
[ 11005 11000 10999 10996 ] final -117.83 input  -57.11 | X-H torsion

> <Gold.Protein.ActiveResidues>
 VAL166  LYS551  ARG553  GLY616  TRP617  ASP618  TYR619  PRO620  LYS621  CYS622 
 ASP623  PHE694  ASN695  SER759  ASP760  ASP761  ALA762  ILE779  LEU786  VAL792 
 PHE793  MET794  SER795  GLU796  ALA797  LYS798  CYS799  TRP800  GLU811  SER814 

> <Gold.Protein.RotatedAtoms>
  152.2043  133.4864  159.5075 H   0  0  0  0  0  0  0  0  0  0  0  0  # atno 6907 bound_to 6896
  150.6976  134.1550  159.4163 H   0  0  0  0  0  0  0  0  0  0  0  0  # atno 6908 bound_to 6896
  151.9468  135.0188  160.0590 H   0  0  0  0  0  0  0  0  0  0  0  0  # atno 6909 bound_to 6896
  145.8574  140.8310  142.9954 H   0  0  0  0  0  0  0  0  0  0  0  0  # atno 7974 bound_to 7965
  154.3997  140.1444  156.3542 H   0  0  0  0  0  0  0  0  0  0  0  0  # atno 8008 bound_to 7997
  155.8241  140.3468  155.5511 H   0  0  0  0  0  0  0  0  0  0  0  0  # atno 8009 bound_to 7997
  155.8257  140.0904  157.1813 H   0  0  0  0  0  0  0  0  0  0  0  0  # atno 8010 bound_to 7997
  140.7175  143.5463  150.9352 H   0  0  0  0  0  0  0  0  0  0  0  0  # atno 10167 bound_to 10162
  157.6636  130.9729  150.1363 H   0  0  0  0  0  0  0  0  0  0  0  0  # atno 10718 bound_to 10713
  154.6583  135.2921  154.9899 H   0  0  0  0  0  0  0  0  0  0  0  0  # atno 10763 bound_to 10752
  154.0968  135.6582  153.4865 H   0  0  0  0  0  0  0  0  0  0  0  0  # atno 10764 bound_to 10752
  153.0415  135.5233  154.7522 H   0  0  0  0  0  0  0  0  0  0  0  0  # atno 10765 bound_to 10752
  141.0328  133.9956  157.3117 H   0  0  0  0  0  0  0  0  0  0  0  0  # atno 11005 bound_to 11000
  144.6727  140.1044  143.7459 LP  0  0  0  0  0  0  0  0  0  0  0  0  # atno 17320 bound_to 7965
  145.9288  139.2593  143.1337 LP  0  0  0  0  0  0  0  0  0  0  0  0  # atno 17321 bound_to 7965
  139.9186  143.6633  152.3101 LP  0  0  0  0  0  0  0  0  0  0  0  0  # atno 17342 bound_to 10162
  139.7042  144.7630  151.1222 LP  0  0  0  0  0  0  0  0  0  0  0  0  # atno 17343 bound_to 10162
  156.2197  130.3673  149.8571 LP  0  0  0  0  0  0  0  0  0  0  0  0  # atno 17370 bound_to 10713
  156.6427  130.8711  151.3517 LP  0  0  0  0  0  0  0  0  0  0  0  0  # atno 17371 bound_to 10713
  139.9219  135.0200  156.8096 LP  0  0  0  0  0  0  0  0  0  0  0  0  # atno 17394 bound_to 11000
  140.6377  133.9847  155.7692 LP  0  0  0  0  0  0  0  0  0  0  0  0  # atno 17395 bound_to 11000

$$$$
