AV-unprocessed.smi:2021|AV-procd|sdf|8180|dock10
  -GOLD-   2272010433D 1   1.00000     0.00000
 Structure written by MMmdl.
 41 42  0  0  0  0  0  0  0  0  1 V2000
  151.9391  141.5761  159.3667 C   0  0  0  0  0  0  0  0  0  0  0  0
  152.1206  142.5364  158.1807 C   0  0  0  0  0  0  0  0  0  0  0  0
  152.3542  143.9666  158.6970 C   0  0  0  0  0  0  0  0  0  0  0  0
  150.9129  142.4640  157.2169 C   0  0  0  0  0  0  0  0  0  0  0  0
  150.6581  141.1519  156.6202 N   0  0  0  0  0  0  0  0  0  0  0  0
  151.8736  140.5009  156.1386 C   0  0  0  0  0  0  0  0  0  0  0  0
  151.5764  139.1415  155.4838 C   0  0  0  0  0  0  0  0  0  0  0  0
  150.6320  139.3137  154.4330 O   0  0  0  0  0  0  0  0  0  0  0  0
  149.4051  139.8875  154.8784 C   0  0  2  0  0  0  0  0  0  0  0  0
  148.4565  140.0107  153.6735 C   0  0  0  0  0  0  0  0  0  0  0  0
  147.8979  138.7178  153.2929 N   0  0  0  0  0  0  0  0  0  0  0  0
  146.6649  138.2916  153.6008 C   0  0  0  0  0  0  0  0  0  0  0  0
  145.8487  138.9708  154.2234 O   0  0  0  0  0  0  0  0  0  0  0  0
  146.4543  137.0457  153.1469 N   0  0  0  0  0  0  0  0  0  0  0  0
  145.2942  136.2461  153.3015 C   0  0  0  0  0  0  0  0  0  0  0  0
  144.2214  136.8006  153.8785 N   0  0  0  0  0  0  0  0  0  0  0  0
  143.1574  135.9109  153.9623 N   0  0  0  0  0  0  0  0  0  0  0  0
  143.4700  134.7188  153.4452 C   0  0  0  0  0  0  0  0  0  0  0  0
  145.0958  134.5629  152.8041 S   0  0  0  0  0  0  0  0  0  0  0  0
  149.7072  141.2566  155.5182 C   0  0  0  0  0  0  0  0  0  0  0  0
  151.0532  141.8280  159.9504 H   0  0  0  0  0  0  0  0  0  0  0  0
  152.7995  141.6090  160.0357 H   0  0  0  0  0  0  0  0  0  0  0  0
  151.8315  140.5461  159.0251 H   0  0  0  0  0  0  0  0  0  0  0  0
  153.0167  142.2126  157.6494 H   0  0  0  0  0  0  0  0  0  0  0  0
  151.5006  144.3216  159.2753 H   0  0  0  0  0  0  0  0  0  0  0  0
  152.5140  144.6711  157.8819 H   0  0  0  0  0  0  0  0  0  0  0  0
  153.2319  144.0118  159.3421 H   0  0  0  0  0  0  0  0  0  0  0  0
  150.0210  142.7513  157.7756 H   0  0  0  0  0  0  0  0  0  0  0  0
  151.0110  143.2183  156.4345 H   0  0  0  0  0  0  0  0  0  0  0  0
  152.3800  141.1465  155.4195 H   0  0  0  0  0  0  0  0  0  0  0  0
  152.5670  140.3413  156.9635 H   0  0  0  0  0  0  0  0  0  0  0  0
  152.4897  138.7091  155.0753 H   0  0  0  0  0  0  0  0  0  0  0  0
  151.1881  138.4350  156.2190 H   0  0  0  0  0  0  0  0  0  0  0  0
  148.9560  139.2343  155.6289 H   0  0  0  0  0  0  0  0  0  0  0  0
  147.6485  140.7100  153.8956 H   0  0  0  0  0  0  0  0  0  0  0  0
  148.9917  140.4197  152.8162 H   0  0  0  0  0  0  0  0  0  0  0  0
  148.5049  138.0946  152.7811 H   0  0  0  0  0  0  0  0  0  0  0  0
  147.2155  136.6128  152.6453 H   0  0  0  0  0  0  0  0  0  0  0  0
  142.7370  133.9256  153.4406 H   0  0  0  0  0  0  0  0  0  0  0  0
  148.7761  141.6967  155.8774 H   0  0  0  0  0  0  0  0  0  0  0  0
  150.0981  141.9344  154.7573 H   0  0  0  0  0  0  0  0  0  0  0  0
  1  2  1  0  0  0  0
  1 21  1  0  0  0  0
  1 22  1  0  0  0  0
  1 23  1  0  0  0  0
  2  3  1  0  0  0  0
  2  4  1  0  0  0  0
  2 24  1  0  0  0  0
  3 25  1  0  0  0  0
  3 26  1  0  0  0  0
  3 27  1  0  0  0  0
  4  5  1  0  0  0  0
  4 28  1  0  0  0  0
  4 29  1  0  0  0  0
  5 20  1  0  0  0  0
  5  6  1  0  0  0  0
  6  7  1  0  0  0  0
  6 30  1  0  0  0  0
  6 31  1  0  0  0  0
  7  8  1  0  0  0  0
  7 32  1  0  0  0  0
  7 33  1  0  0  0  0
  8  9  1  0  0  0  0
  9 10  1  0  0  0  0
  9 20  1  0  0  0  0
  9 34  1  0  0  0  0
 10 11  1  0  0  0  0
 10 35  1  0  0  0  0
 10 36  1  0  0  0  0
 11 12  1  0  0  0  0
 11 37  1  0  0  0  0
 12 13  2  0  0  0  0
 12 14  1  0  0  0  0
 14 15  1  0  0  0  0
 14 38  1  0  0  0  0
 15 19  1  0  0  0  0
 15 16  2  0  0  0  0
 16 17  1  0  0  0  0
 17 18  2  0  0  0  0
 18 19  1  0  0  0  0
 18 39  1  0  0  0  0
 20 40  1  0  0  0  0
 20 41  1  0  0  0  0
M  END
> <s_m_source_file>
AV-unprocessed.smi

> <i_m_source_file_index>
2021

> <i_lp_mmshare_version>
43012

> <i_f3d_flags>
0

> <s_epik_input>
W0NIM11bQ0hdKFtDSDNdKVtDSDJdTjFbQ0gyXVtDSDJdT1tDQEhdKFtDSDJdMSlbQ0gyXVtOSF1DKD1PKVtOSF1jMm5uW2NIXXMy

> <s_epik_cmdline>
J2VwaWtfcHl0aG9uJywgJy1waCcsICc3LjAnLCAnLXRuJywgJzgnLCAnLW1hJywgJzIwMCcsICctbWV0YWxfYmluZGluZycsICctaW1hZScsICc8aW5maWxlLm1hZT4nLCAnLW9tYWUnLCAnPG91dGZpbGUubWFlPic=

> <r_lp_tautomer_probability>
1

> <r_epik_Ionization_Penalty>
1.11451

> <r_epik_Ionization_Penalty_Charging>
0

> <r_epik_Ionization_Penalty_Neutral>
1.11451

> <r_epik_State_Penalty>
1.17021

> <r_epik_Charging_Adjusted_Penalty>
1.17021

> <i_epik_Tot_Q>
0

> <i_epik_Tot_abs_Q>
0

> <r_epik_Metal_State_Penalty>
1.53642

> <b_epik_Metal_Only>
0

> <s_lp_Force_Field>
OPLS_2005

> <r_lp_Energy>
23.4775

> <b_lp_Chiralities_Consistent>
1

> <s_lp_Variant>
AV-unprocessed.smi:2021-6

> <Gold.Version>
5.8.1

> <Gold.Id.Protein>
6NUR|6NUR_protein|mol2

> <Gold.PLP.Fitness>
38.7699

> <Gold.PLP.PLP>
-27.9545

> <Gold.PLP.part.hbond>
-4.0000

> <Gold.PLP.part.metal>
0.0000

> <Gold.PLP.part.buried>
-2.7794

> <Gold.PLP.part.nonpolar>
-23.8000

> <Gold.PLP.part.repulsive>
0.5027

> <Gold.PLP.ligand.clash>
0.0000

> <Gold.PLP.ligand.torsion>
0.3470

> <Gold.PLP.Chemscore.Hbond>
2.8280

> <Gold.PLP.Chemscore.CHOScore>
0.9908

> <Gold.PLP.Chemscore.Metal>
0.0000

> <Gold.Chemscore.Hbonds>
donor molecule, donor type, donor heavy atom, donor atom, acceptor molecule, acceptor atom, score
      L1  H    11    37       P1  7948  0.83
      L1  H    14    38       P1  7948  1.00
      P1  H  7989  7998       L1     8  0.73
      L1  C    18    39       P1 10957  0.98

> <Gold.PLP.Chemscore.Internal.Correction>
0.0530

> <Gold.Rescore>
     Score         DG    S(hbond)    S(metal)    S(lipo)     H(rot)  DE(clash)    DE(int)     intcor
     13.71     -17.29       2.06        0.00      82.47       1.84       1.64       1.94       ----

> <Gold.Chemscore.Fitness>
13.7106

> <Gold.Chemscore.DG>
-17.2852

> <Gold.Chemscore.ZeroCoef>
-5.4800

> <Gold.Chemscore.Hbond>
2.0569

> <Gold.Chemscore.Metal>
0.0000

> <Gold.Chemscore.Lipo>
82.4710

> <Gold.Chemscore.Internal_Hbond>
0.0000

> <Gold.Chemscore.DEClash>
1.6389

> <Gold.Chemscore.DEInternal>
1.9357

> <Gold.Chemscore.Rot>
1.8413

> <Gold.Chemscore.Internal.Correction>
   9.000000E+99

> <Gold.Chemscore.Hbonds>
donor molecule, donor type, donor heavy atom, donor atom, acceptor molecule, acceptor atom, score
      L1  H    11    37       P1  7948  0.78
      L1  H    14    38       P1  7948  0.99
      P1  H  7989  7998       L1     8  0.05

> <Gold.Chemscore.Hbond.Weighted>
-6.8700

> <Gold.Chemscore.Metal.Weighted>
-0.0000

> <Gold.Chemscore.Lipo.Weighted>
-9.6491

> <Gold.Chemscore.Internal_Hbond.Weighted>
0.0000

> <Gold.Chemscore.DEClash.Weighted>
1.6389

> <Gold.Chemscore.DEInternal.Weighted>
1.9357

> <Gold.Chemscore.Rot.Weighted>
4.7138

> <Gold.Chemscore.Internal.Correction.Weighted>
   9.000000E+99

> <Gold.Protein.RotatedTorsions>
[ 6907 6896 6895 6894 ] final   83.73 input  -60.11 | X-H torsion
[ 7974 7965 7964 7962 ] final  165.19 input  175.53 | X-H torsion
[ 8008 7997 7996 7995 ] final   64.28 input   59.86 | X-H torsion
[ 10167 10162 10161 10158 ] final -112.71 input  -65.29 | X-H torsion
[ 10718 10713 10712 10709 ] final  161.29 input   66.30 | X-H torsion
[ 10763 10752 10751 10750 ] final  -58.25 input  -60.55 | X-H torsion
[ 11005 11000 10999 10996 ] final   36.08 input  -57.11 | X-H torsion

> <Gold.Protein.ActiveResidues>
 VAL166  LYS551  ARG553  GLY616  TRP617  ASP618  TYR619  PRO620  LYS621  CYS622 
 ASP623  PHE694  ASN695  SER759  ASP760  ASP761  ALA762  ILE779  LEU786  VAL792 
 PHE793  MET794  SER795  GLU796  ALA797  LYS798  CYS799  TRP800  GLU811  SER814 

> <Gold.Protein.RotatedAtoms>
  152.5335  134.2849  159.9021 H   0  0  0  0  0  0  0  0  0  0  0  0  # atno 6907 bound_to 6896
  151.2803  133.4206  159.2634 H   0  0  0  0  0  0  0  0  0  0  0  0  # atno 6908 bound_to 6896
  151.0290  134.9540  159.8157 H   0  0  0  0  0  0  0  0  0  0  0  0  # atno 6909 bound_to 6896
  144.7513  139.8435  143.6365 H   0  0  0  0  0  0  0  0  0  0  0  0  # atno 7974 bound_to 7965
  155.6435  140.3497  155.4723 H   0  0  0  0  0  0  0  0  0  0  0  0  # atno 8008 bound_to 7997
  155.9906  140.1193  157.0665 H   0  0  0  0  0  0  0  0  0  0  0  0  # atno 8009 bound_to 7997
  154.4218  140.1120  156.5547 H   0  0  0  0  0  0  0  0  0  0  0  0  # atno 8010 bound_to 7997
  140.1198  143.4453  152.1698 H   0  0  0  0  0  0  0  0  0  0  0  0  # atno 10167 bound_to 10162
  157.1386  131.0535  151.2337 H   0  0  0  0  0  0  0  0  0  0  0  0  # atno 10718 bound_to 10713
  154.2352  135.6353  153.5188 H   0  0  0  0  0  0  0  0  0  0  0  0  # atno 10763 bound_to 10752
  152.9941  135.5529  154.5970 H   0  0  0  0  0  0  0  0  0  0  0  0  # atno 10764 bound_to 10752
  154.5462  135.2898  155.1024 H   0  0  0  0  0  0  0  0  0  0  0  0  # atno 10765 bound_to 10752
  140.2362  134.3469  155.7944 H   0  0  0  0  0  0  0  0  0  0  0  0  # atno 11005 bound_to 11000
  146.1466  139.4537  143.0075 LP  0  0  0  0  0  0  0  0  0  0  0  0  # atno 17320 bound_to 7965
  145.6935  141.0157  143.1542 LP  0  0  0  0  0  0  0  0  0  0  0  0  # atno 17321 bound_to 7965
  139.5575  144.7383  151.4252 LP  0  0  0  0  0  0  0  0  0  0  0  0  # atno 17342 bound_to 10162
  140.6878  143.7932  150.7212 LP  0  0  0  0  0  0  0  0  0  0  0  0  # atno 17343 bound_to 10162
  157.4327  130.7500  149.7003 LP  0  0  0  0  0  0  0  0  0  0  0  0  # atno 17370 bound_to 10713
  155.9793  130.4041  150.3596 LP  0  0  0  0  0  0  0  0  0  0  0  0  # atno 17371 bound_to 10713
  141.2214  133.7273  156.8811 LP  0  0  0  0  0  0  0  0  0  0  0  0  # atno 17394 bound_to 11000
  140.1700  134.9106  157.2821 LP  0  0  0  0  0  0  0  0  0  0  0  0  # atno 17395 bound_to 11000

$$$$
