#       Name:                AV-unprocessed.smi:512
#       Creating user name   scv26
#       Creation time:       Thu Mar 26 23:23:47 2020


#       File generated by GOLD software.
#

@<TRIPOS>MOLECULE
AV-unprocessed.smi:512
    56    58     1
SMALL
NO_CHARGES


@<TRIPOS>ATOM
      1 ****        -3.6322   5.1269   0.8655 C.3            1 S1                 0.0000
      2 ****        -3.3489   3.6622   1.2067 C.3            1 S1                 0.0000
      3 ****        -1.9938   3.3742   0.9068 O.3            1 S1                 0.0000
      4 ****        -1.6463   2.0286   1.1857 C.3            1 S1                 0.0000
      5 ****        -0.1613   1.8240   0.8614 C.3            1 S1                 0.0000
      6 ****         0.2522   0.4418   1.0943 N.pl3          1 S1                 0.0000
      7 ****         0.3600  -0.5715   0.1935 C.2            1 S1                 0.0000
      8 ****         0.1328  -0.3801  -1.1694 N.pl3          1 S1                 0.0000
      9 ****         0.9428   0.4744  -2.0353 C.3            1 S1                 0.0000
     10 ****         1.9204  -0.3570  -2.8870 C.3            1 S1                 0.0000
     11 ****         1.1981  -1.3781  -3.6832 N.4            1 S1                 1.0000
     12 ****         2.1028  -2.1921  -4.5223 C.3            1 S1                 0.0000
     13 ****         0.3050  -2.2050  -2.8375 C.3            1 S1                 0.0000
     14 ****        -0.6254  -1.3117  -1.9987 C.3            1 S1                 0.0000
     15 ****         0.6804  -1.7553   0.7190 N.2            1 S1                 0.0000
     16 ****         0.8220  -1.4664   2.0679 C.2            1 S1                 0.0000
     17 ****         0.5709  -0.1535   2.3188 C.2            1 S1                 0.0000
     18 ****         0.6229   0.4509   3.6680 C.2            1 S1                 0.0000
     19 ****         0.3820   1.6443   3.8379 O.2            1 S1                 0.0000
     20 ****         0.9565  -0.4648   4.6318 N.pl3          1 S1                -1.0000
     21 ****         1.2197  -1.8018   4.4232 C.2            1 S1                 0.0000
     22 ****         1.5094  -2.5597   5.3498 O.2            1 S1                 0.0000
     23 ****         1.1603  -2.3175   3.1549 N.am           1 S1                 0.0000
     24 ****         1.4335  -3.7352   2.9030 C.3            1 S1                 0.0000
     25 ****        -4.6682   5.3845   1.0854 H              1 S1                 0.0000
     26 ****        -3.4552   5.3235  -0.1920 H              1 S1                 0.0000
     27 ****        -2.9917   5.7937   1.4429 H              1 S1                 0.0000
     28 ****        -3.5468   3.4825   2.2644 H              1 S1                 0.0000
     29 ****        -4.0089   3.0115   0.6312 H              1 S1                 0.0000
     30 ****        -1.8430   1.7999   2.2338 H              1 S1                 0.0000
     31 ****        -2.2568   1.3551   0.5821 H              1 S1                 0.0000
     32 ****         0.0150   2.1045  -0.1733 H              1 S1                 0.0000
     33 ****         0.4631   2.4908   1.4549 H              1 S1                 0.0000
     34 ****         0.2874   1.0691  -2.6729 H              1 S1                 0.0000
     35 ****         1.5193   1.1761  -1.4329 H              1 S1                 0.0000
     36 ****         2.4811   0.2991  -3.5536 H              1 S1                 0.0000
     37 ****         2.6469  -0.8501  -2.2387 H              1 S1                 0.0000
     38 ****         2.7885  -2.7763  -3.9072 H              1 S1                 0.0000
     39 ****         2.6926  -1.5546  -5.1818 H              1 S1                 0.0000
     40 ****         1.5321  -2.8803  -5.1468 H              1 S1                 0.0000
     41 ****        -0.2877  -2.8682  -3.4685 H              1 S1                 0.0000
     42 ****         0.9043  -2.8382  -2.1810 H              1 S1                 0.0000
     43 ****        -1.2603  -1.9300  -1.3630 H              1 S1                 0.0000
     44 ****        -1.2963  -0.7481  -2.6485 H              1 S1                 0.0000
     45 ****         0.6983  -4.3601   3.4114 H              1 S1                 0.0000
     46 ****         2.4238  -4.0065   3.2703 H              1 S1                 0.0000
     47 ****         1.4017  -3.9881   1.8440 H              1 S1                 0.0000
     48 ****         0.5967  -0.8696  -4.3156 H              1 S1                 0.0000
     49 ****        -1.4104   3.9752   1.4532 LP             1 S1                 0.0000
     50 ****        -1.8367   3.5505  -0.0649 LP             1 S1                 0.0000
     51 ****         0.7911  -2.6340   0.2547 LP             1 S1                 0.0000
     52 ****         0.1463   2.2230   3.0571 LP             1 S1                 0.0000
     53 ****         0.4217   2.0366   4.7569 LP             1 S1                 0.0000
     54 ****         1.0143  -0.1323   5.5732 LP             1 S1                 0.0000
     55 ****         1.5589  -2.2096   6.2852 LP             1 S1                 0.0000
     56 ****         1.6951  -3.5251   5.1667 LP             1 S1                 0.0000
@<TRIPOS>BOND
    1    1    2 1     
    2    1   25 1     
    3    1   26 1     
    4    1   27 1     
    5    2    3 1     
    6    2   28 1     
    7    2   29 1     
    8    3    4 1     
    9    4    5 1     
   10    4   30 1     
   11    4   31 1     
   12    5    6 1     
   13    5   32 1     
   14    5   33 1     
   15    6   17 1     
   16    6    7 1     
   17    7    8 1     
   18    7   15 2     
   19    8   14 1     
   20    8    9 1     
   21    9   10 1     
   22    9   34 1     
   23    9   35 1     
   24   10   11 1     
   25   10   36 1     
   26   10   37 1     
   27   11   12 1     
   28   11   13 1     
   29   11   48 1     
   30   12   38 1     
   31   12   39 1     
   32   12   40 1     
   33   13   14 1     
   34   13   41 1     
   35   13   42 1     
   36   14   43 1     
   37   14   44 1     
   38   15   16 1     
   39   16   23 1     
   40   16   17 2     
   41   17   18 1     
   42   18   19 2     
   43   18   20 1     
   44   20   21 1     
   45   21   22 2     
   46   21   23 am    
   47   23   24 1     
   48   24   45 1     
   49   24   46 1     
   50   24   47 1     
   51    3   49 1     
   52    3   50 1     
   53   15   51 1     
   54   19   52 1     
   55   19   53 1     
   56   20   54 1     
   57   22   55 1     
   58   22   56 1     
@<TRIPOS>SUBSTRUCTURE
      1 S1             1
@<TRIPOS>SET
LONE_PAIRS      STATIC     ATOMS    <user>   **** ""
8 49 50 51 52 53 54 55 56
DONOR_HYDROGENS      STATIC     ATOMS    <user>   **** ""
1 48
ATOM$BLUE        STATIC     ATOMS    COLORGROUP SYSTEM
8 49 50 51 52 53 54 55 56
ATOM$RED        STATIC     ATOMS    COLORGROUP SYSTEM
1 48
