AV-unprocessed.smi:3045|AV-procd|sdf|11609|dock2
  -GOLD-   2272016593D 1   1.00000     0.00000
 Structure written by MMmdl.
 35 36  0  0  0  0  0  0  0  0  1 V2000
  148.7585  136.1805  156.2502 C   0  0  0  0  0  0  0  0  0  0  0  0
  149.3846  137.1983  155.4174 N   0  0  0  0  0  0  0  0  0  0  0  0
  148.5955  138.2451  154.7919 C   0  0  0  0  0  0  0  0  0  0  0  0
  149.6178  139.2009  154.1383 C   0  0  1  0  0  0  0  0  0  0  0  0
  149.6780  140.5631  154.8470 C   0  0  0  0  0  0  0  0  0  0  0  0
  149.4589  141.5999  154.2191 O   0  0  0  0  0  0  0  0  0  0  0  0
  149.9823  140.5459  156.1537 N   0  0  0  0  0  0  0  0  0  0  0  0
  150.1006  141.7272  156.9996 C   0  0  0  0  0  0  0  0  0  0  0  0
  151.5425  141.9253  157.4944 C   0  0  0  0  0  0  0  0  0  0  0  0
  151.6672  143.1144  158.4257 C   0  0  0  0  0  0  0  0  0  0  0  0
  152.1169  142.9494  159.7520 C   0  0  0  0  0  0  0  0  0  0  0  0
  152.2193  144.0842  160.5793 C   0  0  0  0  0  0  0  0  0  0  0  0
  151.8672  145.3390  160.0429 C   0  0  0  0  0  0  0  0  0  0  0  0
  151.4369  145.5090  158.7741 N   0  0  0  0  0  0  0  0  0  0  0  0
  151.3410  144.4155  157.9876 C   0  0  0  0  0  0  0  0  0  0  0  0
  150.9690  138.4607  154.2166 C   0  0  0  0  0  0  0  0  0  0  0  0
  150.6813  137.2610  155.1036 C   0  0  0  0  0  0  0  0  0  0  0  0
  151.5547  136.4763  155.4702 O   0  0  0  0  0  0  0  0  0  0  0  0
  148.8231  135.2034  155.7704 H   0  0  0  0  0  0  0  0  0  0  0  0
  147.7055  136.4054  156.4213 H   0  0  0  0  0  0  0  0  0  0  0  0
  149.2524  136.1210  157.2206 H   0  0  0  0  0  0  0  0  0  0  0  0
  147.9421  137.8029  154.0387 H   0  0  0  0  0  0  0  0  0  0  0  0
  147.9604  138.7376  155.5307 H   0  0  0  0  0  0  0  0  0  0  0  0
  149.3480  139.3568  153.0922 H   0  0  0  0  0  0  0  0  0  0  0  0
  150.1466  139.6515  156.5926 H   0  0  0  0  0  0  0  0  0  0  0  0
  149.7556  142.6101  156.4585 H   0  0  0  0  0  0  0  0  0  0  0  0
  149.4296  141.6022  157.8499 H   0  0  0  0  0  0  0  0  0  0  0  0
  151.8872  141.0292  158.0122 H   0  0  0  0  0  0  0  0  0  0  0  0
  152.2177  142.0708  156.6501 H   0  0  0  0  0  0  0  0  0  0  0  0
  152.3803  141.9719  160.1288 H   0  0  0  0  0  0  0  0  0  0  0  0
  152.5595  143.9954  161.6003 H   0  0  0  0  0  0  0  0  0  0  0  0
  151.9340  146.2302  160.6492 H   0  0  0  0  0  0  0  0  0  0  0  0
  150.9953  144.5853  156.9783 H   0  0  0  0  0  0  0  0  0  0  0  0
  151.2864  138.1167  153.2319 H   0  0  0  0  0  0  0  0  0  0  0  0
  151.7762  139.0616  154.6390 H   0  0  0  0  0  0  0  0  0  0  0  0
  1  2  1  0  0  0  0
  1 19  1  0  0  0  0
  1 20  1  0  0  0  0
  1 21  1  0  0  0  0
  2 17  1  0  0  0  0
  2  3  1  0  0  0  0
  3  4  1  0  0  0  0
  3 22  1  0  0  0  0
  3 23  1  0  0  0  0
  4  5  1  0  0  0  0
  4 16  1  0  0  0  0
  4 24  1  0  0  0  0
  5  6  2  0  0  0  0
  5  7  1  0  0  0  0
  7  8  1  0  0  0  0
  7 25  1  0  0  0  0
  8  9  1  0  0  0  0
  8 26  1  0  0  0  0
  8 27  1  0  0  0  0
  9 10  1  0  0  0  0
  9 28  1  0  0  0  0
  9 29  1  0  0  0  0
 10 15  1  0  0  0  0
 10 11  2  0  0  0  0
 11 12  1  0  0  0  0
 11 30  1  0  0  0  0
 12 13  2  0  0  0  0
 12 31  1  0  0  0  0
 13 14  1  0  0  0  0
 13 32  1  0  0  0  0
 14 15  2  0  0  0  0
 15 33  1  0  0  0  0
 16 17  1  0  0  0  0
 16 34  1  0  0  0  0
 16 35  1  0  0  0  0
 17 18  2  0  0  0  0
M  END
> <s_m_source_file>
AV-unprocessed.smi

> <i_m_source_file_index>
3045

> <i_lp_mmshare_version>
43012

> <i_f3d_flags>
0

> <s_epik_input>
W0NIM11OMVtDSDJdW0NASF0oW0NIMl1DMT1PKUMoPU8pW05IXVtDSDJdW0NIMl1jMltjSF1bY0hdW2NIXW5bY0hdMg==

> <s_epik_cmdline>
J2VwaWtfcHl0aG9uJywgJy1waCcsICc3LjAnLCAnLXRuJywgJzgnLCAnLW1hJywgJzIwMCcsICctbWV0YWxfYmluZGluZycsICctaW1hZScsICc8aW5maWxlLm1hZT4nLCAnLW9tYWUnLCAnPG91dGZpbGUubWFlPic=

> <r_epik_Ionization_Penalty>
0.0130932

> <r_epik_Ionization_Penalty_Charging>
0

> <r_epik_Ionization_Penalty_Neutral>
0.0130932

> <r_epik_State_Penalty>
0.0101714

> <r_epik_Charging_Adjusted_Penalty>
0.0101714

> <i_epik_Tot_Q>
0

> <i_epik_Tot_abs_Q>
0

> <r_epik_Metal_State_Penalty>
0.00995082

> <b_epik_Metal_Only>
0

> <s_lp_Force_Field>
OPLS_2005

> <r_lp_Energy>
9.14953

> <b_lp_Chiralities_Consistent>
1

> <s_lp_Variant>
AV-unprocessed.smi:3045-1

> <Gold.Version>
5.8.1

> <Gold.Id.Protein>
6NUR|6NUR_protein|mol2

> <Gold.PLP.Fitness>
44.2285

> <Gold.PLP.PLP>
-36.7168

> <Gold.PLP.part.hbond>
-3.9287

> <Gold.PLP.part.metal>
0.0000

> <Gold.PLP.part.buried>
-2.3386

> <Gold.PLP.part.nonpolar>
-29.5020

> <Gold.PLP.part.repulsive>
0.4679

> <Gold.PLP.ligand.clash>
0.0000

> <Gold.PLP.ligand.torsion>
0.0225

> <Gold.PLP.Chemscore.Hbond>
1.5148

> <Gold.PLP.Chemscore.CHOScore>
1.0000

> <Gold.PLP.Chemscore.Metal>
0.0000

> <Gold.Chemscore.Hbonds>
donor molecule, donor type, donor heavy atom, donor atom, acceptor molecule, acceptor atom, score
      P1  H  8011  8017       L1     6  0.51
      P1  H 10752 10763       L1    18  1.00
      L1  C    15    33       P1  8028  1.00

> <Gold.PLP.Chemscore.Internal.Correction>
0.0124

> <Gold.Rescore>
     Score         DG    S(hbond)    S(metal)    S(lipo)     H(rot)  DE(clash)    DE(int)     intcor
     16.85     -17.02       1.49        0.00      91.63       1.62       0.14       0.03       ----

> <Gold.Chemscore.Fitness>
16.8530

> <Gold.Chemscore.DG>
-17.0166

> <Gold.Chemscore.ZeroCoef>
-5.4800

> <Gold.Chemscore.Hbond>
1.4866

> <Gold.Chemscore.Metal>
0.0000

> <Gold.Chemscore.Lipo>
91.6324

> <Gold.Chemscore.Internal_Hbond>
0.0000

> <Gold.Chemscore.DEClash>
0.1368

> <Gold.Chemscore.DEInternal>
0.0268

> <Gold.Chemscore.Rot>
1.6210

> <Gold.Chemscore.Internal.Correction>
   9.000000E+99

> <Gold.Chemscore.Hbonds>
donor molecule, donor type, donor heavy atom, donor atom, acceptor molecule, acceptor atom, score
      P1  H  8011  8017       L1     6  0.50
      P1  H 10752 10763       L1    18  1.00

> <Gold.Chemscore.Hbond.Weighted>
-4.9654

> <Gold.Chemscore.Metal.Weighted>
-0.0000

> <Gold.Chemscore.Lipo.Weighted>
-10.7210

> <Gold.Chemscore.Internal_Hbond.Weighted>
0.0000

> <Gold.Chemscore.DEClash.Weighted>
0.1368

> <Gold.Chemscore.DEInternal.Weighted>
0.0268

> <Gold.Chemscore.Rot.Weighted>
4.1498

> <Gold.Chemscore.Internal.Correction.Weighted>
   9.000000E+99

> <Gold.Protein.RotatedTorsions>
[ 6907 6896 6895 6894 ] final  171.52 input  -60.11 | X-H torsion
[ 7974 7965 7964 7962 ] final   82.56 input  175.53 | X-H torsion
[ 8008 7997 7996 7995 ] final  174.97 input   59.86 | X-H torsion
[ 10167 10162 10161 10158 ] final   89.47 input  -65.29 | X-H torsion
[ 10718 10713 10712 10709 ] final    5.62 input   66.30 | X-H torsion
[ 10763 10752 10751 10750 ] final   59.93 input  -60.55 | X-H torsion
[ 11005 11000 10999 10996 ] final -159.49 input  -57.11 | X-H torsion

> <Gold.Protein.ActiveResidues>
 VAL166  LYS551  ARG553  GLY616  TRP617  ASP618  TYR619  PRO620  LYS621  CYS622 
 ASP623  PHE694  ASN695  SER759  ASP760  ASP761  ALA762  ILE779  LEU786  VAL792 
 PHE793  MET794  SER795  GLU796  ALA797  LYS798  CYS799  TRP800  GLU811  SER814 

> <Gold.Protein.RotatedAtoms>
  151.7989  133.3367  159.3520 H   0  0  0  0  0  0  0  0  0  0  0  0  # atno 6907 bound_to 6896
  150.7365  134.5773  159.5930 H   0  0  0  0  0  0  0  0  0  0  0  0  # atno 6908 bound_to 6896
  152.3157  134.7443  160.0377 H   0  0  0  0  0  0  0  0  0  0  0  0  # atno 6909 bound_to 6896
  145.6235  139.2390  143.2125 H   0  0  0  0  0  0  0  0  0  0  0  0  # atno 7974 bound_to 7965
  156.0919  140.1421  156.9580 H   0  0  0  0  0  0  0  0  0  0  0  0  # atno 8008 bound_to 7997
  154.4647  140.0930  156.7036 H   0  0  0  0  0  0  0  0  0  0  0  0  # atno 8009 bound_to 7997
  155.4904  140.3448  155.4356 H   0  0  0  0  0  0  0  0  0  0  0  0  # atno 8010 bound_to 7997
  139.8569  144.6564  150.9103 H   0  0  0  0  0  0  0  0  0  0  0  0  # atno 10167 bound_to 10162
  156.9101  130.5753  149.5647 H   0  0  0  0  0  0  0  0  0  0  0  0  # atno 10718 bound_to 10713
  152.9907  135.5554  154.5791 H   0  0  0  0  0  0  0  0  0  0  0  0  # atno 10763 bound_to 10752
  154.5176  135.2806  155.1292 H   0  0  0  0  0  0  0  0  0  0  0  0  # atno 10764 bound_to 10752
  154.2658  135.6372  153.5344 H   0  0  0  0  0  0  0  0  0  0  0  0  # atno 10765 bound_to 10752
  140.6420  134.4541  157.5233 H   0  0  0  0  0  0  0  0  0  0  0  0  # atno 11005 bound_to 11000
  146.1413  140.7054  142.9366 LP  0  0  0  0  0  0  0  0  0  0  0  0  # atno 17320 bound_to 7965
  144.7222  140.4409  143.7000 LP  0  0  0  0  0  0  0  0  0  0  0  0  # atno 17321 bound_to 7965
  140.7780  143.3778  151.1532 LP  0  0  0  0  0  0  0  0  0  0  0  0  # atno 17342 bound_to 10162
  139.7411  143.8923  152.3050 LP  0  0  0  0  0  0  0  0  0  0  0  0  # atno 17343 bound_to 10162
  156.0540  130.5604  150.9051 LP  0  0  0  0  0  0  0  0  0  0  0  0  # atno 17370 bound_to 10713
  157.5972  131.0942  150.9020 LP  0  0  0  0  0  0  0  0  0  0  0  0  # atno 17371 bound_to 10713
  139.9077  134.8413  156.1645 LP  0  0  0  0  0  0  0  0  0  0  0  0  # atno 17394 bound_to 11000
  141.0600  133.6846  156.1934 LP  0  0  0  0  0  0  0  0  0  0  0  0  # atno 17395 bound_to 11000

$$$$
