#       Name:                AV-unprocessed.smi:3274
#       Creating user name   scv26
#       Creation time:       Fri Mar 27 18:44:07 2020


#       File generated by GOLD software.
#

@<TRIPOS>MOLECULE
AV-unprocessed.smi:3274
    45    46     1
SMALL
NO_CHARGES


@<TRIPOS>ATOM
      1 ****         1.0954   2.4965  -0.7134 C.3            1 S1                 0.0000
      2 ****        -0.2748   2.0171  -1.1639 C.2            1 S1                 0.0000
      3 ****        -0.8024   2.4340  -2.3319 C.2            1 S1                 0.0000
      4 ****        -2.1842   2.0615  -2.8410 C.3            1 S1                 0.0000
      5 ****        -2.8870   1.0054  -1.9717 C.3            1 S1                 0.0000
      6 ****        -2.5709   1.2022  -0.4788 C.3            1 S1                 0.0000
      7 ****        -3.4411   0.3080   0.4212 C.3            1 S1                 0.0000
      8 ****        -1.0428   1.0878  -0.2147 C.3            1 S1                 0.0000
      9 ****        -0.5252  -0.3727  -0.2834 C.3            1 S1                 0.0000
     10 ****         0.8720  -0.5074   0.1779 N.4            1 S1                 1.0000
     11 ****         1.4322  -1.8764   0.1080 C.3            1 S1                 0.0000
     12 ****         1.8580  -2.2195  -1.3290 C.3            1 S1                 0.0000
     13 ****         2.6259  -2.0136   1.0765 C.3            1 S1                 0.0000
     14 ****         2.2769  -1.7502   2.4632 N.pl3          1 S1                 0.0000
     15 ****         2.8830  -0.9885   3.3754 C.2            1 S1                 0.0000
     16 ****         2.2960  -1.0055   4.5637 N.2            1 S1                 0.0000
     17 ****         1.2737  -1.8730   4.3020 C.2            1 S1                 0.0000
     18 ****         1.2212  -2.3539   3.0598 N.2            1 S1                 0.0000
     19 ****         1.0546   2.8627   0.3127 H              1 S1                 0.0000
     20 ****         1.4486   3.3149  -1.3418 H              1 S1                 0.0000
     21 ****         1.8373   1.7023  -0.7725 H              1 S1                 0.0000
     22 ****        -0.2400   3.1084  -2.9614 H              1 S1                 0.0000
     23 ****        -2.7796   2.9748  -2.8592 H              1 S1                 0.0000
     24 ****        -2.1114   1.7130  -3.8714 H              1 S1                 0.0000
     25 ****        -3.9625   1.0550  -2.1448 H              1 S1                 0.0000
     26 ****        -2.5791   0.0078  -2.2858 H              1 S1                 0.0000
     27 ****        -2.8530   2.2274  -0.2313 H              1 S1                 0.0000
     28 ****        -3.3477  -0.7469   0.1642 H              1 S1                 0.0000
     29 ****        -4.4950   0.5690   0.3198 H              1 S1                 0.0000
     30 ****        -3.1749   0.4274   1.4718 H              1 S1                 0.0000
     31 ****        -0.8755   1.4547   0.7993 H              1 S1                 0.0000
     32 ****        -1.1276  -1.0238   0.3485 H              1 S1                 0.0000
     33 ****        -0.6118  -0.7494  -1.3019 H              1 S1                 0.0000
     34 ****         1.4613   0.1149  -0.3566 H              1 S1                 0.0000
     35 ****         0.6605  -2.5851   0.4130 H              1 S1                 0.0000
     36 ****         2.2938  -3.2179  -1.3782 H              1 S1                 0.0000
     37 ****         2.6032  -1.5153  -1.7007 H              1 S1                 0.0000
     38 ****         1.0134  -2.2047  -2.0174 H              1 S1                 0.0000
     39 ****         3.0393  -3.0216   1.0239 H              1 S1                 0.0000
     40 ****         3.4277  -1.3324   0.7871 H              1 S1                 0.0000
     41 ****         3.7703  -0.4088   3.1671 H              1 S1                 0.0000
     42 ****         0.5479  -2.1601   5.0488 H              1 S1                 0.0000
     43 ****         0.8929  -0.2168   1.1451 H              1 S1                 0.0000
     44 ****         2.5328  -0.5232   5.4071 LP             1 S1                 0.0000
     45 ****         0.5662  -2.9991   2.6667 LP             1 S1                 0.0000
@<TRIPOS>BOND
    1    1    2 1     
    2    1   19 1     
    3    1   20 1     
    4    1   21 1     
    5    2    8 1     
    6    2    3 2     
    7    3    4 1     
    8    3   22 1     
    9    4    5 1     
   10    4   23 1     
   11    4   24 1     
   12    5    6 1     
   13    5   25 1     
   14    5   26 1     
   15    6    7 1     
   16    6    8 1     
   17    6   27 1     
   18    7   28 1     
   19    7   29 1     
   20    7   30 1     
   21    8    9 1     
   22    8   31 1     
   23    9   10 1     
   24    9   32 1     
   25    9   33 1     
   26   10   11 1     
   27   10   34 1     
   28   10   43 1     
   29   11   12 1     
   30   11   13 1     
   31   11   35 1     
   32   12   36 1     
   33   12   37 1     
   34   12   38 1     
   35   13   14 1     
   36   13   39 1     
   37   13   40 1     
   38   14   18 1     
   39   14   15 1     
   40   15   16 2     
   41   15   41 1     
   42   16   17 1     
   43   17   18 2     
   44   17   42 1     
   45   16   44 1     
   46   18   45 1     
@<TRIPOS>SUBSTRUCTURE
      1 S1             1
@<TRIPOS>SET
LONE_PAIRS      STATIC     ATOMS    <user>   **** ""
2 44 45
DONOR_HYDROGENS      STATIC     ATOMS    <user>   **** ""
2 34 43
ATOM$BLUE        STATIC     ATOMS    COLORGROUP SYSTEM
2 44 45
ATOM$RED        STATIC     ATOMS    COLORGROUP SYSTEM
2 34 43
