AV-unprocessed.smi:2526|AV-procd|sdf|9941|dock1
  -GOLD-   2272013583D 1   1.00000     0.00000
 Structure written by MMmdl.
 28 29  0  0  0  0  0  0  0  0  1 V2000
  148.6689  141.3823  154.2231 C   0  0  0  0  0  0  0  0  0  0  0  0
  149.6897  141.0752  155.2019 N   0  0  0  0  0  0  0  0  0  0  0  0
  149.8243  141.5621  156.4836 C   0  0  0  0  0  0  0  0  0  0  0  0
  150.9429  140.9927  157.0281 C   0  0  0  0  0  0  0  0  0  0  0  0
  151.5409  141.1785  158.4032 C   0  0  1  0  0  0  0  0  0  0  0  0
  152.8080  140.4491  158.5199 N   0  0  0  0  0  0  0  0  0  0  0  0
  153.9198  140.8479  159.1634 C   0  0  0  0  0  0  0  0  0  0  0  0
  154.9125  140.1271  159.2349 O   0  0  0  0  0  0  0  0  0  0  0  0
  153.9570  142.2475  159.7938 C   0  0  0  0  0  0  0  0  0  0  0  0
  152.5627  142.8559  160.0024 C   0  0  0  0  0  0  0  0  0  0  0  0
  151.7053  142.6790  158.7441 C   0  0  2  0  0  0  0  0  0  0  0  0
  150.4145  143.3147  158.9383 N   0  0  0  0  0  0  0  0  0  0  0  0
  151.4241  140.1575  155.9785 C   0  0  0  0  0  0  0  0  0  0  0  0
  150.6761  140.2112  154.8887 N   0  0  0  0  0  0  0  0  0  0  0  0
  147.7847  141.7823  154.7205 H   0  0  0  0  0  0  0  0  0  0  0  0
  148.3883  140.4805  153.6774 H   0  0  0  0  0  0  0  0  0  0  0  0
  149.0480  142.1240  153.5197 H   0  0  0  0  0  0  0  0  0  0  0  0
  149.1195  142.2671  156.8997 H   0  0  0  0  0  0  0  0  0  0  0  0
  150.8843  140.7290  159.1500 H   0  0  0  0  0  0  0  0  0  0  0  0
  152.8286  139.5310  158.1000 H   0  0  0  0  0  0  0  0  0  0  0  0
  154.4925  142.2062  160.7429 H   0  0  0  0  0  0  0  0  0  0  0  0
  154.5398  142.8910  159.1339 H   0  0  0  0  0  0  0  0  0  0  0  0
  152.0789  142.3815  160.8579 H   0  0  0  0  0  0  0  0  0  0  0  0
  152.6623  143.9137  160.2488 H   0  0  0  0  0  0  0  0  0  0  0  0
  152.2030  143.1840  157.9148 H   0  0  0  0  0  0  0  0  0  0  0  0
  150.2673  143.4916  159.9217 H   0  0  0  0  0  0  0  0  0  0  0  0
  150.4085  144.2156  158.4818 H   0  0  0  0  0  0  0  0  0  0  0  0
  152.2939  139.5172  155.9777 H   0  0  0  0  0  0  0  0  0  0  0  0
  1  2  1  0  0  0  0
  1 15  1  0  0  0  0
  1 16  1  0  0  0  0
  1 17  1  0  0  0  0
  2 14  1  0  0  0  0
  2  3  1  0  0  0  0
  3  4  2  0  0  0  0
  3 18  1  0  0  0  0
  4  5  1  0  0  0  0
  4 13  1  0  0  0  0
  5 11  1  0  0  0  0
  5  6  1  0  0  0  0
  5 19  1  0  0  0  0
  6  7  1  0  0  0  0
  6 20  1  0  0  0  0
  7  8  2  0  0  0  0
  7  9  1  0  0  0  0
  9 10  1  0  0  0  0
  9 21  1  0  0  0  0
  9 22  1  0  0  0  0
 10 11  1  0  0  0  0
 10 23  1  0  0  0  0
 10 24  1  0  0  0  0
 11 12  1  0  0  0  0
 11 25  1  0  0  0  0
 12 26  1  0  0  0  0
 12 27  1  0  0  0  0
 13 14  2  0  0  0  0
 13 28  1  0  0  0  0
M  END
> <s_m_source_file>
AV-unprocessed.smi

> <i_m_source_file_index>
2526

> <i_lp_mmshare_version>
43012

> <i_f3d_flags>
0

> <s_epik_input>
W0NIM11uMVtjSF1jKFtjSF1uMSlbQ0BASF0yW05IXUMoPU8pW0NIMl1bQ0gyXVtDQEhdMltOSDJd

> <s_epik_cmdline>
J2VwaWtfcHl0aG9uJywgJy1waCcsICc3LjAnLCAnLXRuJywgJzgnLCAnLW1hJywgJzIwMCcsICctbWV0YWxfYmluZGluZycsICctaW1hZScsICc8aW5maWxlLm1hZT4nLCAnLW9tYWUnLCAnPG91dGZpbGUubWFlPic=

> <r_lp_tautomer_probability>
1

> <r_epik_Ionization_Penalty>
2.50279

> <r_epik_Ionization_Penalty_Charging>
0

> <r_epik_Ionization_Penalty_Neutral>
2.50279

> <r_epik_State_Penalty>
2.66754

> <r_epik_Charging_Adjusted_Penalty>
2.66754

> <i_epik_Tot_Q>
0

> <i_epik_Tot_abs_Q>
0

> <r_epik_Metal_State_Penalty>
2.66721

> <b_epik_Metal_Only>
0

> <s_lp_Force_Field>
OPLS_2005

> <r_lp_Energy>
8.34042

> <b_lp_Chiralities_Consistent>
1

> <s_lp_Variant>
AV-unprocessed.smi:2526-8

> <Gold.Version>
5.8.1

> <Gold.Id.Protein>
6NUR|6NUR_protein|mol2

> <Gold.PLP.Fitness>
35.6058

> <Gold.PLP.PLP>
-27.6315

> <Gold.PLP.part.hbond>
-2.0000

> <Gold.PLP.part.metal>
0.0000

> <Gold.PLP.part.buried>
-0.8604

> <Gold.PLP.part.nonpolar>
-23.4452

> <Gold.PLP.part.repulsive>
0.1710

> <Gold.PLP.ligand.clash>
0.0000

> <Gold.PLP.ligand.torsion>
0.1112

> <Gold.PLP.Chemscore.Hbond>
1.9040

> <Gold.PLP.Chemscore.CHOScore>
0.8196

> <Gold.PLP.Chemscore.Metal>
0.0000

> <Gold.Chemscore.Hbonds>
donor molecule, donor type, donor heavy atom, donor atom, acceptor molecule, acceptor atom, score
      P1  H  7989  7998       L1    14  1.00
      P1  H  7997  8008       L1     8  0.85
      L1  C     3    18       P1  8028  0.33

> <Gold.PLP.Chemscore.Internal.Correction>
0.0260

> <Gold.Rescore>
     Score         DG    S(hbond)    S(metal)    S(lipo)     H(rot)  DE(clash)    DE(int)     intcor
     13.73     -13.85       0.90        0.00      67.77       1.00       0.11       0.02       ----

> <Gold.Chemscore.Fitness>
13.7292

> <Gold.Chemscore.DG>
-13.8540

> <Gold.Chemscore.ZeroCoef>
-5.4800

> <Gold.Chemscore.Hbond>
0.8997

> <Gold.Chemscore.Metal>
0.0000

> <Gold.Chemscore.Lipo>
67.7689

> <Gold.Chemscore.Internal_Hbond>
0.0000

> <Gold.Chemscore.DEClash>
0.1067

> <Gold.Chemscore.DEInternal>
0.0180

> <Gold.Chemscore.Rot>
1.0000

> <Gold.Chemscore.Internal.Correction>
   9.000000E+99

> <Gold.Chemscore.Hbonds>
donor molecule, donor type, donor heavy atom, donor atom, acceptor molecule, acceptor atom, score
      P1  H  7989  7998       L1    14  0.52
      P1  H  7997  8008       L1     8  0.16

> <Gold.Chemscore.Hbond.Weighted>
-3.0050

> <Gold.Chemscore.Metal.Weighted>
-0.0000

> <Gold.Chemscore.Lipo.Weighted>
-7.9290

> <Gold.Chemscore.Internal_Hbond.Weighted>
0.0000

> <Gold.Chemscore.DEClash.Weighted>
0.1067

> <Gold.Chemscore.DEInternal.Weighted>
0.0180

> <Gold.Chemscore.Rot.Weighted>
2.5600

> <Gold.Chemscore.Internal.Correction.Weighted>
   9.000000E+99

> <Gold.Protein.RotatedTorsions>
[ 6907 6896 6895 6894 ] final  -44.67 input  -60.11 | X-H torsion
[ 7974 7965 7964 7962 ] final -107.93 input  175.53 | X-H torsion
[ 8008 7997 7996 7995 ] final -132.61 input   59.86 | X-H torsion
[ 10167 10162 10161 10158 ] final -127.14 input  -65.29 | X-H torsion
[ 10718 10713 10712 10709 ] final -158.19 input   66.30 | X-H torsion
[ 10763 10752 10751 10750 ] final   17.68 input  -60.55 | X-H torsion
[ 11005 11000 10999 10996 ] final  172.49 input  -57.11 | X-H torsion

> <Gold.Protein.ActiveResidues>
 VAL166  LYS551  ARG553  GLY616  TRP617  ASP618  TYR619  PRO620  LYS621  CYS622 
 ASP623  PHE694  ASN695  SER759  ASP760  ASP761  ALA762  ILE779  LEU786  VAL792 
 PHE793  MET794  SER795  GLU796  ALA797  LYS798  CYS799  TRP800  GLU811  SER814 

> <Gold.Protein.RotatedAtoms>
  150.9303  134.8718  159.7546 H   0  0  0  0  0  0  0  0  0  0  0  0  # atno 6907 bound_to 6896
  152.5034  134.4089  159.9452 H   0  0  0  0  0  0  0  0  0  0  0  0  # atno 6908 bound_to 6896
  151.4117  133.3685  159.2780 H   0  0  0  0  0  0  0  0  0  0  0  0  # atno 6909 bound_to 6896
  145.1992  140.9049  143.3379 H   0  0  0  0  0  0  0  0  0  0  0  0  # atno 7974 bound_to 7965
  155.3318  140.0467  157.3043 H   0  0  0  0  0  0  0  0  0  0  0  0  # atno 8008 bound_to 7997
  154.5324  140.2261  155.8746 H   0  0  0  0  0  0  0  0  0  0  0  0  # atno 8009 bound_to 7997
  156.1802  140.3075  155.9140 H   0  0  0  0  0  0  0  0  0  0  0  0  # atno 8010 bound_to 7997
  139.9640  143.5919  152.2435 H   0  0  0  0  0  0  0  0  0  0  0  0  # atno 10167 bound_to 10162
  156.5507  130.8604  151.2779 H   0  0  0  0  0  0  0  0  0  0  0  0  # atno 10718 bound_to 10713
  153.1316  135.6741  153.9168 H   0  0  0  0  0  0  0  0  0  0  0  0  # atno 10763 bound_to 10752
  153.8653  135.3076  155.3441 H   0  0  0  0  0  0  0  0  0  0  0  0  # atno 10764 bound_to 10752
  154.7712  135.4938  153.9735 H   0  0  0  0  0  0  0  0  0  0  0  0  # atno 10765 bound_to 10752
  140.3303  134.7363  157.4129 H   0  0  0  0  0  0  0  0  0  0  0  0  # atno 11005 bound_to 11000
  144.9965  139.3639  143.6189 LP  0  0  0  0  0  0  0  0  0  0  0  0  # atno 17320 bound_to 7965
  146.3421  139.9169  142.8772 LP  0  0  0  0  0  0  0  0  0  0  0  0  # atno 17321 bound_to 7965
  139.6532  144.7661  151.2106 LP  0  0  0  0  0  0  0  0  0  0  0  0  # atno 17342 bound_to 10162
  140.7544  143.6127  150.8590 LP  0  0  0  0  0  0  0  0  0  0  0  0  # atno 17343 bound_to 10162
  157.7388  130.9820  150.2275 LP  0  0  0  0  0  0  0  0  0  0  0  0  # atno 17370 bound_to 10713
  156.2888  130.3743  149.7862 LP  0  0  0  0  0  0  0  0  0  0  0  0  # atno 17371 bound_to 10713
  140.0866  134.5658  155.8486 LP  0  0  0  0  0  0  0  0  0  0  0  0  # atno 17394 bound_to 11000
  141.2065  133.6656  156.6245 LP  0  0  0  0  0  0  0  0  0  0  0  0  # atno 17395 bound_to 11000

$$$$
