AV-unprocessed.smi:2356|AV-procd|sdf|9400|dock1
  -GOLD-   2272013 33D 1   1.00000     0.00000
 Structure written by MMmdl.
 54 57  0  0  0  0  0  0  0  0  2 V2000
  147.5385  142.4342  154.0634 C   0  0  0  0  0  0  0  0  0  0  0  0
  148.6795  141.6331  154.6642 C   0  0  0  0  0  0  0  0  0  0  0  0
  149.5349  142.2856  155.4825 N   0  3  0  0  0  0  0  0  0  0  0  0
  150.5961  141.7027  156.0884 C   0  0  0  0  0  0  0  0  0  0  0  0
  151.4129  142.4897  156.9225 N   0  0  0  0  0  0  0  0  0  0  0  0
  151.2699  143.9349  156.9820 C   0  0  0  0  0  0  0  0  0  0  0  0
  152.1998  144.3696  158.1141 C   0  0  0  0  0  0  0  0  0  0  0  0
  152.1534  143.1832  159.0772 C   0  0  0  0  0  0  0  0  0  0  0  0
  151.9737  141.9670  158.1618 C   0  0  0  0  0  0  0  0  0  0  0  0
  150.8239  140.3249  155.8680 C   0  0  0  0  0  0  0  0  0  0  0  0
  149.9610  139.5994  155.0224 C   0  0  0  0  0  0  0  0  0  0  0  0
  148.8750  140.2582  154.3948 C   0  0  0  0  0  0  0  0  0  0  0  0
  147.9465  139.5977  153.5437 N   0  0  0  0  0  0  0  0  0  0  0  0
  147.3956  138.3758  153.6785 C   0  0  0  0  0  0  0  0  0  0  0  0
  147.6372  137.5978  154.5986 O   0  0  0  0  0  0  0  0  0  0  0  0
  146.5493  138.0411  152.6877 N   0  0  0  0  0  0  0  0  0  0  0  0
  145.7860  136.8017  152.5220 C   0  0  1  0  0  0  0  0  0  0  0  0
  144.3037  137.0189  152.8698 C   0  0  0  0  0  0  0  0  0  0  0  0
  143.4802  135.7610  152.5550 C   0  0  0  0  0  0  0  0  0  0  0  0
  143.6410  135.3895  151.1879 O   0  0  0  0  0  0  0  0  0  0  0  0
  144.9828  135.1100  150.7858 C   0  0  2  0  0  0  0  0  0  0  0  0
  145.4979  133.8113  151.3917 C   0  0  0  0  0  0  0  0  0  0  0  0
  146.4652  132.9341  150.6318 C   0  0  0  0  0  0  0  0  0  0  0  0
  145.0422  132.4771  150.8497 C   0  0  0  0  0  0  0  0  0  0  0  0
  145.8947  136.3212  151.0663 C   0  0  0  0  0  0  0  0  0  0  0  0
  146.5793  141.9840  154.3210 H   0  0  0  0  0  0  0  0  0  0  0  0
  147.6262  142.4605  152.9769 H   0  0  0  0  0  0  0  0  0  0  0  0
  147.5380  143.4621  154.4285 H   0  0  0  0  0  0  0  0  0  0  0  0
  151.5401  144.4078  156.0374 H   0  0  0  0  0  0  0  0  0  0  0  0
  150.2349  144.1884  157.2151 H   0  0  0  0  0  0  0  0  0  0  0  0
  153.2145  144.4942  157.7329 H   0  0  0  0  0  0  0  0  0  0  0  0
  151.8955  145.3089  158.5764 H   0  0  0  0  0  0  0  0  0  0  0  0
  153.0403  143.1107  159.7073 H   0  0  0  0  0  0  0  0  0  0  0  0
  151.2855  143.2798  159.7308 H   0  0  0  0  0  0  0  0  0  0  0  0
  151.3321  141.2190  158.6293 H   0  0  0  0  0  0  0  0  0  0  0  0
  152.9360  141.5037  157.9422 H   0  0  0  0  0  0  0  0  0  0  0  0
  151.6467  139.8104  156.3416 H   0  0  0  0  0  0  0  0  0  0  0  0
  150.1431  138.5448  154.8858 H   0  0  0  0  0  0  0  0  0  0  0  0
  147.7184  140.0881  152.6911 H   0  0  0  0  0  0  0  0  0  0  0  0
  146.4302  138.7252  151.9541 H   0  0  0  0  0  0  0  0  0  0  0  0
  146.2008  136.0268  153.1682 H   0  0  0  0  0  0  0  0  0  0  0  0
  144.1885  137.2798  153.9220 H   0  0  0  0  0  0  0  0  0  0  0  0
  143.9079  137.8582  152.2959 H   0  0  0  0  0  0  0  0  0  0  0  0
  143.7596  134.9385  153.2136 H   0  0  0  0  0  0  0  0  0  0  0  0
  142.4233  135.9562  152.7371 H   0  0  0  0  0  0  0  0  0  0  0  0
  144.9480  134.9670  149.7050 H   0  0  0  0  0  0  0  0  0  0  0  0
  145.6516  133.8472  152.4680 H   0  0  0  0  0  0  0  0  0  0  0  0
  146.7459  133.2386  149.6254 H   0  0  0  0  0  0  0  0  0  0  0  0
  147.2468  132.4370  151.2029 H   0  0  0  0  0  0  0  0  0  0  0  0
  144.8735  131.6761  151.5665 H   0  0  0  0  0  0  0  0  0  0  0  0
  144.3766  132.4802  149.9888 H   0  0  0  0  0  0  0  0  0  0  0  0
  145.6062  137.1336  150.3974 H   0  0  0  0  0  0  0  0  0  0  0  0
  146.9294  136.0778  150.8211 H   0  0  0  0  0  0  0  0  0  0  0  0
  149.3702  143.2775  155.6536 H   0  0  0  0  0  0  0  0  0  0  0  0
  1  2  1  0  0  0  0
  1 26  1  0  0  0  0
  1 27  1  0  0  0  0
  1 28  1  0  0  0  0
  2 12  1  0  0  0  0
  2  3  2  0  0  0  0
  3  4  1  0  0  0  0
  3 54  1  0  0  0  0
  4  5  1  0  0  0  0
  4 10  2  0  0  0  0
  5  9  1  0  0  0  0
  5  6  1  0  0  0  0
  6  7  1  0  0  0  0
  6 29  1  0  0  0  0
  6 30  1  0  0  0  0
  7  8  1  0  0  0  0
  7 31  1  0  0  0  0
  7 32  1  0  0  0  0
  8  9  1  0  0  0  0
  8 33  1  0  0  0  0
  8 34  1  0  0  0  0
  9 35  1  0  0  0  0
  9 36  1  0  0  0  0
 10 11  1  0  0  0  0
 10 37  1  0  0  0  0
 11 12  2  0  0  0  0
 11 38  1  0  0  0  0
 12 13  1  0  0  0  0
 13 14  1  0  0  0  0
 13 39  1  0  0  0  0
 14 15  2  0  0  0  0
 14 16  1  0  0  0  0
 16 17  1  0  0  0  0
 16 40  1  0  0  0  0
 17 25  1  0  0  0  0
 17 18  1  0  0  0  0
 17 41  1  0  0  0  0
 18 19  1  0  0  0  0
 18 42  1  0  0  0  0
 18 43  1  0  0  0  0
 19 20  1  0  0  0  0
 19 44  1  0  0  0  0
 19 45  1  0  0  0  0
 20 21  1  0  0  0  0
 21 22  1  0  0  0  0
 21 25  1  0  0  0  0
 21 46  1  0  0  0  0
 22 24  1  0  0  0  0
 22 23  1  0  0  0  0
 22 47  1  0  0  0  0
 23 24  1  0  0  0  0
 23 48  1  0  0  0  0
 23 49  1  0  0  0  0
 24 50  1  0  0  0  0
 24 51  1  0  0  0  0
 25 52  1  0  0  0  0
 25 53  1  0  0  0  0
M  CHG  1   3   1
M  END
> <s_m_source_file>
AV-unprocessed.smi

> <i_m_source_file_index>
2356

> <i_lp_mmshare_version>
43012

> <i_f3d_flags>
0

> <s_epik_input>
W0NIMl0xW0NIMl1bQ0gyXVtDSDJdTjFjKG5jMltDSDNdKVtjSF1bY0hdYzJbTkhdQyg9TylbTkhdW0NAQEhdM1tDSDJdW0NIMl1PW0NASF0oW0NIMl0zKVtDSF00W0NIMl1bQ0gyXTQ=

> <s_epik_cmdline>
J2VwaWtfcHl0aG9uJywgJy1waCcsICc3LjAnLCAnLXRuJywgJzgnLCAnLW1hJywgJzIwMCcsICctbWV0YWxfYmluZGluZycsICctaW1hZScsICc8aW5maWxlLm1hZT4nLCAnLW9tYWUnLCAnPG91dGZpbGUubWFlPic=

> <r_lp_tautomer_probability>
0.999994

> <r_epik_Ionization_Penalty>
0.534681

> <r_epik_Ionization_Penalty_Charging>
0.534661

> <r_epik_Ionization_Penalty_Neutral>
1.99132e-05

> <r_epik_State_Penalty>
0.543738

> <r_epik_Charging_Adjusted_Penalty>
1.0784

> <i_epik_Tot_Q>
1

> <i_epik_Tot_abs_Q>
1

> <r_epik_Metal_State_Penalty>
0.74699

> <b_epik_Metal_Only>
0

> <s_lp_Force_Field>
OPLS_2005

> <r_lp_Energy>
60.4086

> <b_lp_Chiralities_Consistent>
1

> <s_lp_Variant>
AV-unprocessed.smi:2356-8

> <Gold.Version>
5.8.1

> <Gold.Id.Protein>
6NUR|6NUR_protein|mol2

> <Gold.PLP.Fitness>
52.5098

> <Gold.PLP.PLP>
-47.9531

> <Gold.PLP.part.hbond>
-2.7894

> <Gold.PLP.part.metal>
0.0000

> <Gold.PLP.part.buried>
-1.3872

> <Gold.PLP.part.nonpolar>
-45.2374

> <Gold.PLP.part.repulsive>
0.6065

> <Gold.PLP.ligand.clash>
0.0000

> <Gold.PLP.ligand.torsion>
1.3723

> <Gold.PLP.Chemscore.Hbond>
2.0000

> <Gold.PLP.Chemscore.CHOScore>
0.0000

> <Gold.PLP.Chemscore.Metal>
0.0000

> <Gold.Chemscore.Hbonds>
donor molecule, donor type, donor heavy atom, donor atom, acceptor molecule, acceptor atom, score
      L1  H     3    54       P1  8028  1.95
      L1  H    13    39       P1  7957  0.01

> <Gold.PLP.Chemscore.Internal.Correction>
1.3012

> <Gold.Rescore>
     Score         DG    S(hbond)    S(metal)    S(lipo)     H(rot)  DE(clash)    DE(int)     intcor
     17.94     -21.22       1.03        0.00     130.37       1.15       1.45       1.83       ----

> <Gold.Chemscore.Fitness>
17.9372

> <Gold.Chemscore.DG>
-21.2200

> <Gold.Chemscore.ZeroCoef>
-5.4800

> <Gold.Chemscore.Hbond>
1.0265

> <Gold.Chemscore.Metal>
0.0000

> <Gold.Chemscore.Lipo>
130.3720

> <Gold.Chemscore.Internal_Hbond>
0.0000

> <Gold.Chemscore.DEClash>
1.4490

> <Gold.Chemscore.DEInternal>
1.8339

> <Gold.Chemscore.Rot>
1.1493

> <Gold.Chemscore.Internal.Correction>
   9.000000E+99

> <Gold.Chemscore.Hbonds>
donor molecule, donor type, donor heavy atom, donor atom, acceptor molecule, acceptor atom, score
      L1  H     3    54       P1  8028  0.91
      L1  H    13    39       P1  7957  0.02

> <Gold.Chemscore.Hbond.Weighted>
-3.4287

> <Gold.Chemscore.Metal.Weighted>
-0.0000

> <Gold.Chemscore.Lipo.Weighted>
-15.2535

> <Gold.Chemscore.Internal_Hbond.Weighted>
0.0000

> <Gold.Chemscore.DEClash.Weighted>
1.4490

> <Gold.Chemscore.DEInternal.Weighted>
1.8339

> <Gold.Chemscore.Rot.Weighted>
2.9421

> <Gold.Chemscore.Internal.Correction.Weighted>
   9.000000E+99

> <Gold.Protein.RotatedTorsions>
[ 6907 6896 6895 6894 ] final  -25.89 input  -60.11 | X-H torsion
[ 7974 7965 7964 7962 ] final  120.41 input  175.53 | X-H torsion
[ 8008 7997 7996 7995 ] final  128.20 input   59.86 | X-H torsion
[ 10167 10162 10161 10158 ] final  -53.91 input  -65.29 | X-H torsion
[ 10718 10713 10712 10709 ] final  -16.67 input   66.30 | X-H torsion
[ 10763 10752 10751 10750 ] final  -30.21 input  -60.55 | X-H torsion
[ 11005 11000 10999 10996 ] final -112.84 input  -57.11 | X-H torsion

> <Gold.Protein.ActiveResidues>
 VAL166  LYS551  ARG553  GLY616  TRP617  ASP618  TYR619  PRO620  LYS621  CYS622 
 ASP623  PHE694  ASN695  SER759  ASP760  ASP761  ALA762  ILE779  LEU786  VAL792 
 PHE793  MET794  SER795  GLU796  ALA797  LYS798  CYS799  TRP800  GLU811  SER814 

> <Gold.Protein.RotatedAtoms>
  151.1687  135.0308  159.8741 H   0  0  0  0  0  0  0  0  0  0  0  0  # atno 6907 bound_to 6896
  152.5449  134.1195  159.8403 H   0  0  0  0  0  0  0  0  0  0  0  0  # atno 6908 bound_to 6896
  151.1298  133.4998  159.2632 H   0  0  0  0  0  0  0  0  0  0  0  0  # atno 6909 bound_to 6896
  145.1314  139.3325  143.4663 H   0  0  0  0  0  0  0  0  0  0  0  0  # atno 7974 bound_to 7965
  156.2909  140.2650  156.2397 H   0  0  0  0  0  0  0  0  0  0  0  0  # atno 8008 bound_to 7997
  154.9990  140.0388  157.2370 H   0  0  0  0  0  0  0  0  0  0  0  0  # atno 8009 bound_to 7997
  154.7619  140.2762  155.6212 H   0  0  0  0  0  0  0  0  0  0  0  0  # atno 8010 bound_to 7997
  140.6459  143.2535  151.4860 H   0  0  0  0  0  0  0  0  0  0  0  0  # atno 10167 bound_to 10162
  156.5844  130.4782  149.6306 H   0  0  0  0  0  0  0  0  0  0  0  0  # atno 10718 bound_to 10713
  153.7772  135.6908  153.4895 H   0  0  0  0  0  0  0  0  0  0  0  0  # atno 10763 bound_to 10752
  153.1835  135.4497  155.0057 H   0  0  0  0  0  0  0  0  0  0  0  0  # atno 10764 bound_to 10752
  154.8095  135.3371  154.7278 H   0  0  0  0  0  0  0  0  0  0  0  0  # atno 10765 bound_to 10752
  141.0651  133.9472  157.2594 H   0  0  0  0  0  0  0  0  0  0  0  0  # atno 11005 bound_to 11000
  146.3513  140.1315  142.8597 LP  0  0  0  0  0  0  0  0  0  0  0  0  # atno 17320 bound_to 7965
  145.0631  140.9102  143.4927 LP  0  0  0  0  0  0  0  0  0  0  0  0  # atno 17321 bound_to 7965
  139.5670  144.2019  152.1779 LP  0  0  0  0  0  0  0  0  0  0  0  0  # atno 17342 bound_to 10162
  140.1304  144.5294  150.6806 LP  0  0  0  0  0  0  0  0  0  0  0  0  # atno 17343 bound_to 10162
  156.2604  130.6959  151.1726 LP  0  0  0  0  0  0  0  0  0  0  0  0  # atno 17370 bound_to 10713
  157.7319  131.0604  150.5655 LP  0  0  0  0  0  0  0  0  0  0  0  0  # atno 17371 bound_to 10713
  139.9469  135.0182  156.8878 LP  0  0  0  0  0  0  0  0  0  0  0  0  # atno 17394 bound_to 11000
  140.5790  134.0370  155.7457 LP  0  0  0  0  0  0  0  0  0  0  0  0  # atno 17395 bound_to 11000

$$$$
