AV-unprocessed.smi:761|AV-procd|sdf|3632|dock9
  -GOLD-   22720 1 23D 1   1.00000     0.00000
 Structure written by MMmdl.
 34 35  0  0  0  0  0  0  0  0  4 V2000
  151.2716  140.3119  156.8613 O   0  0  0  0  0  0  0  0  0  0  0  0
  150.6531  141.1371  156.1794 C   0  0  0  0  0  0  0  0  0  0  0  0
  150.0981  140.9505  154.9516 N   0  5  0  0  0  0  0  0  0  0  0  0
  149.3900  139.7441  154.5256 C   0  0  0  0  0  0  0  0  0  0  0  0
  150.3866  138.5732  154.4164 C   0  0  0  0  0  0  0  0  0  0  0  0
  149.7168  137.2468  154.4343 N   0  3  0  0  0  0  0  0  0  0  0  0
  148.4872  137.1480  155.2804 C   0  0  0  0  0  0  0  0  0  0  0  0
  148.5870  135.7731  155.8773 C   0  0  0  0  0  0  0  0  0  0  0  0
  149.7567  135.2080  155.6018 C   0  0  0  0  0  0  0  0  0  0  0  0
  150.6256  136.1159  154.7784 C   0  0  0  0  0  0  0  0  0  0  0  0
  150.4415  142.3803  156.6476 N   0  0  0  0  0  0  0  0  0  0  0  0
  150.9095  142.9748  157.8506 C   0  0  0  0  0  0  0  0  0  0  0  0
  151.1766  144.3615  157.8377 C   0  0  0  0  0  0  0  0  0  0  0  0
  151.6669  144.9853  159.0027 C   0  0  0  0  0  0  0  0  0  0  0  0
  151.8888  144.2529  160.1153 N   0  3  0  0  0  0  0  0  0  0  0  0
  151.6643  142.9224  160.1706 C   0  0  0  0  0  0  0  0  0  0  0  0
  151.1740  142.2439  159.0365 C   0  0  0  0  0  0  0  0  0  0  0  0
  148.5928  139.4590  155.2134 H   0  0  0  0  0  0  0  0  0  0  0  0
  148.9065  139.8883  153.5590 H   0  0  0  0  0  0  0  0  0  0  0  0
  150.9246  138.6761  153.4723 H   0  0  0  0  0  0  0  0  0  0  0  0
  151.1389  138.6191  155.2056 H   0  0  0  0  0  0  0  0  0  0  0  0
  148.4706  137.8902  156.0797 H   0  0  0  0  0  0  0  0  0  0  0  0
  147.5868  137.2543  154.6748 H   0  0  0  0  0  0  0  0  0  0  0  0
  147.7976  135.3348  156.4701 H   0  0  0  0  0  0  0  0  0  0  0  0
  150.0801  134.2325  155.9341 H   0  0  0  0  0  0  0  0  0  0  0  0
  150.9875  135.6190  153.8780 H   0  0  0  0  0  0  0  0  0  0  0  0
  151.4781  136.4394  155.3778 H   0  0  0  0  0  0  0  0  0  0  0  0
  149.8274  142.9536  156.0878 H   0  0  0  0  0  0  0  0  0  0  0  0
  151.0017  144.9451  156.9451 H   0  0  0  0  0  0  0  0  0  0  0  0
  151.8894  146.0397  159.0762 H   0  0  0  0  0  0  0  0  0  0  0  0
  151.8890  142.4412  161.1112 H   0  0  0  0  0  0  0  0  0  0  0  0
  151.0220  141.1764  159.0896 H   0  0  0  0  0  0  0  0  0  0  0  0
  149.4180  137.0668  153.4865 H   0  0  0  0  0  0  0  0  0  0  0  0
  152.2464  144.7230  160.9472 H   0  0  0  0  0  0  0  0  0  0  0  0
  1  2  2  0  0  0  0
  2  3  1  0  0  0  0
  2 11  1  0  0  0  0
  3  4  1  0  0  0  0
  4  5  1  0  0  0  0
  4 18  1  0  0  0  0
  4 19  1  0  0  0  0
  5  6  1  0  0  0  0
  5 20  1  0  0  0  0
  5 21  1  0  0  0  0
  6 10  1  0  0  0  0
  6  7  1  0  0  0  0
  6 33  1  0  0  0  0
  7  8  1  0  0  0  0
  7 22  1  0  0  0  0
  7 23  1  0  0  0  0
  8  9  2  0  0  0  0
  8 24  1  0  0  0  0
  9 10  1  0  0  0  0
  9 25  1  0  0  0  0
 10 26  1  0  0  0  0
 10 27  1  0  0  0  0
 11 12  1  0  0  0  0
 11 28  1  0  0  0  0
 12 17  1  0  0  0  0
 12 13  2  0  0  0  0
 13 14  1  0  0  0  0
 13 29  1  0  0  0  0
 14 15  2  0  0  0  0
 14 30  1  0  0  0  0
 15 16  1  0  0  0  0
 15 34  1  0  0  0  0
 16 17  2  0  0  0  0
 16 31  1  0  0  0  0
 17 32  1  0  0  0  0
M  CHG  1   3  -1
M  CHG  1   6   1
M  CHG  1  15   1
M  END
> <s_m_source_file>
AV-unprocessed.smi

> <i_m_source_file_index>
761

> <i_lp_mmshare_version>
43012

> <i_f3d_flags>
0

> <s_epik_input>
W2NIXTFbY0hdbltjSF1bY0hdYzFbTkhdQyg9TylbTkhdW0NIMl1bQ0gyXU4yW0NIMl1bQ0hdPVtDSF1bQ0gyXTI=

> <s_epik_cmdline>
J2VwaWtfcHl0aG9uJywgJy1waCcsICc3LjAnLCAnLXRuJywgJzgnLCAnLW1hJywgJzIwMCcsICctbWV0YWxfYmluZGluZycsICctaW1hZScsICc8aW5maWxlLm1hZT4nLCAnLW9tYWUnLCAnPG91dGZpbGUubWFlPic=

> <r_epik_Ionization_Penalty>
8.30346

> <r_epik_Ionization_Penalty_Charging>
8.30346

> <r_epik_Ionization_Penalty_Neutral>
3.3887e-06

> <r_epik_State_Penalty>
7.87421

> <r_epik_Charging_Adjusted_Penalty>
16.1777

> <i_epik_Tot_Q>
1

> <i_epik_Tot_abs_Q>
3

> <r_epik_Metal_State_Penalty>
3.87237

> <b_epik_Metal_Only>
1

> <s_lp_Force_Field>
OPLS_2005

> <r_lp_Energy>
27.0573

> <b_lp_Chiralities_Consistent>
1

> <s_lp_Variant>
AV-unprocessed.smi:761-3

> <Gold.Version>
5.8.1

> <Gold.Id.Protein>
6NUR|6NUR_protein|mol2

> <Gold.PLP.Fitness>
43.5664

> <Gold.PLP.PLP>
-34.9119

> <Gold.PLP.part.hbond>
-2.8709

> <Gold.PLP.part.metal>
0.0000

> <Gold.PLP.part.buried>
-3.9200

> <Gold.PLP.part.nonpolar>
-27.6685

> <Gold.PLP.part.repulsive>
0.2433

> <Gold.PLP.ligand.clash>
0.0000

> <Gold.PLP.ligand.torsion>
0.8672

> <Gold.PLP.Chemscore.Hbond>
3.4515

> <Gold.PLP.Chemscore.CHOScore>
0.0000

> <Gold.PLP.Chemscore.Metal>
0.0000

> <Gold.Chemscore.Hbonds>
donor molecule, donor type, donor heavy atom, donor atom, acceptor molecule, acceptor atom, score
      L1  H     6    33       P1  7948  2.00
      L1  H    11    28       P1  8028  0.96
      P1  H  7989  7998       L1     3  0.50

> <Gold.PLP.Chemscore.Internal.Correction>
0.0344

> <Gold.Rescore>
     Score         DG    S(hbond)    S(metal)    S(lipo)     H(rot)  DE(clash)    DE(int)     intcor
     15.82     -18.24       1.91        0.00      87.75       1.51       0.35       2.07       ----

> <Gold.Chemscore.Fitness>
15.8224

> <Gold.Chemscore.DG>
-18.2426

> <Gold.Chemscore.ZeroCoef>
-5.4800

> <Gold.Chemscore.Hbond>
1.9058

> <Gold.Chemscore.Metal>
0.0000

> <Gold.Chemscore.Lipo>
87.7548

> <Gold.Chemscore.Internal_Hbond>
0.0000

> <Gold.Chemscore.DEClash>
0.3505

> <Gold.Chemscore.DEInternal>
2.0696

> <Gold.Chemscore.Rot>
1.5117

> <Gold.Chemscore.Internal.Correction>
   9.000000E+99

> <Gold.Chemscore.Hbonds>
donor molecule, donor type, donor heavy atom, donor atom, acceptor molecule, acceptor atom, score
      L1  H     6    33       P1  7948  0.93
      L1  H    11    28       P1  8028  0.88
      P1  H  7989  7998       L1     3  0.06

> <Gold.Chemscore.Hbond.Weighted>
-6.3653

> <Gold.Chemscore.Metal.Weighted>
-0.0000

> <Gold.Chemscore.Lipo.Weighted>
-10.2673

> <Gold.Chemscore.Internal_Hbond.Weighted>
0.0000

> <Gold.Chemscore.DEClash.Weighted>
0.3505

> <Gold.Chemscore.DEInternal.Weighted>
2.0696

> <Gold.Chemscore.Rot.Weighted>
3.8700

> <Gold.Chemscore.Internal.Correction.Weighted>
   9.000000E+99

> <Gold.Protein.RotatedTorsions>
[ 6907 6896 6895 6894 ] final  -79.23 input  -60.11 | X-H torsion
[ 7974 7965 7964 7962 ] final  -57.54 input  175.53 | X-H torsion
[ 8008 7997 7996 7995 ] final   -6.52 input   59.86 | X-H torsion
[ 10167 10162 10161 10158 ] final   44.54 input  -65.29 | X-H torsion
[ 10718 10713 10712 10709 ] final   -9.75 input   66.30 | X-H torsion
[ 10763 10752 10751 10750 ] final -122.26 input  -60.55 | X-H torsion
[ 11005 11000 10999 10996 ] final  -94.84 input  -57.11 | X-H torsion

> <Gold.Protein.ActiveResidues>
 VAL166  LYS551  ARG553  GLY616  TRP617  ASP618  TYR619  PRO620  LYS621  CYS622 
 ASP623  PHE694  ASN695  SER759  ASP760  ASP761  ALA762  ILE779  LEU786  VAL792 
 PHE793  MET794  SER795  GLU796  ALA797  LYS798  CYS799  TRP800  GLU811  SER814 

> <Gold.Protein.RotatedAtoms>
  150.6954  134.4152  159.5179 H   0  0  0  0  0  0  0  0  0  0  0  0  # atno 6907 bound_to 6896
  152.1904  134.8674  160.0527 H   0  0  0  0  0  0  0  0  0  0  0  0  # atno 6908 bound_to 6896
  151.9631  133.3667  159.4080 H   0  0  0  0  0  0  0  0  0  0  0  0  # atno 6909 bound_to 6896
  145.8498  140.8360  142.9991 H   0  0  0  0  0  0  0  0  0  0  0  0  # atno 7974 bound_to 7965
  154.5929  140.2430  155.7896 H   0  0  0  0  0  0  0  0  0  0  0  0  # atno 8008 bound_to 7997
  156.2259  140.2982  156.0020 H   0  0  0  0  0  0  0  0  0  0  0  0  # atno 8009 bound_to 7997
  155.2343  140.0405  157.2957 H   0  0  0  0  0  0  0  0  0  0  0  0  # atno 8010 bound_to 7997
  140.3332  144.2562  150.6165 H   0  0  0  0  0  0  0  0  0  0  0  0  # atno 10167 bound_to 10162
  156.6835  130.5044  149.5964 H   0  0  0  0  0  0  0  0  0  0  0  0  # atno 10718 bound_to 10713
  154.8686  135.4139  154.2753 H   0  0  0  0  0  0  0  0  0  0  0  0  # atno 10763 bound_to 10752
  153.3655  135.7005  153.6684 H   0  0  0  0  0  0  0  0  0  0  0  0  # atno 10764 bound_to 10752
  153.5567  135.3618  155.2754 H   0  0  0  0  0  0  0  0  0  0  0  0  # atno 10765 bound_to 10752
  141.1459  133.7984  157.0353 H   0  0  0  0  0  0  0  0  0  0  0  0  # atno 11005 bound_to 11000
  144.6729  140.0937  143.7464 LP  0  0  0  0  0  0  0  0  0  0  0  0  # atno 17320 bound_to 7965
  145.9370  139.2643  143.1291 LP  0  0  0  0  0  0  0  0  0  0  0  0  # atno 17321 bound_to 7965
  140.5378  143.2229  151.8135 LP  0  0  0  0  0  0  0  0  0  0  0  0  # atno 17342 bound_to 10162
  139.4853  144.4639  151.9507 LP  0  0  0  0  0  0  0  0  0  0  0  0  # atno 17343 bound_to 10162
  156.1850  130.6523  151.0995 LP  0  0  0  0  0  0  0  0  0  0  0  0  # atno 17370 bound_to 10713
  157.7035  131.0766  150.6744 LP  0  0  0  0  0  0  0  0  0  0  0  0  # atno 17371 bound_to 10713
  140.0727  134.9693  157.1495 LP  0  0  0  0  0  0  0  0  0  0  0  0  # atno 17394 bound_to 11000
  140.3687  134.2414  155.7180 LP  0  0  0  0  0  0  0  0  0  0  0  0  # atno 17395 bound_to 11000

$$$$
