#       Name:                AV-unprocessed.smi:148
#       Creating user name   scv26
#       Creation time:       Thu Mar 26 18:40:13 2020


#       File generated by GOLD software.
#

@<TRIPOS>MOLECULE
AV-unprocessed.smi:148
    73    77     1
SMALL
NO_CHARGES


@<TRIPOS>ATOM
      1 ****        -5.2962   3.2663  -1.2865 O.3            1 S1                 0.0000
      2 ****        -3.9681   2.9146  -0.9595 C.3            1 S1                 0.0000
      3 ****        -3.1007   2.6885  -2.2214 C.3            1 S1                 0.0000
      4 ****        -1.5959   2.8816  -1.8921 C.3            1 S1                 0.0000
      5 ****        -1.0928   2.0009  -0.8458 N.pl3          1 S1                 0.0000
      6 ****        -1.1210   2.2380   0.5116 C.2            1 S1                 0.0000
      7 ****        -0.6122   1.2952   1.2565 N.2            1 S1                 0.0000
      8 ****        -0.1814   0.3442   0.3422 C.ar           1 S1                 0.0000
      9 ****         0.4638  -0.9140   0.4623 C.ar           1 S1                 0.0000
     10 ****         0.7736  -1.4448   1.6685 N.3            1 S1                 0.0000
     11 ****        -0.3024  -2.3404   2.0932 C.3            1 S1                 0.0000
     12 ****        -0.1167  -2.7938   3.5455 C.3            1 S1                 0.0000
     13 ****         1.2575  -3.4451   3.7197 C.3            1 S1                 0.0000
     14 ****         2.3569  -2.4660   3.2887 C.3            1 S1                 0.0000
     15 ****         2.1491  -1.9516   1.8389 C.3            1 S1                 0.0000
     16 ****         3.2267  -0.9090   1.4009 C.3            1 S1                 0.0000
     17 ****         3.1847   0.4511   2.1243 C.3            1 S1                 0.0000
     18 ****         4.6217   0.9981   2.1025 C.3            1 S1                 0.0000
     19 ****         5.4681  -0.0422   1.3612 C.3            1 S1                 0.0000
     20 ****         4.6931  -1.3499   1.5192 C.3            1 S1                 0.0000
     21 ****         5.0530  -2.2858   0.5243 O.3            1 S1                 0.0000
     22 ****         0.7444  -1.5980  -0.6785 N.ar           1 S1                 0.0000
     23 ****         0.4284  -1.0707  -1.8650 C.ar           1 S1                 0.0000
     24 ****        -0.1672   0.0946  -2.1285 N.ar           1 S1                 0.0000
     25 ****        -0.4641   0.7742  -0.9840 C.ar           1 S1                 0.0000
     26 ****        -3.3757   1.3191  -2.9027 C.3            1 S1                 0.0000
     27 ****        -2.7094   1.1469  -4.2586 C.3            1 S1                 0.0000
     28 ****        -3.4723  -0.0324  -4.8526 C.3            1 S1                 0.0000
     29 ****        -4.7830   0.0401  -4.3028 O.3            1 S1                 0.0000
     30 ****        -4.8305   1.0494  -3.3004 C.3            1 S1                 0.0000
     31 ****        -5.7789   3.3998  -0.4850 H              1 S1                 0.0000
     32 ****        -3.5666   3.7368  -0.3670 H              1 S1                 0.0000
     33 ****        -3.9709   2.0308  -0.3206 H              1 S1                 0.0000
     34 ****        -3.3571   3.4727  -2.9356 H              1 S1                 0.0000
     35 ****        -0.9822   2.7499  -2.7831 H              1 S1                 0.0000
     36 ****        -1.4239   3.9096  -1.5708 H              1 S1                 0.0000
     37 ****        -1.5408   3.1373   0.9380 H              1 S1                 0.0000
     38 ****        -1.2673  -1.8403   1.9925 H              1 S1                 0.0000
     39 ****        -0.3267  -3.2115   1.4365 H              1 S1                 0.0000
     40 ****        -0.2100  -1.9377   4.2151 H              1 S1                 0.0000
     41 ****        -0.9040  -3.4954   3.8215 H              1 S1                 0.0000
     42 ****         1.4046  -3.7429   4.7582 H              1 S1                 0.0000
     43 ****         1.3156  -4.3550   3.1210 H              1 S1                 0.0000
     44 ****         2.3753  -1.6349   3.9926 H              1 S1                 0.0000
     45 ****         3.3160  -2.9729   3.3836 H              1 S1                 0.0000
     46 ****         2.2491  -2.8173   1.1824 H              1 S1                 0.0000
     47 ****         3.0799  -0.6896   0.3422 H              1 S1                 0.0000
     48 ****         2.4915   1.1334   1.6314 H              1 S1                 0.0000
     49 ****         2.8511   0.3541   3.1562 H              1 S1                 0.0000
     50 ****         4.6793   1.9750   1.6214 H              1 S1                 0.0000
     51 ****         4.9852   1.1160   3.1241 H              1 S1                 0.0000
     52 ****         5.5297   0.2306   0.3064 H              1 S1                 0.0000
     53 ****         6.4865  -0.1074   1.7456 H              1 S1                 0.0000
     54 ****         4.9103  -1.7631   2.5032 H              1 S1                 0.0000
     55 ****         4.5317  -3.0651   0.6421 H              1 S1                 0.0000
     56 ****         0.6887  -1.6676  -2.7266 H              1 S1                 0.0000
     57 ****        -3.0539   0.5103  -2.2453 H              1 S1                 0.0000
     58 ****        -2.8644   2.0356  -4.8723 H              1 S1                 0.0000
     59 ****        -1.6381   0.9601  -4.2061 H              1 S1                 0.0000
     60 ****        -3.4940  -0.0068  -5.9422 H              1 S1                 0.0000
     61 ****        -3.0181  -0.9747  -4.5438 H              1 S1                 0.0000
     62 ****        -5.4449   0.7310  -2.4580 H              1 S1                 0.0000
     63 ****        -5.2844   1.9406  -3.7363 H              1 S1                 0.0000
     64 ****        -5.7189   2.5306  -1.8158 LP             1 S1                 0.0000
     65 ****        -5.2987   4.1086  -1.8255 LP             1 S1                 0.0000
     66 ****        -0.5477   1.2650   2.2539 LP             1 S1                 0.0000
     67 ****         0.8170  -0.6878   2.3204 LP             1 S1                 0.0000
     68 ****         6.0231  -2.5129   0.6102 LP             1 S1                 0.0000
     69 ****         4.8803  -1.8984  -0.3813 LP             1 S1                 0.0000
     70 ****         1.1863  -2.4938  -0.6299 LP             1 S1                 0.0000
     71 ****        -0.3702   0.4274  -3.0494 LP             1 S1                 0.0000
     72 ****        -5.0221  -0.8421  -3.8972 LP             1 S1                 0.0000
     73 ****        -5.4353   0.2613  -5.0278 LP             1 S1                 0.0000
@<TRIPOS>BOND
    1    1    2 1     
    2    1   31 1     
    3    2    3 1     
    4    2   32 1     
    5    2   33 1     
    6    3    4 1     
    7    3   26 1     
    8    3   34 1     
    9    4    5 1     
   10    4   35 1     
   11    4   36 1     
   12    5   25 1     
   13    5    6 1     
   14    6    7 2     
   15    6   37 1     
   16    7    8 1     
   17    8   25 ar    
   18    8    9 ar    
   19    9   10 1     
   20    9   22 ar    
   21   10   15 1     
   22   10   11 1     
   23   11   12 1     
   24   11   38 1     
   25   11   39 1     
   26   12   13 1     
   27   12   40 1     
   28   12   41 1     
   29   13   14 1     
   30   13   42 1     
   31   13   43 1     
   32   14   15 1     
   33   14   44 1     
   34   14   45 1     
   35   15   16 1     
   36   15   46 1     
   37   16   20 1     
   38   16   17 1     
   39   16   47 1     
   40   17   18 1     
   41   17   48 1     
   42   17   49 1     
   43   18   19 1     
   44   18   50 1     
   45   18   51 1     
   46   19   20 1     
   47   19   52 1     
   48   19   53 1     
   49   20   21 1     
   50   20   54 1     
   51   21   55 1     
   52   22   23 ar    
   53   23   24 ar    
   54   23   56 1     
   55   24   25 ar    
   56   26   30 1     
   57   26   27 1     
   58   26   57 1     
   59   27   28 1     
   60   27   58 1     
   61   27   59 1     
   62   28   29 1     
   63   28   60 1     
   64   28   61 1     
   65   29   30 1     
   66   30   62 1     
   67   30   63 1     
   68    1   64 1     
   69    1   65 1     
   70    7   66 1     
   71   10   67 1     
   72   21   68 1     
   73   21   69 1     
   74   22   70 1     
   75   24   71 1     
   76   29   72 1     
   77   29   73 1     
@<TRIPOS>SUBSTRUCTURE
      1 S1             1
@<TRIPOS>SET
LONE_PAIRS      STATIC     ATOMS    <user>   **** ""
10 64 65 66 67 68 69 70 71 72 73
DONOR_HYDROGENS      STATIC     ATOMS    <user>   **** ""
2 31 55
ATOM$BLUE        STATIC     ATOMS    COLORGROUP SYSTEM
10 64 65 66 67 68 69 70 71 72 73
ATOM$RED        STATIC     ATOMS    COLORGROUP SYSTEM
2 31 55
