#       Name:                AV-unprocessed.smi:3314
#       Creating user name   scv26
#       Creation time:       Fri Mar 27 19:07:59 2020


#       File generated by GOLD software.
#

@<TRIPOS>MOLECULE
AV-unprocessed.smi:3314
    43    44     1
SMALL
NO_CHARGES


@<TRIPOS>ATOM
      1 ****        -4.6093   3.0331  -0.9144 C.3            1 S1                 0.0000
      2 ****        -3.9530   1.7555  -0.4348 C.ar           1 S1                 0.0000
      3 ****        -4.7267   0.6291  -0.0953 C.ar           1 S1                 0.0000
      4 ****        -4.0572  -0.5289   0.3461 C.ar           1 S1                 0.0000
      5 ****        -4.8282  -1.7762   0.7241 C.3            1 S1                 0.0000
      6 ****        -2.7135  -0.6066   0.4553 N.ar           1 S1                 0.0000
      7 ****        -1.9586   0.4722   0.1319 C.ar           1 S1                 0.0000
      8 ****        -0.5413   0.4938   0.2131 N.am           1 S1                 0.0000
      9 ****         0.2904  -0.4959   0.5930 C.2            1 S1                 0.0000
     10 ****        -0.0814  -1.6092   0.9662 O.2            1 S1                 0.0000
     11 ****         1.7905  -0.1626   0.5702 C.3            1 S1                 0.0000
     12 ****         2.6746  -1.4172   0.3758 C.3            1 S1                 0.0000
     13 ****         4.1042  -1.0411   0.2858 N.4            1 S1                 1.0000
     14 ****         4.9927  -2.2130   0.1337 C.3            1 S1                 0.0000
     15 ****         4.3186  -0.0224  -0.7660 C.3            1 S1                 0.0000
     16 ****         3.3996   1.1862  -0.5298 C.3            1 S1                 0.0000
     17 ****         2.0456   0.7531  -0.4946 O.3            1 S1                 0.0000
     18 ****        -2.5508   1.6735  -0.3177 C.ar           1 S1                 0.0000
     19 ****        -5.6691   2.8801  -1.1207 H              1 S1                 0.0000
     20 ****        -4.1326   3.3845  -1.8299 H              1 S1                 0.0000
     21 ****        -4.5166   3.8116  -0.1569 H              1 S1                 0.0000
     22 ****        -5.8041   0.6514  -0.1711 H              1 S1                 0.0000
     23 ****        -5.8814  -1.5504   0.8934 H              1 S1                 0.0000
     24 ****        -4.4261  -2.2159   1.6375 H              1 S1                 0.0000
     25 ****        -4.7598  -2.5167  -0.0730 H              1 S1                 0.0000
     26 ****        -0.1046   1.3615  -0.0617 H              1 S1                 0.0000
     27 ****         2.0323   0.3164   1.5205 H              1 S1                 0.0000
     28 ****         2.5427  -2.1065   1.2112 H              1 S1                 0.0000
     29 ****         2.3825  -1.9510  -0.5307 H              1 S1                 0.0000
     30 ****         4.7908  -2.7396  -0.8000 H              1 S1                 0.0000
     31 ****         4.8512  -2.9122   0.9583 H              1 S1                 0.0000
     32 ****         6.0387  -1.9049   0.1338 H              1 S1                 0.0000
     33 ****         5.3615   0.2970  -0.7629 H              1 S1                 0.0000
     34 ****         4.1183  -0.4583  -1.7462 H              1 S1                 0.0000
     35 ****         3.6558   1.6977   0.3995 H              1 S1                 0.0000
     36 ****         3.5174   1.9109  -1.3356 H              1 S1                 0.0000
     37 ****        -1.9382   2.5266  -0.5720 H              1 S1                 0.0000
     38 ****         4.3457  -0.6065   1.1650 H              1 S1                 0.0000
     39 ****        -2.2800  -1.4505   0.7712 LP             1 S1                 0.0000
     40 ****        -1.0573  -1.8247   1.0010 LP             1 S1                 0.0000
     41 ****         0.5926  -2.2975   1.2343 LP             1 S1                 0.0000
     42 ****         1.4564   1.5526  -0.3778 LP             1 S1                 0.0000
     43 ****         1.8301   0.3042  -1.3618 LP             1 S1                 0.0000
@<TRIPOS>BOND
    1    1    2 1     
    2    1   19 1     
    3    1   20 1     
    4    1   21 1     
    5    2   18 ar    
    6    2    3 ar    
    7    3    4 ar    
    8    3   22 1     
    9    4    5 1     
   10    4    6 ar    
   11    5   23 1     
   12    5   24 1     
   13    5   25 1     
   14    6    7 ar    
   15    7    8 1     
   16    7   18 ar    
   17    8    9 am    
   18    8   26 1     
   19    9   10 2     
   20    9   11 1     
   21   11   17 1     
   22   11   12 1     
   23   11   27 1     
   24   12   13 1     
   25   12   28 1     
   26   12   29 1     
   27   13   14 1     
   28   13   15 1     
   29   13   38 1     
   30   14   30 1     
   31   14   31 1     
   32   14   32 1     
   33   15   16 1     
   34   15   33 1     
   35   15   34 1     
   36   16   17 1     
   37   16   35 1     
   38   16   36 1     
   39   18   37 1     
   40    6   39 1     
   41   10   40 1     
   42   10   41 1     
   43   17   42 1     
   44   17   43 1     
@<TRIPOS>SUBSTRUCTURE
      1 S1             1
@<TRIPOS>SET
LONE_PAIRS      STATIC     ATOMS    <user>   **** ""
5 39 40 41 42 43
DONOR_HYDROGENS      STATIC     ATOMS    <user>   **** ""
2 26 38
ATOM$BLUE        STATIC     ATOMS    COLORGROUP SYSTEM
5 39 40 41 42 43
ATOM$RED        STATIC     ATOMS    COLORGROUP SYSTEM
2 26 38
