AV-unprocessed.smi:1940|AV-procd|sdf|7842|dock2
  -GOLD-   22720 9583D 1   1.00000     0.00000
 Structure written by MMmdl.
 50 52  0  0  0  0  0  0  0  0  2 V2000
  144.6917  136.9135  153.5262 C   0  0  0  0  0  0  0  0  0  0  0  0
  145.5374  137.1800  152.2723 C   0  0  1  0  0  0  0  0  0  0  0  0
  146.9078  137.4870  152.6806 N   0  0  0  0  0  0  0  0  0  0  0  0
  147.2696  138.3771  153.6161 C   0  0  0  0  0  0  0  0  0  0  0  0
  146.4707  139.0639  154.2520 O   0  0  0  0  0  0  0  0  0  0  0  0
  148.6068  138.4292  153.7431 N   0  0  0  0  0  0  0  0  0  0  0  0
  149.3770  139.2210  154.6371 C   0  0  0  0  0  0  0  0  0  0  0  0
  150.7829  139.1120  154.5710 C   0  0  0  0  0  0  0  0  0  0  0  0
  151.5859  139.8688  155.4488 C   0  0  0  0  0  0  0  0  0  0  0  0
  150.9667  140.7196  156.3924 C   0  0  0  0  0  0  0  0  0  0  0  0
  151.6787  141.5084  157.3048 N   0  0  0  0  0  0  0  0  0  0  0  0
  151.3446  142.9274  157.2146 C   0  0  0  0  0  0  0  0  0  0  0  0
  152.2921  143.7674  158.0884 C   0  0  0  0  0  0  0  0  0  0  0  0
  152.3014  143.2566  159.5382 C   0  0  0  0  0  0  0  0  0  0  0  0
  152.6265  141.7544  159.5706 C   0  0  0  0  0  0  0  0  0  0  0  0
  151.6693  140.9655  158.6607 C   0  0  0  0  0  0  0  0  0  0  0  0
  149.6186  140.7854  156.4363 N   0  3  0  0  0  0  0  0  0  0  0  0
  148.8137  140.0803  155.6122 C   0  0  0  0  0  0  0  0  0  0  0  0
  145.5262  135.9809  151.3035 C   0  0  2  0  0  0  0  0  0  0  0  0
  144.1318  135.4613  150.9430 C   0  0  0  0  0  0  0  0  0  0  0  0
  144.4242  134.0241  150.5801 C   0  0  0  0  0  0  0  0  0  0  0  0
  145.4793  133.6583  151.6178 C   0  0  0  0  0  0  0  0  0  0  0  0
  146.1944  134.8618  151.8842 O   0  0  0  0  0  0  0  0  0  0  0  0
  143.6541  136.7052  153.2641 H   0  0  0  0  0  0  0  0  0  0  0  0
  144.6934  137.7774  154.1916 H   0  0  0  0  0  0  0  0  0  0  0  0
  145.0702  136.0590  154.0880 H   0  0  0  0  0  0  0  0  0  0  0  0
  145.0983  138.0351  151.7555 H   0  0  0  0  0  0  0  0  0  0  0  0
  147.6390  136.9777  152.2062 H   0  0  0  0  0  0  0  0  0  0  0  0
  149.1361  137.8679  153.0918 H   0  0  0  0  0  0  0  0  0  0  0  0
  151.2478  138.4566  153.8487 H   0  0  0  0  0  0  0  0  0  0  0  0
  152.6622  139.7922  155.3966 H   0  0  0  0  0  0  0  0  0  0  0  0
  151.4093  143.2561  156.1766 H   0  0  0  0  0  0  0  0  0  0  0  0
  150.3131  143.0811  157.5351 H   0  0  0  0  0  0  0  0  0  0  0  0
  153.3023  143.7208  157.6793 H   0  0  0  0  0  0  0  0  0  0  0  0
  151.9955  144.8162  158.0616 H   0  0  0  0  0  0  0  0  0  0  0  0
  153.0286  143.8131  160.1303 H   0  0  0  0  0  0  0  0  0  0  0  0
  151.3265  143.4310  159.9955 H   0  0  0  0  0  0  0  0  0  0  0  0
  153.6549  141.5966  159.2426 H   0  0  0  0  0  0  0  0  0  0  0  0
  152.5664  141.3788  160.5923 H   0  0  0  0  0  0  0  0  0  0  0  0
  150.6571  141.0084  159.0653 H   0  0  0  0  0  0  0  0  0  0  0  0
  151.9611  139.9145  158.6385 H   0  0  0  0  0  0  0  0  0  0  0  0
  147.7568  140.2255  155.7781 H   0  0  0  0  0  0  0  0  0  0  0  0
  146.0545  136.2364  150.3832 H   0  0  0  0  0  0  0  0  0  0  0  0
  143.4703  135.4984  151.8101 H   0  0  0  0  0  0  0  0  0  0  0  0
  143.6645  136.0205  150.1320 H   0  0  0  0  0  0  0  0  0  0  0  0
  143.5446  133.3813  150.6191 H   0  0  0  0  0  0  0  0  0  0  0  0
  144.8473  133.9688  149.5762 H   0  0  0  0  0  0  0  0  0  0  0  0
  145.0037  133.3274  152.5419 H   0  0  0  0  0  0  0  0  0  0  0  0
  146.1445  132.8655  151.2756 H   0  0  0  0  0  0  0  0  0  0  0  0
  149.1855  141.3972  157.1286 H   0  0  0  0  0  0  0  0  0  0  0  0
  1  2  1  0  0  0  0
  1 24  1  0  0  0  0
  1 25  1  0  0  0  0
  1 26  1  0  0  0  0
  2  3  1  0  0  0  0
  2 19  1  0  0  0  0
  2 27  1  0  0  0  0
  3  4  1  0  0  0  0
  3 28  1  0  0  0  0
  4  5  2  0  0  0  0
  4  6  1  0  0  0  0
  6  7  1  0  0  0  0
  6 29  1  0  0  0  0
  7 18  1  0  0  0  0
  7  8  2  0  0  0  0
  8  9  1  0  0  0  0
  8 30  1  0  0  0  0
  9 10  2  0  0  0  0
  9 31  1  0  0  0  0
 10 11  1  0  0  0  0
 10 17  1  0  0  0  0
 11 16  1  0  0  0  0
 11 12  1  0  0  0  0
 12 13  1  0  0  0  0
 12 32  1  0  0  0  0
 12 33  1  0  0  0  0
 13 14  1  0  0  0  0
 13 34  1  0  0  0  0
 13 35  1  0  0  0  0
 14 15  1  0  0  0  0
 14 36  1  0  0  0  0
 14 37  1  0  0  0  0
 15 16  1  0  0  0  0
 15 38  1  0  0  0  0
 15 39  1  0  0  0  0
 16 40  1  0  0  0  0
 16 41  1  0  0  0  0
 17 18  2  0  0  0  0
 17 50  1  0  0  0  0
 18 42  1  0  0  0  0
 19 23  1  0  0  0  0
 19 20  1  0  0  0  0
 19 43  1  0  0  0  0
 20 21  1  0  0  0  0
 20 44  1  0  0  0  0
 20 45  1  0  0  0  0
 21 22  1  0  0  0  0
 21 46  1  0  0  0  0
 21 47  1  0  0  0  0
 22 23  1  0  0  0  0
 22 48  1  0  0  0  0
 22 49  1  0  0  0  0
M  CHG  1  17   1
M  END
> <s_m_source_file>
AV-unprocessed.smi

> <i_m_source_file_index>
1940

> <i_lp_mmshare_version>
43012

> <i_f3d_flags>
0

> <s_epik_input>
TzFbQ0gyXVtDSDJdW0NIMl1bQ0BIXTFbQ0BIXShbQ0gzXSlbTkhdQyg9TylbTkhdYzJbY0hdW2NIXWMobltjSF0yKU4zW0NIMl1bQ0gyXVtDSDJdW0NIMl1bQ0gyXTM=

> <s_epik_cmdline>
J2VwaWtfcHl0aG9uJywgJy1waCcsICc3LjAnLCAnLXRuJywgJzgnLCAnLW1hJywgJzIwMCcsICctbWV0YWxfYmluZGluZycsICctaW1hZScsICc8aW5maWxlLm1hZT4nLCAnLW9tYWUnLCAnPG91dGZpbGUubWFlPic=

> <r_lp_tautomer_probability>
0.999994

> <r_epik_Ionization_Penalty>
1.10603

> <r_epik_Ionization_Penalty_Charging>
1.10601

> <r_epik_Ionization_Penalty_Neutral>
1.929e-05

> <r_epik_State_Penalty>
1.16358

> <r_epik_Charging_Adjusted_Penalty>
2.26959

> <i_epik_Tot_Q>
1

> <i_epik_Tot_abs_Q>
1

> <r_epik_Metal_State_Penalty>
1.25013

> <b_epik_Metal_Only>
0

> <s_lp_Force_Field>
OPLS_2005

> <r_lp_Energy>
42.9594

> <b_lp_Chiralities_Consistent>
1

> <s_lp_Variant>
AV-unprocessed.smi:1940-6

> <Gold.Version>
5.8.1

> <Gold.Id.Protein>
6NUR|6NUR_protein|mol2

> <Gold.PLP.Fitness>
46.1311

> <Gold.PLP.PLP>
-41.0610

> <Gold.PLP.part.hbond>
-2.4085

> <Gold.PLP.part.metal>
0.0000

> <Gold.PLP.part.buried>
-4.8021

> <Gold.PLP.part.nonpolar>
-35.7793

> <Gold.PLP.part.repulsive>
0.9733

> <Gold.PLP.ligand.clash>
0.0000

> <Gold.PLP.ligand.torsion>
0.3497

> <Gold.PLP.Chemscore.Hbond>
1.8640

> <Gold.PLP.Chemscore.CHOScore>
0.0000

> <Gold.PLP.Chemscore.Metal>
0.0000

> <Gold.Chemscore.Hbonds>
donor molecule, donor type, donor heavy atom, donor atom, acceptor molecule, acceptor atom, score
      L1  H     3    28       P1  7948  1.00
      L1  H     6    29       P1  7948  0.86

> <Gold.PLP.Chemscore.Internal.Correction>
0.1775

> <Gold.Rescore>
     Score         DG    S(hbond)    S(metal)    S(lipo)     H(rot)  DE(clash)    DE(int)     intcor
     17.59     -20.80       1.86        0.00     107.46       1.36       0.66       2.54       ----

> <Gold.Chemscore.Fitness>
17.5945

> <Gold.Chemscore.DG>
-20.7956

> <Gold.Chemscore.ZeroCoef>
-5.4800

> <Gold.Chemscore.Hbond>
1.8613

> <Gold.Chemscore.Metal>
0.0000

> <Gold.Chemscore.Lipo>
107.4608

> <Gold.Chemscore.Internal_Hbond>
0.0000

> <Gold.Chemscore.DEClash>
0.6615

> <Gold.Chemscore.DEInternal>
2.5396

> <Gold.Chemscore.Rot>
1.3571

> <Gold.Chemscore.Internal.Correction>
   9.000000E+99

> <Gold.Chemscore.Hbonds>
donor molecule, donor type, donor heavy atom, donor atom, acceptor molecule, acceptor atom, score
      L1  H     3    28       P1  7948  0.93
      L1  H     6    29       P1  7948  0.79

> <Gold.Chemscore.Hbond.Weighted>
-6.2168

> <Gold.Chemscore.Metal.Weighted>
-0.0000

> <Gold.Chemscore.Lipo.Weighted>
-12.5729

> <Gold.Chemscore.Internal_Hbond.Weighted>
0.0000

> <Gold.Chemscore.DEClash.Weighted>
0.6615

> <Gold.Chemscore.DEInternal.Weighted>
2.5396

> <Gold.Chemscore.Rot.Weighted>
3.4741

> <Gold.Chemscore.Internal.Correction.Weighted>
   9.000000E+99

> <Gold.Protein.RotatedTorsions>
[ 6907 6896 6895 6894 ] final  -39.81 input  -60.11 | X-H torsion
[ 7974 7965 7964 7962 ] final  -50.55 input  175.53 | X-H torsion
[ 8008 7997 7996 7995 ] final -135.69 input   59.86 | X-H torsion
[ 10167 10162 10161 10158 ] final -162.29 input  -65.29 | X-H torsion
[ 10718 10713 10712 10709 ] final -123.91 input   66.30 | X-H torsion
[ 10763 10752 10751 10750 ] final   52.39 input  -60.55 | X-H torsion
[ 11005 11000 10999 10996 ] final  125.96 input  -57.11 | X-H torsion

> <Gold.Protein.ActiveResidues>
 VAL166  LYS551  ARG553  GLY616  TRP617  ASP618  TYR619  PRO620  LYS621  CYS622 
 ASP623  PHE694  ASN695  SER759  ASP760  ASP761  ALA762  ILE779  LEU786  VAL792 
 PHE793  MET794  SER795  GLU796  ALA797  LYS798  CYS799  TRP800  GLU811  SER814 

> <Gold.Protein.RotatedAtoms>
  150.9859  134.9204  159.7870 H   0  0  0  0  0  0  0  0  0  0  0  0  # atno 6907 bound_to 6896
  152.5236  134.3348  159.9206 H   0  0  0  0  0  0  0  0  0  0  0  0  # atno 6908 bound_to 6896
  151.3354  133.3942  159.2701 H   0  0  0  0  0  0  0  0  0  0  0  0  # atno 6909 bound_to 6896
  145.9286  140.7769  142.9611 H   0  0  0  0  0  0  0  0  0  0  0  0  # atno 7974 bound_to 7965
  155.3829  140.0495  157.3043 H   0  0  0  0  0  0  0  0  0  0  0  0  # atno 8008 bound_to 7997
  154.5074  140.2179  155.9186 H   0  0  0  0  0  0  0  0  0  0  0  0  # atno 8009 bound_to 7997
  156.1541  140.3130  155.8703 H   0  0  0  0  0  0  0  0  0  0  0  0  # atno 8010 bound_to 7997
  139.6403  144.0272  152.2086 H   0  0  0  0  0  0  0  0  0  0  0  0  # atno 10167 bound_to 10162
  156.1543  130.6556  150.9958 H   0  0  0  0  0  0  0  0  0  0  0  0  # atno 10718 bound_to 10713
  152.9789  135.5814  154.4571 H   0  0  0  0  0  0  0  0  0  0  0  0  # atno 10763 bound_to 10752
  154.4152  135.2770  155.2013 H   0  0  0  0  0  0  0  0  0  0  0  0  # atno 10764 bound_to 10752
  154.3786  135.6152  153.5832 H   0  0  0  0  0  0  0  0  0  0  0  0  # atno 10765 bound_to 10752
  139.9432  134.9633  156.8636 H   0  0  0  0  0  0  0  0  0  0  0  0  # atno 11005 bound_to 11000
  144.6762  140.2091  143.7379 LP  0  0  0  0  0  0  0  0  0  0  0  0  # atno 17320 bound_to 7965
  145.8455  139.2150  143.1802 LP  0  0  0  0  0  0  0  0  0  0  0  0  # atno 17321 bound_to 7965
  139.9960  144.6327  150.7772 LP  0  0  0  0  0  0  0  0  0  0  0  0  # atno 17342 bound_to 10162
  140.7487  143.2927  151.3288 LP  0  0  0  0  0  0  0  0  0  0  0  0  # atno 17343 bound_to 10162
  157.6682  131.0867  150.7677 LP  0  0  0  0  0  0  0  0  0  0  0  0  # atno 17370 bound_to 10713
  156.7743  130.4839  149.5412 LP  0  0  0  0  0  0  0  0  0  0  0  0  # atno 17371 bound_to 10713
  140.5899  134.0272  155.7495 LP  0  0  0  0  0  0  0  0  0  0  0  0  # atno 17394 bound_to 11000
  141.1074  133.9671  157.2972 LP  0  0  0  0  0  0  0  0  0  0  0  0  # atno 17395 bound_to 11000

$$$$
