AV-unprocessed.smi:36|AV-procd|sdf|289|dock6
  -GOLD-   2262016 73D 1   1.00000     0.00000
 Structure written by MMmdl.
 64 67  0  0  0  0  0  0  0  0  1 V2000
  141.0250  130.3575  158.8298 C   0  0  0  0  0  0  0  0  0  0  0  0
  141.3809  131.3998  159.9029 C   0  0  0  0  0  0  0  0  0  0  0  0
  140.6447  132.7196  159.6162 C   0  0  0  0  0  0  0  0  0  0  0  0
  140.9833  130.8772  161.2933 C   0  0  0  0  0  0  0  0  0  0  0  0
  143.2629  131.7246  159.8734 Si  0  0  0  0  0  0  0  0  0  0  0  0
  143.7901  132.8477  161.3119 C   0  0  0  0  0  0  0  0  0  0  0  0
  144.2346  130.0926  159.9515 C   0  0  0  0  0  0  0  0  0  0  0  0
  143.6225  132.5240  158.4246 O   0  0  0  0  0  0  0  0  0  0  0  0
  144.9283  132.7007  157.9138 C   0  0  0  0  0  0  0  0  0  0  0  0
  144.8972  133.6972  156.7468 C   0  0  2  0  0  0  0  0  0  0  0  0
  146.0548  134.5241  156.8175 O   0  0  0  0  0  0  0  0  0  0  0  0
  145.7086  135.7753  156.3310 C   0  0  2  0  0  0  0  0  0  0  0  0
  146.6814  136.7790  156.8504 N   0  0  0  0  0  0  0  0  0  0  0  0
  146.4848  137.6750  157.8366 C   0  0  0  0  0  0  0  0  0  0  0  0
  147.5223  138.4644  158.1022 N   0  0  0  0  0  0  0  0  0  0  0  0
  148.4770  138.0294  157.1885 C   0  0  0  0  0  0  0  0  0  0  0  0
  149.8597  138.4979  156.9533 C   0  0  0  0  0  0  0  0  0  0  0  0
  150.3032  139.4637  157.6994 N   0  0  0  0  0  0  0  0  0  0  0  0
  151.5936  139.9454  157.5230 C   0  0  0  0  0  0  0  0  0  0  0  0
  152.4923  139.5059  156.8004 O   0  0  0  0  0  0  0  0  0  0  0  0
  151.8822  141.1651  158.3354 C   0  0  0  0  0  0  0  0  0  0  0  0
  152.6045  141.0567  159.5427 C   0  0  0  0  0  0  0  0  0  0  0  0
  152.8670  142.2059  160.3139 C   0  0  0  0  0  0  0  0  0  0  0  0
  152.4064  143.4650  159.8822 C   0  0  0  0  0  0  0  0  0  0  0  0
  151.6836  143.5755  158.6785 C   0  0  0  0  0  0  0  0  0  0  0  0
  151.4204  142.4273  157.9060 C   0  0  0  0  0  0  0  0  0  0  0  0
  150.4412  137.7610  155.9131 N   0  0  0  0  0  0  0  0  0  0  0  0
  149.8230  136.7292  155.1897 C   0  0  0  0  0  0  0  0  0  0  0  0
  148.6036  136.3042  155.3878 N   0  0  0  0  0  0  0  0  0  0  0  0
  147.9819  137.0037  156.4125 C   0  0  0  0  0  0  0  0  0  0  0  0
  144.3125  136.0411  156.8724 C   0  0  0  0  0  0  0  0  0  0  0  0
  143.6880  134.6579  156.7805 C   0  0  1  0  0  0  0  0  0  0  0  0
  142.9348  134.5398  155.5894 O   0  0  0  0  0  0  0  0  0  0  0  0
  139.9545  130.1493  158.8193 H   0  0  0  0  0  0  0  0  0  0  0  0
  141.5417  129.4136  159.0059 H   0  0  0  0  0  0  0  0  0  0  0  0
  141.3015  130.7030  157.8334 H   0  0  0  0  0  0  0  0  0  0  0  0
  140.8965  133.1103  158.6300 H   0  0  0  0  0  0  0  0  0  0  0  0
  140.9043  133.4855  160.3481 H   0  0  0  0  0  0  0  0  0  0  0  0
  139.5629  132.5857  159.6489 H   0  0  0  0  0  0  0  0  0  0  0  0
  139.9092  130.7005  161.3581 H   0  0  0  0  0  0  0  0  0  0  0  0
  141.2473  131.5912  162.0742 H   0  0  0  0  0  0  0  0  0  0  0  0
  141.4846  129.9371  161.5240 H   0  0  0  0  0  0  0  0  0  0  0  0
  143.5658  132.3945  162.2773 H   0  0  0  0  0  0  0  0  0  0  0  0
  143.2800  133.8101  161.2777 H   0  0  0  0  0  0  0  0  0  0  0  0
  144.8611  133.0483  161.2892 H   0  0  0  0  0  0  0  0  0  0  0  0
  144.0442  129.5588  160.8823 H   0  0  0  0  0  0  0  0  0  0  0  0
  145.3093  130.2631  159.8919 H   0  0  0  0  0  0  0  0  0  0  0  0
  143.9655  129.4243  159.1341 H   0  0  0  0  0  0  0  0  0  0  0  0
  145.5790  133.0610  158.7110 H   0  0  0  0  0  0  0  0  0  0  0  0
  145.3289  131.7414  157.5837 H   0  0  0  0  0  0  0  0  0  0  0  0
  144.9363  133.1635  155.7966 H   0  0  0  0  0  0  0  0  0  0  0  0
  145.7786  135.8084  155.2426 H   0  0  0  0  0  0  0  0  0  0  0  0
  145.5514  137.7519  158.3750 H   0  0  0  0  0  0  0  0  0  0  0  0
  152.9583  140.0937  159.8819 H   0  0  0  0  0  0  0  0  0  0  0  0
  153.4204  142.1210  161.2375 H   0  0  0  0  0  0  0  0  0  0  0  0
  152.6065  144.3454  160.4748 H   0  0  0  0  0  0  0  0  0  0  0  0
  151.3294  144.5409  158.3486 H   0  0  0  0  0  0  0  0  0  0  0  0
  150.8620  142.5193  156.9855 H   0  0  0  0  0  0  0  0  0  0  0  0
  150.4559  136.2877  154.4186 H   0  0  0  0  0  0  0  0  0  0  0  0
  144.3835  136.3518  157.9160 H   0  0  0  0  0  0  0  0  0  0  0  0
  143.8011  136.8173  156.3014 H   0  0  0  0  0  0  0  0  0  0  0  0
  143.0296  134.4726  157.6302 H   0  0  0  0  0  0  0  0  0  0  0  0
  142.8181  133.6217  155.3983 H   0  0  0  0  0  0  0  0  0  0  0  0
  151.3912  137.9941  155.6625 H   0  0  0  0  0  0  0  0  0  0  0  0
  1  2  1  0  0  0  0
  1 34  1  0  0  0  0
  1 35  1  0  0  0  0
  1 36  1  0  0  0  0
  2  3  1  0  0  0  0
  2  4  1  0  0  0  0
  2  5  1  0  0  0  0
  3 37  1  0  0  0  0
  3 38  1  0  0  0  0
  3 39  1  0  0  0  0
  4 40  1  0  0  0  0
  4 41  1  0  0  0  0
  4 42  1  0  0  0  0
  5  6  1  0  0  0  0
  5  7  1  0  0  0  0
  5  8  1  0  0  0  0
  6 43  1  0  0  0  0
  6 44  1  0  0  0  0
  6 45  1  0  0  0  0
  7 46  1  0  0  0  0
  7 47  1  0  0  0  0
  7 48  1  0  0  0  0
  8  9  1  0  0  0  0
  9 10  1  0  0  0  0
  9 49  1  0  0  0  0
  9 50  1  0  0  0  0
 10 32  1  0  0  0  0
 10 11  1  0  0  0  0
 10 51  1  0  0  0  0
 11 12  1  0  0  0  0
 12 13  1  0  0  0  0
 12 31  1  0  0  0  0
 12 52  1  0  0  0  0
 13 30  1  0  0  0  0
 13 14  1  0  0  0  0
 14 15  2  0  0  0  0
 14 53  1  0  0  0  0
 15 16  1  0  0  0  0
 16 30  2  0  0  0  0
 16 17  1  0  0  0  0
 17 18  2  0  0  0  0
 17 27  1  0  0  0  0
 18 19  1  0  0  0  0
 19 20  2  0  0  0  0
 19 21  1  0  0  0  0
 21 26  1  0  0  0  0
 21 22  2  0  0  0  0
 22 23  1  0  0  0  0
 22 54  1  0  0  0  0
 23 24  2  0  0  0  0
 23 55  1  0  0  0  0
 24 25  1  0  0  0  0
 24 56  1  0  0  0  0
 25 26  2  0  0  0  0
 25 57  1  0  0  0  0
 26 58  1  0  0  0  0
 27 28  1  0  0  0  0
 27 64  1  0  0  0  0
 28 29  2  0  0  0  0
 28 59  1  0  0  0  0
 29 30  1  0  0  0  0
 31 32  1  0  0  0  0
 31 60  1  0  0  0  0
 31 61  1  0  0  0  0
 32 33  1  0  0  0  0
 32 62  1  0  0  0  0
 33 63  1  0  0  0  0
M  END
> <s_m_source_file>
AV-unprocessed.smi

> <i_m_source_file_index>
36

> <i_lp_mmshare_version>
43012

> <i_f3d_flags>
0

> <s_epik_input>
W0NIM11DKFtDSDNdKShbQ0gzXSlbU2ldKFtDSDNdKShbQ0gzXSlPW0NIMl1bQ0BASF0xT1tDQEhdKFtDSDJdW0NASF0xW09IXSluKFtjSF1uMiljKGMyMyluW2NIXW5jM1tOSF1DKD1PKWM0W2NIXVtjSF1bY0hdW2NIXVtjSF00

> <s_epik_cmdline>
J2VwaWtfcHl0aG9uJywgJy1waCcsICc3LjAnLCAnLXRuJywgJzgnLCAnLW1hJywgJzIwMCcsICctbWV0YWxfYmluZGluZycsICctaW1hZScsICc8aW5maWxlLm1hZT4nLCAnLW9tYWUnLCAnPG91dGZpbGUubWFlPic=

> <r_epik_Ionization_Penalty>
0.0850405

> <r_epik_Ionization_Penalty_Charging>
0.0850403

> <r_epik_Ionization_Penalty_Neutral>
1.47497e-07

> <r_epik_State_Penalty>
2.6133

> <r_epik_Charging_Adjusted_Penalty>
2.69834

> <i_epik_Tot_Q>
0

> <i_epik_Tot_abs_Q>
0

> <r_epik_Metal_State_Penalty>
2.92945

> <b_epik_Metal_Only>
0

> <s_epik_Chemistry_Notes>
This compound contains an acetal/aminal-like group ( X-CH(R)-Y where X, Y are N, S, or O) that may be acid/base labile, releasing an aldehyde.

> <s_lp_Force_Field>
OPLS_2005

> <r_lp_Energy>
44.9546

> <b_lp_Chiralities_Consistent>
1

> <s_lp_Variant>
AV-unprocessed.smi:36-11

> <Gold.Version>
5.8.1

> <Gold.Id.Protein>
6NUR|6NUR_protein|mol2

> <Gold.PLP.Fitness>
43.6829

> <Gold.PLP.PLP>
-39.7975

> <Gold.PLP.part.hbond>
-3.4469

> <Gold.PLP.part.metal>
0.0000

> <Gold.PLP.part.buried>
-6.9288

> <Gold.PLP.part.nonpolar>
-29.8563

> <Gold.PLP.part.repulsive>
0.2391

> <Gold.PLP.ligand.clash>
0.0000

> <Gold.PLP.ligand.torsion>
2.6224

> <Gold.PLP.Chemscore.Hbond>
2.0000

> <Gold.PLP.Chemscore.CHOScore>
0.9255

> <Gold.PLP.Chemscore.Metal>
0.0000

> <Gold.Chemscore.Hbonds>
donor molecule, donor type, donor heavy atom, donor atom, acceptor molecule, acceptor atom, score
      L1  H    33    63       P1 10957  1.00
      P1  H  7997  8008       L1    20  1.00
      L1  C    28    59       P1  7948  0.01

> <Gold.PLP.Chemscore.Internal.Correction>
0.3538

> <Gold.Rescore>
     Score         DG    S(hbond)    S(metal)    S(lipo)     H(rot)  DE(clash)    DE(int)     intcor
     13.72     -16.27       1.99        0.00      94.70       2.70       0.00       2.55       ----

> <Gold.Chemscore.Fitness>
13.7206

> <Gold.Chemscore.DG>
-16.2710

> <Gold.Chemscore.ZeroCoef>
-5.4800

> <Gold.Chemscore.Hbond>
1.9861

> <Gold.Chemscore.Metal>
0.0000

> <Gold.Chemscore.Lipo>
94.7010

> <Gold.Chemscore.Internal_Hbond>
0.0000

> <Gold.Chemscore.DEClash>
0.0015

> <Gold.Chemscore.DEInternal>
2.5489

> <Gold.Chemscore.Rot>
2.7041

> <Gold.Chemscore.Internal.Correction>
   9.000000E+99

> <Gold.Chemscore.Hbonds>
donor molecule, donor type, donor heavy atom, donor atom, acceptor molecule, acceptor atom, score
      L1  H    33    63       P1 10957  0.99
      P1  H  7997  8008       L1    20  0.98

> <Gold.Chemscore.Hbond.Weighted>
-6.6334

> <Gold.Chemscore.Metal.Weighted>
-0.0000

> <Gold.Chemscore.Lipo.Weighted>
-11.0800

> <Gold.Chemscore.Internal_Hbond.Weighted>
0.0000

> <Gold.Chemscore.DEClash.Weighted>
0.0015

> <Gold.Chemscore.DEInternal.Weighted>
2.5489

> <Gold.Chemscore.Rot.Weighted>
6.9225

> <Gold.Chemscore.Internal.Correction.Weighted>
   9.000000E+99

> <Gold.Protein.RotatedTorsions>
[ 6907 6896 6895 6894 ] final -108.31 input  -60.11 | X-H torsion
[ 7974 7965 7964 7962 ] final  -88.30 input  175.53 | X-H torsion
[ 8008 7997 7996 7995 ] final  -53.81 input   59.86 | X-H torsion
[ 10167 10162 10161 10158 ] final  111.88 input  -65.29 | X-H torsion
[ 10718 10713 10712 10709 ] final   33.62 input   66.30 | X-H torsion
[ 10763 10752 10751 10750 ] final  -73.20 input  -60.55 | X-H torsion
[ 11005 11000 10999 10996 ] final  101.47 input  -57.11 | X-H torsion

> <Gold.Protein.ActiveResidues>
 VAL166  LYS551  ARG553  GLY616  TRP617  ASP618  TYR619  PRO620  LYS621  CYS622 
 ASP623  PHE694  ASN695  SER759  ASP760  ASP761  ALA762  ILE779  LEU786  VAL792 
 PHE793  MET794  SER795  GLU796  ALA797  LYS798  CYS799  TRP800  GLU811  SER814 

> <Gold.Protein.RotatedAtoms>
  150.7494  133.9696  159.3541 H   0  0  0  0  0  0  0  0  0  0  0  0  # atno 6907 bound_to 6896
  151.7629  135.0803  160.0357 H   0  0  0  0  0  0  0  0  0  0  0  0  # atno 6908 bound_to 6896
  152.3391  133.6009  159.5900 H   0  0  0  0  0  0  0  0  0  0  0  0  # atno 6909 bound_to 6896
  145.4549  140.9561  143.2001 H   0  0  0  0  0  0  0  0  0  0  0  0  # atno 7974 bound_to 7965
  154.4144  140.1191  156.5215 H   0  0  0  0  0  0  0  0  0  0  0  0  # atno 8008 bound_to 7997
  155.6698  140.3496  155.4795 H   0  0  0  0  0  0  0  0  0  0  0  0  # atno 8009 bound_to 7997
  155.9642  140.1129  157.0859 H   0  0  0  0  0  0  0  0  0  0  0  0  # atno 8010 bound_to 7997
  139.6578  144.7129  151.1924 H   0  0  0  0  0  0  0  0  0  0  0  0  # atno 10167 bound_to 10162
  157.3001  130.7346  149.6662 H   0  0  0  0  0  0  0  0  0  0  0  0  # atno 10718 bound_to 10713
  154.4562  135.5905  153.6224 H   0  0  0  0  0  0  0  0  0  0  0  0  # atno 10763 bound_to 10752
  152.9818  135.6033  154.3544 H   0  0  0  0  0  0  0  0  0  0  0  0  # atno 10764 bound_to 10752
  154.3410  135.2841  155.2401 H   0  0  0  0  0  0  0  0  0  0  0  0  # atno 10765 bound_to 10752
  139.8773  134.9184  156.4911 H   0  0  0  0  0  0  0  0  0  0  0  0  # atno 11005 bound_to 11000
  144.8038  139.6090  143.7060 LP  0  0  0  0  0  0  0  0  0  0  0  0  # atno 17320 bound_to 7965
  146.2483  139.6146  142.9444 LP  0  0  0  0  0  0  0  0  0  0  0  0  # atno 17321 bound_to 7965
  140.7567  143.6044  150.8667 LP  0  0  0  0  0  0  0  0  0  0  0  0  # atno 17342 bound_to 10162
  139.9699  143.6069  152.2977 LP  0  0  0  0  0  0  0  0  0  0  0  0  # atno 17343 bound_to 10162
  155.9671  130.4282  150.4780 LP  0  0  0  0  0  0  0  0  0  0  0  0  # atno 17370 bound_to 10713
  157.2759  131.0597  151.2230 LP  0  0  0  0  0  0  0  0  0  0  0  0  # atno 17371 bound_to 10713
  140.8658  133.8025  155.9312 LP  0  0  0  0  0  0  0  0  0  0  0  0  # atno 17394 bound_to 11000
  140.9003  134.2386  157.5045 LP  0  0  0  0  0  0  0  0  0  0  0  0  # atno 17395 bound_to 11000

$$$$
