AV-unprocessed.smi:3249|AV-procd|sdf|12421|dock3
  -GOLD-   2272018303D 1   1.00000     0.00000
 Structure written by MMmdl.
 44 45  0  0  0  0  0  0  0  0  2 V2000
  151.1216  135.7275  155.3294 C   0  0  0  0  0  0  0  0  0  0  0  0
  151.1637  137.2274  155.2705 C   0  0  0  0  0  0  0  0  0  0  0  0
  151.0556  138.0621  154.1223 C   0  0  0  0  0  0  0  0  0  0  0  0
  151.1322  139.3500  154.4144 N   0  0  0  0  0  0  0  0  0  0  0  0
  151.2957  139.3866  155.7543 N   0  0  0  0  0  0  0  0  0  0  0  0
  151.4078  140.6707  156.4343 C   0  0  2  0  0  0  0  0  0  0  0  0
  151.8852  140.4536  157.8821 C   0  0  0  0  0  0  0  0  0  0  0  0
  150.0909  141.4866  156.3432 C   0  0  2  0  0  0  0  0  0  0  0  0
  149.4844  141.5015  154.9283 C   0  0  0  0  0  0  0  0  0  0  0  0
  150.3181  142.8831  156.7774 N   0  3  0  0  0  0  0  0  0  0  0  0
  149.9651  143.1629  158.1845 C   0  0  0  0  0  0  0  0  0  0  0  0
  151.2032  143.5786  158.9900 C   0  0  1  0  0  0  0  0  0  0  0  0
  150.9233  144.8070  159.8772 C   0  0  0  0  0  0  0  0  0  0  0  0
  152.1435  145.1359  160.7445 C   0  0  0  0  0  0  0  0  0  0  0  0
  152.5778  143.8875  161.5197 C   0  0  0  0  0  0  0  0  0  0  0  0
  152.7683  142.7020  160.5606 C   0  0  0  0  0  0  0  0  0  0  0  0
  151.5709  142.4794  159.8214 O   0  0  0  0  0  0  0  0  0  0  0  0
  151.3144  138.1168  156.2960 C   0  0  0  0  0  0  0  0  0  0  0  0
  150.9981  135.2855  154.3404 H   0  0  0  0  0  0  0  0  0  0  0  0
  150.2953  135.3728  155.9455 H   0  0  0  0  0  0  0  0  0  0  0  0
  152.0384  135.3162  155.7519 H   0  0  0  0  0  0  0  0  0  0  0  0
  150.9236  137.7709  153.0905 H   0  0  0  0  0  0  0  0  0  0  0  0
  152.1865  141.2395  155.9217 H   0  0  0  0  0  0  0  0  0  0  0  0
  152.1210  141.3988  158.3713 H   0  0  0  0  0  0  0  0  0  0  0  0
  152.7902  139.8455  157.9076 H   0  0  0  0  0  0  0  0  0  0  0  0
  151.1285  139.9480  158.4825 H   0  0  0  0  0  0  0  0  0  0  0  0
  149.3510  141.0246  156.9996 H   0  0  0  0  0  0  0  0  0  0  0  0
  149.1956  140.5030  154.5995 H   0  0  0  0  0  0  0  0  0  0  0  0
  150.1906  141.9002  154.1990 H   0  0  0  0  0  0  0  0  0  0  0  0
  148.5865  142.1192  154.8938 H   0  0  0  0  0  0  0  0  0  0  0  0
  151.2945  143.1036  156.6395 H   0  0  0  0  0  0  0  0  0  0  0  0
  149.2227  143.9620  158.2016 H   0  0  0  0  0  0  0  0  0  0  0  0
  149.5030  142.2849  158.6376 H   0  0  0  0  0  0  0  0  0  0  0  0
  152.0198  143.8064  158.3021 H   0  0  0  0  0  0  0  0  0  0  0  0
  150.6623  145.6683  159.2614 H   0  0  0  0  0  0  0  0  0  0  0  0
  150.0636  144.6102  160.5191 H   0  0  0  0  0  0  0  0  0  0  0  0
  152.9627  145.4795  160.1115 H   0  0  0  0  0  0  0  0  0  0  0  0
  151.9142  145.9505  161.4320 H   0  0  0  0  0  0  0  0  0  0  0  0
  153.5004  144.0841  162.0666 H   0  0  0  0  0  0  0  0  0  0  0  0
  151.8203  143.6355  162.2630 H   0  0  0  0  0  0  0  0  0  0  0  0
  153.6014  142.8811  159.8793 H   0  0  0  0  0  0  0  0  0  0  0  0
  153.0066  141.7997  161.1240 H   0  0  0  0  0  0  0  0  0  0  0  0
  151.4327  137.9509  157.3567 H   0  0  0  0  0  0  0  0  0  0  0  0
  149.7683  143.4930  156.1893 H   0  0  0  0  0  0  0  0  0  0  0  0
  1  2  1  0  0  0  0
  1 19  1  0  0  0  0
  1 20  1  0  0  0  0
  1 21  1  0  0  0  0
  2 18  2  0  0  0  0
  2  3  1  0  0  0  0
  3  4  2  0  0  0  0
  3 22  1  0  0  0  0
  4  5  1  0  0  0  0
  5  6  1  0  0  0  0
  5 18  1  0  0  0  0
  6  7  1  0  0  0  0
  6  8  1  0  0  0  0
  6 23  1  0  0  0  0
  7 24  1  0  0  0  0
  7 25  1  0  0  0  0
  7 26  1  0  0  0  0
  8  9  1  0  0  0  0
  8 10  1  0  0  0  0
  8 27  1  0  0  0  0
  9 28  1  0  0  0  0
  9 29  1  0  0  0  0
  9 30  1  0  0  0  0
 10 11  1  0  0  0  0
 10 31  1  0  0  0  0
 10 44  1  0  0  0  0
 11 12  1  0  0  0  0
 11 32  1  0  0  0  0
 11 33  1  0  0  0  0
 12 17  1  0  0  0  0
 12 13  1  0  0  0  0
 12 34  1  0  0  0  0
 13 14  1  0  0  0  0
 13 35  1  0  0  0  0
 13 36  1  0  0  0  0
 14 15  1  0  0  0  0
 14 37  1  0  0  0  0
 14 38  1  0  0  0  0
 15 16  1  0  0  0  0
 15 39  1  0  0  0  0
 15 40  1  0  0  0  0
 16 17  1  0  0  0  0
 16 41  1  0  0  0  0
 16 42  1  0  0  0  0
 18 43  1  0  0  0  0
M  CHG  1  10   1
M  END
> <s_m_source_file>
AV-unprocessed.smi

> <i_m_source_file_index>
3249

> <i_lp_mmshare_version>
43012

> <i_f3d_flags>
0

> <s_epik_input>
W0NIM11jMVtjSF1ubihbY0hdMSlbQ0BIXShbQ0gzXSlbQ0BIXShbQ0gzXSlbTkhdW0NIMl1bQ0BASF0yW0NIMl1bQ0gyXVtDSDJdW0NIMl1PMg==

> <s_epik_cmdline>
J2VwaWtfcHl0aG9uJywgJy1waCcsICc3LjAnLCAnLXRuJywgJzgnLCAnLW1hJywgJzIwMCcsICctbWV0YWxfYmluZGluZycsICctaW1hZScsICc8aW5maWxlLm1hZT4nLCAnLW9tYWUnLCAnPG91dGZpbGUubWFlPic=

> <r_lp_tautomer_probability>
1

> <r_epik_Ionization_Penalty>
0.00659207

> <r_epik_Ionization_Penalty_Charging>
0.00656881

> <r_epik_Ionization_Penalty_Neutral>
2.32662e-05

> <r_epik_State_Penalty>
0.0048654

> <r_epik_Charging_Adjusted_Penalty>
0.0114342

> <i_epik_Tot_Q>
1

> <i_epik_Tot_abs_Q>
1

> <r_epik_Metal_State_Penalty>
-0

> <b_epik_Metal_Only>
0

> <s_lp_Force_Field>
OPLS_2005

> <r_lp_Energy>
18.8744

> <b_lp_Chiralities_Consistent>
1

> <s_lp_Variant>
AV-unprocessed.smi:3249-5

> <Gold.Version>
5.8.1

> <Gold.Id.Protein>
6NUR|6NUR_protein|mol2

> <Gold.PLP.Fitness>
47.4718

> <Gold.PLP.PLP>
-38.8971

> <Gold.PLP.part.hbond>
-2.7439

> <Gold.PLP.part.metal>
0.0000

> <Gold.PLP.part.buried>
-4.1298

> <Gold.PLP.part.nonpolar>
-31.4515

> <Gold.PLP.part.repulsive>
0.1849

> <Gold.PLP.ligand.clash>
0.0000

> <Gold.PLP.ligand.torsion>
1.8737

> <Gold.PLP.Chemscore.Hbond>
3.0000

> <Gold.PLP.Chemscore.CHOScore>
1.0629

> <Gold.PLP.Chemscore.Metal>
0.0000

> <Gold.Chemscore.Hbonds>
donor molecule, donor type, donor heavy atom, donor atom, acceptor molecule, acceptor atom, score
      L1  H    10    44       P1  8028  2.00
      P1  H  7989  7998       L1     4  1.00
      L1  C     3    22       P1  7948  0.12
      L1  C     3    22       P1  7949  0.97

> <Gold.PLP.Chemscore.Internal.Correction>
0.1333

> <Gold.Rescore>
     Score         DG    S(hbond)    S(metal)    S(lipo)     H(rot)  DE(clash)    DE(int)     intcor
     16.17     -20.96       1.91        0.00     111.32       1.53       0.15       4.64       ----

> <Gold.Chemscore.Fitness>
16.1712

> <Gold.Chemscore.DG>
-20.9627

> <Gold.Chemscore.ZeroCoef>
-5.4800

> <Gold.Chemscore.Hbond>
1.9113

> <Gold.Chemscore.Metal>
0.0000

> <Gold.Chemscore.Lipo>
111.3175

> <Gold.Chemscore.Internal_Hbond>
0.0000

> <Gold.Chemscore.DEClash>
0.1481

> <Gold.Chemscore.DEInternal>
4.6435

> <Gold.Chemscore.Rot>
1.5333

> <Gold.Chemscore.Internal.Correction>
   9.000000E+99

> <Gold.Chemscore.Hbonds>
donor molecule, donor type, donor heavy atom, donor atom, acceptor molecule, acceptor atom, score
      L1  H    10    44       P1  8028  0.98
      P1  H  7989  7998       L1     4  0.94

> <Gold.Chemscore.Hbond.Weighted>
-6.3838

> <Gold.Chemscore.Metal.Weighted>
-0.0000

> <Gold.Chemscore.Lipo.Weighted>
-13.0241

> <Gold.Chemscore.Internal_Hbond.Weighted>
0.0000

> <Gold.Chemscore.DEClash.Weighted>
0.1481

> <Gold.Chemscore.DEInternal.Weighted>
4.6435

> <Gold.Chemscore.Rot.Weighted>
3.9252

> <Gold.Chemscore.Internal.Correction.Weighted>
   9.000000E+99

> <Gold.Protein.RotatedTorsions>
[ 6907 6896 6895 6894 ] final    6.21 input  -60.11 | X-H torsion
[ 7974 7965 7964 7962 ] final -169.41 input  175.53 | X-H torsion
[ 8008 7997 7996 7995 ] final  -85.42 input   59.86 | X-H torsion
[ 10167 10162 10161 10158 ] final  170.36 input  -65.29 | X-H torsion
[ 10718 10713 10712 10709 ] final  115.99 input   66.30 | X-H torsion
[ 10763 10752 10751 10750 ] final  150.52 input  -60.55 | X-H torsion
[ 11005 11000 10999 10996 ] final -105.55 input  -57.11 | X-H torsion

> <Gold.Protein.ActiveResidues>
 VAL166  LYS551  ARG553  GLY616  TRP617  ASP618  TYR619  PRO620  LYS621  CYS622 
 ASP623  PHE694  ASN695  SER759  ASP760  ASP761  ALA762  ILE779  LEU786  VAL792 
 PHE793  MET794  SER795  GLU796  ALA797  LYS798  CYS799  TRP800  GLU811  SER814 

> <Gold.Protein.RotatedAtoms>
  151.6700  135.0977  160.0195 H   0  0  0  0  0  0  0  0  0  0  0  0  # atno 6907 bound_to 6896
  152.3897  133.6657  159.6236 H   0  0  0  0  0  0  0  0  0  0  0  0  # atno 6908 bound_to 6896
  150.7815  133.8892  159.3349 H   0  0  0  0  0  0  0  0  0  0  0  0  # atno 6909 bound_to 6896
  144.7186  140.2226  143.6314 H   0  0  0  0  0  0  0  0  0  0  0  0  # atno 7974 bound_to 7965
  154.6405  140.0592  156.9840 H   0  0  0  0  0  0  0  0  0  0  0  0  # atno 8008 bound_to 7997
  155.1524  140.3275  155.4410 H   0  0  0  0  0  0  0  0  0  0  0  0  # atno 8009 bound_to 7997
  156.2529  140.1945  156.6635 H   0  0  0  0  0  0  0  0  0  0  0  0  # atno 8010 bound_to 7997
  139.5016  144.3605  151.9829 H   0  0  0  0  0  0  0  0  0  0  0  0  # atno 10167 bound_to 10162
  157.6188  131.1019  150.7409 H   0  0  0  0  0  0  0  0  0  0  0  0  # atno 10718 bound_to 10713
  154.0889  135.2854  155.3275 H   0  0  0  0  0  0  0  0  0  0  0  0  # atno 10763 bound_to 10752
  154.6633  135.5326  153.8049 H   0  0  0  0  0  0  0  0  0  0  0  0  # atno 10764 bound_to 10752
  153.0421  135.6539  154.1059 H   0  0  0  0  0  0  0  0  0  0  0  0  # atno 10765 bound_to 10752
  141.1048  133.8818  157.1748 H   0  0  0  0  0  0  0  0  0  0  0  0  # atno 11005 bound_to 11000
  145.8487  139.2165  143.1785 LP  0  0  0  0  0  0  0  0  0  0  0  0  # atno 17320 bound_to 7965
  146.0280  140.8285  142.9890 LP  0  0  0  0  0  0  0  0  0  0  0  0  # atno 17321 bound_to 7965
  140.3041  144.3612  150.6052 LP  0  0  0  0  0  0  0  0  0  0  0  0  # atno 17342 bound_to 10162
  140.5850  143.2170  151.7359 LP  0  0  0  0  0  0  0  0  0  0  0  0  # atno 17343 bound_to 10162
  156.7770  130.4847  149.5408 LP  0  0  0  0  0  0  0  0  0  0  0  0  # atno 17370 bound_to 10713
  156.1323  130.6187  151.0351 LP  0  0  0  0  0  0  0  0  0  0  0  0  # atno 17371 bound_to 10713
  139.9913  135.0063  156.9982 LP  0  0  0  0  0  0  0  0  0  0  0  0  # atno 17394 bound_to 11000
  140.4931  134.1173  155.7236 LP  0  0  0  0  0  0  0  0  0  0  0  0  # atno 17395 bound_to 11000

$$$$
