#       Name:                AV-unprocessed.smi:3314
#       Creating user name   scv26
#       Creation time:       Fri Mar 27 19:08:43 2020


#       File generated by GOLD software.
#

@<TRIPOS>MOLECULE
AV-unprocessed.smi:3314
    43    44     1
SMALL
NO_CHARGES


@<TRIPOS>ATOM
      1 ****        -4.3296  -2.3873  -1.2184 C.3            1 S1                 0.0000
      2 ****        -3.7162  -1.4017  -0.2464 C.ar           1 S1                 0.0000
      3 ****        -4.5293  -0.6651   0.6352 C.ar           1 S1                 0.0000
      4 ****        -3.9030   0.2326   1.5214 C.ar           1 S1                 0.0000
      5 ****        -4.7199   1.0572   2.4936 C.3            1 S1                 0.0000
      6 ****        -2.5659   0.4201   1.5598 N.ar           1 S1                 0.0000
      7 ****        -1.7728  -0.2768   0.7118 C.ar           1 S1                 0.0000
      8 ****        -0.4466  -0.0887   0.7676 N.pl3          1 S1                -1.0000
      9 ****         0.1406   0.8356  -0.0318 C.2            1 S1                 0.0000
     10 ****        -0.3792   1.5749  -0.8701 O.2            1 S1                 0.0000
     11 ****         1.6567   0.8948   0.1984 C.3            1 S1                 0.0000
     12 ****         2.3848  -0.2096  -0.5985 C.3            1 S1                 0.0000
     13 ****         3.8503  -0.0859  -0.4320 N.4            1 S1                 1.0000
     14 ****         4.5962  -1.1487  -1.1386 C.3            1 S1                 0.0000
     15 ****         4.3104   1.2738  -0.7931 C.3            1 S1                 0.0000
     16 ****         3.5299   2.3285   0.0078 C.3            1 S1                 0.0000
     17 ****         2.1371   2.1687  -0.2272 O.3            1 S1                 0.0000
     18 ****        -2.3209  -1.2069  -0.2023 C.ar           1 S1                 0.0000
     19 ****        -5.2861  -2.0179  -1.5894 H              1 S1                 0.0000
     20 ****        -4.4969  -3.3454  -0.7261 H              1 S1                 0.0000
     21 ****        -3.6746  -2.5500  -2.0748 H              1 S1                 0.0000
     22 ****        -5.6026  -0.7863   0.6331 H              1 S1                 0.0000
     23 ****        -5.6738   0.5751   2.7083 H              1 S1                 0.0000
     24 ****        -4.9195   2.0428   2.0730 H              1 S1                 0.0000
     25 ****        -4.1876   1.1868   3.4366 H              1 S1                 0.0000
     26 ****         1.8627   0.7855   1.2661 H              1 S1                 0.0000
     27 ****         2.0666  -1.1946  -0.2536 H              1 S1                 0.0000
     28 ****         2.1316  -0.1439  -1.6585 H              1 S1                 0.0000
     29 ****         4.4383  -1.0876  -2.2162 H              1 S1                 0.0000
     30 ****         4.2739  -2.1339  -0.8002 H              1 S1                 0.0000
     31 ****         5.6656  -1.0626  -0.9435 H              1 S1                 0.0000
     32 ****         5.3779   1.3683  -0.5909 H              1 S1                 0.0000
     33 ****         4.1689   1.4371  -1.8626 H              1 S1                 0.0000
     34 ****         3.7436   2.2467   1.0747 H              1 S1                 0.0000
     35 ****         3.8271   3.3308  -0.3006 H              1 S1                 0.0000
     36 ****        -1.6747  -1.7626  -0.8665 H              1 S1                 0.0000
     37 ****         4.0370  -0.2036   0.5537 H              1 S1                 0.0000
     38 ****        -2.1654   1.0674   2.2083 LP             1 S1                 0.0000
     39 ****         0.1093  -0.6299   1.3986 LP             1 S1                 0.0000
     40 ****        -1.3657   1.5350  -1.0288 LP             1 S1                 0.0000
     41 ****         0.1856   2.2145  -1.3914 LP             1 S1                 0.0000
     42 ****         1.6434   2.8811   0.2715 LP             1 S1                 0.0000
     43 ****         1.9634   2.2664  -1.2071 LP             1 S1                 0.0000
@<TRIPOS>BOND
    1    1    2 1     
    2    1   19 1     
    3    1   20 1     
    4    1   21 1     
    5    2   18 ar    
    6    2    3 ar    
    7    3    4 ar    
    8    3   22 1     
    9    4    5 1     
   10    4    6 ar    
   11    5   23 1     
   12    5   24 1     
   13    5   25 1     
   14    6    7 ar    
   15    7    8 1     
   16    7   18 ar    
   17    8    9 1     
   18    9   10 2     
   19    9   11 1     
   20   11   17 1     
   21   11   12 1     
   22   11   26 1     
   23   12   13 1     
   24   12   27 1     
   25   12   28 1     
   26   13   14 1     
   27   13   15 1     
   28   13   37 1     
   29   14   29 1     
   30   14   30 1     
   31   14   31 1     
   32   15   16 1     
   33   15   32 1     
   34   15   33 1     
   35   16   17 1     
   36   16   34 1     
   37   16   35 1     
   38   18   36 1     
   39    6   38 1     
   40    8   39 1     
   41   10   40 1     
   42   10   41 1     
   43   17   42 1     
   44   17   43 1     
@<TRIPOS>SUBSTRUCTURE
      1 S1             1
@<TRIPOS>SET
LONE_PAIRS      STATIC     ATOMS    <user>   **** ""
6 38 39 40 41 42 43
DONOR_HYDROGENS      STATIC     ATOMS    <user>   **** ""
1 37
ATOM$BLUE        STATIC     ATOMS    COLORGROUP SYSTEM
6 38 39 40 41 42 43
ATOM$RED        STATIC     ATOMS    COLORGROUP SYSTEM
1 37
