#       Name:                AV-unprocessed.smi:37
#       Creating user name   scv26
#       Creation time:       Thu Mar 26 16:14:54 2020


#       File generated by GOLD software.
#

@<TRIPOS>MOLECULE
AV-unprocessed.smi:37
    54    55     1
SMALL
NO_CHARGES


@<TRIPOS>ATOM
      1 ****        -4.7713   3.8931   1.1358 C.3            1 S1                 0.0000
      2 ****        -3.2491   3.7427   0.9967 C.3            1 S1                 0.0000
      3 ****        -2.8225   2.4682   0.2648 C.2            1 S1                 0.0000
      4 ****        -3.6342   1.6277  -0.1276 O.2            1 S1                 0.0000
      5 ****        -1.4914   2.3975   0.1178 O.3            1 S1                 0.0000
      6 ****        -0.9157   1.2752  -0.5293 C.3            1 S1                 0.0000
      7 ****         0.6099   1.4425  -0.5781 C.3            1 S1                 0.0000
      8 ****         1.2002   1.2772   0.7115 O.3            1 S1                 0.0000
      9 ****         2.4358   0.6261   0.6135 C.3            1 S1                 0.0000
     10 ****         2.3503  -0.7241   1.3014 N.am           1 S1                 0.0000
     11 ****         1.1324  -1.2817   1.6588 C.2            1 S1                 0.0000
     12 ****         1.0618  -2.4921   2.2485 C.2            1 S1                 0.0000
     13 ****        -0.1358  -3.0098   2.5721 F              1 S1                 0.0000
     14 ****         2.2898  -3.2334   2.5271 C.2            1 S1                 0.0000
     15 ****         2.2191  -4.3390   3.0615 O.2            1 S1                 0.0000
     16 ****         3.4756  -2.6568   2.1769 N.pl3          1 S1                -1.0000
     17 ****         3.5518  -1.4329   1.5771 C.2            1 S1                 0.0000
     18 ****         4.6172  -0.9071   1.2541 O.2            1 S1                 0.0000
     19 ****         2.7320   0.4459  -0.8833 C.3            1 S1                 0.0000
     20 ****         3.7557   2.0191  -1.5515 Br             1 S1                 0.0000
     21 ****         1.3404   0.4530  -1.4924 C.3            1 S1                 0.0000
     22 ****         0.7495  -0.8382  -1.3905 O.3            1 S1                 0.0000
     23 ****         0.9437  -1.7653  -2.3427 C.2            1 S1                 0.0000
     24 ****         1.5834  -1.6096  -3.3827 O.2            1 S1                 0.0000
     25 ****         0.3055  -3.1082  -1.9918 C.3            1 S1                 0.0000
     26 ****        -1.1927  -2.9873  -1.6791 C.3            1 S1                 0.0000
     27 ****        -5.0180   4.8124   1.6670 H              1 S1                 0.0000
     28 ****        -5.2051   3.0632   1.6948 H              1 S1                 0.0000
     29 ****        -5.2575   3.9353   0.1605 H              1 S1                 0.0000
     30 ****        -2.8431   4.6015   0.4617 H              1 S1                 0.0000
     31 ****        -2.7897   3.7415   1.9854 H              1 S1                 0.0000
     32 ****        -1.1901   0.3546  -0.0131 H              1 S1                 0.0000
     33 ****        -1.3100   1.2122  -1.5445 H              1 S1                 0.0000
     34 ****         0.8494   2.4511  -0.9176 H              1 S1                 0.0000
     35 ****         3.2035   1.1760   1.1602 H              1 S1                 0.0000
     36 ****         0.2107  -0.7575   1.4602 H              1 S1                 0.0000
     37 ****         3.3164  -0.4491  -1.0987 H              1 S1                 0.0000
     38 ****         1.3384   0.7906  -2.5299 H              1 S1                 0.0000
     39 ****         0.4529  -3.7940  -2.8264 H              1 S1                 0.0000
     40 ****         0.8319  -3.5332  -1.1365 H              1 S1                 0.0000
     41 ****        -1.6282  -3.9718  -1.5092 H              1 S1                 0.0000
     42 ****        -1.7354  -2.5231  -2.5033 H              1 S1                 0.0000
     43 ****        -1.3673  -2.3929  -0.7811 H              1 S1                 0.0000
     44 ****        -4.6122   1.7660   0.0288 LP             1 S1                 0.0000
     45 ****        -3.3148   0.8076  -0.6022 LP             1 S1                 0.0000
     46 ****         0.5877   0.7333   1.2851 LP             1 S1                 0.0000
     47 ****         1.3356   2.1764   1.1277 LP             1 S1                 0.0000
     48 ****         1.3271  -4.7224   3.3011 LP             1 S1                 0.0000
     49 ****         3.0536  -4.8544   3.2565 LP             1 S1                 0.0000
     50 ****         4.3238  -3.1510   2.3675 LP             1 S1                 0.0000
     51 ****         4.6184  -0.0097   0.8129 LP             1 S1                 0.0000
     52 ****         5.4814  -1.3774   1.4330 LP             1 S1                 0.0000
     53 ****         2.0148  -0.7287  -3.5772 LP             1 S1                 0.0000
     54 ****         1.6717  -2.3640  -4.0331 LP             1 S1                 0.0000
@<TRIPOS>BOND
    1    1    2 1     
    2    1   27 1     
    3    1   28 1     
    4    1   29 1     
    5    2    3 1     
    6    2   30 1     
    7    2   31 1     
    8    3    4 2     
    9    3    5 1     
   10    5    6 1     
   11    6    7 1     
   12    6   32 1     
   13    6   33 1     
   14    7   21 1     
   15    7    8 1     
   16    7   34 1     
   17    8    9 1     
   18    9   10 1     
   19    9   19 1     
   20    9   35 1     
   21   10   17 am    
   22   10   11 1     
   23   11   12 2     
   24   11   36 1     
   25   12   13 1     
   26   12   14 1     
   27   14   15 2     
   28   14   16 1     
   29   16   17 1     
   30   17   18 2     
   31   19   20 1     
   32   19   21 1     
   33   19   37 1     
   34   21   22 1     
   35   21   38 1     
   36   22   23 1     
   37   23   24 2     
   38   23   25 1     
   39   25   26 1     
   40   25   39 1     
   41   25   40 1     
   42   26   41 1     
   43   26   42 1     
   44   26   43 1     
   45    4   44 1     
   46    4   45 1     
   47    8   46 1     
   48    8   47 1     
   49   15   48 1     
   50   15   49 1     
   51   16   50 1     
   52   18   51 1     
   53   18   52 1     
   54   24   53 1     
   55   24   54 1     
@<TRIPOS>SUBSTRUCTURE
      1 S1             1
@<TRIPOS>SET
LONE_PAIRS      STATIC     ATOMS    <user>   **** ""
11 44 45 46 47 48 49 50 51 52 53 54
ATOM$BLUE        STATIC     ATOMS    COLORGROUP SYSTEM
11 44 45 46 47 48 49 50 51 52 53 54
