AV-unprocessed.smi:3311|AV-procd|sdf|12723|dock2
  -GOLD-   2272019 63D 1   1.00000     0.00000
 Structure written by MMmdl.
 43 44  0  0  0  0  0  0  0  0  1 V2000
  152.9539  139.3010  158.9599 C   0  0  0  0  0  0  0  0  0  0  0  0
  152.1316  140.5970  158.8547 C   0  0  2  0  0  0  0  0  0  0  0  0
  151.6046  140.6849  157.4886 N   0  0  0  0  0  0  0  0  0  0  0  0
  150.7365  139.5748  157.0881 C   0  0  0  0  0  0  0  0  0  0  0  0
  150.1266  139.7738  155.6827 C   0  0  0  0  0  0  0  0  0  0  0  0
  151.2091  139.8863  154.7763 O   0  0  0  0  0  0  0  0  0  0  0  0
  149.2038  138.6043  155.2557 C   0  0  0  0  0  0  0  0  0  0  0  0
  148.4860  138.8644  153.9194 C   0  0  0  0  0  0  0  0  0  0  0  0
  147.7075  140.1866  153.9471 C   0  0  0  0  0  0  0  0  0  0  0  0
  148.6297  141.3588  154.3094 C   0  0  0  0  0  0  0  0  0  0  0  0
  149.3497  141.1113  155.6473 C   0  0  0  0  0  0  0  0  0  0  0  0
  152.9739  141.8548  159.2194 C   0  0  2  0  0  0  0  0  0  0  0  0
  153.5939  141.7892  160.6280 C   0  0  0  0  0  0  0  0  0  0  0  0
  152.2058  143.0876  159.0875 N   0  0  0  0  0  0  0  0  0  0  0  0
  152.6102  144.3893  159.3126 C   0  0  0  0  0  0  0  0  0  0  0  0
  151.5328  145.1970  159.0866 C   0  0  0  0  0  0  0  0  0  0  0  0
  150.4990  144.2881  158.7276 C   0  0  0  0  0  0  0  0  0  0  0  0
  150.9045  143.0292  158.7267 N   0  0  0  0  0  0  0  0  0  0  0  0
  153.2595  139.0969  159.9857 H   0  0  0  0  0  0  0  0  0  0  0  0
  153.8521  139.3472  158.3433 H   0  0  0  0  0  0  0  0  0  0  0  0
  152.3700  138.4408  158.6300 H   0  0  0  0  0  0  0  0  0  0  0  0
  151.3032  140.5073  159.5593 H   0  0  0  0  0  0  0  0  0  0  0  0
  151.0867  141.5526  157.3878 H   0  0  0  0  0  0  0  0  0  0  0  0
  151.3157  138.6509  157.1045 H   0  0  0  0  0  0  0  0  0  0  0  0
  149.9304  139.4334  157.8056 H   0  0  0  0  0  0  0  0  0  0  0  0
  151.7681  139.1323  154.8842 H   0  0  0  0  0  0  0  0  0  0  0  0
  149.7699  137.6753  155.1782 H   0  0  0  0  0  0  0  0  0  0  0  0
  148.4547  138.4385  156.0312 H   0  0  0  0  0  0  0  0  0  0  0  0
  149.2141  138.8849  153.1075 H   0  0  0  0  0  0  0  0  0  0  0  0
  147.8072  138.0401  153.6994 H   0  0  0  0  0  0  0  0  0  0  0  0
  147.2417  140.3650  152.9776 H   0  0  0  0  0  0  0  0  0  0  0  0
  146.8965  140.1195  154.6734 H   0  0  0  0  0  0  0  0  0  0  0  0
  149.3620  141.5091  153.5156 H   0  0  0  0  0  0  0  0  0  0  0  0
  148.0496  142.2801  154.3678 H   0  0  0  0  0  0  0  0  0  0  0  0
  148.6053  141.1136  156.4448 H   0  0  0  0  0  0  0  0  0  0  0  0
  150.0209  141.9442  155.8617 H   0  0  0  0  0  0  0  0  0  0  0  0
  153.8054  141.9140  158.5138 H   0  0  0  0  0  0  0  0  0  0  0  0
  154.3375  140.9966  160.7046 H   0  0  0  0  0  0  0  0  0  0  0  0
  152.8358  141.6125  161.3912 H   0  0  0  0  0  0  0  0  0  0  0  0
  154.1025  142.7219  160.8741 H   0  0  0  0  0  0  0  0  0  0  0  0
  153.6180  144.6293  159.6176 H   0  0  0  0  0  0  0  0  0  0  0  0
  151.4880  146.2726  159.1702 H   0  0  0  0  0  0  0  0  0  0  0  0
  149.4724  144.5035  158.4704 H   0  0  0  0  0  0  0  0  0  0  0  0
  1  2  1  0  0  0  0
  1 19  1  0  0  0  0
  1 20  1  0  0  0  0
  1 21  1  0  0  0  0
  2  3  1  0  0  0  0
  2 12  1  0  0  0  0
  2 22  1  0  0  0  0
  3  4  1  0  0  0  0
  3 23  1  0  0  0  0
  4  5  1  0  0  0  0
  4 24  1  0  0  0  0
  4 25  1  0  0  0  0
  5 11  1  0  0  0  0
  5  6  1  0  0  0  0
  5  7  1  0  0  0  0
  6 26  1  0  0  0  0
  7  8  1  0  0  0  0
  7 27  1  0  0  0  0
  7 28  1  0  0  0  0
  8  9  1  0  0  0  0
  8 29  1  0  0  0  0
  8 30  1  0  0  0  0
  9 10  1  0  0  0  0
  9 31  1  0  0  0  0
  9 32  1  0  0  0  0
 10 11  1  0  0  0  0
 10 33  1  0  0  0  0
 10 34  1  0  0  0  0
 11 35  1  0  0  0  0
 11 36  1  0  0  0  0
 12 13  1  0  0  0  0
 12 14  1  0  0  0  0
 12 37  1  0  0  0  0
 13 38  1  0  0  0  0
 13 39  1  0  0  0  0
 13 40  1  0  0  0  0
 14 18  1  0  0  0  0
 14 15  1  0  0  0  0
 15 16  2  0  0  0  0
 15 41  1  0  0  0  0
 16 17  1  0  0  0  0
 16 42  1  0  0  0  0
 17 18  2  0  0  0  0
 17 43  1  0  0  0  0
M  END
> <s_m_source_file>
AV-unprocessed.smi

> <i_m_source_file_index>
3311

> <i_lp_mmshare_version>
43012

> <i_f3d_flags>
0

> <s_epik_input>
bjFbY0hdW2NIXVtjSF1uMVtDQEBIXShbQ0gzXSlbQ0BIXShbQ0gzXSlbTkhdW0NIMl1DMihbT0hdKVtDSDJdW0NIMl1bQ0gyXVtDSDJdW0NIMl0y

> <s_epik_cmdline>
J2VwaWtfcHl0aG9uJywgJy1waCcsICc3LjAnLCAnLXRuJywgJzgnLCAnLW1hJywgJzIwMCcsICctbWV0YWxfYmluZGluZycsICctaW1hZScsICc8aW5maWxlLm1hZT4nLCAnLW9tYWUnLCAnPG91dGZpbGUubWFlPic=

> <r_lp_tautomer_probability>
1

> <r_epik_Ionization_Penalty>
2.222

> <r_epik_Ionization_Penalty_Charging>
0

> <r_epik_Ionization_Penalty_Neutral>
2.222

> <r_epik_State_Penalty>
2.36562

> <r_epik_Charging_Adjusted_Penalty>
2.36562

> <i_epik_Tot_Q>
0

> <i_epik_Tot_abs_Q>
0

> <r_epik_Metal_State_Penalty>
2.36435

> <b_epik_Metal_Only>
0

> <s_lp_Force_Field>
OPLS_2005

> <r_lp_Energy>
30.3398

> <b_lp_Chiralities_Consistent>
1

> <s_lp_Variant>
AV-unprocessed.smi:3311-5

> <Gold.Version>
5.8.1

> <Gold.Id.Protein>
6NUR|6NUR_protein|mol2

> <Gold.PLP.Fitness>
44.3929

> <Gold.PLP.PLP>
-38.0798

> <Gold.PLP.part.hbond>
-1.0000

> <Gold.PLP.part.metal>
0.0000

> <Gold.PLP.part.buried>
-3.4694

> <Gold.PLP.part.nonpolar>
-33.1587

> <Gold.PLP.part.repulsive>
0.0819

> <Gold.PLP.ligand.clash>
0.0000

> <Gold.PLP.ligand.torsion>
0.0486

> <Gold.PLP.Chemscore.Hbond>
1.0000

> <Gold.PLP.Chemscore.CHOScore>
1.1120

> <Gold.PLP.Chemscore.Metal>
0.0000

> <Gold.Chemscore.Hbonds>
donor molecule, donor type, donor heavy atom, donor atom, acceptor molecule, acceptor atom, score
      P1  H  7989  7998       L1     6  1.00
      L1  C    17    43       P1  8028  0.04
      L1  C    17    43       P1  8029  1.00

> <Gold.PLP.Chemscore.Internal.Correction>
0.0743

> <Gold.Rescore>
     Score         DG    S(hbond)    S(metal)    S(lipo)     H(rot)  DE(clash)    DE(int)     intcor
     14.88     -16.35       0.99        0.00     109.82       2.07       0.03       1.43       ----

> <Gold.Chemscore.Fitness>
14.8837

> <Gold.Chemscore.DG>
-16.3491

> <Gold.Chemscore.ZeroCoef>
-5.4800

> <Gold.Chemscore.Hbond>
0.9927

> <Gold.Chemscore.Metal>
0.0000

> <Gold.Chemscore.Lipo>
109.8220

> <Gold.Chemscore.Internal_Hbond>
0.0000

> <Gold.Chemscore.DEClash>
0.0340

> <Gold.Chemscore.DEInternal>
1.4315

> <Gold.Chemscore.Rot>
2.0686

> <Gold.Chemscore.Internal.Correction>
   9.000000E+99

> <Gold.Chemscore.Hbonds>
donor molecule, donor type, donor heavy atom, donor atom, acceptor molecule, acceptor atom, score
      P1  H  7989  7998       L1     6  0.88

> <Gold.Chemscore.Hbond.Weighted>
-3.3156

> <Gold.Chemscore.Metal.Weighted>
-0.0000

> <Gold.Chemscore.Lipo.Weighted>
-12.8492

> <Gold.Chemscore.Internal_Hbond.Weighted>
0.0000

> <Gold.Chemscore.DEClash.Weighted>
0.0340

> <Gold.Chemscore.DEInternal.Weighted>
1.4315

> <Gold.Chemscore.Rot.Weighted>
5.2957

> <Gold.Chemscore.Internal.Correction.Weighted>
   9.000000E+99

> <Gold.Protein.RotatedTorsions>
[ 6907 6896 6895 6894 ] final -135.75 input  -60.11 | X-H torsion
[ 7974 7965 7964 7962 ] final -177.53 input  175.53 | X-H torsion
[ 8008 7997 7996 7995 ] final  104.99 input   59.86 | X-H torsion
[ 10167 10162 10161 10158 ] final -147.56 input  -65.29 | X-H torsion
[ 10718 10713 10712 10709 ] final  -47.48 input   66.30 | X-H torsion
[ 10763 10752 10751 10750 ] final  100.56 input  -60.55 | X-H torsion
[ 11005 11000 10999 10996 ] final  100.85 input  -57.11 | X-H torsion

> <Gold.Protein.ActiveResidues>
 VAL166  LYS551  ARG553  GLY616  TRP617  ASP618  TYR619  PRO620  LYS621  CYS622 
 ASP623  PHE694  ASN695  SER759  ASP760  ASP761  ALA762  ILE779  LEU786  VAL792 
 PHE793  MET794  SER795  GLU796  ALA797  LYS798  CYS799  TRP800  GLU811  SER814 

> <Gold.Protein.RotatedAtoms>
  151.0017  133.6050  159.2693 H   0  0  0  0  0  0  0  0  0  0  0  0  # atno 6907 bound_to 6896
  151.3234  135.0823  159.9323 H   0  0  0  0  0  0  0  0  0  0  0  0  # atno 6908 bound_to 6896
  152.5275  133.9660  159.7793 H   0  0  0  0  0  0  0  0  0  0  0  0  # atno 6909 bound_to 6896
  144.7128  140.1006  143.6416 H   0  0  0  0  0  0  0  0  0  0  0  0  # atno 7974 bound_to 7965
  156.1620  140.3138  155.8824 H   0  0  0  0  0  0  0  0  0  0  0  0  # atno 8008 bound_to 7997
  155.3762  140.0485  157.3061 H   0  0  0  0  0  0  0  0  0  0  0  0  # atno 8009 bound_to 7997
  154.5156  140.2180  155.9083 H   0  0  0  0  0  0  0  0  0  0  0  0  # atno 8010 bound_to 7997
  139.7610  143.8376  152.2607 H   0  0  0  0  0  0  0  0  0  0  0  0  # atno 10167 bound_to 10162
  156.2080  130.4159  149.9152 H   0  0  0  0  0  0  0  0  0  0  0  0  # atno 10718 bound_to 10713
  153.3155  135.4075  155.1372 H   0  0  0  0  0  0  0  0  0  0  0  0  # atno 10763 bound_to 10752
  154.8587  135.3575  154.5666 H   0  0  0  0  0  0  0  0  0  0  0  0  # atno 10764 bound_to 10752
  153.6097  135.7068  153.5410 H   0  0  0  0  0  0  0  0  0  0  0  0  # atno 10765 bound_to 10752
  139.8772  134.9158  156.4818 H   0  0  0  0  0  0  0  0  0  0  0  0  # atno 11005 bound_to 11000
  145.9541  139.2754  143.1194 LP  0  0  0  0  0  0  0  0  0  0  0  0  # atno 17320 bound_to 7965
  145.9291  140.9061  143.0365 LP  0  0  0  0  0  0  0  0  0  0  0  0  # atno 17321 bound_to 7965
  139.8383  144.7222  150.9363 LP  0  0  0  0  0  0  0  0  0  0  0  0  # atno 17342 bound_to 10162
  140.7807  143.4007  151.1154 LP  0  0  0  0  0  0  0  0  0  0  0  0  # atno 17343 bound_to 10162
  156.6839  130.8869  151.3579 LP  0  0  0  0  0  0  0  0  0  0  0  0  # atno 17370 bound_to 10713
  157.7023  130.9346  150.0823 LP  0  0  0  0  0  0  0  0  0  0  0  0  # atno 17371 bound_to 10713
  140.8721  133.7980  155.9376 LP  0  0  0  0  0  0  0  0  0  0  0  0  # atno 17394 bound_to 11000
  140.8941  134.2459  157.5078 LP  0  0  0  0  0  0  0  0  0  0  0  0  # atno 17395 bound_to 11000

$$$$
