AV-unprocessed.smi:2104|AV-procd|sdf|8589|dock9
  -GOLD-   2272011323D 1   1.00000     0.00000
 Structure written by MMmdl.
 42 43  0  0  0  0  0  0  0  0  2 V2000
  144.7409  134.0440  163.2094 C   0  0  0  0  0  0  0  0  0  0  0  0
  145.4741  135.1188  162.4832 C   0  0  0  0  0  0  0  0  0  0  0  0
  146.8022  135.3569  162.2693 C   0  0  0  0  0  0  0  0  0  0  0  0
  146.7976  136.5557  161.5056 C   0  0  0  0  0  0  0  0  0  0  0  0
  147.8776  137.2005  161.0387 N   0  5  0  0  0  0  0  0  0  0  0  0
  148.3291  136.9461  159.7891 C   0  0  0  0  0  0  0  0  0  0  0  0
  149.2464  136.1789  159.4873 O   0  0  0  0  0  0  0  0  0  0  0  0
  147.6926  137.6392  158.8337 N   0  0  0  0  0  0  0  0  0  0  0  0
  148.0468  137.6686  157.4179 C   0  0  0  0  0  0  0  0  0  0  0  0
  149.5570  137.8802  157.2319 C   0  0  0  0  0  0  0  0  0  0  0  0
  149.9230  139.1311  157.7937 O   0  0  0  0  0  0  0  0  0  0  0  0
  151.2548  139.5488  157.5235 C   0  0  2  0  0  0  0  0  0  0  0  0
  151.6614  140.5310  158.6377 C   0  0  0  0  0  0  0  0  0  0  0  0
  150.8296  141.8247  158.5929 C   0  0  0  0  0  0  0  0  0  0  0  0
  150.9110  142.4937  157.2129 C   0  0  0  0  0  0  0  0  0  0  0  0
  150.4977  141.5220  156.0964 C   0  0  0  0  0  0  0  0  0  0  0  0
  151.3348  140.2277  156.1334 C   0  0  2  0  0  0  0  0  0  0  0  0
  150.9644  139.2836  154.9796 C   0  0  0  0  0  0  0  0  0  0  0  0
  145.5742  136.9964  161.2627 N   0  0  0  0  0  0  0  0  0  0  0  0
  144.7195  136.0834  161.8914 O   0  0  0  0  0  0  0  0  0  0  0  0
  144.4193  133.2637  162.5196 H   0  0  0  0  0  0  0  0  0  0  0  0
  143.8565  134.4434  163.7065 H   0  0  0  0  0  0  0  0  0  0  0  0
  145.3762  133.5857  163.9676 H   0  0  0  0  0  0  0  0  0  0  0  0
  147.6439  134.7724  162.6094 H   0  0  0  0  0  0  0  0  0  0  0  0
  146.9434  138.2481  159.1282 H   0  0  0  0  0  0  0  0  0  0  0  0
  147.7147  136.7629  156.9081 H   0  0  0  0  0  0  0  0  0  0  0  0
  147.5056  138.4969  156.9608 H   0  0  0  0  0  0  0  0  0  0  0  0
  150.1140  137.0890  157.7349 H   0  0  0  0  0  0  0  0  0  0  0  0
  149.8105  137.8320  156.1722 H   0  0  0  0  0  0  0  0  0  0  0  0
  151.9400  138.6992  157.5560 H   0  0  0  0  0  0  0  0  0  0  0  0
  151.5537  140.0537  159.6121 H   0  0  0  0  0  0  0  0  0  0  0  0
  152.7183  140.7786  158.5328 H   0  0  0  0  0  0  0  0  0  0  0  0
  149.7883  141.5998  158.8275 H   0  0  0  0  0  0  0  0  0  0  0  0
  151.1760  142.5156  159.3617 H   0  0  0  0  0  0  0  0  0  0  0  0
  150.2725  143.3773  157.1902 H   0  0  0  0  0  0  0  0  0  0  0  0
  151.9289  142.8426  157.0353 H   0  0  0  0  0  0  0  0  0  0  0  0
  149.4382  141.2825  156.1944 H   0  0  0  0  0  0  0  0  0  0  0  0
  150.6096  142.0118  155.1286 H   0  0  0  0  0  0  0  0  0  0  0  0
  152.3765  140.5124  155.9775 H   0  0  0  0  0  0  0  0  0  0  0  0
  149.9151  138.9927  155.0224 H   0  0  0  0  0  0  0  0  0  0  0  0
  151.5668  138.3755  155.0043 H   0  0  0  0  0  0  0  0  0  0  0  0
  151.1302  139.7629  154.0146 H   0  0  0  0  0  0  0  0  0  0  0  0
  1  2  1  0  0  0  0
  1 21  1  0  0  0  0
  1 22  1  0  0  0  0
  1 23  1  0  0  0  0
  2 20  1  0  0  0  0
  2  3  2  0  0  0  0
  3  4  1  0  0  0  0
  3 24  1  0  0  0  0
  4  5  1  0  0  0  0
  4 19  2  0  0  0  0
  5  6  1  0  0  0  0
  6  7  2  0  0  0  0
  6  8  1  0  0  0  0
  8  9  1  0  0  0  0
  8 25  1  0  0  0  0
  9 10  1  0  0  0  0
  9 26  1  0  0  0  0
  9 27  1  0  0  0  0
 10 11  1  0  0  0  0
 10 28  1  0  0  0  0
 10 29  1  0  0  0  0
 11 12  1  0  0  0  0
 12 17  1  0  0  0  0
 12 13  1  0  0  0  0
 12 30  1  0  0  0  0
 13 14  1  0  0  0  0
 13 31  1  0  0  0  0
 13 32  1  0  0  0  0
 14 15  1  0  0  0  0
 14 33  1  0  0  0  0
 14 34  1  0  0  0  0
 15 16  1  0  0  0  0
 15 35  1  0  0  0  0
 15 36  1  0  0  0  0
 16 17  1  0  0  0  0
 16 37  1  0  0  0  0
 16 38  1  0  0  0  0
 17 18  1  0  0  0  0
 17 39  1  0  0  0  0
 18 40  1  0  0  0  0
 18 41  1  0  0  0  0
 18 42  1  0  0  0  0
 19 20  1  0  0  0  0
M  CHG  1   5  -1
M  END
> <s_m_source_file>
AV-unprocessed.smi

> <i_m_source_file_index>
2104

> <i_lp_mmshare_version>
43012

> <i_f3d_flags>
0

> <s_epik_input>
W0NIM11jMVtjSF1jKG5vMSlbTkhdQyg9TylbTkhdW0NIMl1bQ0gyXU9bQ0BASF0yW0NIMl1bQ0gyXVtDSDJdW0NIMl1bQ0BIXTJbQ0gzXQ==

> <s_epik_cmdline>
J2VwaWtfcHl0aG9uJywgJy1waCcsICc3LjAnLCAnLXRuJywgJzgnLCAnLW1hJywgJzIwMCcsICctbWV0YWxfYmluZGluZycsICctaW1hZScsICc8aW5maWxlLm1hZT4nLCAnLW9tYWUnLCAnPG91dGZpbGUubWFlPic=

> <r_lp_tautomer_probability>
1

> <r_epik_Ionization_Penalty>
6.47137

> <r_epik_Ionization_Penalty_Charging>
6.47125

> <r_epik_Ionization_Penalty_Neutral>
0.000118933

> <r_epik_State_Penalty>
6.47124

> <r_epik_Charging_Adjusted_Penalty>
12.9425

> <i_epik_Tot_Q>
-1

> <i_epik_Tot_abs_Q>
1

> <r_epik_Metal_State_Penalty>
2.3995

> <b_epik_Metal_Only>
1

> <s_lp_Force_Field>
OPLS_2005

> <r_lp_Energy>
3.94735

> <b_lp_Chiralities_Consistent>
1

> <s_lp_Variant>
AV-unprocessed.smi:2104-7

> <Gold.Version>
5.8.1

> <Gold.Id.Protein>
6NUR|6NUR_protein|mol2

> <Gold.PLP.Fitness>
42.4737

> <Gold.PLP.PLP>
-32.4139

> <Gold.PLP.part.hbond>
-3.0000

> <Gold.PLP.part.metal>
0.0000

> <Gold.PLP.part.buried>
-5.1754

> <Gold.PLP.part.nonpolar>
-25.5885

> <Gold.PLP.part.repulsive>
0.1356

> <Gold.PLP.ligand.clash>
0.0000

> <Gold.PLP.ligand.torsion>
1.8314

> <Gold.PLP.Chemscore.Hbond>
4.5520

> <Gold.PLP.Chemscore.CHOScore>
0.0000

> <Gold.PLP.Chemscore.Metal>
0.0000

> <Gold.Chemscore.Hbonds>
donor molecule, donor type, donor heavy atom, donor atom, acceptor molecule, acceptor atom, score
      P1  H  6896  6907       L1     7  0.75
      P1  H  6931  6943       L1     5  1.86
      P1  H  6934  6947       L1     5  1.57

> <Gold.PLP.Chemscore.Internal.Correction>
0.0666

> <Gold.Rescore>
     Score         DG    S(hbond)    S(metal)    S(lipo)     H(rot)  DE(clash)    DE(int)     intcor
     12.38     -15.78       1.89        0.00      71.45       1.71       0.06       3.34       ----

> <Gold.Chemscore.Fitness>
12.3808

> <Gold.Chemscore.DG>
-15.7830

> <Gold.Chemscore.ZeroCoef>
-5.4800

> <Gold.Chemscore.Hbond>
1.8926

> <Gold.Chemscore.Metal>
0.0000

> <Gold.Chemscore.Lipo>
71.4531

> <Gold.Chemscore.Internal_Hbond>
0.0000

> <Gold.Chemscore.DEClash>
0.0580

> <Gold.Chemscore.DEInternal>
3.3442

> <Gold.Chemscore.Rot>
1.7103

> <Gold.Chemscore.Internal.Correction>
   9.000000E+99

> <Gold.Chemscore.Hbonds>
donor molecule, donor type, donor heavy atom, donor atom, acceptor molecule, acceptor atom, score
      P1  H  6896  6907       L1     7  0.73
      P1  H  6931  6943       L1     5  0.68
      P1  H  6934  6947       L1     5  0.10

> <Gold.Chemscore.Hbond.Weighted>
-6.3213

> <Gold.Chemscore.Metal.Weighted>
-0.0000

> <Gold.Chemscore.Lipo.Weighted>
-8.3600

> <Gold.Chemscore.Internal_Hbond.Weighted>
0.0000

> <Gold.Chemscore.DEClash.Weighted>
0.0580

> <Gold.Chemscore.DEInternal.Weighted>
3.3442

> <Gold.Chemscore.Rot.Weighted>
4.3784

> <Gold.Chemscore.Internal.Correction.Weighted>
   9.000000E+99

> <Gold.Protein.RotatedTorsions>
[ 6907 6896 6895 6894 ] final  -69.47 input  -60.11 | X-H torsion
[ 7974 7965 7964 7962 ] final -119.77 input  175.53 | X-H torsion
[ 8008 7997 7996 7995 ] final  156.40 input   59.86 | X-H torsion
[ 10167 10162 10161 10158 ] final  -18.55 input  -65.29 | X-H torsion
[ 10718 10713 10712 10709 ] final   19.50 input   66.30 | X-H torsion
[ 10763 10752 10751 10750 ] final  121.41 input  -60.55 | X-H torsion
[ 11005 11000 10999 10996 ] final   73.21 input  -57.11 | X-H torsion

> <Gold.Protein.ActiveResidues>
 VAL166  LYS551  ARG553  GLY616  TRP617  ASP618  TYR619  PRO620  LYS621  CYS622 
 ASP623  PHE694  ASN695  SER759  ASP760  ASP761  ALA762  ILE779  LEU786  VAL792 
 PHE793  MET794  SER795  GLU796  ALA797  LYS798  CYS799  TRP800  GLU811  SER814 

> <Gold.Protein.RotatedAtoms>
  150.7304  134.5591  159.5833 H   0  0  0  0  0  0  0  0  0  0  0  0  # atno 6907 bound_to 6896
  152.3059  134.7552  160.0356 H   0  0  0  0  0  0  0  0  0  0  0  0  # atno 6908 bound_to 6896
  151.8117  133.3347  159.3594 H   0  0  0  0  0  0  0  0  0  0  0  0  # atno 6909 bound_to 6896
  145.0588  140.8275  143.4165 H   0  0  0  0  0  0  0  0  0  0  0  0  # atno 7974 bound_to 7965
  156.2424  140.1913  156.6950 H   0  0  0  0  0  0  0  0  0  0  0  0  # atno 8008 bound_to 7997
  154.6223  140.0607  156.9657 H   0  0  0  0  0  0  0  0  0  0  0  0  # atno 8009 bound_to 7997
  155.1841  140.3279  155.4372 H   0  0  0  0  0  0  0  0  0  0  0  0  # atno 8010 bound_to 7997
  140.7260  143.4905  150.9997 H   0  0  0  0  0  0  0  0  0  0  0  0  # atno 10167 bound_to 10162
  157.1113  130.6510  149.5898 H   0  0  0  0  0  0  0  0  0  0  0  0  # atno 10718 bound_to 10713
  153.6136  135.3426  155.2987 H   0  0  0  0  0  0  0  0  0  0  0  0  # atno 10763 bound_to 10752
  154.8614  135.4256  154.2283 H   0  0  0  0  0  0  0  0  0  0  0  0  # atno 10764 bound_to 10752
  153.3139  135.7033  153.7163 H   0  0  0  0  0  0  0  0  0  0  0  0  # atno 10765 bound_to 10752
  139.9451  134.7327  156.0999 H   0  0  0  0  0  0  0  0  0  0  0  0  # atno 11005 bound_to 11000
  145.1434  139.2558  143.5478 LP  0  0  0  0  0  0  0  0  0  0  0  0  # atno 17320 bound_to 7965
  146.3523  140.1118  142.8603 LP  0  0  0  0  0  0  0  0  0  0  0  0  # atno 17321 bound_to 7965
  139.8609  143.7315  152.3173 LP  0  0  0  0  0  0  0  0  0  0  0  0  # atno 17342 bound_to 10162
  139.7530  144.7528  151.0477 LP  0  0  0  0  0  0  0  0  0  0  0  0  # atno 17343 bound_to 10162
  155.9850  130.4877  150.7009 LP  0  0  0  0  0  0  0  0  0  0  0  0  # atno 17370 bound_to 10713
  157.4557  131.0877  151.0799 LP  0  0  0  0  0  0  0  0  0  0  0  0  # atno 17371 bound_to 10713
  141.1099  133.6647  156.2953 LP  0  0  0  0  0  0  0  0  0  0  0  0  # atno 17394 bound_to 11000
  140.5854  134.5704  157.5488 LP  0  0  0  0  0  0  0  0  0  0  0  0  # atno 17395 bound_to 11000

$$$$
