AV-unprocessed.smi:649|AV-procd|sdf|3178|dock3
  -GOLD-   22720 0103D 1   1.00000     0.00000
 Structure written by MMmdl.
 35 36  0  0  0  0  0  0  0  0  1 V2000
  151.9333  145.8968  160.1252 C   0  0  0  0  0  0  0  0  0  0  0  0
  152.0069  144.4197  159.7973 C   0  0  0  0  0  0  0  0  0  0  0  0
  152.5143  143.5040  160.7379 C   0  0  0  0  0  0  0  0  0  0  0  0
  152.5697  142.1338  160.4251 C   0  0  0  0  0  0  0  0  0  0  0  0
  152.1256  141.6633  159.1709 C   0  0  0  0  0  0  0  0  0  0  0  0
  152.1904  140.1715  158.8913 C   0  0  0  0  0  0  0  0  0  0  0  0
  151.6258  142.5829  158.2109 C   0  0  0  0  0  0  0  0  0  0  0  0
  151.1335  142.1220  156.8389 C   0  0  2  0  0  0  0  0  0  0  0  0
  150.7116  143.2092  156.0360 O   0  0  0  0  0  0  0  0  0  0  0  0
  149.9603  141.1269  156.9792 C   0  0  0  0  0  0  0  0  0  0  0  0
  149.1008  141.0794  155.8196 N   0  0  0  0  0  0  0  0  0  0  0  0
  147.8550  141.6876  155.7961 C   0  0  0  0  0  0  0  0  0  0  0  0
  147.0457  141.6817  154.7095 C   0  0  0  0  0  0  0  0  0  0  0  0
  145.5068  142.4648  154.7576 Cl  0  0  0  0  0  0  0  0  0  0  0  0
  147.4744  141.0130  153.4815 C   0  0  0  0  0  0  0  0  0  0  0  0
  146.8229  140.9485  152.4408 O   0  0  0  0  0  0  0  0  0  0  0  0
  148.7373  140.4171  153.5498 N   0  0  0  0  0  0  0  0  0  0  0  0
  149.5772  140.4191  154.6637 C   0  0  0  0  0  0  0  0  0  0  0  0
  150.6752  139.8662  154.6044 O   0  0  0  0  0  0  0  0  0  0  0  0
  151.5631  143.9565  158.5434 C   0  0  0  0  0  0  0  0  0  0  0  0
  149.0715  139.9485  152.7203 H   0  0  0  0  0  0  0  0  0  0  0  0
  152.3404  146.1066  161.1148 H   0  0  0  0  0  0  0  0  0  0  0  0
  150.8973  146.2359  160.1039 H   0  0  0  0  0  0  0  0  0  0  0  0
  152.4993  146.4755  159.3947 H   0  0  0  0  0  0  0  0  0  0  0  0
  152.8577  143.8460  161.7033 H   0  0  0  0  0  0  0  0  0  0  0  0
  152.9543  141.4415  161.1597 H   0  0  0  0  0  0  0  0  0  0  0  0
  151.2101  139.7936  158.6027 H   0  0  0  0  0  0  0  0  0  0  0  0
  152.5112  139.6151  159.7726 H   0  0  0  0  0  0  0  0  0  0  0  0
  152.8982  139.9608  158.0894 H   0  0  0  0  0  0  0  0  0  0  0  0
  151.9562  141.6571  156.2983 H   0  0  0  0  0  0  0  0  0  0  0  0
  149.7715  143.1678  155.9490 H   0  0  0  0  0  0  0  0  0  0  0  0
  150.3079  140.1059  157.1523 H   0  0  0  0  0  0  0  0  0  0  0  0
  149.3258  141.3735  157.8324 H   0  0  0  0  0  0  0  0  0  0  0  0
  147.5101  142.1969  156.6849 H   0  0  0  0  0  0  0  0  0  0  0  0
  151.1683  144.6678  157.8324 H   0  0  0  0  0  0  0  0  0  0  0  0
  1  2  1  0  0  0  0
  1 22  1  0  0  0  0
  1 23  1  0  0  0  0
  1 24  1  0  0  0  0
  2 20  1  0  0  0  0
  2  3  2  0  0  0  0
  3  4  1  0  0  0  0
  3 25  1  0  0  0  0
  4  5  2  0  0  0  0
  4 26  1  0  0  0  0
  5  6  1  0  0  0  0
  5  7  1  0  0  0  0
  6 27  1  0  0  0  0
  6 28  1  0  0  0  0
  6 29  1  0  0  0  0
  7  8  1  0  0  0  0
  7 20  2  0  0  0  0
  8  9  1  0  0  0  0
  8 10  1  0  0  0  0
  8 30  1  0  0  0  0
  9 31  1  0  0  0  0
 10 11  1  0  0  0  0
 10 32  1  0  0  0  0
 10 33  1  0  0  0  0
 11 18  1  0  0  0  0
 11 12  1  0  0  0  0
 12 13  2  0  0  0  0
 12 34  1  0  0  0  0
 13 14  1  0  0  0  0
 13 15  1  0  0  0  0
 15 16  2  0  0  0  0
 15 17  1  0  0  0  0
 17 21  1  0  0  0  0
 17 18  1  0  0  0  0
 18 19  2  0  0  0  0
 20 35  1  0  0  0  0
M  END
> <s_m_source_file>
AV-unprocessed.smi

> <i_m_source_file_index>
649

> <i_lp_mmshare_version>
43012

> <i_f3d_flags>
0

> <s_epik_input>
W0NIM11jMVtjSF1bY0hdYyhbQ0gzXSljKFtjSF0xKVtDQEhdKFtPSF0pW0NIMl1uMltjSF1jKENsKWMoPU8pW25IXWMyPU8=

> <s_epik_cmdline>
J2VwaWtfcHl0aG9uJywgJy1waCcsICc3LjAnLCAnLXRuJywgJzgnLCAnLW1hJywgJzIwMCcsICctbWV0YWxfYmluZGluZycsICctaW1hZScsICc8aW5maWxlLm1hZT4nLCAnLW9tYWUnLCAnPG91dGZpbGUubWFlPic=

> <r_lp_tautomer_probability>
0.999537

> <r_epik_Ionization_Penalty>
0.0292058

> <r_epik_Ionization_Penalty_Charging>
0.0292057

> <r_epik_Ionization_Penalty_Neutral>
4.85868e-08

> <r_epik_State_Penalty>
0.0240115

> <r_epik_Charging_Adjusted_Penalty>
0.0532172

> <i_epik_Tot_Q>
0

> <i_epik_Tot_abs_Q>
0

> <r_epik_Metal_State_Penalty>
2.21956

> <b_epik_Metal_Only>
0

> <s_lp_Force_Field>
OPLS_2005

> <r_lp_Energy>
13.7265

> <b_lp_Chiralities_Consistent>
1

> <s_lp_Variant>
AV-unprocessed.smi:649-1

> <Gold.Version>
5.8.1

> <Gold.Id.Protein>
6NUR|6NUR_protein|mol2

> <Gold.PLP.Fitness>
49.0601

> <Gold.PLP.PLP>
-43.0835

> <Gold.PLP.part.hbond>
-2.4625

> <Gold.PLP.part.metal>
0.0000

> <Gold.PLP.part.buried>
-3.6126

> <Gold.PLP.part.nonpolar>
-37.3976

> <Gold.PLP.part.repulsive>
0.4884

> <Gold.PLP.ligand.clash>
0.0000

> <Gold.PLP.ligand.torsion>
0.4996

> <Gold.PLP.Chemscore.Hbond>
2.3200

> <Gold.PLP.Chemscore.CHOScore>
0.0000

> <Gold.PLP.Chemscore.Metal>
0.0000

> <Gold.Chemscore.Hbonds>
donor molecule, donor type, donor heavy atom, donor atom, acceptor molecule, acceptor atom, score
      L1  H     9    31       P1  8028  0.35
      L1  H    17    21       P1  7957  0.98
      P1  H  7989  7998       L1    19  1.00

> <Gold.PLP.Chemscore.Internal.Correction>
0.0157

> <Gold.Rescore>
     Score         DG    S(hbond)    S(metal)    S(lipo)     H(rot)  DE(clash)    DE(int)     intcor
     19.54     -20.21       2.12        0.00     112.19       2.14       0.17       0.50       ----

> <Gold.Chemscore.Fitness>
19.5385

> <Gold.Chemscore.DG>
-20.2096

> <Gold.Chemscore.ZeroCoef>
-5.4800

> <Gold.Chemscore.Hbond>
2.1165

> <Gold.Chemscore.Metal>
0.0000

> <Gold.Chemscore.Lipo>
112.1904

> <Gold.Chemscore.Internal_Hbond>
0.0000

> <Gold.Chemscore.DEClash>
0.1742

> <Gold.Chemscore.DEInternal>
0.4969

> <Gold.Chemscore.Rot>
2.1351

> <Gold.Chemscore.Internal.Correction>
   9.000000E+99

> <Gold.Chemscore.Hbonds>
donor molecule, donor type, donor heavy atom, donor atom, acceptor molecule, acceptor atom, score
      L1  H     9    31       P1  8028  0.34
      L1  H    17    21       P1  7957  0.93
      P1  H  7989  7998       L1    19  0.50

> <Gold.Chemscore.Hbond.Weighted>
-7.0693

> <Gold.Chemscore.Metal.Weighted>
-0.0000

> <Gold.Chemscore.Lipo.Weighted>
-13.1263

> <Gold.Chemscore.Internal_Hbond.Weighted>
0.0000

> <Gold.Chemscore.DEClash.Weighted>
0.1742

> <Gold.Chemscore.DEInternal.Weighted>
0.4969

> <Gold.Chemscore.Rot.Weighted>
5.4660

> <Gold.Chemscore.Internal.Correction.Weighted>
   9.000000E+99

> <Gold.Protein.RotatedTorsions>
[ 6907 6896 6895 6894 ] final  169.54 input  -60.11 | X-H torsion
[ 7974 7965 7964 7962 ] final  -96.42 input  175.53 | X-H torsion
[ 8008 7997 7996 7995 ] final  169.64 input   59.86 | X-H torsion
[ 10167 10162 10161 10158 ] final   50.69 input  -65.29 | X-H torsion
[ 10718 10713 10712 10709 ] final  -28.31 input   66.30 | X-H torsion
[ 10763 10752 10751 10750 ] final  142.30 input  -60.55 | X-H torsion
[ 11005 11000 10999 10996 ] final -151.21 input  -57.11 | X-H torsion

> <Gold.Protein.ActiveResidues>
 VAL166  LYS551  ARG553  GLY616  TRP617  ASP618  TYR619  PRO620  LYS621  CYS622 
 ASP623  PHE694  ASN695  SER759  ASP760  ASP761  ALA762  ILE779  LEU786  VAL792 
 PHE793  MET794  SER795  GLU796  ALA797  LYS798  CYS799  TRP800  GLU811  SER814 

> <Gold.Protein.RotatedAtoms>
  151.8302  133.3407  159.3610 H   0  0  0  0  0  0  0  0  0  0  0  0  # atno 6907 bound_to 6896
  150.7266  134.5490  159.5794 H   0  0  0  0  0  0  0  0  0  0  0  0  # atno 6908 bound_to 6896
  152.2941  134.7688  160.0423 H   0  0  0  0  0  0  0  0  0  0  0  0  # atno 6909 bound_to 6896
  145.3471  140.9470  143.2575 H   0  0  0  0  0  0  0  0  0  0  0  0  # atno 7974 bound_to 7965
  156.1439  140.1559  156.8878 H   0  0  0  0  0  0  0  0  0  0  0  0  # atno 8008 bound_to 7997
  154.5011  140.0825  156.7837 H   0  0  0  0  0  0  0  0  0  0  0  0  # atno 8009 bound_to 7997
  155.4027  140.3415  155.4260 H   0  0  0  0  0  0  0  0  0  0  0  0  # atno 8010 bound_to 7997
  140.2698  144.3279  150.6293 H   0  0  0  0  0  0  0  0  0  0  0  0  # atno 10167 bound_to 10162
  156.4269  130.4437  149.7144 H   0  0  0  0  0  0  0  0  0  0  0  0  # atno 10718 bound_to 10713
  153.9535  135.2967  155.3437 H   0  0  0  0  0  0  0  0  0  0  0  0  # atno 10763 bound_to 10752
  154.7413  135.5023  153.9131 H   0  0  0  0  0  0  0  0  0  0  0  0  # atno 10764 bound_to 10752
  153.0982  135.6727  153.9832 H   0  0  0  0  0  0  0  0  0  0  0  0  # atno 10765 bound_to 10752
  140.7320  134.3610  157.5165 H   0  0  0  0  0  0  0  0  0  0  0  0  # atno 11005 bound_to 11000
  144.8746  139.4990  143.6752 LP  0  0  0  0  0  0  0  0  0  0  0  0  # atno 17320 bound_to 7965
  146.2983  139.7347  142.9110 LP  0  0  0  0  0  0  0  0  0  0  0  0  # atno 17321 bound_to 7965
  140.5899  143.2168  151.7272 LP  0  0  0  0  0  0  0  0  0  0  0  0  # atno 17342 bound_to 10162
  139.4992  144.3955  152.0236 LP  0  0  0  0  0  0  0  0  0  0  0  0  # atno 17343 bound_to 10162
  156.4063  130.7700  151.2710 LP  0  0  0  0  0  0  0  0  0  0  0  0  # atno 17370 bound_to 10713
  157.7508  131.0225  150.3794 LP  0  0  0  0  0  0  0  0  0  0  0  0  # atno 17371 bound_to 10713
  139.8824  134.9025  156.2833 LP  0  0  0  0  0  0  0  0  0  0  0  0  # atno 17394 bound_to 11000
  140.9912  133.7207  156.0817 LP  0  0  0  0  0  0  0  0  0  0  0  0  # atno 17395 bound_to 11000

$$$$
