AV-unprocessed.smi:1551|AV-procd|sdf|6233|dock3
  -GOLD-   22720 6413D 1   1.00000     0.00000
 Structure written by MMmdl.
 38 39  0  0  0  0  0  0  0  0  1 V2000
  151.6057  138.6247  154.5910 C   0  0  0  0  0  0  0  0  0  0  0  0
  150.2948  138.3964  154.0854 O   0  0  0  0  0  0  0  0  0  0  0  0
  149.3873  139.4385  154.1088 C   0  0  0  0  0  0  0  0  0  0  0  0
  149.8123  140.6546  154.5350 N   0  0  0  0  0  0  0  0  0  0  0  0
  148.9270  141.6719  154.5617 C   0  0  0  0  0  0  0  0  0  0  0  0
  147.5813  141.5323  154.1759 C   0  0  0  0  0  0  0  0  0  0  0  0
  147.1379  140.2721  153.7343 C   0  0  0  0  0  0  0  0  0  0  0  0
  148.0593  139.1980  153.6852 C   0  0  0  0  0  0  0  0  0  0  0  0
  147.7106  137.8818  153.2741 N   0  0  0  0  0  0  0  0  0  0  0  0
  146.5652  137.2137  153.4925 C   0  0  0  0  0  0  0  0  0  0  0  0
  145.5839  137.6625  154.0847 O   0  0  0  0  0  0  0  0  0  0  0  0
  146.6155  135.9846  152.9588 N   0  0  0  0  0  0  0  0  0  0  0  0
  145.5452  134.9912  152.9926 C   0  0  2  0  0  0  0  0  0  0  0  0
  145.9469  133.7682  152.1485 C   0  0  0  0  0  0  0  0  0  0  0  0
  144.8197  132.7221  152.0988 C   0  0  0  0  0  0  0  0  0  0  0  0
  143.4872  133.3214  151.6106 C   0  0  2  0  0  0  0  0  0  0  0  0
  143.5718  133.6360  150.2346 O   0  0  0  0  0  0  0  0  0  0  0  0
  143.0999  134.5762  152.4164 C   0  0  0  0  0  0  0  0  0  0  0  0
  144.2370  135.6121  152.4683 C   0  0  0  0  0  0  0  0  0  0  0  0
  152.1924  137.7114  154.4944 H   0  0  0  0  0  0  0  0  0  0  0  0
  151.5845  138.8936  155.6481 H   0  0  0  0  0  0  0  0  0  0  0  0
  152.1193  139.4079  154.0313 H   0  0  0  0  0  0  0  0  0  0  0  0
  149.3008  142.6243  154.9071 H   0  0  0  0  0  0  0  0  0  0  0  0
  146.9032  142.3715  154.2226 H   0  0  0  0  0  0  0  0  0  0  0  0
  146.1019  140.1516  153.4581 H   0  0  0  0  0  0  0  0  0  0  0  0
  148.3910  137.4194  152.6887 H   0  0  0  0  0  0  0  0  0  0  0  0
  147.4646  135.7123  152.4856 H   0  0  0  0  0  0  0  0  0  0  0  0
  145.3763  134.6514  154.0160 H   0  0  0  0  0  0  0  0  0  0  0  0
  146.1961  134.0835  151.1341 H   0  0  0  0  0  0  0  0  0  0  0  0
  146.8491  133.3128  152.5586 H   0  0  0  0  0  0  0  0  0  0  0  0
  145.1135  131.8840  151.4657 H   0  0  0  0  0  0  0  0  0  0  0  0
  144.6777  132.3102  153.0988 H   0  0  0  0  0  0  0  0  0  0  0  0
  142.7003  132.5739  151.7167 H   0  0  0  0  0  0  0  0  0  0  0  0
  142.8501  134.2038  150.0115 H   0  0  0  0  0  0  0  0  0  0  0  0
  142.1988  135.0292  152.0014 H   0  0  0  0  0  0  0  0  0  0  0  0
  142.8476  134.2790  153.4352 H   0  0  0  0  0  0  0  0  0  0  0  0
  143.9400  136.4480  153.1029 H   0  0  0  0  0  0  0  0  0  0  0  0
  144.3968  136.0257  151.4715 H   0  0  0  0  0  0  0  0  0  0  0  0
  1  2  1  0  0  0  0
  1 20  1  0  0  0  0
  1 21  1  0  0  0  0
  1 22  1  0  0  0  0
  2  3  1  0  0  0  0
  3  8  1  0  0  0  0
  3  4  2  0  0  0  0
  4  5  1  0  0  0  0
  5  6  2  0  0  0  0
  5 23  1  0  0  0  0
  6  7  1  0  0  0  0
  6 24  1  0  0  0  0
  7  8  2  0  0  0  0
  7 25  1  0  0  0  0
  8  9  1  0  0  0  0
  9 10  1  0  0  0  0
  9 26  1  0  0  0  0
 10 11  2  0  0  0  0
 10 12  1  0  0  0  0
 12 13  1  0  0  0  0
 12 27  1  0  0  0  0
 13 19  1  0  0  0  0
 13 14  1  0  0  0  0
 13 28  1  0  0  0  0
 14 15  1  0  0  0  0
 14 29  1  0  0  0  0
 14 30  1  0  0  0  0
 15 16  1  0  0  0  0
 15 31  1  0  0  0  0
 15 32  1  0  0  0  0
 16 17  1  0  0  0  0
 16 18  1  0  0  0  0
 16 33  1  0  0  0  0
 17 34  1  0  0  0  0
 18 19  1  0  0  0  0
 18 35  1  0  0  0  0
 18 36  1  0  0  0  0
 19 37  1  0  0  0  0
 19 38  1  0  0  0  0
M  END
> <s_m_source_file>
AV-unprocessed.smi

> <i_m_source_file_index>
1551

> <i_lp_mmshare_version>
43012

> <i_f3d_flags>
0

> <s_epik_input>
W0NIM11PYzFuW2NIXVtjSF1bY0hdYzFbTkhdQyg9TylbTkhdW0NAQEhdMltDSDJdW0NIMl1bQ0BASF0oW09IXSlbQ0gyXVtDSDJdMg==

> <s_epik_cmdline>
J2VwaWtfcHl0aG9uJywgJy1waCcsICc3LjAnLCAnLXRuJywgJzgnLCAnLW1hJywgJzIwMCcsICctbWV0YWxfYmluZGluZycsICctaW1hZScsICc8aW5maWxlLm1hZT4nLCAnLW9tYWUnLCAnPG91dGZpbGUubWFlPic=

> <r_lp_tautomer_probability>
1

> <r_epik_Ionization_Penalty>
9.95655e-05

> <r_epik_Ionization_Penalty_Charging>
0

> <r_epik_Ionization_Penalty_Neutral>
9.95655e-05

> <r_epik_State_Penalty>
-0

> <r_epik_Charging_Adjusted_Penalty>
0

> <i_epik_Tot_Q>
0

> <i_epik_Tot_abs_Q>
0

> <r_epik_Metal_State_Penalty>
-0

> <b_epik_Metal_Only>
0

> <s_lp_Force_Field>
OPLS_2005

> <r_lp_Energy>
13.9049

> <b_lp_Chiralities_Consistent>
1

> <s_lp_Variant>
AV-unprocessed.smi:1551-2

> <Gold.Version>
5.8.1

> <Gold.Id.Protein>
6NUR|6NUR_protein|mol2

> <Gold.PLP.Fitness>
42.8834

> <Gold.PLP.PLP>
-29.7817

> <Gold.PLP.part.hbond>
-3.8556

> <Gold.PLP.part.metal>
0.0000

> <Gold.PLP.part.buried>
-0.9827

> <Gold.PLP.part.nonpolar>
-24.9292

> <Gold.PLP.part.repulsive>
0.5277

> <Gold.PLP.ligand.clash>
0.0000

> <Gold.PLP.ligand.torsion>
0.3355

> <Gold.PLP.Chemscore.Hbond>
3.5898

> <Gold.PLP.Chemscore.CHOScore>
1.0000

> <Gold.PLP.Chemscore.Metal>
0.0000

> <Gold.Chemscore.Hbonds>
donor molecule, donor type, donor heavy atom, donor atom, acceptor molecule, acceptor atom, score
      L1  H     9    26       P1  7948  1.00
      L1  H    12    27       P1  7948  0.94
      L1  H    17    34       P1 10186  1.00
      P1  H  7989  7998       L1     4  0.65
      L1  C     5    23       P1  8028  1.00

> <Gold.PLP.Chemscore.Internal.Correction>
0.0030

> <Gold.Rescore>
     Score         DG    S(hbond)    S(metal)    S(lipo)     H(rot)  DE(clash)    DE(int)     intcor
     15.30     -17.88       2.95        0.00      60.54       1.77       0.06       2.52       ----

> <Gold.Chemscore.Fitness>
15.3042

> <Gold.Chemscore.DG>
-17.8814

> <Gold.Chemscore.ZeroCoef>
-5.4800

> <Gold.Chemscore.Hbond>
2.9500

> <Gold.Chemscore.Metal>
0.0000

> <Gold.Chemscore.Lipo>
60.5397

> <Gold.Chemscore.Internal_Hbond>
0.0000

> <Gold.Chemscore.DEClash>
0.0611

> <Gold.Chemscore.DEInternal>
2.5160

> <Gold.Chemscore.Rot>
1.7714

> <Gold.Chemscore.Internal.Correction>
   9.000000E+99

> <Gold.Chemscore.Hbonds>
donor molecule, donor type, donor heavy atom, donor atom, acceptor molecule, acceptor atom, score
      L1  H     9    26       P1  7948  0.93
      L1  H    12    27       P1  7948  0.91
      L1  H    17    34       P1 10186  0.92
      P1  H  7989  7998       L1     4  0.21

> <Gold.Chemscore.Hbond.Weighted>
-9.8530

> <Gold.Chemscore.Metal.Weighted>
-0.0000

> <Gold.Chemscore.Lipo.Weighted>
-7.0831

> <Gold.Chemscore.Internal_Hbond.Weighted>
0.0000

> <Gold.Chemscore.DEClash.Weighted>
0.0611

> <Gold.Chemscore.DEInternal.Weighted>
2.5160

> <Gold.Chemscore.Rot.Weighted>
4.5347

> <Gold.Chemscore.Internal.Correction.Weighted>
   9.000000E+99

> <Gold.Protein.RotatedTorsions>
[ 6907 6896 6895 6894 ] final  -52.97 input  -60.11 | X-H torsion
[ 7974 7965 7964 7962 ] final  -93.25 input  175.53 | X-H torsion
[ 8008 7997 7996 7995 ] final  149.39 input   59.86 | X-H torsion
[ 10167 10162 10161 10158 ] final  -49.28 input  -65.29 | X-H torsion
[ 10718 10713 10712 10709 ] final -111.28 input   66.30 | X-H torsion
[ 10763 10752 10751 10750 ] final  140.97 input  -60.55 | X-H torsion
[ 11005 11000 10999 10996 ] final -164.44 input  -57.11 | X-H torsion

> <Gold.Protein.ActiveResidues>
 VAL166  LYS551  ARG553  GLY616  TRP617  ASP618  TYR619  PRO620  LYS621  CYS622 
 ASP623  PHE694  ASN695  SER759  ASP760  ASP761  ALA762  ILE779  LEU786  VAL792 
 PHE793  MET794  SER795  GLU796  ALA797  LYS798  CYS799  TRP800  GLU811  SER814 

> <Gold.Protein.RotatedAtoms>
  150.8469  134.7781  159.6977 H   0  0  0  0  0  0  0  0  0  0  0  0  # atno 6907 bound_to 6896
  152.4544  134.5321  159.9824 H   0  0  0  0  0  0  0  0  0  0  0  0  # atno 6908 bound_to 6896
  151.5449  133.3389  159.2978 H   0  0  0  0  0  0  0  0  0  0  0  0  # atno 6909 bound_to 6896
  145.3891  140.9526  143.2351 H   0  0  0  0  0  0  0  0  0  0  0  0  # atno 7974 bound_to 7965
  156.2756  140.2103  156.5851 H   0  0  0  0  0  0  0  0  0  0  0  0  # atno 8008 bound_to 7997
  154.7027  140.0519  157.0497 H   0  0  0  0  0  0  0  0  0  0  0  0  # atno 8009 bound_to 7997
  155.0712  140.3177  155.4633 H   0  0  0  0  0  0  0  0  0  0  0  0  # atno 8010 bound_to 7997
  140.6692  143.2704  151.4193 H   0  0  0  0  0  0  0  0  0  0  0  0  # atno 10167 bound_to 10162
  156.0638  130.5859  150.8351 H   0  0  0  0  0  0  0  0  0  0  0  0  # atno 10718 bound_to 10713
  153.9315  135.2989  155.3445 H   0  0  0  0  0  0  0  0  0  0  0  0  # atno 10763 bound_to 10752
  154.7524  135.4974  153.9317 H   0  0  0  0  0  0  0  0  0  0  0  0  # atno 10764 bound_to 10752
  153.1089  135.6754  153.9641 H   0  0  0  0  0  0  0  0  0  0  0  0  # atno 10765 bound_to 10752
  140.5869  134.5084  157.5187 H   0  0  0  0  0  0  0  0  0  0  0  0  # atno 11005 bound_to 11000
  144.8453  139.5407  143.6881 LP  0  0  0  0  0  0  0  0  0  0  0  0  # atno 17320 bound_to 7965
  146.2806  139.6867  142.9232 LP  0  0  0  0  0  0  0  0  0  0  0  0  # atno 17321 bound_to 7965
  139.5953  144.1410  152.2136 LP  0  0  0  0  0  0  0  0  0  0  0  0  # atno 17342 bound_to 10162
  140.0778  144.5726  150.7144 LP  0  0  0  0  0  0  0  0  0  0  0  0  # atno 17343 bound_to 10162
  157.5665  131.0946  150.9481 LP  0  0  0  0  0  0  0  0  0  0  0  0  # atno 17370 bound_to 10713
  156.9707  130.5490  149.5290 LP  0  0  0  0  0  0  0  0  0  0  0  0  # atno 17371 bound_to 10713
  139.9292  134.7997  156.0981 LP  0  0  0  0  0  0  0  0  0  0  0  0  # atno 17394 bound_to 11000
  141.0960  133.6695  156.2646 LP  0  0  0  0  0  0  0  0  0  0  0  0  # atno 17395 bound_to 11000

$$$$
