AV-unprocessed.smi:3322|AV-procd|sdf|12773|dock4
  -GOLD-   2272019113D 1   1.00000     0.00000
 Structure written by MMmdl.
 39 40  0  0  0  0  0  0  0  0  2 V2000
  145.5609  134.0569  154.6252 C   0  0  0  0  0  0  0  0  0  0  0  0
  146.8345  134.6070  153.9612 C   0  0  2  0  0  0  0  0  0  0  0  0
  146.5830  134.7952  152.5122 N   0  3  0  0  0  0  0  0  0  0  0  0
  145.4405  135.6733  152.1813 C   0  0  0  0  0  0  0  0  0  0  0  0
  144.6873  135.1538  150.9488 C   0  0  0  0  0  0  0  0  0  0  0  0
  144.7207  133.7062  150.8714 N   0  0  0  0  0  0  0  0  0  0  0  0
  143.6731  132.8157  150.9782 C   0  0  0  0  0  0  0  0  0  0  0  0
  144.1918  131.5605  150.8373 C   0  0  0  0  0  0  0  0  0  0  0  0
  145.5828  131.7890  150.6428 C   0  0  0  0  0  0  0  0  0  0  0  0
  145.8960  133.0748  150.6626 N   0  0  0  0  0  0  0  0  0  0  0  0
  148.0253  133.6574  154.2195 C   0  0  0  0  0  0  0  0  0  0  0  0
  148.0151  132.5552  153.6677 O   0  0  0  0  0  0  0  0  0  0  0  0
  149.0390  134.0377  155.0378 N   0  0  0  0  0  0  0  0  0  0  0  0
  149.1224  135.2770  155.8202 C   0  0  0  0  0  0  0  0  0  0  0  0
  149.1621  134.9127  157.3159 C   0  0  0  0  0  0  0  0  0  0  0  0
  150.2637  134.0473  157.5745 O   0  0  0  0  0  0  0  0  0  0  0  0
  150.2131  132.8425  156.8163 C   0  0  0  0  0  0  0  0  0  0  0  0
  150.1984  133.1822  155.3158 C   0  0  0  0  0  0  0  0  0  0  0  0
  145.6841  133.9341  155.7012 H   0  0  0  0  0  0  0  0  0  0  0  0
  145.2834  133.0858  154.2128 H   0  0  0  0  0  0  0  0  0  0  0  0
  144.7189  134.7325  154.4727 H   0  0  0  0  0  0  0  0  0  0  0  0
  147.0464  135.5972  154.3632 H   0  0  0  0  0  0  0  0  0  0  0  0
  147.4211  135.1701  152.0904 H   0  0  0  0  0  0  0  0  0  0  0  0
  144.7680  135.7211  153.0390 H   0  0  0  0  0  0  0  0  0  0  0  0
  145.7953  136.6874  151.9936 H   0  0  0  0  0  0  0  0  0  0  0  0
  143.6453  135.4754  150.9773 H   0  0  0  0  0  0  0  0  0  0  0  0
  145.1204  135.5598  150.0333 H   0  0  0  0  0  0  0  0  0  0  0  0
  142.6575  133.1438  151.1446 H   0  0  0  0  0  0  0  0  0  0  0  0
  143.6589  130.6217  150.8671 H   0  0  0  0  0  0  0  0  0  0  0  0
  146.3686  131.0642  150.4886 H   0  0  0  0  0  0  0  0  0  0  0  0
  150.0301  135.8149  155.5422 H   0  0  0  0  0  0  0  0  0  0  0  0
  148.3026  135.9705  155.6511 H   0  0  0  0  0  0  0  0  0  0  0  0
  149.2726  135.8130  157.9205 H   0  0  0  0  0  0  0  0  0  0  0  0
  148.2321  134.4329  157.6247 H   0  0  0  0  0  0  0  0  0  0  0  0
  151.0864  132.2361  157.0580 H   0  0  0  0  0  0  0  0  0  0  0  0
  149.3322  132.2615  157.0944 H   0  0  0  0  0  0  0  0  0  0  0  0
  150.2023  132.2602  154.7333 H   0  0  0  0  0  0  0  0  0  0  0  0
  151.1120  133.7127  155.0431 H   0  0  0  0  0  0  0  0  0  0  0  0
  146.3960  133.8890  152.1077 H   0  0  0  0  0  0  0  0  0  0  0  0
  1  2  1  0  0  0  0
  1 19  1  0  0  0  0
  1 20  1  0  0  0  0
  1 21  1  0  0  0  0
  2  3  1  0  0  0  0
  2 11  1  0  0  0  0
  2 22  1  0  0  0  0
  3  4  1  0  0  0  0
  3 23  1  0  0  0  0
  3 39  1  0  0  0  0
  4  5  1  0  0  0  0
  4 24  1  0  0  0  0
  4 25  1  0  0  0  0
  5  6  1  0  0  0  0
  5 26  1  0  0  0  0
  5 27  1  0  0  0  0
  6 10  1  0  0  0  0
  6  7  1  0  0  0  0
  7  8  2  0  0  0  0
  7 28  1  0  0  0  0
  8  9  1  0  0  0  0
  8 29  1  0  0  0  0
  9 10  2  0  0  0  0
  9 30  1  0  0  0  0
 11 12  2  0  0  0  0
 11 13  1  0  0  0  0
 13 18  1  0  0  0  0
 13 14  1  0  0  0  0
 14 15  1  0  0  0  0
 14 31  1  0  0  0  0
 14 32  1  0  0  0  0
 15 16  1  0  0  0  0
 15 33  1  0  0  0  0
 15 34  1  0  0  0  0
 16 17  1  0  0  0  0
 17 18  1  0  0  0  0
 17 35  1  0  0  0  0
 17 36  1  0  0  0  0
 18 37  1  0  0  0  0
 18 38  1  0  0  0  0
M  CHG  1   3   1
M  END
> <s_m_source_file>
AV-unprocessed.smi

> <i_m_source_file_index>
3322

> <i_lp_mmshare_version>
43012

> <i_f3d_flags>
0

> <s_epik_input>
W0NIMl0xW0NIMl1PW0NIMl1bQ0gyXU4xQyg9TylbQ0BIXShbQ0gzXSlbTkhdW0NIMl1bQ0gyXW4yW2NIXVtjSF1bY0hdbjI=

> <s_epik_cmdline>
J2VwaWtfcHl0aG9uJywgJy1waCcsICc3LjAnLCAnLXRuJywgJzgnLCAnLW1hJywgJzIwMCcsICctbWV0YWxfYmluZGluZycsICctaW1hZScsICc8aW5maWxlLm1hZT4nLCAnLW9tYWUnLCAnPG91dGZpbGUubWFlPic=

> <r_lp_tautomer_probability>
1

> <r_epik_Ionization_Penalty>
0.3254

> <r_epik_Ionization_Penalty_Charging>
0.325398

> <r_epik_Ionization_Penalty_Neutral>
2.29478e-06

> <r_epik_State_Penalty>
0.320187

> <r_epik_Charging_Adjusted_Penalty>
0.645585

> <i_epik_Tot_Q>
1

> <i_epik_Tot_abs_Q>
1

> <r_epik_Metal_State_Penalty>
0.320558

> <b_epik_Metal_Only>
0

> <s_lp_Force_Field>
OPLS_2005

> <r_lp_Energy>
25.684

> <b_lp_Chiralities_Consistent>
1

> <s_lp_Variant>
AV-unprocessed.smi:3322-1

> <Gold.Version>
5.8.1

> <Gold.Id.Protein>
6NUR|6NUR_protein|mol2

> <Gold.PLP.Fitness>
43.5483

> <Gold.PLP.PLP>
-29.9168

> <Gold.PLP.part.hbond>
-2.0000

> <Gold.PLP.part.metal>
0.0000

> <Gold.PLP.part.buried>
-5.9749

> <Gold.PLP.part.nonpolar>
-23.2718

> <Gold.PLP.part.repulsive>
0.3239

> <Gold.PLP.ligand.clash>
0.0000

> <Gold.PLP.ligand.torsion>
0.5992

> <Gold.PLP.Chemscore.Hbond>
2.9280

> <Gold.PLP.Chemscore.CHOScore>
2.0000

> <Gold.PLP.Chemscore.Metal>
0.0000

> <Gold.Chemscore.Hbonds>
donor molecule, donor type, donor heavy atom, donor atom, acceptor molecule, acceptor atom, score
      L1  H     3    23       P1  7948  2.00
      P1  H  6896  6907       L1    16  0.77
      L1  C     7    28       P1 10186  0.78
      L1  C     9    30       P1 10747  0.79

> <Gold.PLP.Chemscore.Internal.Correction>
0.0459

> <Gold.Rescore>
     Score         DG    S(hbond)    S(metal)    S(lipo)     H(rot)  DE(clash)    DE(int)     intcor
     11.64     -13.70       1.84        0.00      59.63       1.91       0.02       2.04       ----

> <Gold.Chemscore.Fitness>
11.6390

> <Gold.Chemscore.DG>
-13.7007

> <Gold.Chemscore.ZeroCoef>
-5.4800

> <Gold.Chemscore.Hbond>
1.8361

> <Gold.Chemscore.Metal>
0.0000

> <Gold.Chemscore.Lipo>
59.6283

> <Gold.Chemscore.Internal_Hbond>
0.0000

> <Gold.Chemscore.DEClash>
0.0237

> <Gold.Chemscore.DEInternal>
2.0380

> <Gold.Chemscore.Rot>
1.9095

> <Gold.Chemscore.Internal.Correction>
   9.000000E+99

> <Gold.Chemscore.Hbonds>
donor molecule, donor type, donor heavy atom, donor atom, acceptor molecule, acceptor atom, score
      L1  H     3    23       P1  7948  0.98
      P1  H  6896  6907       L1    16  0.53

> <Gold.Chemscore.Hbond.Weighted>
-6.1326

> <Gold.Chemscore.Metal.Weighted>
-0.0000

> <Gold.Chemscore.Lipo.Weighted>
-6.9765

> <Gold.Chemscore.Internal_Hbond.Weighted>
0.0000

> <Gold.Chemscore.DEClash.Weighted>
0.0237

> <Gold.Chemscore.DEInternal.Weighted>
2.0380

> <Gold.Chemscore.Rot.Weighted>
4.8884

> <Gold.Chemscore.Internal.Correction.Weighted>
   9.000000E+99

> <Gold.Protein.RotatedTorsions>
[ 6907 6896 6895 6894 ] final -131.15 input  -60.11 | X-H torsion
[ 7974 7965 7964 7962 ] final    5.76 input  175.53 | X-H torsion
[ 8008 7997 7996 7995 ] final   39.45 input   59.86 | X-H torsion
[ 10167 10162 10161 10158 ] final  -97.38 input  -65.29 | X-H torsion
[ 10718 10713 10712 10709 ] final -130.92 input   66.30 | X-H torsion
[ 10763 10752 10751 10750 ] final  170.09 input  -60.55 | X-H torsion
[ 11005 11000 10999 10996 ] final   27.86 input  -57.11 | X-H torsion

> <Gold.Protein.ActiveResidues>
 VAL166  LYS551  ARG553  GLY616  TRP617  ASP618  TYR619  PRO620  LYS621  CYS622 
 ASP623  PHE694  ASN695  SER759  ASP760  ASP761  ALA762  ILE779  LEU786  VAL792 
 PHE793  MET794  SER795  GLU796  ALA797  LYS798  CYS799  TRP800  GLU811  SER814 

> <Gold.Protein.RotatedAtoms>
  150.9477  133.6584  159.2777 H   0  0  0  0  0  0  0  0  0  0  0  0  # atno 6907 bound_to 6896
  151.3951  135.0961  159.9548 H   0  0  0  0  0  0  0  0  0  0  0  0  # atno 6908 bound_to 6896
  152.5097  133.8983  159.7483 H   0  0  0  0  0  0  0  0  0  0  0  0  # atno 6909 bound_to 6896
  146.2439  140.0336  142.8388 H   0  0  0  0  0  0  0  0  0  0  0  0  # atno 7974 bound_to 7965
  155.2369  140.3342  155.4297 H   0  0  0  0  0  0  0  0  0  0  0  0  # atno 8008 bound_to 7997
  156.2272  140.1834  156.7379 H   0  0  0  0  0  0  0  0  0  0  0  0  # atno 8009 bound_to 7997
  154.5918  140.0637  156.9234 H   0  0  0  0  0  0  0  0  0  0  0  0  # atno 8010 bound_to 7997
  140.2840  143.3263  152.0412 H   0  0  0  0  0  0  0  0  0  0  0  0  # atno 10167 bound_to 10162
  156.2192  130.6968  151.0737 H   0  0  0  0  0  0  0  0  0  0  0  0  # atno 10718 bound_to 10713
  154.3926  135.2754  155.2145 H   0  0  0  0  0  0  0  0  0  0  0  0  # atno 10763 bound_to 10752
  154.4205  135.6001  153.6010 H   0  0  0  0  0  0  0  0  0  0  0  0  # atno 10764 bound_to 10752
  152.9832  135.5971  154.4183 H   0  0  0  0  0  0  0  0  0  0  0  0  # atno 10765 bound_to 10752
  140.3217  134.2535  155.7716 H   0  0  0  0  0  0  0  0  0  0  0  0  # atno 11005 bound_to 11000
  145.1133  140.9418  143.4643 LP  0  0  0  0  0  0  0  0  0  0  0  0  # atno 17320 bound_to 7965
  145.0554  139.3148  143.5907 LP  0  0  0  0  0  0  0  0  0  0  0  0  # atno 17321 bound_to 7965
  139.4955  144.6572  151.6547 LP  0  0  0  0  0  0  0  0  0  0  0  0  # atno 17342 bound_to 10162
  140.5788  143.9982  150.6256 LP  0  0  0  0  0  0  0  0  0  0  0  0  # atno 17343 bound_to 10162
  157.7079  131.0748  150.6604 LP  0  0  0  0  0  0  0  0  0  0  0  0  # atno 17370 bound_to 10713
  156.6666  130.4527  149.5670 LP  0  0  0  0  0  0  0  0  0  0  0  0  # atno 17371 bound_to 10713
  141.2085  133.7776  157.0056 LP  0  0  0  0  0  0  0  0  0  0  0  0  # atno 17394 bound_to 11000
  140.0936  134.9578  157.1814 LP  0  0  0  0  0  0  0  0  0  0  0  0  # atno 17395 bound_to 11000

$$$$
