AV-unprocessed.smi:627|AV-procd|sdf|3113|dock10
  -GOLD-   22720 0 33D 1   1.00000     0.00000
 Structure written by MMmdl.
 40 42  0  0  0  0  0  0  0  0  1 V2000
  154.1359  129.9722  152.5903 C   0  0  0  0  0  0  0  0  0  0  0  0
  152.4813  129.7919  153.3721 S   0  0  0  0  0  0  0  0  0  0  0  0
  151.5863  129.1553  152.3929 O   0  0  0  0  0  0  0  0  0  0  0  0
  152.6609  129.1788  154.6974 O   0  0  0  0  0  0  0  0  0  0  0  0
  151.9397  131.4795  153.6156 C   0  0  0  0  0  0  0  0  0  0  0  0
  152.5198  132.2773  154.6225 C   0  0  0  0  0  0  0  0  0  0  0  0
  152.0340  133.5876  154.7925 C   0  0  0  0  0  0  0  0  0  0  0  0
  150.9890  134.0449  153.9527 C   0  0  0  0  0  0  0  0  0  0  0  0
  150.4078  135.3385  154.0376 N   0  0  0  0  0  0  0  0  0  0  0  0
  150.7596  136.3578  154.8399 C   0  0  0  0  0  0  0  0  0  0  0  0
  151.6759  136.3311  155.6612 O   0  0  0  0  0  0  0  0  0  0  0  0
  149.9909  137.4341  154.6191 N   0  0  0  0  0  0  0  0  0  0  0  0
  150.1169  138.7219  155.2942 C   0  0  0  0  0  0  0  0  0  0  0  0
  148.8386  139.5332  155.1914 C   0  0  0  0  0  0  0  0  0  0  0  0
  148.8237  141.0174  155.4717 C   0  0  0  0  0  0  0  0  0  0  0  0
  148.1477  140.0590  156.4265 C   0  0  0  0  0  0  0  0  0  0  0  0
  151.2976  139.5316  154.7839 C   0  0  0  0  0  0  0  0  0  0  0  0
  152.7082  138.9951  154.8462 C   0  0  0  0  0  0  0  0  0  0  0  0
  152.2975  140.1472  155.7345 C   0  0  0  0  0  0  0  0  0  0  0  0
  150.4648  133.1446  153.0003 C   0  0  0  0  0  0  0  0  0  0  0  0
  150.9223  131.8869  152.8275 N   0  0  0  0  0  0  0  0  0  0  0  0
  154.5554  128.9852  152.3976 H   0  0  0  0  0  0  0  0  0  0  0  0
  154.7968  130.5224  153.2597 H   0  0  0  0  0  0  0  0  0  0  0  0
  154.0367  130.5153  151.6510 H   0  0  0  0  0  0  0  0  0  0  0  0
  153.3133  131.9015  155.2511 H   0  0  0  0  0  0  0  0  0  0  0  0
  152.4588  134.2061  155.5680 H   0  0  0  0  0  0  0  0  0  0  0  0
  149.6891  135.5366  153.3568 H   0  0  0  0  0  0  0  0  0  0  0  0
  149.2643  137.3603  153.9224 H   0  0  0  0  0  0  0  0  0  0  0  0
  150.2840  138.5347  156.3571 H   0  0  0  0  0  0  0  0  0  0  0  0
  148.1796  139.2014  154.3909 H   0  0  0  0  0  0  0  0  0  0  0  0
  149.7475  141.4847  155.8065 H   0  0  0  0  0  0  0  0  0  0  0  0
  148.1866  141.6395  154.8464 H   0  0  0  0  0  0  0  0  0  0  0  0
  147.0599  140.0430  156.4382 H   0  0  0  0  0  0  0  0  0  0  0  0
  148.6275  139.8852  157.3877 H   0  0  0  0  0  0  0  0  0  0  0  0
  151.0617  140.1293  153.9052 H   0  0  0  0  0  0  0  0  0  0  0  0
  152.8664  138.0293  155.3218 H   0  0  0  0  0  0  0  0  0  0  0  0
  153.3651  139.2145  154.0072 H   0  0  0  0  0  0  0  0  0  0  0  0
  152.6824  141.1348  155.4886 H   0  0  0  0  0  0  0  0  0  0  0  0
  152.1889  139.9404  156.7973 H   0  0  0  0  0  0  0  0  0  0  0  0
  149.6546  133.4436  152.3514 H   0  0  0  0  0  0  0  0  0  0  0  0
  1  2  1  0  0  0  0
  1 22  1  0  0  0  0
  1 23  1  0  0  0  0
  1 24  1  0  0  0  0
  2  3  2  0  0  0  0
  2  4  2  0  0  0  0
  2  5  1  0  0  0  0
  5 21  1  0  0  0  0
  5  6  2  0  0  0  0
  6  7  1  0  0  0  0
  6 25  1  0  0  0  0
  7  8  2  0  0  0  0
  7 26  1  0  0  0  0
  8  9  1  0  0  0  0
  8 20  1  0  0  0  0
  9 10  1  0  0  0  0
  9 27  1  0  0  0  0
 10 11  2  0  0  0  0
 10 12  1  0  0  0  0
 12 13  1  0  0  0  0
 12 28  1  0  0  0  0
 13 14  1  0  0  0  0
 13 17  1  0  0  0  0
 13 29  1  0  0  0  0
 14 16  1  0  0  0  0
 14 15  1  0  0  0  0
 14 30  1  0  0  0  0
 15 16  1  0  0  0  0
 15 31  1  0  0  0  0
 15 32  1  0  0  0  0
 16 33  1  0  0  0  0
 16 34  1  0  0  0  0
 17 19  1  0  0  0  0
 17 18  1  0  0  0  0
 17 35  1  0  0  0  0
 18 19  1  0  0  0  0
 18 36  1  0  0  0  0
 18 37  1  0  0  0  0
 19 38  1  0  0  0  0
 19 39  1  0  0  0  0
 20 21  2  0  0  0  0
 20 40  1  0  0  0  0
M  END
> <s_m_source_file>
AV-unprocessed.smi

> <i_m_source_file_index>
627

> <i_lp_mmshare_version>
43012

> <i_f3d_flags>
0

> <s_epik_input>
W0NIM11TKD1PKSg9TyljMVtjSF1bY0hdYyhbY0hdbjEpW05IXUMoPU8pW05IXVtDSF0oW0NIXTJbQ0gyXVtDSDJdMilbQ0hdM1tDSDJdW0NIMl0z

> <s_epik_cmdline>
J2VwaWtfcHl0aG9uJywgJy1waCcsICc3LjAnLCAnLXRuJywgJzgnLCAnLW1hJywgJzIwMCcsICctbWV0YWxfYmluZGluZycsICctaW1hZScsICc8aW5maWxlLm1hZT4nLCAnLW9tYWUnLCAnPG91dGZpbGUubWFlPic=

> <r_lp_tautomer_probability>
1

> <r_epik_Ionization_Penalty>
4.12334e-05

> <r_epik_Ionization_Penalty_Charging>
0

> <r_epik_Ionization_Penalty_Neutral>
4.12334e-05

> <r_epik_State_Penalty>
-0

> <r_epik_Charging_Adjusted_Penalty>
0

> <i_epik_Tot_Q>
0

> <i_epik_Tot_abs_Q>
0

> <r_epik_Metal_State_Penalty>
-0

> <b_epik_Metal_Only>
0

> <s_lp_Force_Field>
OPLS_2005

> <r_lp_Energy>
25.9195

> <b_lp_Chiralities_Consistent>
1

> <s_lp_Variant>
AV-unprocessed.smi:627-1

> <Gold.Version>
5.8.1

> <Gold.Id.Protein>
6NUR|6NUR_protein|mol2

> <Gold.PLP.Fitness>
39.3414

> <Gold.PLP.PLP>
-35.6603

> <Gold.PLP.part.hbond>
-2.0481

> <Gold.PLP.part.metal>
0.0000

> <Gold.PLP.part.buried>
0.0679

> <Gold.PLP.part.nonpolar>
-32.7273

> <Gold.PLP.part.repulsive>
0.2754

> <Gold.PLP.ligand.clash>
0.0000

> <Gold.PLP.ligand.torsion>
2.8468

> <Gold.PLP.Chemscore.Hbond>
1.7454

> <Gold.PLP.Chemscore.CHOScore>
0.0000

> <Gold.PLP.Chemscore.Metal>
0.0000

> <Gold.Chemscore.Hbonds>
donor molecule, donor type, donor heavy atom, donor atom, acceptor molecule, acceptor atom, score
      L1  H     9    27       P1  7948  0.55
      L1  H    12    28       P1  7948  0.15
      P1  H 10752 10763       L1    11  0.29

> <Gold.PLP.Chemscore.Internal.Correction>
4.1385

> <Gold.Rescore>
     Score         DG    S(hbond)    S(metal)    S(lipo)     H(rot)  DE(clash)    DE(int)     intcor
     11.12     -15.36       1.60        0.00      69.40       1.40       0.20       4.04       ----

> <Gold.Chemscore.Fitness>
11.1179

> <Gold.Chemscore.DG>
-15.3597

> <Gold.Chemscore.ZeroCoef>
-5.4800

> <Gold.Chemscore.Hbond>
1.5967

> <Gold.Chemscore.Metal>
0.0000

> <Gold.Chemscore.Lipo>
69.4011

> <Gold.Chemscore.Internal_Hbond>
0.0000

> <Gold.Chemscore.DEClash>
0.2015

> <Gold.Chemscore.DEInternal>
4.0403

> <Gold.Chemscore.Rot>
1.3958

> <Gold.Chemscore.Internal.Correction>
   9.000000E+99

> <Gold.Chemscore.Hbonds>
donor molecule, donor type, donor heavy atom, donor atom, acceptor molecule, acceptor atom, score
      L1  H     9    27       P1  7948  0.03
      L1  H    12    28       P1  7948  0.15
      P1  H 10752 10763       L1    11  0.28

> <Gold.Chemscore.Hbond.Weighted>
-5.3331

> <Gold.Chemscore.Metal.Weighted>
-0.0000

> <Gold.Chemscore.Lipo.Weighted>
-8.1199

> <Gold.Chemscore.Internal_Hbond.Weighted>
0.0000

> <Gold.Chemscore.DEClash.Weighted>
0.2015

> <Gold.Chemscore.DEInternal.Weighted>
4.0403

> <Gold.Chemscore.Rot.Weighted>
3.5733

> <Gold.Chemscore.Internal.Correction.Weighted>
   9.000000E+99

> <Gold.Protein.RotatedTorsions>
[ 6907 6896 6895 6894 ] final  -43.54 input  -60.11 | X-H torsion
[ 7974 7965 7964 7962 ] final  -55.31 input  175.53 | X-H torsion
[ 8008 7997 7996 7995 ] final   71.36 input   59.86 | X-H torsion
[ 10167 10162 10161 10158 ] final   96.18 input  -65.29 | X-H torsion
[ 10718 10713 10712 10709 ] final  -23.33 input   66.30 | X-H torsion
[ 10763 10752 10751 10750 ] final  120.67 input  -60.55 | X-H torsion
[ 11005 11000 10999 10996 ] final   72.89 input  -57.11 | X-H torsion

> <Gold.Protein.ActiveResidues>
 VAL166  LYS551  ARG553  GLY616  TRP617  ASP618  TYR619  PRO620  LYS621  CYS622 
 ASP623  PHE694  ASN695  SER759  ASP760  ASP761  ALA762  ILE779  LEU786  VAL792 
 PHE793  MET794  SER795  GLU796  ALA797  LYS798  CYS799  TRP800  GLU811  SER814 

> <Gold.Protein.RotatedAtoms>
  150.9428  134.8836  159.7622 H   0  0  0  0  0  0  0  0  0  0  0  0  # atno 6907 bound_to 6896
  152.5087  134.3917  159.9396 H   0  0  0  0  0  0  0  0  0  0  0  0  # atno 6908 bound_to 6896
  151.3937  133.3740  159.2759 H   0  0  0  0  0  0  0  0  0  0  0  0  # atno 6909 bound_to 6896
  145.8757  140.8183  142.9865 H   0  0  0  0  0  0  0  0  0  0  0  0  # atno 7974 bound_to 7965
  155.7527  140.3488  155.5158 H   0  0  0  0  0  0  0  0  0  0  0  0  # atno 8008 bound_to 7997
  155.8989  140.1030  157.1385 H   0  0  0  0  0  0  0  0  0  0  0  0  # atno 8009 bound_to 7997
  154.4041  140.1290  156.4398 H   0  0  0  0  0  0  0  0  0  0  0  0  # atno 8010 bound_to 7997
  139.7918  144.6849  150.9882 H   0  0  0  0  0  0  0  0  0  0  0  0  # atno 10167 bound_to 10162
  156.4925  130.4569  149.6747 H   0  0  0  0  0  0  0  0  0  0  0  0  # atno 10718 bound_to 10713
  153.6020  135.3446  155.2949 H   0  0  0  0  0  0  0  0  0  0  0  0  # atno 10763 bound_to 10752
  154.8634  135.4230  154.2402 H   0  0  0  0  0  0  0  0  0  0  0  0  # atno 10764 bound_to 10752
  153.3233  135.7039  153.7083 H   0  0  0  0  0  0  0  0  0  0  0  0  # atno 10765 bound_to 10752
  139.9467  134.7299  156.0961 H   0  0  0  0  0  0  0  0  0  0  0  0  # atno 11005 bound_to 11000
  144.6726  140.1306  143.7444 LP  0  0  0  0  0  0  0  0  0  0  0  0  # atno 17320 bound_to 7965
  145.9084  139.2472  143.1452 LP  0  0  0  0  0  0  0  0  0  0  0  0  # atno 17321 bound_to 7965
  140.7820  143.4372  151.0605 LP  0  0  0  0  0  0  0  0  0  0  0  0  # atno 17342 bound_to 10162
  139.8049  143.8032  152.3166 LP  0  0  0  0  0  0  0  0  0  0  0  0  # atno 17343 bound_to 10162
  156.3412  130.7383  151.2328 LP  0  0  0  0  0  0  0  0  0  0  0  0  # atno 17370 bound_to 10713
  157.7472  131.0403  150.4591 LP  0  0  0  0  0  0  0  0  0  0  0  0  # atno 17371 bound_to 10713
  141.1120  133.6640  156.3001 LP  0  0  0  0  0  0  0  0  0  0  0  0  # atno 17394 bound_to 11000
  140.5817  134.5739  157.5481 LP  0  0  0  0  0  0  0  0  0  0  0  0  # atno 17395 bound_to 11000

$$$$
