AV-unprocessed.smi:2785|AV-procd|sdf|10746|dock6
  -GOLD-   2272015183D 1   1.00000     0.00000
 Structure written by MMmdl.
 37 38  0  0  0  0  0  0  0  0  1 V2000
  149.5169  135.8687  157.3909 C   0  0  0  0  0  0  0  0  0  0  0  0
  149.8116  135.9536  155.8850 C   0  0  0  0  0  0  0  0  0  0  0  0
  150.7011  134.7903  155.4101 C   0  0  0  0  0  0  0  0  0  0  0  0
  150.3715  137.2705  155.5502 N   0  0  0  0  0  0  0  0  0  0  0  0
  149.6943  138.2045  154.6652 C   0  0  0  0  0  0  0  0  0  0  0  0
  150.7207  139.3095  154.3963 C   0  0  0  0  0  0  0  0  0  0  0  0
  151.8295  139.1512  155.4495 C   0  0  1  0  0  0  0  0  0  0  0  0
  151.6778  140.1665  156.4895 N   0  0  0  0  0  0  0  0  0  0  0  0
  152.3645  140.2025  157.6410 C   0  0  0  0  0  0  0  0  0  0  0  0
  153.2302  139.3799  157.9411 O   0  0  0  0  0  0  0  0  0  0  0  0
  151.9800  141.2411  158.4036 N   0  0  0  0  0  0  0  0  0  0  0  0
  152.4526  141.6066  159.6923 C   0  0  0  0  0  0  0  0  0  0  0  0
  151.9751  142.8461  160.1755 C   0  0  0  0  0  0  0  0  0  0  0  0
  152.3834  143.2991  161.4452 C   0  0  0  0  0  0  0  0  0  0  0  0
  153.2599  142.4984  162.1986 C   0  0  0  0  0  0  0  0  0  0  0  0
  153.6798  142.8919  163.4243 F   0  0  0  0  0  0  0  0  0  0  0  0
  153.6893  141.2778  161.6455 C   0  0  0  0  0  0  0  0  0  0  0  0
  153.2987  140.8428  160.4285 N   0  0  0  0  0  0  0  0  0  0  0  0
  151.5241  137.7673  156.0202 C   0  0  0  0  0  0  0  0  0  0  0  0
  152.2837  137.1962  156.8024 O   0  0  0  0  0  0  0  0  0  0  0  0
  149.0565  134.9140  157.6462 H   0  0  0  0  0  0  0  0  0  0  0  0
  148.8324  136.6569  157.7062 H   0  0  0  0  0  0  0  0  0  0  0  0
  150.4301  135.9657  157.9792 H   0  0  0  0  0  0  0  0  0  0  0  0
  148.8618  135.8507  155.3573 H   0  0  0  0  0  0  0  0  0  0  0  0
  150.2136  133.8323  155.5928 H   0  0  0  0  0  0  0  0  0  0  0  0
  151.6589  134.7713  155.9308 H   0  0  0  0  0  0  0  0  0  0  0  0
  150.8985  134.8554  154.3399 H   0  0  0  0  0  0  0  0  0  0  0  0
  149.3723  137.7225  153.7412 H   0  0  0  0  0  0  0  0  0  0  0  0
  148.8160  138.6130  155.1667 H   0  0  0  0  0  0  0  0  0  0  0  0
  151.1499  139.1648  153.4038 H   0  0  0  0  0  0  0  0  0  0  0  0
  150.2627  140.2999  154.3986 H   0  0  0  0  0  0  0  0  0  0  0  0
  152.8199  139.1817  154.9917 H   0  0  0  0  0  0  0  0  0  0  0  0
  150.9847  140.8817  156.3261 H   0  0  0  0  0  0  0  0  0  0  0  0
  151.2594  141.8352  158.0216 H   0  0  0  0  0  0  0  0  0  0  0  0
  151.3013  143.4476  159.5826 H   0  0  0  0  0  0  0  0  0  0  0  0
  152.0300  144.2433  161.8327 H   0  0  0  0  0  0  0  0  0  0  0  0
  154.3625  140.6343  162.1922 H   0  0  0  0  0  0  0  0  0  0  0  0
  1  2  1  0  0  0  0
  1 21  1  0  0  0  0
  1 22  1  0  0  0  0
  1 23  1  0  0  0  0
  2  3  1  0  0  0  0
  2  4  1  0  0  0  0
  2 24  1  0  0  0  0
  3 25  1  0  0  0  0
  3 26  1  0  0  0  0
  3 27  1  0  0  0  0
  4 19  1  0  0  0  0
  4  5  1  0  0  0  0
  5  6  1  0  0  0  0
  5 28  1  0  0  0  0
  5 29  1  0  0  0  0
  6  7  1  0  0  0  0
  6 30  1  0  0  0  0
  6 31  1  0  0  0  0
  7  8  1  0  0  0  0
  7 19  1  0  0  0  0
  7 32  1  0  0  0  0
  8  9  1  0  0  0  0
  8 33  1  0  0  0  0
  9 10  2  0  0  0  0
  9 11  1  0  0  0  0
 11 12  1  0  0  0  0
 11 34  1  0  0  0  0
 12 18  1  0  0  0  0
 12 13  2  0  0  0  0
 13 14  1  0  0  0  0
 13 35  1  0  0  0  0
 14 15  2  0  0  0  0
 14 36  1  0  0  0  0
 15 16  1  0  0  0  0
 15 17  1  0  0  0  0
 17 18  2  0  0  0  0
 17 37  1  0  0  0  0
 19 20  2  0  0  0  0
M  END
> <s_m_source_file>
AV-unprocessed.smi

> <i_m_source_file_index>
2785

> <i_lp_mmshare_version>
43012

> <i_f3d_flags>
0

> <s_epik_input>
W0NIM11bQ0hdKFtDSDNdKU4xW0NIMl1bQ0gyXVtDQEhdKEMxPU8pW05IXUMoPU8pW05IXWMyW2NIXVtjSF1jKEYpW2NIXW4y

> <s_epik_cmdline>
J2VwaWtfcHl0aG9uJywgJy1waCcsICc3LjAnLCAnLXRuJywgJzgnLCAnLW1hJywgJzIwMCcsICctbWV0YWxfYmluZGluZycsICctaW1hZScsICc8aW5maWxlLm1hZT4nLCAnLW9tYWUnLCAnPG91dGZpbGUubWFlPic=

> <r_lp_tautomer_probability>
1

> <r_epik_Ionization_Penalty>
3.20266e-05

> <r_epik_Ionization_Penalty_Charging>
0

> <r_epik_Ionization_Penalty_Neutral>
3.20266e-05

> <r_epik_State_Penalty>
-0

> <r_epik_Charging_Adjusted_Penalty>
0

> <i_epik_Tot_Q>
0

> <i_epik_Tot_abs_Q>
0

> <r_epik_Metal_State_Penalty>
-0

> <b_epik_Metal_Only>
0

> <s_lp_Force_Field>
OPLS_2005

> <r_lp_Energy>
23.6271

> <b_lp_Chiralities_Consistent>
1

> <s_lp_Variant>
AV-unprocessed.smi:2785-1

> <Gold.Version>
5.8.1

> <Gold.Id.Protein>
6NUR|6NUR_protein|mol2

> <Gold.PLP.Fitness>
40.2327

> <Gold.PLP.PLP>
-37.3041

> <Gold.PLP.part.hbond>
-1.0000

> <Gold.PLP.part.metal>
0.0000

> <Gold.PLP.part.buried>
-3.8857

> <Gold.PLP.part.nonpolar>
-31.6357

> <Gold.PLP.part.repulsive>
0.2279

> <Gold.PLP.ligand.clash>
0.0000

> <Gold.PLP.ligand.torsion>
0.0720

> <Gold.PLP.Chemscore.Hbond>
1.0000

> <Gold.PLP.Chemscore.CHOScore>
0.0000

> <Gold.PLP.Chemscore.Metal>
0.0000

> <Gold.Chemscore.Hbonds>
donor molecule, donor type, donor heavy atom, donor atom, acceptor molecule, acceptor atom, score
      P1  H  7997  8010       L1    10  1.00

> <Gold.PLP.Chemscore.Internal.Correction>
0.0726

> <Gold.Rescore>
     Score         DG    S(hbond)    S(metal)    S(lipo)     H(rot)  DE(clash)    DE(int)     intcor
     10.84     -14.23       0.97        0.00      75.38       1.29       0.02       3.37       ----

> <Gold.Chemscore.Fitness>
10.8374

> <Gold.Chemscore.DG>
-14.2286

> <Gold.Chemscore.ZeroCoef>
-5.4800

> <Gold.Chemscore.Hbond>
0.9656

> <Gold.Chemscore.Metal>
0.0000

> <Gold.Chemscore.Lipo>
75.3799

> <Gold.Chemscore.Internal_Hbond>
0.0000

> <Gold.Chemscore.DEClash>
0.0197

> <Gold.Chemscore.DEInternal>
3.3715

> <Gold.Chemscore.Rot>
1.2875

> <Gold.Chemscore.Internal.Correction>
   9.000000E+99

> <Gold.Chemscore.Hbonds>
donor molecule, donor type, donor heavy atom, donor atom, acceptor molecule, acceptor atom, score
      P1  H  7997  8010       L1    10  0.30

> <Gold.Chemscore.Hbond.Weighted>
-3.2251

> <Gold.Chemscore.Metal.Weighted>
-0.0000

> <Gold.Chemscore.Lipo.Weighted>
-8.8194

> <Gold.Chemscore.Internal_Hbond.Weighted>
0.0000

> <Gold.Chemscore.DEClash.Weighted>
0.0197

> <Gold.Chemscore.DEInternal.Weighted>
3.3715

> <Gold.Chemscore.Rot.Weighted>
3.2959

> <Gold.Chemscore.Internal.Correction.Weighted>
   9.000000E+99

> <Gold.Protein.RotatedTorsions>
[ 6907 6896 6895 6894 ] final  -22.25 input  -60.11 | X-H torsion
[ 7974 7965 7964 7962 ] final  -86.55 input  175.53 | X-H torsion
[ 8008 7997 7996 7995 ] final   32.21 input   59.86 | X-H torsion
[ 10167 10162 10161 10158 ] final -114.28 input  -65.29 | X-H torsion
[ 10718 10713 10712 10709 ] final  -27.95 input   66.30 | X-H torsion
[ 10763 10752 10751 10750 ] final -108.49 input  -60.55 | X-H torsion
[ 11005 11000 10999 10996 ] final  173.40 input  -57.11 | X-H torsion

> <Gold.Protein.ActiveResidues>
 VAL166  LYS551  ARG553  GLY616  TRP617  ASP618  TYR619  PRO620  LYS621  CYS622 
 ASP623  PHE694  ASN695  SER759  ASP760  ASP761  ALA762  ILE779  LEU786  VAL792 
 PHE793  MET794  SER795  GLU796  ALA797  LYS798  CYS799  TRP800  GLU811  SER814 

> <Gold.Protein.RotatedAtoms>
  151.2214  135.0520  159.8950 H   0  0  0  0  0  0  0  0  0  0  0  0  # atno 6907 bound_to 6896
  152.5415  134.0636  159.8173 H   0  0  0  0  0  0  0  0  0  0  0  0  # atno 6908 bound_to 6896
  151.0803  133.5347  159.2653 H   0  0  0  0  0  0  0  0  0  0  0  0  # atno 6909 bound_to 6896
  145.4783  140.9558  143.1878 H   0  0  0  0  0  0  0  0  0  0  0  0  # atno 7974 bound_to 7965
  155.1188  140.3246  155.4503 H   0  0  0  0  0  0  0  0  0  0  0  0  # atno 8008 bound_to 7997
  156.2669  140.2031  156.6258 H   0  0  0  0  0  0  0  0  0  0  0  0  # atno 8009 bound_to 7997
  154.6700  140.0537  157.0142 H   0  0  0  0  0  0  0  0  0  0  0  0  # atno 8010 bound_to 7997
  140.1027  143.4598  152.1802 H   0  0  0  0  0  0  0  0  0  0  0  0  # atno 10167 bound_to 10162
  156.4315  130.4446  149.7114 H   0  0  0  0  0  0  0  0  0  0  0  0  # atno 10718 bound_to 10713
  154.8138  135.4636  154.0589 H   0  0  0  0  0  0  0  0  0  0  0  0  # atno 10763 bound_to 10752
  153.1998  135.6867  153.8252 H   0  0  0  0  0  0  0  0  0  0  0  0  # atno 10764 bound_to 10752
  153.7741  135.3266  155.3333 H   0  0  0  0  0  0  0  0  0  0  0  0  # atno 10765 bound_to 10752
  140.3401  134.7284  157.4196 H   0  0  0  0  0  0  0  0  0  0  0  0  # atno 11005 bound_to 11000
  144.7904  139.6341  143.7116 LP  0  0  0  0  0  0  0  0  0  0  0  0  # atno 17320 bound_to 7965
  146.2356  139.5898  142.9526 LP  0  0  0  0  0  0  0  0  0  0  0  0  # atno 17321 bound_to 7965
  139.5662  144.7436  151.4016 LP  0  0  0  0  0  0  0  0  0  0  0  0  # atno 17342 bound_to 10162
  140.6969  143.7728  150.7340 LP  0  0  0  0  0  0  0  0  0  0  0  0  # atno 17343 bound_to 10162
  156.4015  130.7677  151.2685 LP  0  0  0  0  0  0  0  0  0  0  0  0  # atno 17370 bound_to 10713
  157.7508  131.0238  150.3850 LP  0  0  0  0  0  0  0  0  0  0  0  0  # atno 17371 bound_to 10713
  140.0788  134.5759  155.8562 LP  0  0  0  0  0  0  0  0  0  0  0  0  # atno 17394 bound_to 11000
  141.2041  133.6636  156.6100 LP  0  0  0  0  0  0  0  0  0  0  0  0  # atno 17395 bound_to 11000

$$$$
