AV-unprocessed.smi:686|AV-procd|sdf|3352|dock3
  -GOLD-   22720 0323D 1   1.00000     0.00000
 Structure written by MMmdl.
 40 41  0  0  0  0  0  0  0  0  3 V2000
  150.0024  132.6454  155.2669 C   0  0  0  0  0  0  0  0  0  0  0  0
  149.8279  134.1038  155.7341 C   0  0  1  0  0  0  0  0  0  0  0  0
  150.6416  135.1114  154.9030 C   0  0  0  0  0  0  0  0  0  0  0  0
  149.8091  136.3321  154.7493 N   0  3  2  0  0  0  0  0  0  0  0  0
  150.5353  137.6252  154.8972 C   0  0  0  0  0  0  0  0  0  0  0  0
  149.6877  138.8137  154.4038 C   0  0  0  0  0  0  0  0  0  0  0  0
  151.8753  137.5995  154.1379 C   0  0  0  0  0  0  0  0  0  0  0  0
  148.6287  136.1592  155.6226 C   0  0  0  0  0  0  0  0  0  0  0  0
  148.3934  134.6493  155.6773 C   0  0  2  0  0  0  0  0  0  0  0  0
  147.6296  134.2551  156.8516 N   0  5  0  0  0  0  0  0  0  0  0  0
  148.3234  134.2857  158.3186 S   0  0  0  0  0  0  0  0  0  0  0  0
  148.6126  132.9372  158.8344 O   0  0  0  0  0  0  0  0  0  0  0  0
  149.4055  135.2800  158.3964 O   0  0  0  0  0  0  0  0  0  0  0  0
  146.9424  134.9582  159.3434 C   0  0  0  0  0  0  0  0  0  0  0  0
  147.4605  135.4610  160.6637 C   0  0  0  0  0  0  0  0  0  0  0  0
  147.1467  134.9958  161.9711 C   0  0  0  0  0  0  0  0  0  0  0  0
  147.8896  135.8015  162.7844 C   0  0  0  0  0  0  0  0  0  0  0  0
  148.5977  136.6951  162.0491 O   0  0  0  0  0  0  0  0  0  0  0  0
  148.3142  136.4729  160.6966 N   0  0  0  0  0  0  0  0  0  0  0  0
  149.6948  132.5042  154.2290 H   0  0  0  0  0  0  0  0  0  0  0  0
  149.4291  131.9502  155.8827 H   0  0  0  0  0  0  0  0  0  0  0  0
  151.0483  132.3458  155.3372 H   0  0  0  0  0  0  0  0  0  0  0  0
  150.1843  134.1752  156.7640 H   0  0  0  0  0  0  0  0  0  0  0  0
  151.5863  135.3215  155.4072 H   0  0  0  0  0  0  0  0  0  0  0  0
  150.8811  134.7265  153.9102 H   0  0  0  0  0  0  0  0  0  0  0  0
  150.7436  137.7768  155.9575 H   0  0  0  0  0  0  0  0  0  0  0  0
  150.2479  139.7469  154.4694 H   0  0  0  0  0  0  0  0  0  0  0  0
  148.7843  138.9476  154.9990 H   0  0  0  0  0  0  0  0  0  0  0  0
  149.3873  138.6819  153.3635 H   0  0  0  0  0  0  0  0  0  0  0  0
  152.3923  138.5555  154.2268 H   0  0  0  0  0  0  0  0  0  0  0  0
  151.7239  137.4041  153.0757 H   0  0  0  0  0  0  0  0  0  0  0  0
  152.5527  136.8376  154.5228 H   0  0  0  0  0  0  0  0  0  0  0  0
  148.8513  136.5490  156.6182 H   0  0  0  0  0  0  0  0  0  0  0  0
  147.7632  136.6945  155.2308 H   0  0  0  0  0  0  0  0  0  0  0  0
  147.9259  134.3285  154.7452 H   0  0  0  0  0  0  0  0  0  0  0  0
  146.4767  135.7661  158.7787 H   0  0  0  0  0  0  0  0  0  0  0  0
  146.1920  134.1793  159.4755 H   0  0  0  0  0  0  0  0  0  0  0  0
  146.4858  134.1929  162.2626 H   0  0  0  0  0  0  0  0  0  0  0  0
  148.0150  135.8623  163.8555 H   0  0  0  0  0  0  0  0  0  0  0  0
  149.4493  136.3007  153.8061 H   0  0  0  0  0  0  0  0  0  0  0  0
  1  2  1  0  0  0  0
  1 20  1  0  0  0  0
  1 21  1  0  0  0  0
  1 22  1  0  0  0  0
  2  9  1  0  0  0  0
  2  3  1  0  0  0  0
  2 23  1  0  0  0  0
  3  4  1  0  0  0  0
  3 24  1  0  0  0  0
  3 25  1  0  0  0  0
  4  5  1  0  0  0  0
  4  8  1  0  0  0  0
  4 40  1  0  0  0  0
  5  6  1  0  0  0  0
  5  7  1  0  0  0  0
  5 26  1  0  0  0  0
  6 27  1  0  0  0  0
  6 28  1  0  0  0  0
  6 29  1  0  0  0  0
  7 30  1  0  0  0  0
  7 31  1  0  0  0  0
  7 32  1  0  0  0  0
  8  9  1  0  0  0  0
  8 33  1  0  0  0  0
  8 34  1  0  0  0  0
  9 10  1  0  0  0  0
  9 35  1  0  0  0  0
 10 11  1  0  0  0  0
 11 12  2  0  0  0  0
 11 13  2  0  0  0  0
 11 14  1  0  0  0  0
 14 15  1  0  0  0  0
 14 36  1  0  0  0  0
 14 37  1  0  0  0  0
 15 19  2  0  0  0  0
 15 16  1  0  0  0  0
 16 17  2  0  0  0  0
 16 38  1  0  0  0  0
 17 18  1  0  0  0  0
 17 39  1  0  0  0  0
 18 19  1  0  0  0  0
M  CHG  1   4   1
M  CHG  1  10  -1
M  END
> <s_m_source_file>
AV-unprocessed.smi

> <i_m_source_file_index>
686

> <i_lp_mmshare_version>
43012

> <i_f3d_flags>
0

> <s_epik_input>
W0NIM11bQ0BASF0xW0NIMl1OKFtDSF0oW0NIM10pW0NIM10pW0NIMl1bQ0BIXTFbTkhdUyg9TykoPU8pW0NIMl1jMltjSF1bY0hdb24y

> <s_epik_cmdline>
J2VwaWtfcHl0aG9uJywgJy1waCcsICc3LjAnLCAnLXRuJywgJzgnLCAnLW1hJywgJzIwMCcsICctbWV0YWxfYmluZGluZycsICctaW1hZScsICc8aW5maWxlLm1hZT4nLCAnLW9tYWUnLCAnPG91dGZpbGUubWFlPic=

> <r_epik_Ionization_Penalty>
3.62478

> <r_epik_Ionization_Penalty_Charging>
3.62478

> <r_epik_Ionization_Penalty_Neutral>
2.03645e-10

> <r_epik_State_Penalty>
3.6247

> <r_epik_Charging_Adjusted_Penalty>
7.24949

> <i_epik_Tot_Q>
0

> <i_epik_Tot_abs_Q>
2

> <r_epik_Metal_State_Penalty>
0.530836

> <b_epik_Metal_Only>
1

> <s_lp_Force_Field>
OPLS_2005

> <r_lp_Energy>
17.1192

> <b_lp_Chiralities_Consistent>
1

> <s_lp_Variant>
AV-unprocessed.smi:686-16

> <Gold.Version>
5.8.1

> <Gold.Id.Protein>
6NUR|6NUR_protein|mol2

> <Gold.PLP.Fitness>
40.6548

> <Gold.PLP.PLP>
-30.0956

> <Gold.PLP.part.hbond>
-4.3825

> <Gold.PLP.part.metal>
0.0000

> <Gold.PLP.part.buried>
-4.9105

> <Gold.PLP.part.nonpolar>
-21.0068

> <Gold.PLP.part.repulsive>
0.0335

> <Gold.PLP.ligand.clash>
0.0000

> <Gold.PLP.ligand.torsion>
1.2574

> <Gold.PLP.Chemscore.Hbond>
4.0000

> <Gold.PLP.Chemscore.CHOScore>
0.0000

> <Gold.PLP.Chemscore.Metal>
0.0000

> <Gold.Chemscore.Hbonds>
donor molecule, donor type, donor heavy atom, donor atom, acceptor molecule, acceptor atom, score
      L1  H     4    40       P1  7948  2.00
      P1  H  6896  6909       L1    13  1.00
      P1  H  6931  6943       L1    18  0.90

> <Gold.PLP.Chemscore.Internal.Correction>
1.0740

> <Gold.Rescore>
     Score         DG    S(hbond)    S(metal)    S(lipo)     H(rot)  DE(clash)    DE(int)     intcor
     14.13     -18.38       2.78        0.00      66.26       1.61       0.00       4.24       ----

> <Gold.Chemscore.Fitness>
14.1315

> <Gold.Chemscore.DG>
-18.3771

> <Gold.Chemscore.ZeroCoef>
-5.4800

> <Gold.Chemscore.Hbond>
2.7779

> <Gold.Chemscore.Metal>
0.0000

> <Gold.Chemscore.Lipo>
66.2649

> <Gold.Chemscore.Internal_Hbond>
0.0000

> <Gold.Chemscore.DEClash>
0.0009

> <Gold.Chemscore.DEInternal>
4.2447

> <Gold.Chemscore.Rot>
1.6149

> <Gold.Chemscore.Internal.Correction>
   9.000000E+99

> <Gold.Chemscore.Hbonds>
donor molecule, donor type, donor heavy atom, donor atom, acceptor molecule, acceptor atom, score
      L1  H     4    40       P1  7948  0.73
      P1  H  6896  6909       L1    13  0.69
      P1  H  6931  6943       L1    18  0.18

> <Gold.Chemscore.Hbond.Weighted>
-9.2782

> <Gold.Chemscore.Metal.Weighted>
-0.0000

> <Gold.Chemscore.Lipo.Weighted>
-7.7530

> <Gold.Chemscore.Internal_Hbond.Weighted>
0.0000

> <Gold.Chemscore.DEClash.Weighted>
0.0009

> <Gold.Chemscore.DEInternal.Weighted>
4.2447

> <Gold.Chemscore.Rot.Weighted>
4.1341

> <Gold.Chemscore.Internal.Correction.Weighted>
   9.000000E+99

> <Gold.Protein.RotatedTorsions>
[ 6907 6896 6895 6894 ] final   57.33 input  -60.11 | X-H torsion
[ 7974 7965 7964 7962 ] final  -80.08 input  175.53 | X-H torsion
[ 8008 7997 7996 7995 ] final -112.43 input   59.86 | X-H torsion
[ 10167 10162 10161 10158 ] final   21.64 input  -65.29 | X-H torsion
[ 10718 10713 10712 10709 ] final -106.20 input   66.30 | X-H torsion
[ 10763 10752 10751 10750 ] final   -7.97 input  -60.55 | X-H torsion
[ 11005 11000 10999 10996 ] final -158.79 input  -57.11 | X-H torsion

> <Gold.Protein.ActiveResidues>
 VAL166  LYS551  ARG553  GLY616  TRP617  ASP618  TYR619  PRO620  LYS621  CYS622 
 ASP623  PHE694  ASN695  SER759  ASP760  ASP761  ALA762  ILE779  LEU786  VAL792 
 PHE793  MET794  SER795  GLU796  ALA797  LYS798  CYS799  TRP800  GLU811  SER814 

> <Gold.Protein.RotatedAtoms>
  152.3721  134.6718  160.0172 H   0  0  0  0  0  0  0  0  0  0  0  0  # atno 6907 bound_to 6896
  151.7008  133.3305  159.3274 H   0  0  0  0  0  0  0  0  0  0  0  0  # atno 6908 bound_to 6896
  150.7681  134.6552  159.6354 H   0  0  0  0  0  0  0  0  0  0  0  0  # atno 6909 bound_to 6896
  145.5647  140.9476  143.1428 H   0  0  0  0  0  0  0  0  0  0  0  0  # atno 7974 bound_to 7965
  155.0051  140.0394  157.2376 H   0  0  0  0  0  0  0  0  0  0  0  0  # atno 8008 bound_to 7997
  154.7509  140.2766  155.6270 H   0  0  0  0  0  0  0  0  0  0  0  0  # atno 8009 bound_to 7997
  156.2885  140.2647  156.2262 H   0  0  0  0  0  0  0  0  0  0  0  0  # atno 8010 bound_to 7997
  140.5411  143.9676  150.6520 H   0  0  0  0  0  0  0  0  0  0  0  0  # atno 10167 bound_to 10162
  156.0379  130.5601  150.7647 H   0  0  0  0  0  0  0  0  0  0  0  0  # atno 10718 bound_to 10713
  153.4338  135.7012  153.6213 H   0  0  0  0  0  0  0  0  0  0  0  0  # atno 10763 bound_to 10752
  153.4616  135.3735  155.2342 H   0  0  0  0  0  0  0  0  0  0  0  0  # atno 10764 bound_to 10752
  154.8726  135.4021  154.3726 H   0  0  0  0  0  0  0  0  0  0  0  0  # atno 10765 bound_to 10752
  140.6497  134.4463  157.5235 H   0  0  0  0  0  0  0  0  0  0  0  0  # atno 11005 bound_to 11000
  144.7466  139.7303  143.7290 LP  0  0  0  0  0  0  0  0  0  0  0  0  # atno 17320 bound_to 7965
  146.1827  139.5027  142.9856 LP  0  0  0  0  0  0  0  0  0  0  0  0  # atno 17321 bound_to 7965
  140.3076  143.3219  152.0910 LP  0  0  0  0  0  0  0  0  0  0  0  0  # atno 17342 bound_to 10162
  139.4989  144.6657  151.6363 LP  0  0  0  0  0  0  0  0  0  0  0  0  # atno 17343 bound_to 10162
  157.5157  131.0928  151.0143 LP  0  0  0  0  0  0  0  0  0  0  0  0  # atno 17370 bound_to 10713
  157.0486  130.5778  149.5367 LP  0  0  0  0  0  0  0  0  0  0  0  0  # atno 17371 bound_to 10713
  139.9050  134.8469  156.1742 LP  0  0  0  0  0  0  0  0  0  0  0  0  # atno 17394 bound_to 11000
  141.0545  133.6872  156.1835 LP  0  0  0  0  0  0  0  0  0  0  0  0  # atno 17395 bound_to 11000

$$$$
