#       Name:                AV-unprocessed.smi:2356
#       Creating user name   scv26
#       Creation time:       Fri Mar 27 13:03:12 2020


#       File generated by GOLD software.
#

@<TRIPOS>MOLECULE
AV-unprocessed.smi:2356
    59    62     1
SMALL
NO_CHARGES


@<TRIPOS>ATOM
      1 ****        -0.7531  -1.8266  -0.8702 C.3            1 S1                 0.0000
      2 ****        -1.3980  -0.4500  -0.8595 C.ar           1 S1                 0.0000
      3 ****        -2.7496  -0.4238  -0.8453 N.pl3          1 S1                 1.0000
      4 ****        -3.4789   0.7119  -0.8312 C.ar           1 S1                 0.0000
      5 ****        -4.8738   0.5734  -0.8181 N.3            1 S1                 0.0000
      6 ****        -5.5605   1.1710  -1.9511 C.3            1 S1                 0.0000
      7 ****        -7.0289   1.2798  -1.5314 C.3            1 S1                 0.0000
      8 ****        -7.0070   1.2248   0.0008 C.3            1 S1                 0.0000
      9 ****        -5.5261   1.1014   0.3683 C.3            1 S1                 0.0000
     10 ****        -2.8106   1.9562  -0.8211 C.ar           1 S1                 0.0000
     11 ****        -1.4021   1.9841  -0.8357 C.ar           1 S1                 0.0000
     12 ****        -0.6721   0.7687  -0.8714 C.ar           1 S1                 0.0000
     13 ****         0.7500   0.7249  -0.8734 N.am           1 S1                 0.0000
     14 ****         1.6257   1.6614  -1.2886 C.2            1 S1                 0.0000
     15 ****         1.3113   2.7470  -1.7711 O.2            1 S1                 0.0000
     16 ****         2.9170   1.3115  -1.1466 N.am           1 S1                 0.0000
     17 ****         4.1135   2.0825  -1.4923 C.3            1 S1                 0.0000
     18 ****         5.3227   1.5297  -0.7230 C.3            1 S1                 0.0000
     19 ****         6.6184   2.2257  -1.1697 C.3            1 S1                 0.0000
     20 ****         6.7866   2.0843  -2.5763 O.3            1 S1                 0.0000
     21 ****         5.7456   2.6986  -3.3295 C.3            1 S1                 0.0000
     22 ****         6.0925   2.5822  -4.8003 C.3            1 S1                 0.0000
     23 ****         6.9755   3.6086  -5.4706 C.3            1 S1                 0.0000
     24 ****         5.5055   3.5427  -5.8085 C.3            1 S1                 0.0000
     25 ****         4.4051   2.0155  -3.0023 C.3            1 S1                 0.0000
     26 ****         0.3353  -1.7915  -0.8387 H              1 S1                 0.0000
     27 ****        -1.0435  -2.3667  -1.7717 H              1 S1                 0.0000
     28 ****        -1.0901  -2.4032  -0.0084 H              1 S1                 0.0000
     29 ****        -5.1588   2.1617  -2.1671 H              1 S1                 0.0000
     30 ****        -5.4443   0.5596  -2.8465 H              1 S1                 0.0000
     31 ****        -7.4854   2.1961  -1.9073 H              1 S1                 0.0000
     32 ****        -7.6006   0.4385  -1.9254 H              1 S1                 0.0000
     33 ****        -7.4615   2.1053   0.4554 H              1 S1                 0.0000
     34 ****        -7.5577   0.3497   0.3479 H              1 S1                 0.0000
     35 ****        -5.3789   0.4412   1.2236 H              1 S1                 0.0000
     36 ****        -5.1208   2.0809   0.6254 H              1 S1                 0.0000
     37 ****        -3.3641   2.8835  -0.7967 H              1 S1                 0.0000
     38 ****        -0.9095   2.9432  -0.8039 H              1 S1                 0.0000
     39 ****         1.1552  -0.1518  -0.5792 H              1 S1                 0.0000
     40 ****         3.0893   0.4074  -0.7307 H              1 S1                 0.0000
     41 ****         3.9755   3.1242  -1.1968 H              1 S1                 0.0000
     42 ****         5.1810   1.6589   0.3506 H              1 S1                 0.0000
     43 ****         5.4164   0.4570  -0.8992 H              1 S1                 0.0000
     44 ****         6.6068   3.2823  -0.8978 H              1 S1                 0.0000
     45 ****         7.4759   1.7783  -0.6665 H              1 S1                 0.0000
     46 ****         5.6915   3.7575  -3.0692 H              1 S1                 0.0000
     47 ****         6.2155   1.5558  -5.1416 H              1 S1                 0.0000
     48 ****         7.3166   4.4517  -4.8731 H              1 S1                 0.0000
     49 ****         7.6811   3.2506  -6.2175 H              1 S1                 0.0000
     50 ****         5.2296   3.1421  -6.7817 H              1 S1                 0.0000
     51 ****         4.8686   4.3427  -5.4357 H              1 S1                 0.0000
     52 ****         4.4396   0.9737  -3.3252 H              1 S1                 0.0000
     53 ****         3.6031   2.4897  -3.5687 H              1 S1                 0.0000
     54 ****        -3.2478  -1.3141  -0.8448 H              1 S1                 0.0000
     55 ****        -4.9579  -0.4226  -0.8495 LP             1 S1                 0.0000
     56 ****         0.3462   2.9859  -1.8781 LP             1 S1                 0.0000
     57 ****         2.0206   3.3914  -2.0568 LP             1 S1                 0.0000
     58 ****         6.8065   1.1093  -2.7977 LP             1 S1                 0.0000
     59 ****         7.6568   2.5029  -2.8362 LP             1 S1                 0.0000
@<TRIPOS>BOND
    1    1    2 1     
    2    1   26 1     
    3    1   27 1     
    4    1   28 1     
    5    2   12 ar    
    6    2    3 ar    
    7    3    4 ar    
    8    3   54 1     
    9    4    5 1     
   10    4   10 ar    
   11    5    9 1     
   12    5    6 1     
   13    6    7 1     
   14    6   29 1     
   15    6   30 1     
   16    7    8 1     
   17    7   31 1     
   18    7   32 1     
   19    8    9 1     
   20    8   33 1     
   21    8   34 1     
   22    9   35 1     
   23    9   36 1     
   24   10   11 ar    
   25   10   37 1     
   26   11   12 ar    
   27   11   38 1     
   28   12   13 1     
   29   13   14 am    
   30   13   39 1     
   31   14   15 2     
   32   14   16 am    
   33   16   17 1     
   34   16   40 1     
   35   17   25 1     
   36   17   18 1     
   37   17   41 1     
   38   18   19 1     
   39   18   42 1     
   40   18   43 1     
   41   19   20 1     
   42   19   44 1     
   43   19   45 1     
   44   20   21 1     
   45   21   22 1     
   46   21   25 1     
   47   21   46 1     
   48   22   24 1     
   49   22   23 1     
   50   22   47 1     
   51   23   24 1     
   52   23   48 1     
   53   23   49 1     
   54   24   50 1     
   55   24   51 1     
   56   25   52 1     
   57   25   53 1     
   58    5   55 1     
   59   15   56 1     
   60   15   57 1     
   61   20   58 1     
   62   20   59 1     
@<TRIPOS>SUBSTRUCTURE
      1 S1             1
@<TRIPOS>SET
LONE_PAIRS      STATIC     ATOMS    <user>   **** ""
5 55 56 57 58 59
DONOR_HYDROGENS      STATIC     ATOMS    <user>   **** ""
3 54 39 40
ATOM$BLUE        STATIC     ATOMS    COLORGROUP SYSTEM
5 55 56 57 58 59
ATOM$RED        STATIC     ATOMS    COLORGROUP SYSTEM
3 54 39 40
