AV-unprocessed.smi:2849|AV-procd|sdf|10962|dock1
  -GOLD-   2272015413D 1   1.00000     0.00000
 Structure written by MMmdl.
 56 59  0  0  0  0  0  0  0  0  3 V2000
  143.3736  135.2313  154.5063 C   0  0  0  0  0  0  0  0  0  0  0  0
  144.4272  134.1886  154.5069 N   0  3  2  0  0  0  0  0  0  0  0  0
  145.2926  134.1755  155.7116 C   0  0  1  0  0  0  0  0  0  0  0  0
  146.0256  132.8153  155.7869 C   0  0  0  0  0  0  0  0  0  0  0  0
  146.7866  132.4425  154.4977 C   0  0  0  0  0  0  0  0  0  0  0  0
  145.9866  132.7783  153.2222 C   0  0  0  0  0  0  0  0  0  0  0  0
  145.2593  134.1422  153.2801 C   0  0  2  0  0  0  0  0  0  0  0  0
  146.1866  135.3802  153.1811 C   0  0  0  0  0  0  0  0  0  0  0  0
  147.0198  135.6647  154.4525 C   0  0  1  0  0  0  0  0  0  0  0  0
  147.4815  137.0525  154.4285 N   0  0  0  0  0  0  0  0  0  0  0  0
  148.0706  137.7039  155.4425 C   0  0  0  0  0  0  0  0  0  0  0  0
  148.2978  137.1966  156.5405 O   0  0  0  0  0  0  0  0  0  0  0  0
  148.3519  138.9744  155.1051 N   0  0  0  0  0  0  0  0  0  0  0  0
  149.0282  139.9608  155.8727 C   0  0  0  0  0  0  0  0  0  0  0  0
  149.8395  139.5238  156.9421 C   0  0  0  0  0  0  0  0  0  0  0  0
  150.5095  140.4700  157.7441 C   0  0  0  0  0  0  0  0  0  0  0  0
  150.3477  141.8486  157.4730 C   0  0  0  0  0  0  0  0  0  0  0  0
  150.9693  142.8680  158.2080 N   0  0  0  0  0  0  0  0  0  0  0  0
  151.9841  142.4297  159.1521 C   0  0  0  0  0  0  0  0  0  0  0  0
  152.7875  143.6850  159.4997 C   0  0  0  0  0  0  0  0  0  0  0  0
  152.5538  144.6403  158.3234 C   0  0  0  0  0  0  0  0  0  0  0  0
  151.5937  143.8951  157.3917 C   0  0  0  0  0  0  0  0  0  0  0  0
  149.5568  142.2270  156.4454 N   0  3  0  0  0  0  0  0  0  0  0  0
  148.9002  141.3539  155.6511 C   0  0  0  0  0  0  0  0  0  0  0  0
  146.2200  135.4157  155.7521 C   0  0  0  0  0  0  0  0  0  0  0  0
  143.7880  136.2387  154.4780 H   0  0  0  0  0  0  0  0  0  0  0  0
  142.7540  135.1461  155.3993 H   0  0  0  0  0  0  0  0  0  0  0  0
  142.7213  135.1105  153.6409 H   0  0  0  0  0  0  0  0  0  0  0  0
  144.6448  134.2260  156.5881 H   0  0  0  0  0  0  0  0  0  0  0  0
  146.7037  132.7941  156.6408 H   0  0  0  0  0  0  0  0  0  0  0  0
  145.2830  132.0398  155.9789 H   0  0  0  0  0  0  0  0  0  0  0  0
  147.7582  132.9286  154.4757 H   0  0  0  0  0  0  0  0  0  0  0  0
  147.0183  131.3770  154.5097 H   0  0  0  0  0  0  0  0  0  0  0  0
  146.6372  132.7288  152.3482 H   0  0  0  0  0  0  0  0  0  0  0  0
  145.2366  131.9996  153.0777 H   0  0  0  0  0  0  0  0  0  0  0  0
  144.5880  134.1702  152.4204 H   0  0  0  0  0  0  0  0  0  0  0  0
  146.8496  135.2807  152.3209 H   0  0  0  0  0  0  0  0  0  0  0  0
  145.5652  136.2497  152.9634 H   0  0  0  0  0  0  0  0  0  0  0  0
  147.8848  135.0070  154.4458 H   0  0  0  0  0  0  0  0  0  0  0  0
  147.3337  137.5608  153.5687 H   0  0  0  0  0  0  0  0  0  0  0  0
  148.0174  139.2803  154.2031 H   0  0  0  0  0  0  0  0  0  0  0  0
  149.9553  138.4693  157.1468 H   0  0  0  0  0  0  0  0  0  0  0  0
  151.1397  140.1339  158.5546 H   0  0  0  0  0  0  0  0  0  0  0  0
  151.5288  141.9891  160.0397 H   0  0  0  0  0  0  0  0  0  0  0  0
  152.6376  141.6811  158.7033 H   0  0  0  0  0  0  0  0  0  0  0  0
  152.4106  144.1327  160.4201 H   0  0  0  0  0  0  0  0  0  0  0  0
  153.8437  143.4590  159.6493 H   0  0  0  0  0  0  0  0  0  0  0  0
  152.0993  145.5654  158.6800 H   0  0  0  0  0  0  0  0  0  0  0  0
  153.4809  144.9016  157.8125 H   0  0  0  0  0  0  0  0  0  0  0  0
  152.1450  143.4432  156.5658 H   0  0  0  0  0  0  0  0  0  0  0  0
  150.8455  144.5664  156.9689 H   0  0  0  0  0  0  0  0  0  0  0  0
  148.2911  141.8087  154.8846 H   0  0  0  0  0  0  0  0  0  0  0  0
  145.6022  136.2905  155.9598 H   0  0  0  0  0  0  0  0  0  0  0  0
  146.9046  135.3419  156.5981 H   0  0  0  0  0  0  0  0  0  0  0  0
  143.9218  133.3141  154.5261 H   0  0  0  0  0  0  0  0  0  0  0  0
  149.4450  143.2244  156.2620 H   0  0  0  0  0  0  0  0  0  0  0  0
  1  2  1  0  0  0  0
  1 26  1  0  0  0  0
  1 27  1  0  0  0  0
  1 28  1  0  0  0  0
  2  7  1  0  0  0  0
  2  3  1  0  0  0  0
  2 55  1  0  0  0  0
  3 25  1  0  0  0  0
  3  4  1  0  0  0  0
  3 29  1  0  0  0  0
  4  5  1  0  0  0  0
  4 30  1  0  0  0  0
  4 31  1  0  0  0  0
  5  6  1  0  0  0  0
  5 32  1  0  0  0  0
  5 33  1  0  0  0  0
  6  7  1  0  0  0  0
  6 34  1  0  0  0  0
  6 35  1  0  0  0  0
  7  8  1  0  0  0  0
  7 36  1  0  0  0  0
  8  9  1  0  0  0  0
  8 37  1  0  0  0  0
  8 38  1  0  0  0  0
  9 10  1  0  0  0  0
  9 25  1  0  0  0  0
  9 39  1  0  0  0  0
 10 11  1  0  0  0  0
 10 40  1  0  0  0  0
 11 12  2  0  0  0  0
 11 13  1  0  0  0  0
 13 14  1  0  0  0  0
 13 41  1  0  0  0  0
 14 24  1  0  0  0  0
 14 15  2  0  0  0  0
 15 16  1  0  0  0  0
 15 42  1  0  0  0  0
 16 17  2  0  0  0  0
 16 43  1  0  0  0  0
 17 18  1  0  0  0  0
 17 23  1  0  0  0  0
 18 22  1  0  0  0  0
 18 19  1  0  0  0  0
 19 20  1  0  0  0  0
 19 44  1  0  0  0  0
 19 45  1  0  0  0  0
 20 21  1  0  0  0  0
 20 46  1  0  0  0  0
 20 47  1  0  0  0  0
 21 22  1  0  0  0  0
 21 48  1  0  0  0  0
 21 49  1  0  0  0  0
 22 50  1  0  0  0  0
 22 51  1  0  0  0  0
 23 24  2  0  0  0  0
 23 56  1  0  0  0  0
 24 52  1  0  0  0  0
 25 53  1  0  0  0  0
 25 54  1  0  0  0  0
M  CHG  1   2   1
M  CHG  1  23   1
M  END
> <s_m_source_file>
AV-unprocessed.smi

> <i_m_source_file_index>
2849

> <i_lp_mmshare_version>
43012

> <i_f3d_flags>
0

> <s_epik_input>
W0NIMl0xW0NIMl1bQ0gyXVtDQEhdKE4oW0NIM10pW0NIXTEyKVtDSDJdW0NASF0oW0NIMl0yKVtOSF1DKD1PKVtOSF1jM1tjSF1bY0hdYyhuW2NIXTMpTjRbQ0gyXVtDSDJdW0NIMl1bQ0gyXTQ=

> <s_epik_cmdline>
J2VwaWtfcHl0aG9uJywgJy1waCcsICc3LjAnLCAnLXRuJywgJzgnLCAnLW1hJywgJzIwMCcsICctbWV0YWxfYmluZGluZycsICctaW1hZScsICc8aW5maWxlLm1hZT4nLCAnLW9tYWUnLCAnPG91dGZpbGUubWFlPic=

> <r_lp_tautomer_probability>
0.999994

> <r_epik_Ionization_Penalty>
1.2404

> <r_epik_Ionization_Penalty_Charging>
1.24038

> <r_epik_Ionization_Penalty_Neutral>
1.86921e-05

> <r_epik_State_Penalty>
1.30821

> <r_epik_Charging_Adjusted_Penalty>
2.54859

> <i_epik_Tot_Q>
2

> <i_epik_Tot_abs_Q>
2

> <r_epik_Metal_State_Penalty>
1.37823

> <b_epik_Metal_Only>
0

> <s_lp_Force_Field>
OPLS_2005

> <r_lp_Energy>
73.3774

> <b_lp_Chiralities_Consistent>
1

> <s_lp_Variant>
AV-unprocessed.smi:2849-6

> <Gold.Version>
5.8.1

> <Gold.Id.Protein>
6NUR|6NUR_protein|mol2

> <Gold.PLP.Fitness>
41.4410

> <Gold.PLP.PLP>
-30.3405

> <Gold.PLP.part.hbond>
-2.9624

> <Gold.PLP.part.metal>
0.0000

> <Gold.PLP.part.buried>
-3.8219

> <Gold.PLP.part.nonpolar>
-23.8186

> <Gold.PLP.part.repulsive>
0.1530

> <Gold.PLP.ligand.clash>
0.0000

> <Gold.PLP.ligand.torsion>
0.4618

> <Gold.PLP.Chemscore.Hbond>
4.0000

> <Gold.PLP.Chemscore.CHOScore>
0.0000

> <Gold.PLP.Chemscore.Metal>
0.0000

> <Gold.Chemscore.Hbonds>
donor molecule, donor type, donor heavy atom, donor atom, acceptor molecule, acceptor atom, score
      L1  H     2    55       P1 10957  2.00
      L1  H    23    56       P1  8028  2.00

> <Gold.PLP.Chemscore.Internal.Correction>
0.0242

> <Gold.Rescore>
     Score         DG    S(hbond)    S(metal)    S(lipo)     H(rot)  DE(clash)    DE(int)     intcor
     16.14     -18.97       1.99        0.00      84.49       1.19       0.10       2.73       ----

> <Gold.Chemscore.Fitness>
16.1380

> <Gold.Chemscore.DG>
-18.9707

> <Gold.Chemscore.ZeroCoef>
-5.4800

> <Gold.Chemscore.Hbond>
1.9900

> <Gold.Chemscore.Metal>
0.0000

> <Gold.Chemscore.Lipo>
84.4901

> <Gold.Chemscore.Internal_Hbond>
0.0000

> <Gold.Chemscore.DEClash>
0.1019

> <Gold.Chemscore.DEInternal>
2.7308

> <Gold.Chemscore.Rot>
1.1879

> <Gold.Chemscore.Internal.Correction>
   9.000000E+99

> <Gold.Chemscore.Hbonds>
donor molecule, donor type, donor heavy atom, donor atom, acceptor molecule, acceptor atom, score
      L1  H     2    55       P1 10957  0.95
      L1  H    23    56       P1  8028  1.00

> <Gold.Chemscore.Hbond.Weighted>
-6.6464

> <Gold.Chemscore.Metal.Weighted>
-0.0000

> <Gold.Chemscore.Lipo.Weighted>
-9.8853

> <Gold.Chemscore.Internal_Hbond.Weighted>
0.0000

> <Gold.Chemscore.DEClash.Weighted>
0.1019

> <Gold.Chemscore.DEInternal.Weighted>
2.7308

> <Gold.Chemscore.Rot.Weighted>
3.0410

> <Gold.Chemscore.Internal.Correction.Weighted>
   9.000000E+99

> <Gold.Protein.RotatedTorsions>
[ 6907 6896 6895 6894 ] final   14.20 input  -60.11 | X-H torsion
[ 7974 7965 7964 7962 ] final  154.02 input  175.53 | X-H torsion
[ 8008 7997 7996 7995 ] final   33.38 input   59.86 | X-H torsion
[ 10167 10162 10161 10158 ] final  -23.28 input  -65.29 | X-H torsion
[ 10718 10713 10712 10709 ] final  -55.59 input   66.30 | X-H torsion
[ 10763 10752 10751 10750 ] final  107.10 input  -60.55 | X-H torsion
[ 11005 11000 10999 10996 ] final  139.37 input  -57.11 | X-H torsion

> <Gold.Protein.ActiveResidues>
 VAL166  LYS551  ARG553  GLY616  TRP617  ASP618  TYR619  PRO620  LYS621  CYS622 
 ASP623  PHE694  ASN695  SER759  ASP760  ASP761  ALA762  ILE779  LEU786  VAL792 
 PHE793  MET794  SER795  GLU796  ALA797  LYS798  CYS799  TRP800  GLU811  SER814 

> <Gold.Protein.RotatedAtoms>
  151.7984  135.0716  160.0396 H   0  0  0  0  0  0  0  0  0  0  0  0  # atno 6907 bound_to 6896
  152.3106  133.5745  159.5687 H   0  0  0  0  0  0  0  0  0  0  0  0  # atno 6908 bound_to 6896
  150.7318  134.0073  159.3700 H   0  0  0  0  0  0  0  0  0  0  0  0  # atno 6909 bound_to 6896
  144.8116  139.6878  143.6139 H   0  0  0  0  0  0  0  0  0  0  0  0  # atno 7974 bound_to 7965
  155.1378  140.3263  155.4459 H   0  0  0  0  0  0  0  0  0  0  0  0  # atno 8008 bound_to 7997
  156.2614  140.1999  156.6444 H   0  0  0  0  0  0  0  0  0  0  0  0  # atno 8009 bound_to 7997
  154.6565  140.0552  157.0001 H   0  0  0  0  0  0  0  0  0  0  0  0  # atno 8010 bound_to 7997
  140.7288  143.4457  151.0590 H   0  0  0  0  0  0  0  0  0  0  0  0  # atno 10167 bound_to 10162
  156.1356  130.4157  150.0191 H   0  0  0  0  0  0  0  0  0  0  0  0  # atno 10718 bound_to 10713
  153.4021  135.3855  155.1994 H   0  0  0  0  0  0  0  0  0  0  0  0  # atno 10763 bound_to 10752
  154.8730  135.3774  154.4605 H   0  0  0  0  0  0  0  0  0  0  0  0  # atno 10764 bound_to 10752
  153.5104  135.7087  153.5846 H   0  0  0  0  0  0  0  0  0  0  0  0  # atno 10765 bound_to 10752
  140.0250  134.9379  157.0550 H   0  0  0  0  0  0  0  0  0  0  0  0  # atno 11005 bound_to 11000
  146.2415  139.6011  142.9488 LP  0  0  0  0  0  0  0  0  0  0  0  0  # atno 17320 bound_to 7965
  145.5311  141.0427  143.2382 LP  0  0  0  0  0  0  0  0  0  0  0  0  # atno 17321 bound_to 7965
  139.8129  143.7926  152.3172 LP  0  0  0  0  0  0  0  0  0  0  0  0  # atno 17342 bound_to 10162
  139.7982  144.7384  150.9861 LP  0  0  0  0  0  0  0  0  0  0  0  0  # atno 17343 bound_to 10162
  156.8091  130.9318  151.3644 LP  0  0  0  0  0  0  0  0  0  0  0  0  # atno 17370 bound_to 10713
  157.6529  130.8900  149.9670 LP  0  0  0  0  0  0  0  0  0  0  0  0  # atno 17371 bound_to 10713
  140.4322  134.1768  155.7169 LP  0  0  0  0  0  0  0  0  0  0  0  0  # atno 17394 bound_to 11000
  141.1797  133.8440  157.1300 LP  0  0  0  0  0  0  0  0  0  0  0  0  # atno 17395 bound_to 11000

$$$$
