#       Name:                AV-unprocessed.smi:72
#       Creating user name   scv26
#       Creation time:       Thu Mar 26 16:59:48 2020


#       File generated by GOLD software.
#

@<TRIPOS>MOLECULE
AV-unprocessed.smi:72
    41    42     1
SMALL
NO_CHARGES


@<TRIPOS>ATOM
      1 ****        -3.9044   2.5579  -2.0210 N.2            1 S1                 0.0000
      2 ****        -2.8664   2.1022  -1.4169 C.2            1 S1                 0.0000
      3 ****        -1.6016   1.9249  -1.9964 N.2            1 S1                 0.0000
      4 ****        -0.6469   1.4325  -1.2685 C.2            1 S1                 0.0000
      5 ****        -0.8513   1.0350   0.1195 N.am           1 S1                 0.0000
      6 ****         0.2641   0.4735   0.9878 C.3            1 S1                 0.0000
      7 ****         1.4623   0.4251   0.2719 O.3            1 S1                 0.0000
      8 ****         1.6229  -0.8655  -0.3035 C.3            1 S1                 0.0000
      9 ****         3.0973  -1.0979  -0.6649 C.3            1 S1                 0.0000
     10 ****         3.3842  -0.5117  -1.9165 O.3            1 S1                 0.0000
     11 ****         1.1113  -1.7762   0.8136 C.3            1 S1                 0.0000
     12 ****         0.6422  -2.9968   0.2767 O.3            1 S1                 0.0000
     13 ****        -0.0395  -0.9782   1.4236 C.3            1 S1                 0.0000
     14 ****        -0.0345  -1.1103   2.8301 O.3            1 S1                 0.0000
     15 ****        -2.1093   1.2653   0.7314 C.2            1 S1                 0.0000
     16 ****        -2.3204   1.0134   1.9178 O.2            1 S1                 0.0000
     17 ****        -3.0677   1.7763  -0.0705 N.am           1 S1                 0.0000
     18 ****         0.3559   1.1838   1.8116 H              1 S1                 0.0000
     19 ****         0.9835  -0.9652  -1.1829 H              1 S1                 0.0000
     20 ****         1.9001  -1.9555   1.5464 H              1 S1                 0.0000
     21 ****        -1.0016  -1.3003   1.0215 H              1 S1                 0.0000
     22 ****        -4.6881   2.5927  -1.3846 H              1 S1                 0.0000
     23 ****         0.3617   1.2924  -1.6572 H              1 S1                 0.0000
     24 ****         3.7629  -0.7022   0.1028 H              1 S1                 0.0000
     25 ****         3.2986  -2.1661  -0.7504 H              1 S1                 0.0000
     26 ****         4.2926  -0.6719  -2.1219 H              1 S1                 0.0000
     27 ****         0.2944  -3.5186   0.9840 H              1 S1                 0.0000
     28 ****        -0.7302  -0.5749   3.1812 H              1 S1                 0.0000
     29 ****        -3.9795   1.9374   0.3320 H              1 S1                 0.0000
     30 ****        -3.9326   2.8373  -2.9807 LP             1 S1                 0.0000
     31 ****        -1.4388   2.1730  -2.9513 LP             1 S1                 0.0000
     32 ****         2.2265   0.6116   0.8893 LP             1 S1                 0.0000
     33 ****         1.4444   1.1130  -0.4536 LP             1 S1                 0.0000
     34 ****         3.2167   0.4733  -1.8739 LP             1 S1                 0.0000
     35 ****         2.8024  -0.9186  -2.6207 LP             1 S1                 0.0000
     36 ****         1.3961  -3.4842  -0.1638 LP             1 S1                 0.0000
     37 ****        -0.0761  -2.8166  -0.3952 LP             1 S1                 0.0000
     38 ****         0.8447  -0.8044   3.1953 LP             1 S1                 0.0000
     39 ****        -0.1848  -2.0667   3.0804 LP             1 S1                 0.0000
     40 ****        -1.5907   0.6324   2.4856 LP             1 S1                 0.0000
     41 ****        -3.2216   1.1898   2.3138 LP             1 S1                 0.0000
@<TRIPOS>BOND
    1    1    2 2     
    2    1   22 1     
    3    2   17 1     
    4    2    3 1     
    5    3    4 2     
    6    4    5 1     
    7    4   23 1     
    8    5    6 1     
    9    5   15 am    
   10    6   18 1     
   11    6   13 1     
   12    6    7 1     
   13    7    8 1     
   14    8   19 1     
   15    8    9 1     
   16    8   11 1     
   17    9   10 1     
   18    9   24 1     
   19    9   25 1     
   20   10   26 1     
   21   11   20 1     
   22   11   12 1     
   23   11   13 1     
   24   12   27 1     
   25   13   21 1     
   26   13   14 1     
   27   14   28 1     
   28   15   16 2     
   29   15   17 am    
   30   17   29 1     
   31    1   30 1     
   32    3   31 1     
   33    7   32 1     
   34    7   33 1     
   35   10   34 1     
   36   10   35 1     
   37   12   36 1     
   38   12   37 1     
   39   14   38 1     
   40   14   39 1     
   41   16   40 1     
   42   16   41 1     
@<TRIPOS>SUBSTRUCTURE
      1 S1             1
@<TRIPOS>SET
LONE_PAIRS      STATIC     ATOMS    <user>   **** ""
12 30 31 32 33 34 35 36 37 38 39 40 41
DONOR_HYDROGENS      STATIC     ATOMS    <user>   **** ""
5 22 26 27 28 29
ATOM$BLUE        STATIC     ATOMS    COLORGROUP SYSTEM
12 30 31 32 33 34 35 36 37 38 39 40 41
ATOM$RED        STATIC     ATOMS    COLORGROUP SYSTEM
5 22 26 27 28 29
