AV-unprocessed.smi:311|AV-procd|sdf|2297|dock7
  -GOLD-   2262022193D 1   1.00000     0.00000
 Structure written by MMmdl.
 44 46  0  0  0  0  0  0  0  0  2 V2000
  145.9143  143.8242  153.5029 C   0  0  0  0  0  0  0  0  0  0  0  0
  146.0189  142.5967  154.3621 C   0  0  0  0  0  0  0  0  0  0  0  0
  145.0138  142.2634  155.1542 N   0  0  0  0  0  0  0  0  0  0  0  0
  145.4180  141.1014  155.8184 O   0  0  0  0  0  0  0  0  0  0  0  0
  146.6657  140.7764  155.3945 C   0  0  0  0  0  0  0  0  0  0  0  0
  147.2826  139.5622  156.0022 C   0  0  0  0  0  0  0  0  0  0  0  0
  147.1066  141.6834  154.4698 C   0  0  0  0  0  0  0  0  0  0  0  0
  148.4264  141.7282  153.7443 C   0  0  0  0  0  0  0  0  0  0  0  0
  149.5268  141.2383  154.6832 C   0  0  0  0  0  0  0  0  0  0  0  0
  150.0898  140.1658  154.4652 O   0  0  0  0  0  0  0  0  0  0  0  0
  149.8452  142.0498  155.7032 N   0  0  0  0  0  0  0  0  0  0  0  0
  150.9402  141.8303  156.6418 C   0  0  2  0  0  0  0  0  0  0  0  0
  150.8050  140.5374  157.4374 C   0  0  0  0  0  0  0  0  0  0  0  0
  151.7219  140.8010  158.6331 C   0  0  0  0  0  0  0  0  0  0  0  0
  151.5992  142.2473  158.9240 N   0  3  1  0  0  0  0  0  0  0  0  0
  152.8306  142.8830  159.4529 C   0  0  0  0  0  0  0  0  0  0  0  0
  152.5908  144.3802  159.7193 C   0  0  0  0  0  0  0  0  0  0  0  0
  152.0069  145.1232  158.4992 C   0  0  0  0  0  0  0  0  0  0  0  0
  151.7477  144.1883  157.3068 C   0  0  0  0  0  0  0  0  0  0  0  0
  150.9909  142.9110  157.7363 C   0  0  1  0  0  0  0  0  0  0  0  0
  146.6319  144.5812  153.8197 H   0  0  0  0  0  0  0  0  0  0  0  0
  144.9196  144.2693  153.5507 H   0  0  0  0  0  0  0  0  0  0  0  0
  146.1200  143.5884  152.4589 H   0  0  0  0  0  0  0  0  0  0  0  0
  147.9131  139.0434  155.2803 H   0  0  0  0  0  0  0  0  0  0  0  0
  146.5179  138.8638  156.3437 H   0  0  0  0  0  0  0  0  0  0  0  0
  147.9004  139.8329  156.8585 H   0  0  0  0  0  0  0  0  0  0  0  0
  148.4079  141.1140  152.8430 H   0  0  0  0  0  0  0  0  0  0  0  0
  148.6689  142.7394  153.4158 H   0  0  0  0  0  0  0  0  0  0  0  0
  149.3195  142.9060  155.8057 H   0  0  0  0  0  0  0  0  0  0  0  0
  151.8947  141.7945  156.1118 H   0  0  0  0  0  0  0  0  0  0  0  0
  149.7769  140.4011  157.7772 H   0  0  0  0  0  0  0  0  0  0  0  0
  151.0956  139.6540  156.8680 H   0  0  0  0  0  0  0  0  0  0  0  0
  151.4636  140.1950  159.5018 H   0  0  0  0  0  0  0  0  0  0  0  0
  152.7505  140.5648  158.3554 H   0  0  0  0  0  0  0  0  0  0  0  0
  153.1292  142.3823  160.3744 H   0  0  0  0  0  0  0  0  0  0  0  0
  153.6501  142.7527  158.7441 H   0  0  0  0  0  0  0  0  0  0  0  0
  151.9061  144.4876  160.5617 H   0  0  0  0  0  0  0  0  0  0  0  0
  153.5237  144.8513  160.0306 H   0  0  0  0  0  0  0  0  0  0  0  0
  151.0721  145.6051  158.7878 H   0  0  0  0  0  0  0  0  0  0  0  0
  152.6776  145.9269  158.1933 H   0  0  0  0  0  0  0  0  0  0  0  0
  151.1853  144.7188  156.5378 H   0  0  0  0  0  0  0  0  0  0  0  0
  152.7011  143.9196  156.8492 H   0  0  0  0  0  0  0  0  0  0  0  0
  149.9752  143.1813  158.0306 H   0  0  0  0  0  0  0  0  0  0  0  0
  150.9070  142.3308  159.6548 H   0  0  0  0  0  0  0  0  0  0  0  0
  1  2  1  0  0  0  0
  1 21  1  0  0  0  0
  1 22  1  0  0  0  0
  1 23  1  0  0  0  0
  2  7  1  0  0  0  0
  2  3  2  0  0  0  0
  3  4  1  0  0  0  0
  4  5  1  0  0  0  0
  5  6  1  0  0  0  0
  5  7  2  0  0  0  0
  6 24  1  0  0  0  0
  6 25  1  0  0  0  0
  6 26  1  0  0  0  0
  7  8  1  0  0  0  0
  8  9  1  0  0  0  0
  8 27  1  0  0  0  0
  8 28  1  0  0  0  0
  9 10  2  0  0  0  0
  9 11  1  0  0  0  0
 11 12  1  0  0  0  0
 11 29  1  0  0  0  0
 12 20  1  0  0  0  0
 12 13  1  0  0  0  0
 12 30  1  0  0  0  0
 13 14  1  0  0  0  0
 13 31  1  0  0  0  0
 13 32  1  0  0  0  0
 14 15  1  0  0  0  0
 14 33  1  0  0  0  0
 14 34  1  0  0  0  0
 15 20  1  0  0  0  0
 15 16  1  0  0  0  0
 15 44  1  0  0  0  0
 16 17  1  0  0  0  0
 16 35  1  0  0  0  0
 16 36  1  0  0  0  0
 17 18  1  0  0  0  0
 17 37  1  0  0  0  0
 17 38  1  0  0  0  0
 18 19  1  0  0  0  0
 18 39  1  0  0  0  0
 18 40  1  0  0  0  0
 19 20  1  0  0  0  0
 19 41  1  0  0  0  0
 19 42  1  0  0  0  0
 20 43  1  0  0  0  0
M  CHG  1  15   1
M  END
> <s_m_source_file>
AV-unprocessed.smi

> <i_m_source_file_index>
311

> <i_lp_mmshare_version>
43012

> <i_f3d_flags>
0

> <s_epik_input>
W0NIM11jMW5vYyhbQ0gzXSljMVtDSDJdQyg9TylbTkhdW0NASF0oW0NIMl1bQ0gyXTIpW0NAQEhdKE4yMylbQ0gyXVtDSDJdW0NIMl1bQ0gyXTM=

> <s_epik_cmdline>
J2VwaWtfcHl0aG9uJywgJy1waCcsICc3LjAnLCAnLXRuJywgJzgnLCAnLW1hJywgJzIwMCcsICctbWV0YWxfYmluZGluZycsICctaW1hZScsICc8aW5maWxlLm1hZT4nLCAnLW9tYWUnLCAnPG91dGZpbGUubWFlPic=

> <r_epik_Ionization_Penalty>
0.00173669

> <r_epik_Ionization_Penalty_Charging>
0.0017366

> <r_epik_Ionization_Penalty_Neutral>
9.2145e-08

> <r_epik_State_Penalty>
0.00117499

> <r_epik_Charging_Adjusted_Penalty>
0.00291159

> <i_epik_Tot_Q>
1

> <i_epik_Tot_abs_Q>
1

> <r_epik_Metal_State_Penalty>
-0

> <b_epik_Metal_Only>
0

> <s_lp_Force_Field>
OPLS_2005

> <r_lp_Energy>
32.9133

> <b_lp_Chiralities_Consistent>
1

> <s_lp_Variant>
AV-unprocessed.smi:311-1

> <Gold.Version>
5.8.1

> <Gold.Id.Protein>
6NUR|6NUR_protein|mol2

> <Gold.PLP.Fitness>
47.6646

> <Gold.PLP.PLP>
-42.5172

> <Gold.PLP.part.hbond>
-2.0000

> <Gold.PLP.part.metal>
0.0000

> <Gold.PLP.part.buried>
-3.6185

> <Gold.PLP.part.nonpolar>
-35.9028

> <Gold.PLP.part.repulsive>
0.5489

> <Gold.PLP.ligand.clash>
0.0000

> <Gold.PLP.ligand.torsion>
0.4323

> <Gold.PLP.Chemscore.Hbond>
2.0000

> <Gold.PLP.Chemscore.CHOScore>
0.0000

> <Gold.PLP.Chemscore.Metal>
0.0000

> <Gold.Chemscore.Hbonds>
donor molecule, donor type, donor heavy atom, donor atom, acceptor molecule, acceptor atom, score
      L1  H    11    29       P1  8028  1.00
      P1  H  7989  7998       L1    10  0.85

> <Gold.PLP.Chemscore.Internal.Correction>
0.0121

> <Gold.Rescore>
     Score         DG    S(hbond)    S(metal)    S(lipo)     H(rot)  DE(clash)    DE(int)     intcor
     18.23     -18.89       1.33        0.00     106.35       1.36       0.34       0.31       ----

> <Gold.Chemscore.Fitness>
18.2345

> <Gold.Chemscore.DG>
-18.8894

> <Gold.Chemscore.ZeroCoef>
-5.4800

> <Gold.Chemscore.Hbond>
1.3292

> <Gold.Chemscore.Metal>
0.0000

> <Gold.Chemscore.Lipo>
106.3504

> <Gold.Chemscore.Internal_Hbond>
0.0000

> <Gold.Chemscore.DEClash>
0.3416

> <Gold.Chemscore.DEInternal>
0.3133

> <Gold.Chemscore.Rot>
1.3567

> <Gold.Chemscore.Internal.Correction>
   9.000000E+99

> <Gold.Chemscore.Hbonds>
donor molecule, donor type, donor heavy atom, donor atom, acceptor molecule, acceptor atom, score
      L1  H    11    29       P1  8028  0.99
      P1  H  7989  7998       L1    10  0.14

> <Gold.Chemscore.Hbond.Weighted>
-4.4395

> <Gold.Chemscore.Metal.Weighted>
-0.0000

> <Gold.Chemscore.Lipo.Weighted>
-12.4430

> <Gold.Chemscore.Internal_Hbond.Weighted>
0.0000

> <Gold.Chemscore.DEClash.Weighted>
0.3416

> <Gold.Chemscore.DEInternal.Weighted>
0.3133

> <Gold.Chemscore.Rot.Weighted>
3.4731

> <Gold.Chemscore.Internal.Correction.Weighted>
   9.000000E+99

> <Gold.Protein.RotatedTorsions>
[ 6907 6896 6895 6894 ] final   32.95 input  -60.11 | X-H torsion
[ 7974 7965 7964 7962 ] final  -38.94 input  175.53 | X-H torsion
[ 8008 7997 7996 7995 ] final -151.39 input   59.86 | X-H torsion
[ 10167 10162 10161 10158 ] final   14.22 input  -65.29 | X-H torsion
[ 10718 10713 10712 10709 ] final  128.93 input   66.30 | X-H torsion
[ 10763 10752 10751 10750 ] final  -47.76 input  -60.55 | X-H torsion
[ 11005 11000 10999 10996 ] final  -95.03 input  -57.11 | X-H torsion

> <Gold.Protein.ActiveResidues>
 VAL166  LYS551  ARG553  GLY616  TRP617  ASP618  TYR619  PRO620  LYS621  CYS622 
 ASP623  PHE694  ASN695  SER759  ASP760  ASP761  ALA762  ILE779  LEU786  VAL792 
 PHE793  MET794  SER795  GLU796  ALA797  LYS798  CYS799  TRP800  GLU811  SER814 

> <Gold.Protein.RotatedAtoms>
  152.0817  134.9466  160.0573 H   0  0  0  0  0  0  0  0  0  0  0  0  # atno 6907 bound_to 6896
  152.0752  133.4121  159.4485 H   0  0  0  0  0  0  0  0  0  0  0  0  # atno 6908 bound_to 6896
  150.6836  134.2965  159.4732 H   0  0  0  0  0  0  0  0  0  0  0  0  # atno 6909 bound_to 6896
  146.0442  140.6569  142.9073 H   0  0  0  0  0  0  0  0  0  0  0  0  # atno 7974 bound_to 7965
  155.6387  140.0699  157.2625 H   0  0  0  0  0  0  0  0  0  0  0  0  # atno 8008 bound_to 7997
  154.4189  140.1754  156.1599 H   0  0  0  0  0  0  0  0  0  0  0  0  # atno 8009 bound_to 7997
  155.9873  140.3348  155.6723 H   0  0  0  0  0  0  0  0  0  0  0  0  # atno 8010 bound_to 7997
  140.5950  143.8719  150.6910 H   0  0  0  0  0  0  0  0  0  0  0  0  # atno 10167 bound_to 10162
  157.5200  131.1098  150.9168 H   0  0  0  0  0  0  0  0  0  0  0  0  # atno 10718 bound_to 10713
  154.0667  135.6610  153.4819 H   0  0  0  0  0  0  0  0  0  0  0  0  # atno 10763 bound_to 10752
  153.0406  135.5147  154.7606 H   0  0  0  0  0  0  0  0  0  0  0  0  # atno 10764 bound_to 10752
  154.6660  135.3022  154.9772 H   0  0  0  0  0  0  0  0  0  0  0  0  # atno 10765 bound_to 10752
  141.1454  133.7997  157.0379 H   0  0  0  0  0  0  0  0  0  0  0  0  # atno 11005 bound_to 11000
  144.7089  140.3963  143.7096 LP  0  0  0  0  0  0  0  0  0  0  0  0  # atno 17320 bound_to 7965
  145.6834  139.1623  143.2688 LP  0  0  0  0  0  0  0  0  0  0  0  0  # atno 17321 bound_to 7965
  140.2251  143.3779  152.1611 LP  0  0  0  0  0  0  0  0  0  0  0  0  # atno 17342 bound_to 10162
  139.5252  144.7093  151.5255 LP  0  0  0  0  0  0  0  0  0  0  0  0  # atno 17343 bound_to 10162
  156.9781  130.5516  149.5294 LP  0  0  0  0  0  0  0  0  0  0  0  0  # atno 17370 bound_to 10713
  156.0347  130.5435  150.8622 LP  0  0  0  0  0  0  0  0  0  0  0  0  # atno 17371 bound_to 10713
  140.0712  134.9701  157.1470 LP  0  0  0  0  0  0  0  0  0  0  0  0  # atno 17394 bound_to 11000
  140.3708  134.2392  155.7178 LP  0  0  0  0  0  0  0  0  0  0  0  0  # atno 17395 bound_to 11000

$$$$
