AV-unprocessed.smi:967|AV-procd|sdf|4287|dock6
  -GOLD-   22720 2193D 1   1.00000     0.00000
 Structure written by MMmdl.
 42 43  0  0  0  0  0  0  0  0  1 V2000
  153.7378  140.9551  162.0924 C   0  0  0  0  0  0  0  0  0  0  0  0
  153.5081  142.3522  161.7576 N   0  0  0  0  0  0  0  0  0  0  0  0
  152.9836  143.1928  162.8226 C   0  0  0  0  0  0  0  0  0  0  0  0
  152.8264  142.5226  160.5458 C   0  0  0  0  0  0  0  0  0  0  0  0
  152.8123  143.7686  159.8786 C   0  0  0  0  0  0  0  0  0  0  0  0
  152.1113  143.8789  158.6623 C   0  0  0  0  0  0  0  0  0  0  0  0
  151.4522  142.7372  158.1477 C   0  0  0  0  0  0  0  0  0  0  0  0
  150.6941  142.7251  156.9461 N   0  0  0  0  0  0  0  0  0  0  0  0
  150.0372  141.6975  156.3816 C   0  0  0  0  0  0  0  0  0  0  0  0
  149.9575  140.5620  156.8494 O   0  0  0  0  0  0  0  0  0  0  0  0
  149.4505  142.0752  155.2366 N   0  0  0  0  0  0  0  0  0  0  0  0
  148.6344  141.2300  154.3692 C   0  0  2  0  0  0  0  0  0  0  0  0
  147.1901  141.1804  154.9043 C   0  0  0  0  0  0  0  0  0  0  0  0
  146.3156  140.2214  154.0806 C   0  0  0  0  0  0  0  0  0  0  0  0
  146.9337  138.8138  154.0314 C   0  0  1  0  0  0  0  0  0  0  0  0
  146.1394  137.9770  153.2174 O   0  0  0  0  0  0  0  0  0  0  0  0
  148.3681  138.8599  153.4779 C   0  0  0  0  0  0  0  0  0  0  0  0
  149.2472  139.8178  154.2979 C   0  0  0  0  0  0  0  0  0  0  0  0
  151.5181  141.5464  158.9000 C   0  0  0  0  0  0  0  0  0  0  0  0
  152.1899  141.4330  160.0650 N   0  0  0  0  0  0  0  0  0  0  0  0
  154.1444  140.4136  161.2374 H   0  0  0  0  0  0  0  0  0  0  0  0
  152.8123  140.4681  162.4016 H   0  0  0  0  0  0  0  0  0  0  0  0
  154.4539  140.8776  162.9107 H   0  0  0  0  0  0  0  0  0  0  0  0
  152.8447  144.2178  162.4766 H   0  0  0  0  0  0  0  0  0  0  0  0
  153.6786  143.2129  163.6622 H   0  0  0  0  0  0  0  0  0  0  0  0
  152.0249  142.8168  163.1813 H   0  0  0  0  0  0  0  0  0  0  0  0
  153.3239  144.6267  160.2896 H   0  0  0  0  0  0  0  0  0  0  0  0
  152.0815  144.8339  158.1613 H   0  0  0  0  0  0  0  0  0  0  0  0
  150.5951  143.6197  156.4890 H   0  0  0  0  0  0  0  0  0  0  0  0
  149.5711  143.0332  154.9423 H   0  0  0  0  0  0  0  0  0  0  0  0
  148.6041  141.6393  153.3577 H   0  0  0  0  0  0  0  0  0  0  0  0
  147.1919  140.8586  155.9470 H   0  0  0  0  0  0  0  0  0  0  0  0
  146.7519  142.1793  154.8906 H   0  0  0  0  0  0  0  0  0  0  0  0
  145.3135  140.1768  154.5086 H   0  0  0  0  0  0  0  0  0  0  0  0
  146.2037  140.6139  153.0687 H   0  0  0  0  0  0  0  0  0  0  0  0
  146.9474  138.3895  155.0363 H   0  0  0  0  0  0  0  0  0  0  0  0
  146.6688  137.2501  152.9268 H   0  0  0  0  0  0  0  0  0  0  0  0
  148.8058  137.8609  153.4860 H   0  0  0  0  0  0  0  0  0  0  0  0
  148.3546  139.1848  152.4364 H   0  0  0  0  0  0  0  0  0  0  0  0
  150.2449  139.8656  153.8600 H   0  0  0  0  0  0  0  0  0  0  0  0
  149.3707  139.4173  155.3051 H   0  0  0  0  0  0  0  0  0  0  0  0
  151.0199  140.6522  158.5551 H   0  0  0  0  0  0  0  0  0  0  0  0
  1  2  1  0  0  0  0
  1 21  1  0  0  0  0
  1 22  1  0  0  0  0
  1 23  1  0  0  0  0
  2  3  1  0  0  0  0
  2  4  1  0  0  0  0
  3 24  1  0  0  0  0
  3 25  1  0  0  0  0
  3 26  1  0  0  0  0
  4 20  1  0  0  0  0
  4  5  2  0  0  0  0
  5  6  1  0  0  0  0
  5 27  1  0  0  0  0
  6  7  2  0  0  0  0
  6 28  1  0  0  0  0
  7  8  1  0  0  0  0
  7 19  1  0  0  0  0
  8  9  1  0  0  0  0
  8 29  1  0  0  0  0
  9 10  2  0  0  0  0
  9 11  1  0  0  0  0
 11 12  1  0  0  0  0
 11 30  1  0  0  0  0
 12 18  1  0  0  0  0
 12 13  1  0  0  0  0
 12 31  1  0  0  0  0
 13 14  1  0  0  0  0
 13 32  1  0  0  0  0
 13 33  1  0  0  0  0
 14 15  1  0  0  0  0
 14 34  1  0  0  0  0
 14 35  1  0  0  0  0
 15 16  1  0  0  0  0
 15 17  1  0  0  0  0
 15 36  1  0  0  0  0
 16 37  1  0  0  0  0
 17 18  1  0  0  0  0
 17 38  1  0  0  0  0
 17 39  1  0  0  0  0
 18 40  1  0  0  0  0
 18 41  1  0  0  0  0
 19 20  2  0  0  0  0
 19 42  1  0  0  0  0
M  END
> <s_m_source_file>
AV-unprocessed.smi

> <i_m_source_file_index>
967

> <i_lp_mmshare_version>
43012

> <i_f3d_flags>
0

> <s_epik_input>
W0NIM11OKFtDSDNdKWMxW2NIXVtjSF1jKFtjSF1uMSlbTkhdQyg9TylbTkhdW0NAQEhdMltDSDJdW0NIMl1bQ0BASF0oW09IXSlbQ0gyXVtDSDJdMg==

> <s_epik_cmdline>
J2VwaWtfcHl0aG9uJywgJy1waCcsICc3LjAnLCAnLXRuJywgJzgnLCAnLW1hJywgJzIwMCcsICctbWV0YWxfYmluZGluZycsICctaW1hZScsICc8aW5maWxlLm1hZT4nLCAnLW9tYWUnLCAnPG91dGZpbGUubWFlPic=

> <r_lp_tautomer_probability>
1

> <r_epik_Ionization_Penalty>
0.629464

> <r_epik_Ionization_Penalty_Charging>
0

> <r_epik_Ionization_Penalty_Neutral>
0.629464

> <r_epik_State_Penalty>
0.645019

> <r_epik_Charging_Adjusted_Penalty>
0.645019

> <i_epik_Tot_Q>
0

> <i_epik_Tot_abs_Q>
0

> <r_epik_Metal_State_Penalty>
0.308581

> <b_epik_Metal_Only>
0

> <s_lp_Force_Field>
OPLS_2005

> <r_lp_Energy>
16.3049

> <b_lp_Chiralities_Consistent>
1

> <s_lp_Variant>
AV-unprocessed.smi:967-3

> <Gold.Version>
5.8.1

> <Gold.Id.Protein>
6NUR|6NUR_protein|mol2

> <Gold.PLP.Fitness>
43.2373

> <Gold.PLP.PLP>
-35.3395

> <Gold.PLP.part.hbond>
-3.3589

> <Gold.PLP.part.metal>
0.0000

> <Gold.PLP.part.buried>
3.4865

> <Gold.PLP.part.nonpolar>
-35.1100

> <Gold.PLP.part.repulsive>
0.2465

> <Gold.PLP.ligand.clash>
0.0000

> <Gold.PLP.ligand.torsion>
0.5373

> <Gold.PLP.Chemscore.Hbond>
2.9199

> <Gold.PLP.Chemscore.CHOScore>
0.0000

> <Gold.PLP.Chemscore.Metal>
0.0000

> <Gold.Chemscore.Hbonds>
donor molecule, donor type, donor heavy atom, donor atom, acceptor molecule, acceptor atom, score
      L1  H     8    29       P1  8028  0.42
      L1  H    11    30       P1  8028  0.66

> <Gold.PLP.Chemscore.Internal.Correction>
0.2127

> <Gold.Rescore>
     Score         DG    S(hbond)    S(metal)    S(lipo)     H(rot)  DE(clash)    DE(int)     intcor
     16.55     -22.37       2.89        0.00      99.16       1.71       2.57       3.25       ----

> <Gold.Chemscore.Fitness>
16.5505

> <Gold.Chemscore.DG>
-22.3682

> <Gold.Chemscore.ZeroCoef>
-5.4800

> <Gold.Chemscore.Hbond>
2.8921

> <Gold.Chemscore.Metal>
0.0000

> <Gold.Chemscore.Lipo>
99.1636

> <Gold.Chemscore.Internal_Hbond>
0.0000

> <Gold.Chemscore.DEClash>
2.5725

> <Gold.Chemscore.DEInternal>
3.2451

> <Gold.Chemscore.Rot>
1.7084

> <Gold.Chemscore.Internal.Correction>
   9.000000E+99

> <Gold.Chemscore.Hbonds>
donor molecule, donor type, donor heavy atom, donor atom, acceptor molecule, acceptor atom, score
      L1  H     8    29       P1  8028  0.44
      L1  H    11    30       P1  8028  0.65

> <Gold.Chemscore.Hbond.Weighted>
-9.6596

> <Gold.Chemscore.Metal.Weighted>
-0.0000

> <Gold.Chemscore.Lipo.Weighted>
-11.6021

> <Gold.Chemscore.Internal_Hbond.Weighted>
0.0000

> <Gold.Chemscore.DEClash.Weighted>
2.5725

> <Gold.Chemscore.DEInternal.Weighted>
3.2451

> <Gold.Chemscore.Rot.Weighted>
4.3735

> <Gold.Chemscore.Internal.Correction.Weighted>
   9.000000E+99

> <Gold.Protein.RotatedTorsions>
[ 6907 6896 6895 6894 ] final  115.93 input  -60.11 | X-H torsion
[ 7974 7965 7964 7962 ] final -125.53 input  175.53 | X-H torsion
[ 8008 7997 7996 7995 ] final  171.01 input   59.86 | X-H torsion
[ 10167 10162 10161 10158 ] final   88.69 input  -65.29 | X-H torsion
[ 10718 10713 10712 10709 ] final  169.99 input   66.30 | X-H torsion
[ 10763 10752 10751 10750 ] final  -62.28 input  -60.55 | X-H torsion
[ 11005 11000 10999 10996 ] final   -7.72 input  -57.11 | X-H torsion

> <Gold.Protein.ActiveResidues>
 VAL166  LYS551  ARG553  GLY616  TRP617  ASP618  TYR619  PRO620  LYS621  CYS622 
 ASP623  PHE694  ASN695  SER759  ASP760  ASP761  ALA762  ILE779  LEU786  VAL792 
 PHE793  MET794  SER795  GLU796  ALA797  LYS798  CYS799  TRP800  GLU811  SER814 

> <Gold.Protein.RotatedAtoms>
  152.4710  133.8030  159.6962 H   0  0  0  0  0  0  0  0  0  0  0  0  # atno 6907 bound_to 6896
  150.8700  133.7510  159.2971 H   0  0  0  0  0  0  0  0  0  0  0  0  # atno 6908 bound_to 6896
  151.5048  135.1066  159.9890 H   0  0  0  0  0  0  0  0  0  0  0  0  # atno 6909 bound_to 6896
  144.9966  140.7782  143.4521 H   0  0  0  0  0  0  0  0  0  0  0  0  # atno 7974 bound_to 7965
  156.1312  140.1523  156.9063 H   0  0  0  0  0  0  0  0  0  0  0  0  # atno 8008 bound_to 7997
  154.4910  140.0851  156.7635 H   0  0  0  0  0  0  0  0  0  0  0  0  # atno 8009 bound_to 7997
  155.4252  140.3425  155.4277 H   0  0  0  0  0  0  0  0  0  0  0  0  # atno 8010 bound_to 7997
  139.8647  144.6525  150.9018 H   0  0  0  0  0  0  0  0  0  0  0  0  # atno 10167 bound_to 10162
  157.0146  131.0214  151.2793 H   0  0  0  0  0  0  0  0  0  0  0  0  # atno 10718 bound_to 10713
  154.2975  135.6241  153.5411 H   0  0  0  0  0  0  0  0  0  0  0  0  # atno 10763 bound_to 10752
  152.9844  135.5670  154.5321 H   0  0  0  0  0  0  0  0  0  0  0  0  # atno 10764 bound_to 10752
  154.4944  135.2869  155.1447 H   0  0  0  0  0  0  0  0  0  0  0  0  # atno 10765 bound_to 10752
  140.7158  133.8870  155.8784 H   0  0  0  0  0  0  0  0  0  0  0  0  # atno 11005 bound_to 11000
  145.2211  139.2159  143.5092 LP  0  0  0  0  0  0  0  0  0  0  0  0  # atno 17320 bound_to 7965
  146.3443  140.2069  142.8589 LP  0  0  0  0  0  0  0  0  0  0  0  0  # atno 17321 bound_to 7965
  140.7770  143.3714  151.1642 LP  0  0  0  0  0  0  0  0  0  0  0  0  # atno 17342 bound_to 10162
  139.7340  143.9028  152.3029 LP  0  0  0  0  0  0  0  0  0  0  0  0  # atno 17343 bound_to 10162
  157.5295  130.8049  149.7900 LP  0  0  0  0  0  0  0  0  0  0  0  0  # atno 17370 bound_to 10713
  156.0124  130.3828  150.2222 LP  0  0  0  0  0  0  0  0  0  0  0  0  # atno 17371 bound_to 10713
  141.0045  134.1104  157.4284 LP  0  0  0  0  0  0  0  0  0  0  0  0  # atno 17394 bound_to 11000
  139.8860  135.0077  156.6471 LP  0  0  0  0  0  0  0  0  0  0  0  0  # atno 17395 bound_to 11000

$$$$
