#       Name:                AV-unprocessed.smi:89
#       Creating user name   scv26
#       Creation time:       Thu Mar 26 17:24:30 2020


#       File generated by GOLD software.
#

@<TRIPOS>MOLECULE
AV-unprocessed.smi:89
    62    64     1
SMALL
NO_CHARGES


@<TRIPOS>ATOM
      1 ****        -2.0887   3.6331  -0.4200 C.3            1 S1                 0.0000
      2 ****        -0.6337   3.5151   0.0637 C.3            1 S1                 0.0000
      3 ****         0.1004   2.4070  -0.5515 N.3            1 S1                 0.0000
      4 ****        -0.4787   1.1855  -0.4235 C.ar           1 S1                 0.0000
      5 ****        -0.6871   0.4734  -1.5592 N.ar           1 S1                 0.0000
      6 ****        -1.2664  -0.7287  -1.5056 C.ar           1 S1                 0.0000
      7 ****        -1.7105  -1.3935  -0.4376 N.ar           1 S1                 0.0000
      8 ****        -1.5120  -0.6793   0.7074 C.ar           1 S1                 0.0000
      9 ****        -0.9128   0.6086   0.8059 C.ar           1 S1                 0.0000
     10 ****        -0.8888   1.0143   2.1354 N.2            1 S1                 0.0000
     11 ****        -1.4390   0.0246   2.7836 C.2            1 S1                 0.0000
     12 ****        -1.8344  -1.0386   2.0042 N.pl3          1 S1                 0.0000
     13 ****        -2.4716  -2.2649   2.4588 C.3            1 S1                 0.0000
     14 ****        -1.4872  -3.3066   3.0482 C.3            1 S1                 0.0000
     15 ****        -0.8778  -2.7640   4.2056 O.3            1 S1                 0.0000
     16 ****        -0.3990  -3.7622   2.0749 C.3            1 S1                 0.0000
     17 ****        -0.9871  -5.0376   1.4912 C.3            1 S1                 0.0000
     18 ****        -1.5782  -5.6438   2.6272 O.3            1 S1                 0.0000
     19 ****        -2.2045  -4.6261   3.4011 C.3            1 S1                 0.0000
     20 ****         1.5669   2.4488  -0.4324 C.3            1 S1                 0.0000
     21 ****         2.0663   2.0976   0.9822 C.3            1 S1                 0.0000
     22 ****         2.3067   1.6213  -1.5065 C.3            1 S1                 0.0000
     23 ****         2.1500   2.3790  -3.1834 S.o2           1 S1                 0.0000
     24 ****         0.7457   2.3152  -3.6154 O.2            1 S1                 0.0000
     25 ****         2.8366   3.6797  -3.1723 O.2            1 S1                 0.0000
     26 ****         3.1275   1.2125  -4.2200 C.3            1 S1                 0.0000
     27 ****         3.1328   1.6565  -5.6858 C.3            1 S1                 0.0000
     28 ****        -2.5627   4.5168   0.0070 H              1 S1                 0.0000
     29 ****        -2.6882   2.7704  -0.1284 H              1 S1                 0.0000
     30 ****        -2.1343   3.7243  -1.5055 H              1 S1                 0.0000
     31 ****        -0.1167   4.4440  -0.1791 H              1 S1                 0.0000
     32 ****        -0.6069   3.4328   1.1498 H              1 S1                 0.0000
     33 ****        -1.3932  -1.2278  -2.4549 H              1 S1                 0.0000
     34 ****        -1.5686   0.0408   3.8561 H              1 S1                 0.0000
     35 ****        -3.2255  -1.9987   3.2009 H              1 S1                 0.0000
     36 ****        -3.0153  -2.6970   1.6179 H              1 S1                 0.0000
     37 ****        -0.2992  -3.4153   4.5719 H              1 S1                 0.0000
     38 ****        -0.1326  -3.0316   1.3127 H              1 S1                 0.0000
     39 ****         0.5163  -4.0165   2.6120 H              1 S1                 0.0000
     40 ****        -1.7524  -4.8138   0.7462 H              1 S1                 0.0000
     41 ****        -0.2344  -5.6815   1.0359 H              1 S1                 0.0000
     42 ****        -2.1410  -4.8777   4.4606 H              1 S1                 0.0000
     43 ****        -3.2628  -4.5877   3.1395 H              1 S1                 0.0000
     44 ****         1.8540   3.4876  -0.5997 H              1 S1                 0.0000
     45 ****         3.1402   2.2651   1.0672 H              1 S1                 0.0000
     46 ****         1.8819   1.0516   1.2270 H              1 S1                 0.0000
     47 ****         1.5842   2.7119   1.7425 H              1 S1                 0.0000
     48 ****         3.3726   1.5922  -1.2804 H              1 S1                 0.0000
     49 ****         1.9705   0.5861  -1.5458 H              1 S1                 0.0000
     50 ****         4.1428   1.1719  -3.8253 H              1 S1                 0.0000
     51 ****         2.6902   0.2187  -4.1210 H              1 S1                 0.0000
     52 ****         3.7125   0.9665  -6.2992 H              1 S1                 0.0000
     53 ****         3.5712   2.6488  -5.7940 H              1 S1                 0.0000
     54 ****         2.1204   1.6919  -6.0887 H              1 S1                 0.0000
     55 ****        -0.0121   2.5949  -1.5272 LP             1 S1                 0.0000
     56 ****        -0.4054   0.8507  -2.4414 LP             1 S1                 0.0000
     57 ****        -2.1342  -2.2986  -0.4721 LP             1 S1                 0.0000
     58 ****        -0.5312   1.8699   2.5097 LP             1 S1                 0.0000
     59 ****        -1.5802  -2.5217   4.8749 LP             1 S1                 0.0000
     60 ****        -0.3550  -1.9475   3.9606 LP             1 S1                 0.0000
     61 ****        -0.8742  -6.0986   3.1727 LP             1 S1                 0.0000
     62 ****        -2.2598  -6.3152   2.3361 LP             1 S1                 0.0000
@<TRIPOS>BOND
    1    1    2 1     
    2    1   28 1     
    3    1   29 1     
    4    1   30 1     
    5    2    3 1     
    6    2   31 1     
    7    2   32 1     
    8    3    4 1     
    9    3   20 1     
   10    4    9 ar    
   11    4    5 ar    
   12    5    6 ar    
   13    6    7 ar    
   14    6   33 1     
   15    7    8 ar    
   16    8   12 1     
   17    8    9 ar    
   18    9   10 1     
   19   10   11 2     
   20   11   12 1     
   21   11   34 1     
   22   12   13 1     
   23   13   14 1     
   24   13   35 1     
   25   13   36 1     
   26   14   19 1     
   27   14   15 1     
   28   14   16 1     
   29   15   37 1     
   30   16   17 1     
   31   16   38 1     
   32   16   39 1     
   33   17   18 1     
   34   17   40 1     
   35   17   41 1     
   36   18   19 1     
   37   19   42 1     
   38   19   43 1     
   39   20   21 1     
   40   20   22 1     
   41   20   44 1     
   42   21   45 1     
   43   21   46 1     
   44   21   47 1     
   45   22   23 1     
   46   22   48 1     
   47   22   49 1     
   48   23   24 2     
   49   23   25 2     
   50   23   26 1     
   51   26   27 1     
   52   26   50 1     
   53   26   51 1     
   54   27   52 1     
   55   27   53 1     
   56   27   54 1     
   57    3   55 1     
   58    5   56 1     
   59    7   57 1     
   60   10   58 1     
   61   15   59 1     
   62   15   60 1     
   63   18   61 1     
   64   18   62 1     
@<TRIPOS>SUBSTRUCTURE
      1 S1             1
@<TRIPOS>SET
LONE_PAIRS      STATIC     ATOMS    <user>   **** ""
10 55 56 57 58 59 60 61 62 24 25
DONOR_HYDROGENS      STATIC     ATOMS    <user>   **** ""
1 37
ATOM$BLUE        STATIC     ATOMS    COLORGROUP SYSTEM
10 55 56 57 58 59 60 61 62 24 25
ATOM$RED        STATIC     ATOMS    COLORGROUP SYSTEM
1 37
