#       Name:                AV-unprocessed.smi:1607
#       Creating user name   scv26
#       Creation time:       Fri Mar 27 07:11:54 2020


#       File generated by GOLD software.
#

@<TRIPOS>MOLECULE
AV-unprocessed.smi:1607
    44    45     1
SMALL
NO_CHARGES


@<TRIPOS>ATOM
      1 ****        -0.8146   2.9103   3.3006 C.3            1 S1                 0.0000
      2 ****        -1.3287   2.6199   1.8833 C.3            1 S1                 0.0000
      3 ****        -2.8637   2.6893   1.8179 C.3            1 S1                 0.0000
      4 ****        -3.3499   2.3669   0.3998 C.3            1 S1                 0.0000
      5 ****        -2.8083   1.0079  -0.0697 C.3            1 S1                 0.0000
      6 ****        -1.3245   0.9714  -0.0039 N.4            1 S1                 1.0000
      7 ****        -0.7705  -0.2803  -0.5785 C.3            1 S1                 0.0000
      8 ****         0.6843  -0.1140  -1.0593 C.3            1 S1                 0.0000
      9 ****         1.1922  -1.3407  -1.6622 N.am           1 S1                 0.0000
     10 ****         1.5939  -2.4237  -0.9785 C.2            1 S1                 0.0000
     11 ****         1.5719  -2.4953   0.2500 O.2            1 S1                 0.0000
     12 ****         2.0948  -3.6082  -1.8046 C.3            1 S1                 0.0000
     13 ****         3.5165  -3.4940  -2.0668 N.pl3          1 S1                 0.0000
     14 ****         4.5748  -3.8598  -1.3403 C.2            1 S1                 0.0000
     15 ****         5.7120  -3.5638  -1.9507 N.2            1 S1                 0.0000
     16 ****         5.2917  -2.9753  -3.1319 N.2            1 S1                 0.0000
     17 ****         3.9897  -2.9300  -3.2059 N.2            1 S1                 0.0000
     18 ****        -0.8324   1.2517   1.3723 C.3            1 S1                 0.0000
     19 ****        -1.1757   2.1686   4.0136 H              1 S1                 0.0000
     20 ****        -1.1445   3.8909   3.6451 H              1 S1                 0.0000
     21 ****         0.2752   2.9007   3.3338 H              1 S1                 0.0000
     22 ****        -0.9276   3.3917   1.2242 H              1 S1                 0.0000
     23 ****        -3.3004   1.9819   2.5244 H              1 S1                 0.0000
     24 ****        -3.2118   3.6799   2.1131 H              1 S1                 0.0000
     25 ****        -4.4398   2.3639   0.3712 H              1 S1                 0.0000
     26 ****        -3.0243   3.1490  -0.2875 H              1 S1                 0.0000
     27 ****        -3.2219   0.2046   0.5424 H              1 S1                 0.0000
     28 ****        -3.1381   0.8295  -1.0940 H              1 S1                 0.0000
     29 ****        -0.8566  -1.0854   0.1532 H              1 S1                 0.0000
     30 ****        -1.3736  -0.5817  -1.4361 H              1 S1                 0.0000
     31 ****         0.7391   0.6777  -1.8071 H              1 S1                 0.0000
     32 ****         1.3462   0.1825  -0.2452 H              1 S1                 0.0000
     33 ****         1.2531  -1.3655  -2.6704 H              1 S1                 0.0000
     34 ****         1.9108  -4.5389  -1.2664 H              1 S1                 0.0000
     35 ****         1.5542  -3.6717  -2.7504 H              1 S1                 0.0000
     36 ****         4.5121  -4.3364  -0.3731 H              1 S1                 0.0000
     37 ****         0.2568   1.2431   1.3883 H              1 S1                 0.0000
     38 ****        -1.1613   0.4566   2.0436 H              1 S1                 0.0000
     39 ****        -0.9998   1.7248  -0.5929 H              1 S1                 0.0000
     40 ****         1.2424  -1.7209   0.7901 LP             1 S1                 0.0000
     41 ****         1.8835  -3.3278   0.7079 LP             1 S1                 0.0000
     42 ****         6.6470  -3.7258  -1.6355 LP             1 S1                 0.0000
     43 ****         5.9082  -2.6288  -3.8389 LP             1 S1                 0.0000
     44 ****         3.4466  -2.5529  -3.9562 LP             1 S1                 0.0000
@<TRIPOS>BOND
    1    1    2 1     
    2    1   19 1     
    3    1   20 1     
    4    1   21 1     
    5    2   18 1     
    6    2    3 1     
    7    2   22 1     
    8    3    4 1     
    9    3   23 1     
   10    3   24 1     
   11    4    5 1     
   12    4   25 1     
   13    4   26 1     
   14    5    6 1     
   15    5   27 1     
   16    5   28 1     
   17    6    7 1     
   18    6   18 1     
   19    6   39 1     
   20    7    8 1     
   21    7   29 1     
   22    7   30 1     
   23    8    9 1     
   24    8   31 1     
   25    8   32 1     
   26    9   10 am    
   27    9   33 1     
   28   10   11 2     
   29   10   12 1     
   30   12   13 1     
   31   12   34 1     
   32   12   35 1     
   33   13   17 1     
   34   13   14 1     
   35   14   15 2     
   36   14   36 1     
   37   15   16 1     
   38   16   17 2     
   39   18   37 1     
   40   18   38 1     
   41   11   40 1     
   42   11   41 1     
   43   15   42 1     
   44   16   43 1     
   45   17   44 1     
@<TRIPOS>SUBSTRUCTURE
      1 S1             1
@<TRIPOS>SET
LONE_PAIRS      STATIC     ATOMS    <user>   **** ""
5 40 41 42 43 44
DONOR_HYDROGENS      STATIC     ATOMS    <user>   **** ""
2 39 33
ATOM$BLUE        STATIC     ATOMS    COLORGROUP SYSTEM
5 40 41 42 43 44
ATOM$RED        STATIC     ATOMS    COLORGROUP SYSTEM
2 39 33
