AV-unprocessed.smi:3074|AV-procd|sdf|11722|dock5
  -GOLD-   2272017123D 1   1.00000     0.00000
 Structure written by MMmdl.
 20 21  0  0  0  0  0  0  0  0  3 V2000
  146.7939  142.1839  154.4245 C   0  0  0  0  0  0  0  0  0  0  0  0
  146.7489  140.8578  154.0786 C   0  0  0  0  0  0  0  0  0  0  0  0
  148.0381  140.3923  154.1398 N   0  0  0  0  0  0  0  0  0  0  0  0
  148.4896  139.0476  153.9226 C   0  0  0  0  0  0  0  0  0  0  0  0
  148.0968  137.9143  154.8712 C   0  0  0  0  0  0  0  0  0  0  0  0
  149.4022  137.3210  154.6067 N   0  3  0  0  0  0  0  0  0  0  0  0
  149.9247  138.6346  154.2501 C   0  0  0  0  0  0  0  0  0  0  0  0
  148.8542  141.3702  154.5557 C   0  0  0  0  0  0  0  0  0  0  0  0
  148.1027  142.4652  154.7101 N   0  3  0  0  0  0  0  0  0  0  0  0
  146.0120  142.9259  154.4983 H   0  0  0  0  0  0  0  0  0  0  0  0
  145.9147  140.2311  153.7975 H   0  0  0  0  0  0  0  0  0  0  0  0
  148.2393  138.7977  152.8890 H   0  0  0  0  0  0  0  0  0  0  0  0
  147.9927  138.2287  155.9117 H   0  0  0  0  0  0  0  0  0  0  0  0
  147.2557  137.3051  154.5393 H   0  0  0  0  0  0  0  0  0  0  0  0
  149.8402  136.9087  155.4184 H   0  0  0  0  0  0  0  0  0  0  0  0
  150.6080  138.6242  153.4003 H   0  0  0  0  0  0  0  0  0  0  0  0
  150.3465  139.1557  155.1120 H   0  0  0  0  0  0  0  0  0  0  0  0
  149.9132  141.2954  154.7298 H   0  0  0  0  0  0  0  0  0  0  0  0
  149.3736  136.7042  153.8069 H   0  0  0  0  0  0  0  0  0  0  0  0
  148.4517  143.3675  155.0095 H   0  0  0  0  0  0  0  0  0  0  0  0
  1  9  1  0  0  0  0
  1  2  2  0  0  0  0
  1 10  1  0  0  0  0
  2  3  1  0  0  0  0
  2 11  1  0  0  0  0
  3  4  1  0  0  0  0
  3  8  1  0  0  0  0
  4  7  1  0  0  0  0
  4  5  1  0  0  0  0
  4 12  1  0  0  0  0
  5  6  1  0  0  0  0
  5 13  1  0  0  0  0
  5 14  1  0  0  0  0
  6  7  1  0  0  0  0
  6 15  1  0  0  0  0
  6 19  1  0  0  0  0
  7 16  1  0  0  0  0
  7 17  1  0  0  0  0
  8  9  2  0  0  0  0
  8 18  1  0  0  0  0
  9 20  1  0  0  0  0
M  CHG  1   6   1
M  CHG  1   9   1
M  END
> <s_m_source_file>
AV-unprocessed.smi

> <i_m_source_file_index>
3074

> <i_lp_mmshare_version>
43012

> <i_f3d_flags>
0

> <s_epik_input>
W2NIXTFuW2NIXVtjSF1uMVtDSF0yW0NIMl1bTkhdW0NIMl0y

> <s_epik_cmdline>
J2VwaWtfcHl0aG9uJywgJy1waCcsICc3LjAnLCAnLXRuJywgJzgnLCAnLW1hJywgJzIwMCcsICctbWV0YWxfYmluZGluZycsICctaW1hZScsICc8aW5maWxlLm1hZT4nLCAnLW9tYWUnLCAnPG91dGZpbGUubWFlPic=

> <r_lp_tautomer_probability>
1

> <r_epik_Ionization_Penalty>
1.41643

> <r_epik_Ionization_Penalty_Charging>
0.0219601

> <r_epik_Ionization_Penalty_Neutral>
1.39447

> <r_epik_State_Penalty>
1.13931

> <r_epik_Charging_Adjusted_Penalty>
1.16127

> <i_epik_Tot_Q>
2

> <i_epik_Tot_abs_Q>
2

> <r_epik_Metal_State_Penalty>
5.12948

> <b_epik_Metal_Only>
0

> <s_lp_Force_Field>
OPLS_2005

> <r_lp_Energy>
25.5014

> <b_lp_Chiralities_Consistent>
1

> <s_lp_Variant>
AV-unprocessed.smi:3074-2

> <Gold.Version>
5.8.1

> <Gold.Id.Protein>
6NUR|6NUR_protein|mol2

> <Gold.PLP.Fitness>
32.9633

> <Gold.PLP.PLP>
-17.9646

> <Gold.PLP.part.hbond>
-2.0000

> <Gold.PLP.part.metal>
0.0000

> <Gold.PLP.part.buried>
-0.5714

> <Gold.PLP.part.nonpolar>
-15.8252

> <Gold.PLP.part.repulsive>
0.3889

> <Gold.PLP.ligand.clash>
0.0000

> <Gold.PLP.ligand.torsion>
0.1376

> <Gold.PLP.Chemscore.Hbond>
4.0000

> <Gold.PLP.Chemscore.CHOScore>
1.0000

> <Gold.PLP.Chemscore.Metal>
0.0000

> <Gold.Chemscore.Hbonds>
donor molecule, donor type, donor heavy atom, donor atom, acceptor molecule, acceptor atom, score
      L1  H     6    19       P1  7948  2.00
      L1  H     9    20       P1  8028  2.00
      L1  C     2    11       P1 10175  0.81

> <Gold.PLP.Chemscore.Internal.Correction>
0.2740

> <Gold.Rescore>
     Score         DG    S(hbond)    S(metal)    S(lipo)     H(rot)  DE(clash)    DE(int)     intcor
     12.56     -13.02       1.95        0.00      30.70       1.00       0.24       0.22       ----

> <Gold.Chemscore.Fitness>
12.5640

> <Gold.Chemscore.DG>
-13.0195

> <Gold.Chemscore.ZeroCoef>
-5.4800

> <Gold.Chemscore.Hbond>
1.9485

> <Gold.Chemscore.Metal>
0.0000

> <Gold.Chemscore.Lipo>
30.6973

> <Gold.Chemscore.Internal_Hbond>
0.0000

> <Gold.Chemscore.DEClash>
0.2395

> <Gold.Chemscore.DEInternal>
0.2160

> <Gold.Chemscore.Rot>
1.0000

> <Gold.Chemscore.Internal.Correction>
   9.000000E+99

> <Gold.Chemscore.Hbonds>
donor molecule, donor type, donor heavy atom, donor atom, acceptor molecule, acceptor atom, score
      L1  H     6    19       P1  7948  0.86
      L1  H     9    20       P1  8028  0.93

> <Gold.Chemscore.Hbond.Weighted>
-6.5079

> <Gold.Chemscore.Metal.Weighted>
-0.0000

> <Gold.Chemscore.Lipo.Weighted>
-3.5916

> <Gold.Chemscore.Internal_Hbond.Weighted>
0.0000

> <Gold.Chemscore.DEClash.Weighted>
0.2395

> <Gold.Chemscore.DEInternal.Weighted>
0.2160

> <Gold.Chemscore.Rot.Weighted>
2.5600

> <Gold.Chemscore.Internal.Correction.Weighted>
   9.000000E+99

> <Gold.Protein.RotatedTorsions>
[ 6907 6896 6895 6894 ] final   53.64 input  -60.11 | X-H torsion
[ 7974 7965 7964 7962 ] final -143.71 input  175.53 | X-H torsion
[ 8008 7997 7996 7995 ] final -162.79 input   59.86 | X-H torsion
[ 10167 10162 10161 10158 ] final -142.14 input  -65.29 | X-H torsion
[ 10718 10713 10712 10709 ] final  169.83 input   66.30 | X-H torsion
[ 10763 10752 10751 10750 ] final -109.09 input  -60.55 | X-H torsion
[ 11005 11000 10999 10996 ] final   49.90 input  -57.11 | X-H torsion

> <Gold.Protein.ActiveResidues>
 VAL166  LYS551  ARG553  GLY616  TRP617  ASP618  TYR619  PRO620  LYS621  CYS622 
 ASP623  PHE694  ASN695  SER759  ASP760  ASP761  ALA762  ILE779  LEU786  VAL792 
 PHE793  MET794  SER795  GLU796  ALA797  LYS798  CYS799  TRP800  GLU811  SER814 

> <Gold.Protein.RotatedAtoms>
  152.3358  134.7200  160.0277 H   0  0  0  0  0  0  0  0  0  0  0  0  # atno 6907 bound_to 6896
  151.7601  133.3328  159.3423 H   0  0  0  0  0  0  0  0  0  0  0  0  # atno 6908 bound_to 6896
  150.7450  134.6045  159.6098 H   0  0  0  0  0  0  0  0  0  0  0  0  # atno 6909 bound_to 6896
  144.8350  140.5800  143.5490 H   0  0  0  0  0  0  0  0  0  0  0  0  # atno 7974 bound_to 7965
  155.8119  140.0907  157.1899 H   0  0  0  0  0  0  0  0  0  0  0  0  # atno 8008 bound_to 7997
  154.3980  140.1453  156.3456 H   0  0  0  0  0  0  0  0  0  0  0  0  # atno 8009 bound_to 7997
  155.8356  140.3441  155.5602 H   0  0  0  0  0  0  0  0  0  0  0  0  # atno 8010 bound_to 7997
  139.8117  143.7694  152.2663 H   0  0  0  0  0  0  0  0  0  0  0  0  # atno 10167 bound_to 10162
  157.0169  131.0220  151.2786 H   0  0  0  0  0  0  0  0  0  0  0  0  # atno 10718 bound_to 10713
  154.8173  135.4614  154.0679 H   0  0  0  0  0  0  0  0  0  0  0  0  # atno 10763 bound_to 10752
  153.2062  135.6875  153.8177 H   0  0  0  0  0  0  0  0  0  0  0  0  # atno 10764 bound_to 10752
  153.7644  135.3279  155.3319 H   0  0  0  0  0  0  0  0  0  0  0  0  # atno 10765 bound_to 10752
  140.1063  134.5014  155.8717 H   0  0  0  0  0  0  0  0  0  0  0  0  # atno 11005 bound_to 11000
  145.4815  139.1495  143.3759 LP  0  0  0  0  0  0  0  0  0  0  0  0  # atno 17320 bound_to 7965
  146.2649  140.4951  142.8838 LP  0  0  0  0  0  0  0  0  0  0  0  0  # atno 17321 bound_to 7965
  139.7845  144.7433  151.0041 LP  0  0  0  0  0  0  0  0  0  0  0  0  # atno 17342 bound_to 10162
  140.7817  143.4507  151.0417 LP  0  0  0  0  0  0  0  0  0  0  0  0  # atno 17343 bound_to 10162
  157.5279  130.8039  149.7883 LP  0  0  0  0  0  0  0  0  0  0  0  0  # atno 17370 bound_to 10713
  156.0116  130.3831  150.2246 LP  0  0  0  0  0  0  0  0  0  0  0  0  # atno 17371 bound_to 10713
  141.2119  133.6712  156.6618 LP  0  0  0  0  0  0  0  0  0  0  0  0  # atno 17394 bound_to 11000
  140.3151  134.8054  157.4207 LP  0  0  0  0  0  0  0  0  0  0  0  0  # atno 17395 bound_to 11000

$$$$
