AV-unprocessed.smi:2855|AV-procd|sdf|10979|dock1
  -GOLD-   2272015433D 1   1.00000     0.00000
 Structure written by MMmdl.
 47 48  0  0  0  0  0  0  0  0  1 V2000
  152.4117  144.9197  158.4182 C   0  0  0  0  0  0  0  0  0  0  0  0
  151.5948  144.1549  159.4749 C   0  0  2  0  0  0  0  0  0  0  0  0
  152.4362  143.7541  160.7004 C   0  0  0  0  0  0  0  0  0  0  0  0
  153.4062  142.6003  160.3954 C   0  0  0  0  0  0  0  0  0  0  0  0
  152.6730  141.3594  159.8332 C   0  0  2  0  0  0  0  0  0  0  0  0
  153.6143  140.1389  159.5975 C   0  0  0  0  0  0  0  0  0  0  0  0
  152.9127  138.7955  159.8613 C   0  0  0  0  0  0  0  0  0  0  0  0
  154.9492  140.2159  160.3610 C   0  0  0  0  0  0  0  0  0  0  0  0
  151.8365  141.7557  158.5860 C   0  0  1  0  0  0  0  0  0  0  0  0
  151.0649  140.6130  158.1031 N   0  0  0  0  0  0  0  0  0  0  0  0
  151.5336  139.6234  157.3283 C   0  0  0  0  0  0  0  0  0  0  0  0
  152.6789  139.6003  156.8759 O   0  0  0  0  0  0  0  0  0  0  0  0
  150.5455  138.4944  157.0061 C   0  0  0  0  0  0  0  0  0  0  0  0
  149.6124  138.8501  155.9275 N   0  0  0  0  0  0  0  0  0  0  0  0
  148.2417  138.7715  156.1294 C   0  0  0  0  0  0  0  0  0  0  0  0
  147.3291  139.0901  155.1808 C   0  0  0  0  0  0  0  0  0  0  0  0
  147.7609  139.5455  153.8637 C   0  0  0  0  0  0  0  0  0  0  0  0
  147.0121  139.8551  152.9396 O   0  0  0  0  0  0  0  0  0  0  0  0
  149.1469  139.6141  153.7005 N   0  0  0  0  0  0  0  0  0  0  0  0
  150.0929  139.2881  154.6736 C   0  0  0  0  0  0  0  0  0  0  0  0
  151.2945  139.3873  154.4263 O   0  0  0  0  0  0  0  0  0  0  0  0
  150.8752  142.9231  158.8939 C   0  0  0  0  0  0  0  0  0  0  0  0
  149.4930  139.9276  152.8053 H   0  0  0  0  0  0  0  0  0  0  0  0
  153.2180  144.3157  158.0031 H   0  0  0  0  0  0  0  0  0  0  0  0
  152.8604  145.8162  158.8464 H   0  0  0  0  0  0  0  0  0  0  0  0
  151.7784  145.2361  157.5891 H   0  0  0  0  0  0  0  0  0  0  0  0
  150.8251  144.8453  159.8222 H   0  0  0  0  0  0  0  0  0  0  0  0
  152.9886  144.6161  161.0760 H   0  0  0  0  0  0  0  0  0  0  0  0
  151.7687  143.4494  161.5076 H   0  0  0  0  0  0  0  0  0  0  0  0
  154.1642  142.9428  159.6917 H   0  0  0  0  0  0  0  0  0  0  0  0
  153.9358  142.3475  161.3131 H   0  0  0  0  0  0  0  0  0  0  0  0
  151.9579  141.0493  160.5974 H   0  0  0  0  0  0  0  0  0  0  0  0
  153.8685  140.1199  158.5376 H   0  0  0  0  0  0  0  0  0  0  0  0
  152.7032  138.6460  160.9202 H   0  0  0  0  0  0  0  0  0  0  0  0
  153.5353  137.9622  159.5345 H   0  0  0  0  0  0  0  0  0  0  0  0
  151.9695  138.7285  159.3188 H   0  0  0  0  0  0  0  0  0  0  0  0
  154.8004  140.2071  161.4405 H   0  0  0  0  0  0  0  0  0  0  0  0
  155.5115  141.1135  160.1050 H   0  0  0  0  0  0  0  0  0  0  0  0
  155.5837  139.3642  160.1143 H   0  0  0  0  0  0  0  0  0  0  0  0
  152.5236  142.0821  157.8049 H   0  0  0  0  0  0  0  0  0  0  0  0
  150.1073  140.5507  158.4167 H   0  0  0  0  0  0  0  0  0  0  0  0
  151.0869  137.5837  156.7403 H   0  0  0  0  0  0  0  0  0  0  0  0
  150.0019  138.2517  157.9201 H   0  0  0  0  0  0  0  0  0  0  0  0
  147.8751  138.4432  157.0916 H   0  0  0  0  0  0  0  0  0  0  0  0
  146.2739  139.0087  155.3983 H   0  0  0  0  0  0  0  0  0  0  0  0
  150.1234  142.5864  159.6095 H   0  0  0  0  0  0  0  0  0  0  0  0
  150.3271  143.2058  157.9942 H   0  0  0  0  0  0  0  0  0  0  0  0
  1  2  1  0  0  0  0
  1 24  1  0  0  0  0
  1 25  1  0  0  0  0
  1 26  1  0  0  0  0
  2 22  1  0  0  0  0
  2  3  1  0  0  0  0
  2 27  1  0  0  0  0
  3  4  1  0  0  0  0
  3 28  1  0  0  0  0
  3 29  1  0  0  0  0
  4  5  1  0  0  0  0
  4 30  1  0  0  0  0
  4 31  1  0  0  0  0
  5  6  1  0  0  0  0
  5  9  1  0  0  0  0
  5 32  1  0  0  0  0
  6  7  1  0  0  0  0
  6  8  1  0  0  0  0
  6 33  1  0  0  0  0
  7 34  1  0  0  0  0
  7 35  1  0  0  0  0
  7 36  1  0  0  0  0
  8 37  1  0  0  0  0
  8 38  1  0  0  0  0
  8 39  1  0  0  0  0
  9 10  1  0  0  0  0
  9 22  1  0  0  0  0
  9 40  1  0  0  0  0
 10 11  1  0  0  0  0
 10 41  1  0  0  0  0
 11 12  2  0  0  0  0
 11 13  1  0  0  0  0
 13 14  1  0  0  0  0
 13 42  1  0  0  0  0
 13 43  1  0  0  0  0
 14 20  1  0  0  0  0
 14 15  1  0  0  0  0
 15 16  2  0  0  0  0
 15 44  1  0  0  0  0
 16 17  1  0  0  0  0
 16 45  1  0  0  0  0
 17 18  2  0  0  0  0
 17 19  1  0  0  0  0
 19 23  1  0  0  0  0
 19 20  1  0  0  0  0
 20 21  2  0  0  0  0
 22 46  1  0  0  0  0
 22 47  1  0  0  0  0
M  END
> <s_m_source_file>
AV-unprocessed.smi

> <i_m_source_file_index>
2855

> <i_lp_mmshare_version>
43012

> <i_f3d_flags>
0

> <s_epik_input>
W0NIM11bQ0BASF0xW0NIMl1bQ0gyXVtDQEBIXShbQ0hdKFtDSDNdKVtDSDNdKVtDQEhdKFtDSDJdMSlbTkhdQyg9TylbQ0gyXW4yW2NIXVtjSF1jKD1PKVtuSF1jMj1P

> <s_epik_cmdline>
J2VwaWtfcHl0aG9uJywgJy1waCcsICc3LjAnLCAnLXRuJywgJzgnLCAnLW1hJywgJzIwMCcsICctbWV0YWxfYmluZGluZycsICctaW1hZScsICc8aW5maWxlLm1hZT4nLCAnLW9tYWUnLCAnPG91dGZpbGUubWFlPic=

> <r_lp_tautomer_probability>
0.999537

> <r_epik_Ionization_Penalty>
0.00306256

> <r_epik_Ionization_Penalty_Charging>
0.00306254

> <r_epik_Ionization_Penalty_Neutral>
2.0223e-08

> <r_epik_State_Penalty>
0.0021533

> <r_epik_Charging_Adjusted_Penalty>
0.00521583

> <i_epik_Tot_Q>
0

> <i_epik_Tot_abs_Q>
0

> <r_epik_Metal_State_Penalty>
0.362116

> <b_epik_Metal_Only>
0

> <s_lp_Force_Field>
OPLS_2005

> <r_lp_Energy>
15.7359

> <b_lp_Chiralities_Consistent>
1

> <s_lp_Variant>
AV-unprocessed.smi:2855-3

> <Gold.Version>
5.8.1

> <Gold.Id.Protein>
6NUR|6NUR_protein|mol2

> <Gold.PLP.Fitness>
44.4030

> <Gold.PLP.PLP>
-38.4318

> <Gold.PLP.part.hbond>
-3.0000

> <Gold.PLP.part.metal>
0.0000

> <Gold.PLP.part.buried>
-6.0472

> <Gold.PLP.part.nonpolar>
-29.8996

> <Gold.PLP.part.repulsive>
1.0536

> <Gold.PLP.ligand.clash>
0.0000

> <Gold.PLP.ligand.torsion>
1.5478

> <Gold.PLP.Chemscore.Hbond>
3.0000

> <Gold.PLP.Chemscore.CHOScore>
0.0000

> <Gold.PLP.Chemscore.Metal>
0.0000

> <Gold.Chemscore.Hbonds>
donor molecule, donor type, donor heavy atom, donor atom, acceptor molecule, acceptor atom, score
      L1  H    19    23       P1  7957  1.00
      P1  H  7989  7998       L1    21  1.00
      P1  H  7997  8008       L1    12  1.00

> <Gold.PLP.Chemscore.Internal.Correction>
0.0668

> <Gold.Rescore>
     Score         DG    S(hbond)    S(metal)    S(lipo)     H(rot)  DE(clash)    DE(int)     intcor
     19.80     -22.66       2.96        0.00     102.99       1.85       0.06       2.80       ----

> <Gold.Chemscore.Fitness>
19.8016

> <Gold.Chemscore.DG>
-22.6588

> <Gold.Chemscore.ZeroCoef>
-5.4800

> <Gold.Chemscore.Hbond>
2.9565

> <Gold.Chemscore.Metal>
0.0000

> <Gold.Chemscore.Lipo>
102.9935

> <Gold.Chemscore.Internal_Hbond>
0.0000

> <Gold.Chemscore.DEClash>
0.0601

> <Gold.Chemscore.DEInternal>
2.7970

> <Gold.Chemscore.Rot>
1.8539

> <Gold.Chemscore.Internal.Correction>
   9.000000E+99

> <Gold.Chemscore.Hbonds>
donor molecule, donor type, donor heavy atom, donor atom, acceptor molecule, acceptor atom, score
      L1  H    19    23       P1  7957  0.99
      P1  H  7989  7998       L1    21  0.82
      P1  H  7997  8008       L1    12  1.00

> <Gold.Chemscore.Hbond.Weighted>
-9.8746

> <Gold.Chemscore.Metal.Weighted>
-0.0000

> <Gold.Chemscore.Lipo.Weighted>
-12.0502

> <Gold.Chemscore.Internal_Hbond.Weighted>
0.0000

> <Gold.Chemscore.DEClash.Weighted>
0.0601

> <Gold.Chemscore.DEInternal.Weighted>
2.7970

> <Gold.Chemscore.Rot.Weighted>
4.7460

> <Gold.Chemscore.Internal.Correction.Weighted>
   9.000000E+99

> <Gold.Protein.RotatedTorsions>
[ 6907 6896 6895 6894 ] final   97.33 input  -60.11 | X-H torsion
[ 7974 7965 7964 7962 ] final   80.54 input  175.53 | X-H torsion
[ 8008 7997 7996 7995 ] final  -45.65 input   59.86 | X-H torsion
[ 10167 10162 10161 10158 ] final  125.62 input  -65.29 | X-H torsion
[ 10718 10713 10712 10709 ] final -100.62 input   66.30 | X-H torsion
[ 10763 10752 10751 10750 ] final  162.41 input  -60.55 | X-H torsion
[ 11005 11000 10999 10996 ] final   64.63 input  -57.11 | X-H torsion

> <Gold.Protein.ActiveResidues>
 VAL166  LYS551  ARG553  GLY616  TRP617  ASP618  TYR619  PRO620  LYS621  CYS622 
 ASP623  PHE694  ASN695  SER759  ASP760  ASP761  ALA762  ILE779  LEU786  VAL792 
 PHE793  MET794  SER795  GLU796  ALA797  LYS798  CYS799  TRP800  GLU811  SER814 

> <Gold.Protein.RotatedAtoms>
  152.5425  134.0749  159.8210 H   0  0  0  0  0  0  0  0  0  0  0  0  # atno 6907 bound_to 6896
  151.0859  133.5346  159.2625 H   0  0  0  0  0  0  0  0  0  0  0  0  # atno 6908 bound_to 6896
  151.2156  135.0507  159.8983 H   0  0  0  0  0  0  0  0  0  0  0  0  # atno 6909 bound_to 6896
  145.6498  139.2445  143.1983 H   0  0  0  0  0  0  0  0  0  0  0  0  # atno 7974 bound_to 7965
  154.4002  140.1391  156.3883 H   0  0  0  0  0  0  0  0  0  0  0  0  # atno 8008 bound_to 7997
  155.7938  140.3478  155.5344 H   0  0  0  0  0  0  0  0  0  0  0  0  # atno 8009 bound_to 7997
  155.8552  140.0948  157.1639 H   0  0  0  0  0  0  0  0  0  0  0  0  # atno 8010 bound_to 7997
  139.5675  144.6920  151.3869 H   0  0  0  0  0  0  0  0  0  0  0  0  # atno 10167 bound_to 10162
  156.0168  130.5336  150.6843 H   0  0  0  0  0  0  0  0  0  0  0  0  # atno 10718 bound_to 10713
  154.2780  135.2764  155.2709 H   0  0  0  0  0  0  0  0  0  0  0  0  # atno 10763 bound_to 10752
  154.5243  135.5747  153.6710 H   0  0  0  0  0  0  0  0  0  0  0  0  # atno 10764 bound_to 10752
  152.9934  135.6212  154.2938 H   0  0  0  0  0  0  0  0  0  0  0  0  # atno 10765 bound_to 10752
  139.9946  134.6537  156.0032 H   0  0  0  0  0  0  0  0  0  0  0  0  # atno 11005 bound_to 11000
  146.1213  140.7305  142.9456 LP  0  0  0  0  0  0  0  0  0  0  0  0  # atno 17320 bound_to 7965
  144.7127  140.4097  143.7068 LP  0  0  0  0  0  0  0  0  0  0  0  0  # atno 17321 bound_to 7965
  140.6959  143.7749  150.7326 LP  0  0  0  0  0  0  0  0  0  0  0  0  # atno 17342 bound_to 10162
  140.1246  143.4581  152.2292 LP  0  0  0  0  0  0  0  0  0  0  0  0  # atno 17343 bound_to 10162
  157.4539  131.0875  151.0817 LP  0  0  0  0  0  0  0  0  0  0  0  0  # atno 17370 bound_to 10713
  157.1325  130.6108  149.5533 LP  0  0  0  0  0  0  0  0  0  0  0  0  # atno 17371 bound_to 10713
  141.1594  133.6540  156.4268 LP  0  0  0  0  0  0  0  0  0  0  0  0  # atno 17394 bound_to 11000
  140.4843  134.6635  157.5184 LP  0  0  0  0  0  0  0  0  0  0  0  0  # atno 17395 bound_to 11000

$$$$
