AV-unprocessed.smi:2520|AV-procd|sdf|9911|dock2
  -GOLD-   2272013543D 1   1.00000     0.00000
 Structure written by MMmdl.
 41 44  0  0  0  0  0  0  0  0  1 V2000
  146.8274  141.2880  158.5643 O   0  0  0  0  0  0  0  0  0  0  0  0
  147.1972  142.3630  158.0955 C   0  0  0  0  0  0  0  0  0  0  0  0
  146.6553  143.5273  158.5109 N   0  0  0  0  0  0  0  0  0  0  0  0
  145.6402  143.8013  159.4733 C   0  0  0  0  0  0  0  0  0  0  0  0
  145.6976  143.0049  160.6370 C   0  0  0  0  0  0  0  0  0  0  0  0
  144.7265  143.2036  161.6332 C   0  0  0  0  0  0  0  0  0  0  0  0
  143.7542  144.1898  161.3962 C   0  0  0  0  0  0  0  0  0  0  0  0
  143.7321  144.9277  160.2654 N   0  0  0  0  0  0  0  0  0  0  0  0
  144.6596  144.7314  159.3225 N   0  0  0  0  0  0  0  0  0  0  0  0
  148.1520  142.4543  157.1566 N   0  0  0  0  0  0  0  0  0  0  0  0
  148.8373  141.3179  156.5539 C   0  0  2  0  0  0  0  0  0  0  0  0
  150.2076  141.7016  155.9721 C   0  0  1  0  0  0  0  0  0  0  0  0
  151.4620  141.1360  156.5796 C   0  0  0  0  0  0  0  0  0  0  0  0
  151.7458  139.9152  155.6996 C   0  0  0  0  0  0  0  0  0  0  0  0
  150.4886  139.5992  155.1047 O   0  0  0  0  0  0  0  0  0  0  0  0
  149.8487  140.8306  154.7774 C   0  0  1  0  0  0  0  0  0  0  0  0
  148.3511  140.9573  155.1306 C   0  0  0  0  0  0  0  0  0  0  0  0
  147.5722  141.9898  154.3101 C   0  0  0  0  0  0  0  0  0  0  0  0
  147.0143  141.2466  153.0958 C   0  0  0  0  0  0  0  0  0  0  0  0
  146.8699  139.7886  153.5435 C   0  0  0  0  0  0  0  0  0  0  0  0
  147.4780  139.7188  154.9488 C   0  0  0  0  0  0  0  0  0  0  0  0
  147.0687  144.3500  158.0971 H   0  0  0  0  0  0  0  0  0  0  0  0
  146.4677  142.2585  160.7671 H   0  0  0  0  0  0  0  0  0  0  0  0
  144.7271  142.6226  162.5435 H   0  0  0  0  0  0  0  0  0  0  0  0
  142.9813  144.3906  162.1233 H   0  0  0  0  0  0  0  0  0  0  0  0
  148.4041  143.3735  156.8220 H   0  0  0  0  0  0  0  0  0  0  0  0
  148.9011  140.4399  157.2010 H   0  0  0  0  0  0  0  0  0  0  0  0
  150.2681  142.7558  155.6951 H   0  0  0  0  0  0  0  0  0  0  0  0
  152.2918  141.8430  156.5649 H   0  0  0  0  0  0  0  0  0  0  0  0
  151.2929  140.8386  157.6149 H   0  0  0  0  0  0  0  0  0  0  0  0
  152.4570  140.1682  154.9119 H   0  0  0  0  0  0  0  0  0  0  0  0
  152.1467  139.0732  156.2639 H   0  0  0  0  0  0  0  0  0  0  0  0
  150.1560  141.2421  153.8149 H   0  0  0  0  0  0  0  0  0  0  0  0
  146.7372  142.3891  154.8869 H   0  0  0  0  0  0  0  0  0  0  0  0
  148.1862  142.8401  154.0116 H   0  0  0  0  0  0  0  0  0  0  0  0
  146.0697  141.6726  152.7564 H   0  0  0  0  0  0  0  0  0  0  0  0
  147.7205  141.3075  152.2668 H   0  0  0  0  0  0  0  0  0  0  0  0
  145.8272  139.4695  153.5525 H   0  0  0  0  0  0  0  0  0  0  0  0
  147.4082  139.1319  152.8590 H   0  0  0  0  0  0  0  0  0  0  0  0
  148.0289  138.7898  155.0969 H   0  0  0  0  0  0  0  0  0  0  0  0
  146.6763  139.7237  155.6885 H   0  0  0  0  0  0  0  0  0  0  0  0
  1  2  2  0  0  0  0
  2  3  1  0  0  0  0
  2 10  1  0  0  0  0
  3  4  1  0  0  0  0
  3 22  1  0  0  0  0
  4  9  1  0  0  0  0
  4  5  2  0  0  0  0
  5  6  1  0  0  0  0
  5 23  1  0  0  0  0
  6  7  2  0  0  0  0
  6 24  1  0  0  0  0
  7  8  1  0  0  0  0
  7 25  1  0  0  0  0
  8  9  2  0  0  0  0
 10 11  1  0  0  0  0
 10 26  1  0  0  0  0
 11 17  1  0  0  0  0
 11 12  1  0  0  0  0
 11 27  1  0  0  0  0
 12 16  1  0  0  0  0
 12 13  1  0  0  0  0
 12 28  1  0  0  0  0
 13 14  1  0  0  0  0
 13 29  1  0  0  0  0
 13 30  1  0  0  0  0
 14 15  1  0  0  0  0
 14 31  1  0  0  0  0
 14 32  1  0  0  0  0
 15 16  1  0  0  0  0
 16 17  1  0  0  0  0
 16 33  1  0  0  0  0
 17 21  1  0  0  0  0
 17 18  1  0  0  0  0
 18 19  1  0  0  0  0
 18 34  1  0  0  0  0
 18 35  1  0  0  0  0
 19 20  1  0  0  0  0
 19 36  1  0  0  0  0
 19 37  1  0  0  0  0
 20 21  1  0  0  0  0
 20 38  1  0  0  0  0
 20 39  1  0  0  0  0
 21 40  1  0  0  0  0
 21 41  1  0  0  0  0
M  END
> <s_m_source_file>
AV-unprocessed.smi

> <i_m_source_file_index>
2520

> <i_lp_mmshare_version>
43012

> <i_f3d_flags>
0

> <s_epik_input>
bjFuW2NIXVtjSF1bY0hdYzFbTkhdQyg9TylbTkhdW0NAQEhdMltDQEBIXShbQ0gyXVtDSDJdTzMpW0NASF0zQzI0W0NIMl1bQ0gyXVtDSDJdW0NIMl00

> <s_epik_cmdline>
J2VwaWtfcHl0aG9uJywgJy1waCcsICc3LjAnLCAnLXRuJywgJzgnLCAnLW1hJywgJzIwMCcsICctbWV0YWxfYmluZGluZycsICctaW1hZScsICc8aW5maWxlLm1hZT4nLCAnLW9tYWUnLCAnPG91dGZpbGUubWFlPic=

> <r_lp_tautomer_probability>
1

> <r_epik_Ionization_Penalty>
0.00552561

> <r_epik_Ionization_Penalty_Charging>
0

> <r_epik_Ionization_Penalty_Neutral>
0.00552561

> <r_epik_State_Penalty>
-0

> <r_epik_Charging_Adjusted_Penalty>
0

> <i_epik_Tot_Q>
0

> <i_epik_Tot_abs_Q>
0

> <r_epik_Metal_State_Penalty>
-0

> <b_epik_Metal_Only>
0

> <s_lp_Force_Field>
OPLS_2005

> <r_lp_Energy>
61.2745

> <b_lp_Chiralities_Consistent>
1

> <s_lp_Variant>
AV-unprocessed.smi:2520-5

> <Gold.Version>
5.8.1

> <Gold.Id.Protein>
6NUR|6NUR_protein|mol2

> <Gold.PLP.Fitness>
37.5686

> <Gold.PLP.PLP>
-31.5476

> <Gold.PLP.part.hbond>
-3.0000

> <Gold.PLP.part.metal>
0.0000

> <Gold.PLP.part.buried>
-3.4536

> <Gold.PLP.part.nonpolar>
-25.2663

> <Gold.PLP.part.repulsive>
0.3461

> <Gold.PLP.ligand.clash>
0.0000

> <Gold.PLP.ligand.torsion>
0.5877

> <Gold.PLP.Chemscore.Hbond>
2.3370

> <Gold.PLP.Chemscore.CHOScore>
0.0000

> <Gold.PLP.Chemscore.Metal>
0.0000

> <Gold.Chemscore.Hbonds>
donor molecule, donor type, donor heavy atom, donor atom, acceptor molecule, acceptor atom, score
      L1  H     3    22       P1  8029  1.00
      L1  H    10    26       P1  8028  1.00
      P1  H  6934  6946       L1     1  0.28

> <Gold.PLP.Chemscore.Internal.Correction>
0.1856

> <Gold.Rescore>
     Score         DG    S(hbond)    S(metal)    S(lipo)     H(rot)  DE(clash)    DE(int)     intcor
     14.75     -16.69       1.46        0.00      76.06       1.00       0.12       1.82       ----

> <Gold.Chemscore.Fitness>
14.7450

> <Gold.Chemscore.DG>
-16.6905

> <Gold.Chemscore.ZeroCoef>
-5.4800

> <Gold.Chemscore.Hbond>
1.4586

> <Gold.Chemscore.Metal>
0.0000

> <Gold.Chemscore.Lipo>
76.0585

> <Gold.Chemscore.Internal_Hbond>
0.0000

> <Gold.Chemscore.DEClash>
0.1239

> <Gold.Chemscore.DEInternal>
1.8216

> <Gold.Chemscore.Rot>
1.0000

> <Gold.Chemscore.Internal.Correction>
   9.000000E+99

> <Gold.Chemscore.Hbonds>
donor molecule, donor type, donor heavy atom, donor atom, acceptor molecule, acceptor atom, score
      L1  H     3    22       P1  8029  0.49
      L1  H    10    26       P1  8028  0.26
      P1  H  6934  6946       L1     1  0.26

> <Gold.Chemscore.Hbond.Weighted>
-4.8717

> <Gold.Chemscore.Metal.Weighted>
-0.0000

> <Gold.Chemscore.Lipo.Weighted>
-8.8988

> <Gold.Chemscore.Internal_Hbond.Weighted>
0.0000

> <Gold.Chemscore.DEClash.Weighted>
0.1239

> <Gold.Chemscore.DEInternal.Weighted>
1.8216

> <Gold.Chemscore.Rot.Weighted>
2.5600

> <Gold.Chemscore.Internal.Correction.Weighted>
   9.000000E+99

> <Gold.Protein.RotatedTorsions>
[ 6907 6896 6895 6894 ] final   -4.32 input  -60.11 | X-H torsion
[ 7974 7965 7964 7962 ] final   85.17 input  175.53 | X-H torsion
[ 8008 7997 7996 7995 ] final  167.33 input   59.86 | X-H torsion
[ 10167 10162 10161 10158 ] final   -7.62 input  -65.29 | X-H torsion
[ 10718 10713 10712 10709 ] final  -97.05 input   66.30 | X-H torsion
[ 10763 10752 10751 10750 ] final   -4.49 input  -60.55 | X-H torsion
[ 11005 11000 10999 10996 ] final -129.16 input  -57.11 | X-H torsion

> <Gold.Protein.ActiveResidues>
 VAL166  LYS551  ARG553  GLY616  TRP617  ASP618  TYR619  PRO620  LYS621  CYS622 
 ASP623  PHE694  ASN695  SER759  ASP760  ASP761  ALA762  ILE779  LEU786  VAL792 
 PHE793  MET794  SER795  GLU796  ALA797  LYS798  CYS799  TRP800  GLU811  SER814 

> <Gold.Protein.RotatedAtoms>
  151.4995  135.1061  159.9824 H   0  0  0  0  0  0  0  0  0  0  0  0  # atno 6907 bound_to 6896
  152.4707  133.8020  159.6968 H   0  0  0  0  0  0  0  0  0  0  0  0  # atno 6908 bound_to 6896
  150.8715  133.7436  159.2985 H   0  0  0  0  0  0  0  0  0  0  0  0  # atno 6909 bound_to 6896
  145.5890  139.2335  143.2310 H   0  0  0  0  0  0  0  0  0  0  0  0  # atno 7974 bound_to 7965
  156.1643  140.1619  156.8559 H   0  0  0  0  0  0  0  0  0  0  0  0  # atno 8008 bound_to 7997
  154.5191  140.0782  156.8173 H   0  0  0  0  0  0  0  0  0  0  0  0  # atno 8009 bound_to 7997
  155.3644  140.3397  155.4244 H   0  0  0  0  0  0  0  0  0  0  0  0  # atno 8010 bound_to 7997
  140.7034  143.6060  150.8750 H   0  0  0  0  0  0  0  0  0  0  0  0  # atno 10167 bound_to 10162
  156.0075  130.5178  150.6317 H   0  0  0  0  0  0  0  0  0  0  0  0  # atno 10718 bound_to 10713
  153.3855  135.7000  153.6533 H   0  0  0  0  0  0  0  0  0  0  0  0  # atno 10763 bound_to 10752
  153.5127  135.3628  155.2595 H   0  0  0  0  0  0  0  0  0  0  0  0  # atno 10764 bound_to 10752
  154.8697  135.4139  154.3162 H   0  0  0  0  0  0  0  0  0  0  0  0  # atno 10765 bound_to 10752
  140.9455  134.1136  157.4111 H   0  0  0  0  0  0  0  0  0  0  0  0  # atno 11005 bound_to 11000
  146.1660  140.6717  142.9255 LP  0  0  0  0  0  0  0  0  0  0  0  0  # atno 17320 bound_to 7965
  144.7359  140.4808  143.6904 LP  0  0  0  0  0  0  0  0  0  0  0  0  # atno 17321 bound_to 7965
  139.9784  143.5979  152.2951 LP  0  0  0  0  0  0  0  0  0  0  0  0  # atno 17342 bound_to 10162
  139.6591  144.7662  151.1998 LP  0  0  0  0  0  0  0  0  0  0  0  0  # atno 17343 bound_to 10162
  157.4114  131.0824  151.1217 LP  0  0  0  0  0  0  0  0  0  0  0  0  # atno 17370 bound_to 10713
  157.1847  130.6325  149.5684 LP  0  0  0  0  0  0  0  0  0  0  0  0  # atno 17371 bound_to 10713
  139.8832  135.0050  156.6284 LP  0  0  0  0  0  0  0  0  0  0  0  0  # atno 17394 bound_to 11000
  140.7675  133.8766  155.8466 LP  0  0  0  0  0  0  0  0  0  0  0  0  # atno 17395 bound_to 11000

$$$$
