#       Name:                AV-unprocessed.smi:284
#       Creating user name   scv26
#       Creation time:       Thu Mar 26 21:51:34 2020


#       File generated by GOLD software.
#

@<TRIPOS>MOLECULE
AV-unprocessed.smi:284
    72    74     1
SMALL
NO_CHARGES


@<TRIPOS>ATOM
      1 ****        -1.6501   4.9645   2.2091 C.3            1 S1                 0.0000
      2 ****        -0.8961   3.6619   2.4275 C.2            1 S1                 0.0000
      3 ****         0.4059   3.6364   2.7941 C.2            1 S1                 0.0000
      4 ****         1.1240   2.4719   3.0051 N.am           1 S1                 0.0000
      5 ****         2.6073   2.4952   3.3236 C.3            1 S1                 0.0000
      6 ****         3.0506   3.6729   4.2040 C.3            1 S1                 0.0000
      7 ****         3.7888   4.5570   3.2142 C.3            1 S1                 0.0000
      8 ****         4.8076   5.2920   3.8617 O.3            1 S1                 0.0000
      9 ****         4.3469   3.5353   2.2195 C.3            1 S1                 0.0000
     10 ****         4.6475   4.1284   0.8346 C.3            1 S1                 0.0000
     11 ****         5.5293   3.2847   0.1255 O.3            1 S1                 0.0000
     12 ****         3.2989   2.5761   2.1155 O.3            1 S1                 0.0000
     13 ****         0.5130   1.2297   2.7267 C.2            1 S1                 0.0000
     14 ****         1.1525   0.1776   2.7964 O.2            1 S1                 0.0000
     15 ****        -0.8537   1.2192   2.3667 N.am           1 S1                 0.0000
     16 ****        -1.5084  -0.0832   2.1083 C.3            1 S1                 0.0000
     17 ****        -1.3905  -0.5603   0.6517 C.2            1 S1                 0.0000
     18 ****        -0.9089   0.1749  -0.2112 O.2            1 S1                 0.0000
     19 ****        -1.8734  -1.7945   0.4191 N.am           1 S1                 0.0000
     20 ****        -1.8988  -2.5270  -0.7986 C.ar           1 S1                 0.0000
     21 ****        -0.9998  -2.3060  -1.8673 C.ar           1 S1                 0.0000
     22 ****        -1.0726  -3.0911  -3.0344 C.ar           1 S1                 0.0000
     23 ****        -2.0372  -4.1210  -3.1615 C.ar           1 S1                 0.0000
     24 ****        -2.1446  -5.0017  -4.4213 C.3            1 S1                 0.0000
     25 ****        -1.8872  -6.4751  -4.0439 C.3            1 S1                 0.0000
     26 ****        -1.1269  -4.6133  -5.5176 C.3            1 S1                 0.0000
     27 ****        -3.5571  -4.8710  -5.0290 C.3            1 S1                 0.0000
     28 ****        -2.9204  -4.3423  -2.0788 C.ar           1 S1                 0.0000
     29 ****        -2.8496  -3.5593  -0.9115 C.ar           1 S1                 0.0000
     30 ****        -1.6121   2.4042   2.2084 C.2            1 S1                 0.0000
     31 ****        -2.8011   2.3519   1.8878 O.2            1 S1                 0.0000
     32 ****        -1.0247   5.8353   2.4077 H              1 S1                 0.0000
     33 ****        -2.5159   5.0194   2.8699 H              1 S1                 0.0000
     34 ****        -2.0002   5.0337   1.1786 H              1 S1                 0.0000
     35 ****         0.9004   4.5865   2.9136 H              1 S1                 0.0000
     36 ****         2.8298   1.5540   3.8277 H              1 S1                 0.0000
     37 ****         2.2276   4.1577   4.7291 H              1 S1                 0.0000
     38 ****         3.7401   3.2819   4.9541 H              1 S1                 0.0000
     39 ****         3.0989   5.2387   2.7167 H              1 S1                 0.0000
     40 ****         5.2775   5.7933   3.2127 H              1 S1                 0.0000
     41 ****         5.2287   3.0529   2.6467 H              1 S1                 0.0000
     42 ****         3.7316   4.2889   0.2648 H              1 S1                 0.0000
     43 ****         5.1380   5.0965   0.9380 H              1 S1                 0.0000
     44 ****         5.6972   3.6685  -0.7216 H              1 S1                 0.0000
     45 ****        -1.0998  -0.8562   2.7614 H              1 S1                 0.0000
     46 ****        -2.5663  -0.0514   2.3737 H              1 S1                 0.0000
     47 ****        -2.3275  -2.2425   1.2015 H              1 S1                 0.0000
     48 ****        -0.2330  -1.5492  -1.8105 H              1 S1                 0.0000
     49 ****        -0.3634  -2.8803  -3.8193 H              1 S1                 0.0000
     50 ****        -1.9391  -7.1240  -4.9189 H              1 S1                 0.0000
     51 ****        -2.6174  -6.8487  -3.3259 H              1 S1                 0.0000
     52 ****        -0.8983  -6.6012  -3.6014 H              1 S1                 0.0000
     53 ****        -0.0983  -4.7202  -5.1707 H              1 S1                 0.0000
     54 ****        -1.2669  -3.5845  -5.8518 H              1 S1                 0.0000
     55 ****        -1.2317  -5.2502  -6.3967 H              1 S1                 0.0000
     56 ****        -3.6552  -5.4678  -5.9364 H              1 S1                 0.0000
     57 ****        -3.7788  -3.8363  -5.2928 H              1 S1                 0.0000
     58 ****        -4.3338  -5.2079  -4.3426 H              1 S1                 0.0000
     59 ****        -3.6648  -5.1224  -2.1321 H              1 S1                 0.0000
     60 ****        -3.5363  -3.7543  -0.1007 H              1 S1                 0.0000
     61 ****         5.4354   4.6641   4.3217 LP             1 S1                 0.0000
     62 ****         4.4012   5.9097   4.5350 LP             1 S1                 0.0000
     63 ****         5.1131   2.3828   0.0103 LP             1 S1                 0.0000
     64 ****         6.3876   3.1937   0.6304 LP             1 S1                 0.0000
     65 ****         2.6680   2.8517   1.3902 LP             1 S1                 0.0000
     66 ****         3.6887   1.6817   1.8962 LP             1 S1                 0.0000
     67 ****         2.1187   0.1959   3.0533 LP             1 S1                 0.0000
     68 ****         0.7048  -0.6938   2.5961 LP             1 S1                 0.0000
     69 ****        -0.5906   1.0909   0.0332 LP             1 S1                 0.0000
     70 ****        -0.8363  -0.1441  -1.1561 LP             1 S1                 0.0000
     71 ****        -3.3236   3.1958   1.7654 LP             1 S1                 0.0000
     72 ****        -3.2434   1.4657   1.7502 LP             1 S1                 0.0000
@<TRIPOS>BOND
    1    1    2 1     
    2    1   32 1     
    3    1   33 1     
    4    1   34 1     
    5    2   30 1     
    6    2    3 2     
    7    3    4 1     
    8    3   35 1     
    9    4    5 1     
   10    4   13 am    
   11    5   12 1     
   12    5    6 1     
   13    5   36 1     
   14    6    7 1     
   15    6   37 1     
   16    6   38 1     
   17    7    8 1     
   18    7    9 1     
   19    7   39 1     
   20    8   40 1     
   21    9   10 1     
   22    9   12 1     
   23    9   41 1     
   24   10   11 1     
   25   10   42 1     
   26   10   43 1     
   27   11   44 1     
   28   13   14 2     
   29   13   15 am    
   30   15   16 1     
   31   15   30 am    
   32   16   17 1     
   33   16   45 1     
   34   16   46 1     
   35   17   18 2     
   36   17   19 am    
   37   19   20 1     
   38   19   47 1     
   39   20   29 ar    
   40   20   21 ar    
   41   21   22 ar    
   42   21   48 1     
   43   22   23 ar    
   44   22   49 1     
   45   23   24 1     
   46   23   28 ar    
   47   24   25 1     
   48   24   26 1     
   49   24   27 1     
   50   25   50 1     
   51   25   51 1     
   52   25   52 1     
   53   26   53 1     
   54   26   54 1     
   55   26   55 1     
   56   27   56 1     
   57   27   57 1     
   58   27   58 1     
   59   28   29 ar    
   60   28   59 1     
   61   29   60 1     
   62   30   31 2     
   63    8   61 1     
   64    8   62 1     
   65   11   63 1     
   66   11   64 1     
   67   12   65 1     
   68   12   66 1     
   69   14   67 1     
   70   14   68 1     
   71   18   69 1     
   72   18   70 1     
   73   31   71 1     
   74   31   72 1     
@<TRIPOS>SUBSTRUCTURE
      1 S1             1
@<TRIPOS>SET
LONE_PAIRS      STATIC     ATOMS    <user>   **** ""
12 61 62 63 64 65 66 67 68 69 70 71 72
DONOR_HYDROGENS      STATIC     ATOMS    <user>   **** ""
3 40 44 47
ATOM$BLUE        STATIC     ATOMS    COLORGROUP SYSTEM
12 61 62 63 64 65 66 67 68 69 70 71 72
ATOM$RED        STATIC     ATOMS    COLORGROUP SYSTEM
3 40 44 47
