AV-unprocessed.smi:3156|AV-procd|sdf|12036|dock3
  -GOLD-   2272017453D 1   1.00000     0.00000
 Structure written by MMmdl.
 41 42  0  0  0  0  0  0  0  0  2 V2000
  148.9248  140.9966  156.8403 C   0  0  0  0  0  0  0  0  0  0  0  0
  150.1770  141.7163  156.3131 C   0  0  1  0  0  0  0  0  0  0  0  0
  150.4334  142.9009  157.1652 N   0  3  0  0  0  0  0  0  0  0  0  0
  151.7839  143.4860  157.0328 C   0  0  0  0  0  0  0  0  0  0  0  0
  152.3397  143.9295  158.3938 C   0  0  1  0  0  0  0  0  0  0  0  0
  151.3865  144.8924  159.1335 C   0  0  0  0  0  0  0  0  0  0  0  0
  151.9233  145.2187  160.5314 C   0  0  0  0  0  0  0  0  0  0  0  0
  152.2128  143.9189  161.2880 C   0  0  0  0  0  0  0  0  0  0  0  0
  153.1199  143.0053  160.4494 C   0  0  0  0  0  0  0  0  0  0  0  0
  152.5186  142.7557  159.1825 O   0  0  0  0  0  0  0  0  0  0  0  0
  151.4290  140.7973  156.2783 C   0  0  1  0  0  0  0  0  0  0  0  0
  151.9659  140.4431  157.6788 C   0  0  0  0  0  0  0  0  0  0  0  0
  151.1755  139.5761  155.5212 N   0  0  0  0  0  0  0  0  0  0  0  0
  151.5051  138.2787  155.8577 C   0  0  0  0  0  0  0  0  0  0  0  0
  151.0873  137.4730  154.8378 C   0  0  0  0  0  0  0  0  0  0  0  0
  150.5024  138.3779  153.9092 C   0  0  0  0  0  0  0  0  0  0  0  0
  150.5593  139.6344  154.3188 N   0  0  0  0  0  0  0  0  0  0  0  0
  148.6206  140.1824  156.1832 H   0  0  0  0  0  0  0  0  0  0  0  0
  148.0792  141.6822  156.9049 H   0  0  0  0  0  0  0  0  0  0  0  0
  149.0925  140.5811  157.8344 H   0  0  0  0  0  0  0  0  0  0  0  0
  149.9555  142.0480  155.2970 H   0  0  0  0  0  0  0  0  0  0  0  0
  149.7554  143.6144  156.9387 H   0  0  0  0  0  0  0  0  0  0  0  0
  152.4654  142.7691  156.5738 H   0  0  0  0  0  0  0  0  0  0  0  0
  151.7215  144.3412  156.3586 H   0  0  0  0  0  0  0  0  0  0  0  0
  153.3117  144.4040  158.2459 H   0  0  0  0  0  0  0  0  0  0  0  0
  151.2533  145.8137  158.5659 H   0  0  0  0  0  0  0  0  0  0  0  0
  150.3991  144.4368  159.2220 H   0  0  0  0  0  0  0  0  0  0  0  0
  152.8378  145.8074  160.4477 H   0  0  0  0  0  0  0  0  0  0  0  0
  151.2066  145.8283  161.0824 H   0  0  0  0  0  0  0  0  0  0  0  0
  152.6793  144.1362  162.2493 H   0  0  0  0  0  0  0  0  0  0  0  0
  151.2762  143.4031  161.5038 H   0  0  0  0  0  0  0  0  0  0  0  0
  154.1057  143.4528  160.3147 H   0  0  0  0  0  0  0  0  0  0  0  0
  153.2690  142.0546  160.9614 H   0  0  0  0  0  0  0  0  0  0  0  0
  152.2233  141.3312  155.7545 H   0  0  0  0  0  0  0  0  0  0  0  0
  152.3404  141.3225  158.2019 H   0  0  0  0  0  0  0  0  0  0  0  0
  152.7952  139.7381  157.6107 H   0  0  0  0  0  0  0  0  0  0  0  0
  151.1951  139.9874  158.3010 H   0  0  0  0  0  0  0  0  0  0  0  0
  152.0071  138.0381  156.7833 H   0  0  0  0  0  0  0  0  0  0  0  0
  151.1827  136.3996  154.7663 H   0  0  0  0  0  0  0  0  0  0  0  0
  150.0435  138.1614  152.9557 H   0  0  0  0  0  0  0  0  0  0  0  0
  150.2989  142.6256  158.1275 H   0  0  0  0  0  0  0  0  0  0  0  0
  1  2  1  0  0  0  0
  1 18  1  0  0  0  0
  1 19  1  0  0  0  0
  1 20  1  0  0  0  0
  2  3  1  0  0  0  0
  2 11  1  0  0  0  0
  2 21  1  0  0  0  0
  3  4  1  0  0  0  0
  3 22  1  0  0  0  0
  3 41  1  0  0  0  0
  4  5  1  0  0  0  0
  4 23  1  0  0  0  0
  4 24  1  0  0  0  0
  5 10  1  0  0  0  0
  5  6  1  0  0  0  0
  5 25  1  0  0  0  0
  6  7  1  0  0  0  0
  6 26  1  0  0  0  0
  6 27  1  0  0  0  0
  7  8  1  0  0  0  0
  7 28  1  0  0  0  0
  7 29  1  0  0  0  0
  8  9  1  0  0  0  0
  8 30  1  0  0  0  0
  8 31  1  0  0  0  0
  9 10  1  0  0  0  0
  9 32  1  0  0  0  0
  9 33  1  0  0  0  0
 11 12  1  0  0  0  0
 11 13  1  0  0  0  0
 11 34  1  0  0  0  0
 12 35  1  0  0  0  0
 12 36  1  0  0  0  0
 12 37  1  0  0  0  0
 13 17  1  0  0  0  0
 13 14  1  0  0  0  0
 14 15  2  0  0  0  0
 14 38  1  0  0  0  0
 15 16  1  0  0  0  0
 15 39  1  0  0  0  0
 16 17  2  0  0  0  0
 16 40  1  0  0  0  0
M  CHG  1   3   1
M  END
> <s_m_source_file>
AV-unprocessed.smi

> <i_m_source_file_index>
3156

> <i_lp_mmshare_version>
43012

> <i_f3d_flags>
0

> <s_epik_input>
bjFbY0hdW2NIXVtjSF1uMVtDQEBIXShbQ0gzXSlbQ0BIXShbQ0gzXSlbTkhdW0NIMl1bQ0BASF0yW0NIMl1bQ0gyXVtDSDJdW0NIMl1PMg==

> <s_epik_cmdline>
J2VwaWtfcHl0aG9uJywgJy1waCcsICc3LjAnLCAnLXRuJywgJzgnLCAnLW1hJywgJzIwMCcsICctbWV0YWxfYmluZGluZycsICctaW1hZScsICc8aW5maWxlLm1hZT4nLCAnLW9tYWUnLCAnPG91dGZpbGUubWFlPic=

> <r_lp_tautomer_probability>
1

> <r_epik_Ionization_Penalty>
0.00658015

> <r_epik_Ionization_Penalty_Charging>
0.00656881

> <r_epik_Ionization_Penalty_Neutral>
1.13431e-05

> <r_epik_State_Penalty>
0.0048654

> <r_epik_Charging_Adjusted_Penalty>
0.0114342

> <i_epik_Tot_Q>
1

> <i_epik_Tot_abs_Q>
1

> <r_epik_Metal_State_Penalty>
-0

> <b_epik_Metal_Only>
0

> <s_lp_Force_Field>
OPLS_2005

> <r_lp_Energy>
18.5215

> <b_lp_Chiralities_Consistent>
1

> <s_lp_Variant>
AV-unprocessed.smi:3156-8

> <Gold.Version>
5.8.1

> <Gold.Id.Protein>
6NUR|6NUR_protein|mol2

> <Gold.PLP.Fitness>
54.3072

> <Gold.PLP.PLP>
-41.0488

> <Gold.PLP.part.hbond>
-2.0000

> <Gold.PLP.part.metal>
0.0000

> <Gold.PLP.part.buried>
-6.3320

> <Gold.PLP.part.nonpolar>
-33.2783

> <Gold.PLP.part.repulsive>
0.1548

> <Gold.PLP.ligand.clash>
0.0000

> <Gold.PLP.ligand.torsion>
0.7407

> <Gold.PLP.Chemscore.Hbond>
3.0000

> <Gold.PLP.Chemscore.CHOScore>
1.8834

> <Gold.PLP.Chemscore.Metal>
0.0000

> <Gold.Chemscore.Hbonds>
donor molecule, donor type, donor heavy atom, donor atom, acceptor molecule, acceptor atom, score
      L1  H     3    22       P1  8028  2.00
      P1  H  7989  7998       L1    17  1.00
      L1  C    16    40       P1  7948  1.00
      L1  C    16    40       P1  7949  0.02
      L1  C    16    40       P1  7957  0.68

> <Gold.PLP.Chemscore.Internal.Correction>
0.0896

> <Gold.Rescore>
     Score         DG    S(hbond)    S(metal)    S(lipo)     H(rot)  DE(clash)    DE(int)     intcor
     18.88     -21.90       1.95        0.00     119.59       1.59       1.33       1.69       ----

> <Gold.Chemscore.Fitness>
18.8845

> <Gold.Chemscore.DG>
-21.9014

> <Gold.Chemscore.ZeroCoef>
-5.4800

> <Gold.Chemscore.Hbond>
1.9491

> <Gold.Chemscore.Metal>
0.0000

> <Gold.Chemscore.Lipo>
119.5864

> <Gold.Chemscore.Internal_Hbond>
0.0000

> <Gold.Chemscore.DEClash>
1.3261

> <Gold.Chemscore.DEInternal>
1.6908

> <Gold.Chemscore.Rot>
1.5938

> <Gold.Chemscore.Internal.Correction>
   9.000000E+99

> <Gold.Chemscore.Hbonds>
donor molecule, donor type, donor heavy atom, donor atom, acceptor molecule, acceptor atom, score
      L1  H     3    22       P1  8028  0.93
      P1  H  7989  7998       L1    17  0.25

> <Gold.Chemscore.Hbond.Weighted>
-6.5101

> <Gold.Chemscore.Metal.Weighted>
-0.0000

> <Gold.Chemscore.Lipo.Weighted>
-13.9916

> <Gold.Chemscore.Internal_Hbond.Weighted>
0.0000

> <Gold.Chemscore.DEClash.Weighted>
1.3261

> <Gold.Chemscore.DEInternal.Weighted>
1.6908

> <Gold.Chemscore.Rot.Weighted>
4.0802

> <Gold.Chemscore.Internal.Correction.Weighted>
   9.000000E+99

> <Gold.Protein.RotatedTorsions>
[ 6907 6896 6895 6894 ] final  164.15 input  -60.11 | X-H torsion
[ 7974 7965 7964 7962 ] final  160.42 input  175.53 | X-H torsion
[ 8008 7997 7996 7995 ] final   19.87 input   59.86 | X-H torsion
[ 10167 10162 10161 10158 ] final -102.66 input  -65.29 | X-H torsion
[ 10718 10713 10712 10709 ] final   30.91 input   66.30 | X-H torsion
[ 10763 10752 10751 10750 ] final  -12.13 input  -60.55 | X-H torsion
[ 11005 11000 10999 10996 ] final   44.91 input  -57.11 | X-H torsion

> <Gold.Protein.ActiveResidues>
 VAL166  LYS551  ARG553  GLY616  TRP617  ASP618  TYR619  PRO620  LYS621  CYS622 
 ASP623  PHE694  ASN695  SER759  ASP760  ASP761  ALA762  ILE779  LEU786  VAL792 
 PHE793  MET794  SER795  GLU796  ALA797  LYS798  CYS799  TRP800  GLU811  SER814 

> <Gold.Protein.RotatedAtoms>
  151.9143  133.3569  159.3874 H   0  0  0  0  0  0  0  0  0  0  0  0  # atno 6907 bound_to 6896
  150.7051  134.4700  159.5430 H   0  0  0  0  0  0  0  0  0  0  0  0  # atno 6908 bound_to 6896
  152.2312  134.8320  160.0524 H   0  0  0  0  0  0  0  0  0  0  0  0  # atno 6909 bound_to 6896
  144.7738  139.7755  143.6287 H   0  0  0  0  0  0  0  0  0  0  0  0  # atno 7974 bound_to 7965
  154.9272  140.3035  155.5186 H   0  0  0  0  0  0  0  0  0  0  0  0  # atno 8008 bound_to 7997
  156.3006  140.2360  156.4265 H   0  0  0  0  0  0  0  0  0  0  0  0  # atno 8009 bound_to 7997
  154.8273  140.0420  157.1441 H   0  0  0  0  0  0  0  0  0  0  0  0  # atno 8010 bound_to 7997
  140.2283  143.3625  152.0909 H   0  0  0  0  0  0  0  0  0  0  0  0  # atno 10167 bound_to 10162
  157.2657  130.7183  149.6477 H   0  0  0  0  0  0  0  0  0  0  0  0  # atno 10718 bound_to 10713
  153.4940  135.7017  153.5868 H   0  0  0  0  0  0  0  0  0  0  0  0  # atno 10763 bound_to 10752
  153.4029  135.3867  155.1999 H   0  0  0  0  0  0  0  0  0  0  0  0  # atno 10764 bound_to 10752
  154.8715  135.3886  154.4403 H   0  0  0  0  0  0  0  0  0  0  0  0  # atno 10765 bound_to 10752
  140.1508  134.4464  155.8383 H   0  0  0  0  0  0  0  0  0  0  0  0  # atno 11005 bound_to 11000
  146.1903  139.5140  142.9809 LP  0  0  0  0  0  0  0  0  0  0  0  0  # atno 17320 bound_to 7965
  145.6246  141.0316  143.1896 LP  0  0  0  0  0  0  0  0  0  0  0  0  # atno 17321 bound_to 7965
  139.5119  144.6908  151.5765 LP  0  0  0  0  0  0  0  0  0  0  0  0  # atno 17342 bound_to 10162
  140.6204  143.9269  150.6521 LP  0  0  0  0  0  0  0  0  0  0  0  0  # atno 17343 bound_to 10162
  155.9663  130.4383  150.5212 LP  0  0  0  0  0  0  0  0  0  0  0  0  # atno 17370 bound_to 10713
  157.3126  131.0667  151.1990 LP  0  0  0  0  0  0  0  0  0  0  0  0  # atno 17371 bound_to 10713
  141.2198  133.6871  156.7418 LP  0  0  0  0  0  0  0  0  0  0  0  0  # atno 17394 bound_to 11000
  140.2607  134.8469  157.3756 LP  0  0  0  0  0  0  0  0  0  0  0  0  # atno 17395 bound_to 11000

$$$$
