#       Name:                AV-unprocessed.smi:1381
#       Creating user name   scv26
#       Creation time:       Fri Mar 27 05:21:59 2020


#       File generated by GOLD software.
#

@<TRIPOS>MOLECULE
AV-unprocessed.smi:1381
    50    51     1
SMALL
NO_CHARGES


@<TRIPOS>ATOM
      1 ****        -3.2118   6.0727   3.4209 C.3            1 S1                 0.0000
      2 ****        -3.2047   5.2012   2.2123 C.2            1 S1                 0.0000
      3 ****        -2.2010   4.6191   1.4914 C.2            1 S1                 0.0000
      4 ****        -2.8987   3.9197   0.4691 C.2            1 S1                 0.0000
      5 ****        -2.3388   3.1936  -0.5108 N.pl3          1 S1                -1.0000
      6 ****        -2.0143   1.8973  -0.2976 C.2            1 S1                 0.0000
      7 ****        -2.1949   1.2602   0.7429 O.2            1 S1                 0.0000
      8 ****        -1.4390   1.3046  -1.3538 N.am           1 S1                 0.0000
      9 ****        -0.9694  -0.0751  -1.4092 C.3            1 S1                 0.0000
     10 ****         0.3978  -0.2277  -0.7160 C.3            1 S1                 0.0000
     11 ****         0.9196  -1.5928  -0.6725 N.3            1 S1                 0.0000
     12 ****         2.0801  -1.6779   0.2044 C.3            1 S1                 0.0000
     13 ****         2.6211  -3.1151   0.3050 C.3            1 S1                 0.0000
     14 ****         3.8871  -3.1953   1.1642 C.3            1 S1                 0.0000
     15 ****         2.9384  -3.5930  -1.0009 O.3            1 S1                 0.0000
     16 ****         1.8731  -3.5206  -1.9503 C.3            1 S1                 0.0000
     17 ****         0.8131  -4.6070  -1.7014 C.3            1 S1                 0.0000
     18 ****         1.2867  -2.0948  -1.9947 C.3            1 S1                 0.0000
     19 ****        -4.2092   4.0778   0.5521 N.2            1 S1                 0.0000
     20 ****        -4.4140   4.8934   1.6717 O.3            1 S1                 0.0000
     21 ****        -3.4938   7.0923   3.1587 H              1 S1                 0.0000
     22 ****        -2.2256   6.1026   3.8844 H              1 S1                 0.0000
     23 ****        -3.9217   5.7032   4.1611 H              1 S1                 0.0000
     24 ****        -1.1377   4.6803   1.6675 H              1 S1                 0.0000
     25 ****        -1.3125   1.8630  -2.1853 H              1 S1                 0.0000
     26 ****        -1.7061  -0.7411  -0.9570 H              1 S1                 0.0000
     27 ****        -0.9045  -0.3492  -2.4613 H              1 S1                 0.0000
     28 ****         1.1250   0.4305  -1.1941 H              1 S1                 0.0000
     29 ****         0.2949   0.1365   0.3070 H              1 S1                 0.0000
     30 ****         2.8668  -1.0147  -0.1592 H              1 S1                 0.0000
     31 ****         1.8137  -1.3260   1.2019 H              1 S1                 0.0000
     32 ****         1.8631  -3.7586   0.7525 H              1 S1                 0.0000
     33 ****         3.6937  -2.8504   2.1801 H              1 S1                 0.0000
     34 ****         4.6865  -2.5816   0.7483 H              1 S1                 0.0000
     35 ****         4.2519  -4.2208   1.2254 H              1 S1                 0.0000
     36 ****         2.3172  -3.7293  -2.9239 H              1 S1                 0.0000
     37 ****         0.0681  -4.6092  -2.4973 H              1 S1                 0.0000
     38 ****         0.2836  -4.4552  -0.7612 H              1 S1                 0.0000
     39 ****         1.2692  -5.5966  -1.6727 H              1 S1                 0.0000
     40 ****         0.4236  -2.0900  -2.6594 H              1 S1                 0.0000
     41 ****         2.0233  -1.4258  -2.4425 H              1 S1                 0.0000
     42 ****        -2.1608   3.6119  -1.4015 LP             1 S1                 0.0000
     43 ****        -2.6193   1.7027   1.5329 LP             1 S1                 0.0000
     44 ****        -1.9170   0.3011   0.7966 LP             1 S1                 0.0000
     45 ****         0.1793  -2.1626  -0.3158 LP             1 S1                 0.0000
     46 ****         3.2171  -4.5500  -0.9209 LP             1 S1                 0.0000
     47 ****         3.7026  -3.0515  -1.3514 LP             1 S1                 0.0000
     48 ****        -4.9057   3.6960  -0.0555 LP             1 S1                 0.0000
     49 ****        -4.8829   5.7324   1.3959 LP             1 S1                 0.0000
     50 ****        -4.9701   4.4069   2.3455 LP             1 S1                 0.0000
@<TRIPOS>BOND
    1    1    2 1     
    2    1   21 1     
    3    1   22 1     
    4    1   23 1     
    5    2   20 1     
    6    2    3 2     
    7    3    4 1     
    8    3   24 1     
    9    4    5 1     
   10    4   19 2     
   11    5    6 1     
   12    6    7 2     
   13    6    8 am    
   14    8    9 1     
   15    8   25 1     
   16    9   10 1     
   17    9   26 1     
   18    9   27 1     
   19   10   11 1     
   20   10   28 1     
   21   10   29 1     
   22   11   18 1     
   23   11   12 1     
   24   12   13 1     
   25   12   30 1     
   26   12   31 1     
   27   13   14 1     
   28   13   15 1     
   29   13   32 1     
   30   14   33 1     
   31   14   34 1     
   32   14   35 1     
   33   15   16 1     
   34   16   17 1     
   35   16   18 1     
   36   16   36 1     
   37   17   37 1     
   38   17   38 1     
   39   17   39 1     
   40   18   40 1     
   41   18   41 1     
   42   19   20 1     
   43    5   42 1     
   44    7   43 1     
   45    7   44 1     
   46   11   45 1     
   47   15   46 1     
   48   15   47 1     
   49   19   48 1     
   50   20   49 1     
   51   20   50 1     
@<TRIPOS>SUBSTRUCTURE
      1 S1             1
@<TRIPOS>SET
LONE_PAIRS      STATIC     ATOMS    <user>   **** ""
9 42 43 44 45 46 47 48 49 50
DONOR_HYDROGENS      STATIC     ATOMS    <user>   **** ""
1 25
ATOM$BLUE        STATIC     ATOMS    COLORGROUP SYSTEM
9 42 43 44 45 46 47 48 49 50
ATOM$RED        STATIC     ATOMS    COLORGROUP SYSTEM
1 25
