AV-unprocessed.smi:1377|AV-procd|sdf|5595|dock9
  -GOLD-   22720 5203D 1   1.00000     0.00000
 Structure written by MMmdl.
 28 29  0  0  0  0  0  0  0  0  2 V2000
  150.7653  144.4467  157.9386 N   0  0  0  0  0  0  0  0  0  0  0  0
  150.8149  144.7251  159.2438 C   0  0  0  0  0  0  0  0  0  0  0  0
  149.8413  145.1722  159.8486 O   0  0  0  0  0  0  0  0  0  0  0  0
  152.1539  144.4603  159.9458 C   0  0  0  0  0  0  0  0  0  0  0  0
  152.6198  143.0407  159.7756 C   0  0  0  0  0  0  0  0  0  0  0  0
  153.3654  142.3031  160.6595 C   0  0  0  0  0  0  0  0  0  0  0  0
  153.6747  140.6991  160.0601 S   0  0  0  0  0  0  0  0  0  0  0  0
  152.7441  141.0744  158.6084 C   0  0  0  0  0  0  0  0  0  0  0  0
  152.5298  140.2258  157.5909 N   0  5  0  0  0  0  0  0  0  0  0  0
  151.6169  140.5377  156.6405 C   0  0  0  0  0  0  0  0  0  0  0  0
  150.6916  141.3498  156.6990 O   0  0  0  0  0  0  0  0  0  0  0  0
  151.8585  139.7321  155.3542 C   0  0  0  0  0  0  0  0  0  0  0  0
  150.6332  138.9983  154.7753 C   0  0  0  0  0  0  0  0  0  0  0  0
  151.5356  137.7854  154.5269 C   0  0  0  0  0  0  0  0  0  0  0  0
  152.4971  138.3500  155.5768 C   0  0  0  0  0  0  0  0  0  0  0  0
  152.2781  142.3279  158.6225 N   0  0  0  0  0  0  0  0  0  0  0  0
  149.9100  144.6054  157.4262 H   0  0  0  0  0  0  0  0  0  0  0  0
  151.5814  144.0832  157.4688 H   0  0  0  0  0  0  0  0  0  0  0  0
  152.9030  145.1468  159.5497 H   0  0  0  0  0  0  0  0  0  0  0  0
  152.0420  144.7042  161.0030 H   0  0  0  0  0  0  0  0  0  0  0  0
  153.7562  142.6068  161.6189 H   0  0  0  0  0  0  0  0  0  0  0  0
  152.3833  140.3087  154.5899 H   0  0  0  0  0  0  0  0  0  0  0  0
  149.8465  138.7848  155.5008 H   0  0  0  0  0  0  0  0  0  0  0  0
  150.2280  139.4448  153.8672 H   0  0  0  0  0  0  0  0  0  0  0  0
  151.0906  136.8247  154.7867 H   0  0  0  0  0  0  0  0  0  0  0  0
  151.9641  137.7772  153.5236 H   0  0  0  0  0  0  0  0  0  0  0  0
  153.5491  138.2896  155.2979 H   0  0  0  0  0  0  0  0  0  0  0  0
  152.3233  137.9423  156.5746 H   0  0  0  0  0  0  0  0  0  0  0  0
  1  2  1  0  0  0  0
  1 17  1  0  0  0  0
  1 18  1  0  0  0  0
  2  3  2  0  0  0  0
  2  4  1  0  0  0  0
  4  5  1  0  0  0  0
  4 19  1  0  0  0  0
  4 20  1  0  0  0  0
  5 16  1  0  0  0  0
  5  6  2  0  0  0  0
  6  7  1  0  0  0  0
  6 21  1  0  0  0  0
  7  8  1  0  0  0  0
  8  9  1  0  0  0  0
  8 16  2  0  0  0  0
  9 10  1  0  0  0  0
 10 11  2  0  0  0  0
 10 12  1  0  0  0  0
 12 15  1  0  0  0  0
 12 13  1  0  0  0  0
 12 22  1  0  0  0  0
 13 14  1  0  0  0  0
 13 23  1  0  0  0  0
 13 24  1  0  0  0  0
 14 15  1  0  0  0  0
 14 25  1  0  0  0  0
 14 26  1  0  0  0  0
 15 27  1  0  0  0  0
 15 28  1  0  0  0  0
M  CHG  1   9  -1
M  END
> <s_m_source_file>
AV-unprocessed.smi

> <i_m_source_file_index>
1377

> <i_lp_mmshare_version>
43012

> <i_f3d_flags>
0

> <s_epik_input>
W05IMl1DKD1PKVtDSDJdYzFbY0hdc2MobjEpW05IXUMoPU8pW0NIXTJbQ0gyXVtDSDJdW0NIMl0y

> <s_epik_cmdline>
J2VwaWtfcHl0aG9uJywgJy1waCcsICc3LjAnLCAnLXRuJywgJzgnLCAnLW1hJywgJzIwMCcsICctbWV0YWxfYmluZGluZycsICctaW1hZScsICc8aW5maWxlLm1hZT4nLCAnLW9tYWUnLCAnPG91dGZpbGUubWFlPic=

> <r_lp_tautomer_probability>
1

> <r_epik_Ionization_Penalty>
5.13356

> <r_epik_Ionization_Penalty_Charging>
4.74096

> <r_epik_Ionization_Penalty_Neutral>
0.392596

> <r_epik_State_Penalty>
4.74076

> <r_epik_Charging_Adjusted_Penalty>
9.48173

> <i_epik_Tot_Q>
-1

> <i_epik_Tot_abs_Q>
1

> <r_epik_Metal_State_Penalty>
0.951691

> <b_epik_Metal_Only>
1

> <s_lp_Force_Field>
OPLS_2005

> <r_lp_Energy>
7.89776

> <b_lp_Chiralities_Consistent>
1

> <s_lp_Variant>
AV-unprocessed.smi:1377-2

> <Gold.Version>
5.8.1

> <Gold.Id.Protein>
6NUR|6NUR_protein|mol2

> <Gold.PLP.Fitness>
44.5376

> <Gold.PLP.PLP>
-37.0554

> <Gold.PLP.part.hbond>
-2.5672

> <Gold.PLP.part.metal>
0.0000

> <Gold.PLP.part.buried>
-4.3388

> <Gold.PLP.part.nonpolar>
-30.6623

> <Gold.PLP.part.repulsive>
0.3478

> <Gold.PLP.ligand.clash>
0.0000

> <Gold.PLP.ligand.torsion>
0.9589

> <Gold.PLP.Chemscore.Hbond>
3.0000

> <Gold.PLP.Chemscore.CHOScore>
0.0000

> <Gold.PLP.Chemscore.Metal>
0.0000

> <Gold.Chemscore.Hbonds>
donor molecule, donor type, donor heavy atom, donor atom, acceptor molecule, acceptor atom, score
      L1  H     1    17       P1  8028  0.85
      P1  H  7997  8008       L1     9  1.82

> <Gold.PLP.Chemscore.Internal.Correction>
0.4000

> <Gold.Rescore>
     Score         DG    S(hbond)    S(metal)    S(lipo)     H(rot)  DE(clash)    DE(int)     intcor
      8.18     -12.14       0.91        0.00      72.24       1.89       0.01       3.95       ----

> <Gold.Chemscore.Fitness>
8.1761

> <Gold.Chemscore.DG>
-12.1382

> <Gold.Chemscore.ZeroCoef>
-5.4800

> <Gold.Chemscore.Hbond>
0.9143

> <Gold.Chemscore.Metal>
0.0000

> <Gold.Chemscore.Lipo>
72.2373

> <Gold.Chemscore.Internal_Hbond>
0.0000

> <Gold.Chemscore.DEClash>
0.0102

> <Gold.Chemscore.DEInternal>
3.9519

> <Gold.Chemscore.Rot>
1.8935

> <Gold.Chemscore.Internal.Correction>
   9.000000E+99

> <Gold.Chemscore.Hbonds>
donor molecule, donor type, donor heavy atom, donor atom, acceptor molecule, acceptor atom, score
      L1  H     1    17       P1  8028  0.13
      P1  H  7997  8008       L1     9  0.20

> <Gold.Chemscore.Hbond.Weighted>
-3.0539

> <Gold.Chemscore.Metal.Weighted>
-0.0000

> <Gold.Chemscore.Lipo.Weighted>
-8.4518

> <Gold.Chemscore.Internal_Hbond.Weighted>
0.0000

> <Gold.Chemscore.DEClash.Weighted>
0.0102

> <Gold.Chemscore.DEInternal.Weighted>
3.9519

> <Gold.Chemscore.Rot.Weighted>
4.8475

> <Gold.Chemscore.Internal.Correction.Weighted>
   9.000000E+99

> <Gold.Protein.RotatedTorsions>
[ 6907 6896 6895 6894 ] final -100.46 input  -60.11 | X-H torsion
[ 7974 7965 7964 7962 ] final  152.31 input  175.53 | X-H torsion
[ 8008 7997 7996 7995 ] final  -67.62 input   59.86 | X-H torsion
[ 10167 10162 10161 10158 ] final  167.16 input  -65.29 | X-H torsion
[ 10718 10713 10712 10709 ] final  -63.89 input   66.30 | X-H torsion
[ 10763 10752 10751 10750 ] final   38.93 input  -60.55 | X-H torsion
[ 11005 11000 10999 10996 ] final   99.75 input  -57.11 | X-H torsion

> <Gold.Protein.ActiveResidues>
 VAL166  LYS551  ARG553  GLY616  TRP617  ASP618  TYR619  PRO620  LYS621  CYS622 
 ASP623  PHE694  ASN695  SER759  ASP760  ASP761  ALA762  ILE779  LEU786  VAL792 
 PHE793  MET794  SER795  GLU796  ALA797  LYS798  CYS799  TRP800  GLU811  SER814 

> <Gold.Protein.RotatedAtoms>
  150.7117  134.0883  159.3922 H   0  0  0  0  0  0  0  0  0  0  0  0  # atno 6907 bound_to 6896
  151.8868  135.0430  160.0503 H   0  0  0  0  0  0  0  0  0  0  0  0  # atno 6908 bound_to 6896
  152.2523  133.5190  159.5369 H   0  0  0  0  0  0  0  0  0  0  0  0  # atno 6909 bound_to 6896
  144.8231  139.6652  143.6092 H   0  0  0  0  0  0  0  0  0  0  0  0  # atno 7974 bound_to 7965
  154.4812  140.0889  156.7381 H   0  0  0  0  0  0  0  0  0  0  0  0  # atno 8008 bound_to 7997
  155.4466  140.3456  155.4277 H   0  0  0  0  0  0  0  0  0  0  0  0  # atno 8009 bound_to 7997
  156.1194  140.1470  156.9215 H   0  0  0  0  0  0  0  0  0  0  0  0  # atno 8010 bound_to 7997
  139.4939  144.3951  151.9473 H   0  0  0  0  0  0  0  0  0  0  0  0  # atno 10167 bound_to 10162
  156.0762  130.4226  150.1342 H   0  0  0  0  0  0  0  0  0  0  0  0  # atno 10718 bound_to 10713
  152.9984  135.6235  154.2383 H   0  0  0  0  0  0  0  0  0  0  0  0  # atno 10763 bound_to 10752
  154.2124  135.2799  155.2955 H   0  0  0  0  0  0  0  0  0  0  0  0  # atno 10764 bound_to 10752
  154.5595  135.5709  153.7053 H   0  0  0  0  0  0  0  0  0  0  0  0  # atno 10765 bound_to 10752
  139.8770  134.9109  156.4653 H   0  0  0  0  0  0  0  0  0  0  0  0  # atno 11005 bound_to 11000
  146.2536  139.6254  142.9410 LP  0  0  0  0  0  0  0  0  0  0  0  0  # atno 17320 bound_to 7965
  145.5061  141.0436  143.2514 LP  0  0  0  0  0  0  0  0  0  0  0  0  # atno 17321 bound_to 7965
  140.3390  144.3226  150.5971 LP  0  0  0  0  0  0  0  0  0  0  0  0  # atno 17342 bound_to 10162
  140.5582  143.2196  151.7811 LP  0  0  0  0  0  0  0  0  0  0  0  0  # atno 17343 bound_to 10162
  156.9383  130.9736  151.3521 LP  0  0  0  0  0  0  0  0  0  0  0  0  # atno 17370 bound_to 10713
  157.5859  130.8409  149.8589 LP  0  0  0  0  0  0  0  0  0  0  0  0  # atno 17371 bound_to 10713
  140.8835  133.7900  155.9492 LP  0  0  0  0  0  0  0  0  0  0  0  0  # atno 17394 bound_to 11000
  140.8829  134.2589  157.5135 LP  0  0  0  0  0  0  0  0  0  0  0  0  # atno 17395 bound_to 11000

$$$$
