AV-unprocessed.smi:146|AV-procd|sdf|1199|dock2
  -GOLD-   2262018353D 1   1.00000     0.00000
 Structure written by MMmdl.
 55 59  0  0  0  0  0  0  0  0  1 V2000
  148.8271  139.3213  156.6137 C   0  0  0  0  0  0  0  0  0  0  0  0
  147.7637  139.7891  155.6079 C   0  0  0  0  0  0  0  0  0  0  0  0
  148.4526  140.0924  154.2614 C   0  0  0  0  0  0  0  0  0  0  0  0
  146.6876  138.6972  155.4521 C   0  0  0  0  0  0  0  0  0  0  0  0
  145.5276  139.2190  154.7425 N   0  0  0  0  0  0  0  0  0  0  0  0
  144.7059  138.2796  154.2086 C   0  0  0  0  0  0  0  0  0  0  0  0
  143.4923  138.0376  154.7731 N   0  0  0  0  0  0  0  0  0  0  0  0
  142.6850  137.1018  154.2653 C   0  0  0  0  0  0  0  0  0  0  0  0
  142.8884  136.3053  153.2146 N   0  0  0  0  0  0  0  0  0  0  0  0
  144.0976  136.5513  152.6337 C   0  0  0  0  0  0  0  0  0  0  0  0
  145.0579  137.5113  153.0620 C   0  0  0  0  0  0  0  0  0  0  0  0
  146.1642  137.4778  152.2215 N   0  0  0  0  0  0  0  0  0  0  0  0
  145.8821  136.5405  151.3588 C   0  0  0  0  0  0  0  0  0  0  0  0
  144.6546  135.9382  151.5240 N   0  0  0  0  0  0  0  0  0  0  0  0
  144.0867  134.8644  150.7199 C   0  0  0  0  0  0  0  0  0  0  0  0
  144.8141  133.5032  150.8398 C   0  0  0  0  0  0  0  0  0  0  0  0
  144.1214  132.5081  149.8986 C   0  0  0  0  0  0  0  0  0  0  0  0
  142.7445  132.3922  150.1951 O   0  0  0  0  0  0  0  0  0  0  0  0
  146.3530  133.5053  150.8149 C   0  0  0  0  0  0  0  0  0  0  0  0
  146.4287  133.3933  152.2519 O   0  0  0  0  0  0  0  0  0  0  0  0
  145.0429  132.9921  152.2720 C   0  0  0  0  0  0  0  0  0  0  0  0
  144.9306  140.3576  155.4292 C   0  0  0  0  0  0  0  0  0  0  0  0
  145.9703  141.4827  155.6423 C   0  0  2  0  0  0  0  0  0  0  0  0
  145.4418  142.5174  156.6288 C   0  0  0  0  0  0  0  0  0  0  0  0
  144.6965  143.4967  155.7359 C   0  0  0  0  0  0  0  0  0  0  0  0
  145.5485  143.6066  154.6103 O   0  0  0  0  0  0  0  0  0  0  0  0
  146.1895  142.3538  154.3856 C   0  0  0  0  0  0  0  0  0  0  0  0
  147.1871  140.9641  156.1985 O   0  0  0  0  0  0  0  0  0  0  0  0
  149.3220  138.4104  156.2749 H   0  0  0  0  0  0  0  0  0  0  0  0
  148.3845  139.1132  157.5885 H   0  0  0  0  0  0  0  0  0  0  0  0
  149.5953  140.0816  156.7584 H   0  0  0  0  0  0  0  0  0  0  0  0
  149.0088  139.2247  153.9052 H   0  0  0  0  0  0  0  0  0  0  0  0
  149.1580  140.9184  154.3555 H   0  0  0  0  0  0  0  0  0  0  0  0
  147.7398  140.3462  153.4782 H   0  0  0  0  0  0  0  0  0  0  0  0
  147.1151  137.8263  154.9566 H   0  0  0  0  0  0  0  0  0  0  0  0
  146.3570  138.3575  156.4348 H   0  0  0  0  0  0  0  0  0  0  0  0
  141.7418  136.9717  154.7751 H   0  0  0  0  0  0  0  0  0  0  0  0
  146.5701  136.2625  150.5744 H   0  0  0  0  0  0  0  0  0  0  0  0
  143.0398  134.7563  151.0058 H   0  0  0  0  0  0  0  0  0  0  0  0
  144.0727  135.2078  149.6852 H   0  0  0  0  0  0  0  0  0  0  0  0
  144.2115  132.8262  148.8596 H   0  0  0  0  0  0  0  0  0  0  0  0
  144.5816  131.5214  149.9614 H   0  0  0  0  0  0  0  0  0  0  0  0
  142.2684  133.0077  149.6587 H   0  0  0  0  0  0  0  0  0  0  0  0
  146.7852  132.6330  150.3216 H   0  0  0  0  0  0  0  0  0  0  0  0
  146.8069  134.4193  150.4348 H   0  0  0  0  0  0  0  0  0  0  0  0
  144.4610  133.5043  153.0367 H   0  0  0  0  0  0  0  0  0  0  0  0
  144.9413  131.9108  152.3791 H   0  0  0  0  0  0  0  0  0  0  0  0
  144.0760  140.7382  154.8681 H   0  0  0  0  0  0  0  0  0  0  0  0
  144.5515  140.0127  156.3926 H   0  0  0  0  0  0  0  0  0  0  0  0
  144.8166  142.0956  157.4163 H   0  0  0  0  0  0  0  0  0  0  0  0
  146.2717  143.0374  157.1102 H   0  0  0  0  0  0  0  0  0  0  0  0
  143.7307  143.0929  155.4292 H   0  0  0  0  0  0  0  0  0  0  0  0
  144.5317  144.4633  156.2121 H   0  0  0  0  0  0  0  0  0  0  0  0
  147.2458  142.5586  154.2147 H   0  0  0  0  0  0  0  0  0  0  0  0
  145.7910  141.8825  153.4865 H   0  0  0  0  0  0  0  0  0  0  0  0
  1  2  1  0  0  0  0
  1 29  1  0  0  0  0
  1 30  1  0  0  0  0
  1 31  1  0  0  0  0
  2 28  1  0  0  0  0
  2  3  1  0  0  0  0
  2  4  1  0  0  0  0
  3 32  1  0  0  0  0
  3 33  1  0  0  0  0
  3 34  1  0  0  0  0
  4  5  1  0  0  0  0
  4 35  1  0  0  0  0
  4 36  1  0  0  0  0
  5  6  1  0  0  0  0
  5 22  1  0  0  0  0
  6 11  1  0  0  0  0
  6  7  2  0  0  0  0
  7  8  1  0  0  0  0
  8  9  2  0  0  0  0
  8 37  1  0  0  0  0
  9 10  1  0  0  0  0
 10 14  1  0  0  0  0
 10 11  2  0  0  0  0
 11 12  1  0  0  0  0
 12 13  2  0  0  0  0
 13 14  1  0  0  0  0
 13 38  1  0  0  0  0
 14 15  1  0  0  0  0
 15 16  1  0  0  0  0
 15 39  1  0  0  0  0
 15 40  1  0  0  0  0
 16 21  1  0  0  0  0
 16 17  1  0  0  0  0
 16 19  1  0  0  0  0
 17 18  1  0  0  0  0
 17 41  1  0  0  0  0
 17 42  1  0  0  0  0
 18 43  1  0  0  0  0
 19 20  1  0  0  0  0
 19 44  1  0  0  0  0
 19 45  1  0  0  0  0
 20 21  1  0  0  0  0
 21 46  1  0  0  0  0
 21 47  1  0  0  0  0
 22 23  1  0  0  0  0
 22 48  1  0  0  0  0
 22 49  1  0  0  0  0
 23 27  1  0  0  0  0
 23 24  1  0  0  0  0
 23 28  1  0  0  0  0
 24 25  1  0  0  0  0
 24 50  1  0  0  0  0
 24 51  1  0  0  0  0
 25 26  1  0  0  0  0
 25 52  1  0  0  0  0
 25 53  1  0  0  0  0
 26 27  1  0  0  0  0
 27 54  1  0  0  0  0
 27 55  1  0  0  0  0
M  END
> <s_m_source_file>
AV-unprocessed.smi

> <i_m_source_file_index>
146

> <i_lp_mmshare_version>
43012

> <i_f3d_flags>
0

> <s_epik_input>
W0NIMl0xT1tDSDJdW0NIMl1bQ0BAXTEyW0NIMl1OKFtDSDJdQyhPMikoW0NIM10pW0NIM10pYyhuW2NIXW4zKWMoYzM0KW5bY0hdbjRbQ0gyXUM1KFtDSDJdW09IXSlbQ0gyXU9bQ0gyXTU=

> <s_epik_cmdline>
J2VwaWtfcHl0aG9uJywgJy1waCcsICc3LjAnLCAnLXRuJywgJzgnLCAnLW1hJywgJzIwMCcsICctbWV0YWxfYmluZGluZycsICctaW1hZScsICc8aW5maWxlLm1hZT4nLCAnLW9tYWUnLCAnPG91dGZpbGUubWFlPic=

> <r_lp_tautomer_probability>
1

> <r_epik_Ionization_Penalty>
0.00353822

> <r_epik_Ionization_Penalty_Charging>
0

> <r_epik_Ionization_Penalty_Neutral>
0.00353822

> <r_epik_State_Penalty>
0.0023805

> <r_epik_Charging_Adjusted_Penalty>
0.0023805

> <i_epik_Tot_Q>
0

> <i_epik_Tot_abs_Q>
0

> <r_epik_Metal_State_Penalty>
-0

> <b_epik_Metal_Only>
0

> <s_lp_Force_Field>
OPLS_2005

> <r_lp_Energy>
56.8345

> <b_lp_Chiralities_Consistent>
1

> <s_lp_Variant>
AV-unprocessed.smi:146-1

> <Gold.Version>
5.8.1

> <Gold.Id.Protein>
6NUR|6NUR_protein|mol2

> <Gold.PLP.Fitness>
34.8474

> <Gold.PLP.PLP>
-31.5805

> <Gold.PLP.part.hbond>
-2.0000

> <Gold.PLP.part.metal>
0.0000

> <Gold.PLP.part.buried>
-5.8523

> <Gold.PLP.part.nonpolar>
-25.4976

> <Gold.PLP.part.repulsive>
1.5795

> <Gold.PLP.ligand.clash>
0.0000

> <Gold.PLP.ligand.torsion>
0.7503

> <Gold.PLP.Chemscore.Hbond>
1.0000

> <Gold.PLP.Chemscore.CHOScore>
0.3831

> <Gold.PLP.Chemscore.Metal>
0.0000

> <Gold.Chemscore.Hbonds>
donor molecule, donor type, donor heavy atom, donor atom, acceptor molecule, acceptor atom, score
      L1  H    18    43       P1 10186  0.98
      L1  C    13    38       P1  7948  0.33

> <Gold.PLP.Chemscore.Internal.Correction>
0.6181

> <Gold.Rescore>
     Score         DG    S(hbond)    S(metal)    S(lipo)     H(rot)  DE(clash)    DE(int)     intcor
      8.94      -9.77       1.00        0.00      61.53       2.44       0.23       0.60       ----

> <Gold.Chemscore.Fitness>
8.9404

> <Gold.Chemscore.DG>
-9.7714

> <Gold.Chemscore.ZeroCoef>
-5.4800

> <Gold.Chemscore.Hbond>
0.9979

> <Gold.Chemscore.Metal>
0.0000

> <Gold.Chemscore.Lipo>
61.5259

> <Gold.Chemscore.Internal_Hbond>
0.0000

> <Gold.Chemscore.DEClash>
0.2322

> <Gold.Chemscore.DEInternal>
0.5988

> <Gold.Chemscore.Rot>
2.4376

> <Gold.Chemscore.Internal.Correction>
   9.000000E+99

> <Gold.Chemscore.Hbonds>
donor molecule, donor type, donor heavy atom, donor atom, acceptor molecule, acceptor atom, score
      L1  H    18    43       P1 10186  0.93

> <Gold.Chemscore.Hbond.Weighted>
-3.3330

> <Gold.Chemscore.Metal.Weighted>
-0.0000

> <Gold.Chemscore.Lipo.Weighted>
-7.1985

> <Gold.Chemscore.Internal_Hbond.Weighted>
0.0000

> <Gold.Chemscore.DEClash.Weighted>
0.2322

> <Gold.Chemscore.DEInternal.Weighted>
0.5988

> <Gold.Chemscore.Rot.Weighted>
6.2402

> <Gold.Chemscore.Internal.Correction.Weighted>
   9.000000E+99

> <Gold.Protein.RotatedTorsions>
[ 6907 6896 6895 6894 ] final   43.60 input  -60.11 | X-H torsion
[ 7974 7965 7964 7962 ] final   82.36 input  175.53 | X-H torsion
[ 8008 7997 7996 7995 ] final -174.06 input   59.86 | X-H torsion
[ 10167 10162 10161 10158 ] final  117.75 input  -65.29 | X-H torsion
[ 10718 10713 10712 10709 ] final -116.77 input   66.30 | X-H torsion
[ 10763 10752 10751 10750 ] final  -82.79 input  -60.55 | X-H torsion
[ 11005 11000 10999 10996 ] final  128.28 input  -57.11 | X-H torsion

> <Gold.Protein.ActiveResidues>
 VAL166  LYS551  ARG553  GLY616  TRP617  ASP618  TYR619  PRO620  LYS621  CYS622 
 ASP623  PHE694  ASN695  SER759  ASP760  ASP761  ALA762  ILE779  LEU786  VAL792 
 PHE793  MET794  SER795  GLU796  ALA797  LYS798  CYS799  TRP800  GLU811  SER814 

> <Gold.Protein.RotatedAtoms>
  152.2223  134.8401  160.0484 H   0  0  0  0  0  0  0  0  0  0  0  0  # atno 6907 bound_to 6896
  151.9180  133.3573  159.3895 H   0  0  0  0  0  0  0  0  0  0  0  0  # atno 6908 bound_to 6896
  150.7003  134.4589  159.5415 H   0  0  0  0  0  0  0  0  0  0  0  0  # atno 6909 bound_to 6896
  145.6261  139.2395  143.2111 H   0  0  0  0  0  0  0  0  0  0  0  0  # atno 7974 bound_to 7965
  155.9653  140.1152  157.0860 H   0  0  0  0  0  0  0  0  0  0  0  0  # atno 8008 bound_to 7997
  154.4142  140.1174  156.5301 H   0  0  0  0  0  0  0  0  0  0  0  0  # atno 8009 bound_to 7997
  155.6667  140.3473  155.4805 H   0  0  0  0  0  0  0  0  0  0  0  0  # atno 8010 bound_to 7997
  139.6158  144.7091  151.2743 H   0  0  0  0  0  0  0  0  0  0  0  0  # atno 10167 bound_to 10162
  156.0987  130.6153  150.9078 H   0  0  0  0  0  0  0  0  0  0  0  0  # atno 10718 bound_to 10713
  154.5800  135.5579  153.7176 H   0  0  0  0  0  0  0  0  0  0  0  0  # atno 10763 bound_to 10752
  153.0078  135.6318  154.1995 H   0  0  0  0  0  0  0  0  0  0  0  0  # atno 10764 bound_to 10752
  154.1936  135.2881  155.2994 H   0  0  0  0  0  0  0  0  0  0  0  0  # atno 10765 bound_to 10752
  139.9552  134.9614  156.8978 H   0  0  0  0  0  0  0  0  0  0  0  0  # atno 11005 bound_to 11000
  146.1393  140.7079  142.9374 LP  0  0  0  0  0  0  0  0  0  0  0  0  # atno 17320 bound_to 7965
  144.7212  140.4378  143.7007 LP  0  0  0  0  0  0  0  0  0  0  0  0  # atno 17321 bound_to 7965
  140.7350  143.6750  150.8049 LP  0  0  0  0  0  0  0  0  0  0  0  0  # atno 17342 bound_to 10162
  140.0353  143.5402  152.2742 LP  0  0  0  0  0  0  0  0  0  0  0  0  # atno 17343 bound_to 10162
  157.6153  131.0933  150.8722 LP  0  0  0  0  0  0  0  0  0  0  0  0  # atno 17370 bound_to 10713
  156.8855  130.5194  149.5289 LP  0  0  0  0  0  0  0  0  0  0  0  0  # atno 17371 bound_to 10713
  140.5626  134.0520  155.7404 LP  0  0  0  0  0  0  0  0  0  0  0  0  # atno 17394 bound_to 11000
  141.1222  133.9442  157.2707 LP  0  0  0  0  0  0  0  0  0  0  0  0  # atno 17395 bound_to 11000

$$$$
