AV-unprocessed.smi:618|AV-procd|sdf|3081|dock9
  -GOLD-   22720 0 03D 1   1.00000     0.00000
 Structure written by MMmdl.
 41 43  0  0  0  0  0  0  0  0  2 V2000
  150.8189  135.0434  155.9447 O   0  0  0  0  0  0  0  0  0  0  0  0
  150.2688  135.3628  154.8911 C   0  0  0  0  0  0  0  0  0  0  0  0
  149.6096  134.4953  154.1100 N   0  0  0  0  0  0  0  0  0  0  0  0
  149.4500  133.0706  154.3850 C   0  0  0  0  0  0  0  0  0  0  0  0
  148.6502  132.3584  153.2795 C   0  0  1  0  0  0  0  0  0  0  0  0
  148.2030  130.9435  153.7193 C   0  0  0  0  0  0  0  0  0  0  0  0
  147.3544  130.3725  152.6572 N   0  3  1  0  0  0  0  0  0  0  0  0
  146.8202  129.0122  152.8422 C   0  0  0  0  0  0  0  0  0  0  0  0
  145.5667  128.9562  151.9456 C   0  0  0  0  0  0  0  0  0  0  0  0
  145.3611  130.3903  151.4235 C   0  0  0  0  0  0  0  0  0  0  0  0
  146.1988  131.2291  152.3830 C   0  0  2  0  0  0  0  0  0  0  0  0
  146.6955  132.6000  151.9079 C   0  0  0  0  0  0  0  0  0  0  0  0
  147.5001  133.1479  152.9530 O   0  0  0  0  0  0  0  0  0  0  0  0
  150.2237  136.6063  154.3833 N   0  0  0  0  0  0  0  0  0  0  0  0
  150.7993  137.7946  154.9087 C   0  0  0  0  0  0  0  0  0  0  0  0
  151.7430  137.8221  155.9641 C   0  0  0  0  0  0  0  0  0  0  0  0
  152.2549  139.0643  156.3856 C   0  0  0  0  0  0  0  0  0  0  0  0
  151.8122  140.2311  155.7331 C   0  0  0  0  0  0  0  0  0  0  0  0
  150.9246  140.2185  154.7163 N   0  0  0  0  0  0  0  0  0  0  0  0
  150.4388  139.0239  154.3169 C   0  0  0  0  0  0  0  0  0  0  0  0
  149.1893  134.8452  153.2613 H   0  0  0  0  0  0  0  0  0  0  0  0
  150.4492  132.6392  154.4493 H   0  0  0  0  0  0  0  0  0  0  0  0
  148.9850  132.9119  155.3598 H   0  0  0  0  0  0  0  0  0  0  0  0
  149.2779  132.2717  152.3904 H   0  0  0  0  0  0  0  0  0  0  0  0
  149.0674  130.2994  153.8842 H   0  0  0  0  0  0  0  0  0  0  0  0
  147.6456  130.9886  154.6564 H   0  0  0  0  0  0  0  0  0  0  0  0
  147.5622  128.2599  152.5730 H   0  0  0  0  0  0  0  0  0  0  0  0
  146.5423  128.8585  153.8860 H   0  0  0  0  0  0  0  0  0  0  0  0
  145.6928  128.2560  151.1189 H   0  0  0  0  0  0  0  0  0  0  0  0
  144.7040  128.6264  152.5262 H   0  0  0  0  0  0  0  0  0  0  0  0
  145.7515  130.4760  150.4084 H   0  0  0  0  0  0  0  0  0  0  0  0
  144.3124  130.6896  151.4081 H   0  0  0  0  0  0  0  0  0  0  0  0
  145.6323  131.3585  153.3081 H   0  0  0  0  0  0  0  0  0  0  0  0
  147.2720  132.5217  150.9848 H   0  0  0  0  0  0  0  0  0  0  0  0
  145.8552  133.2668  151.7141 H   0  0  0  0  0  0  0  0  0  0  0  0
  149.6615  136.7288  153.5539 H   0  0  0  0  0  0  0  0  0  0  0  0
  152.0927  136.9223  156.4456 H   0  0  0  0  0  0  0  0  0  0  0  0
  152.9751  139.1205  157.1882 H   0  0  0  0  0  0  0  0  0  0  0  0
  152.1857  141.1993  156.0321 H   0  0  0  0  0  0  0  0  0  0  0  0
  149.7330  139.0524  153.4995 H   0  0  0  0  0  0  0  0  0  0  0  0
  147.9032  130.3513  151.8094 H   0  0  0  0  0  0  0  0  0  0  0  0
  1  2  2  0  0  0  0
  2  3  1  0  0  0  0
  2 14  1  0  0  0  0
  3  4  1  0  0  0  0
  3 21  1  0  0  0  0
  4  5  1  0  0  0  0
  4 22  1  0  0  0  0
  4 23  1  0  0  0  0
  5 13  1  0  0  0  0
  5  6  1  0  0  0  0
  5 24  1  0  0  0  0
  6  7  1  0  0  0  0
  6 25  1  0  0  0  0
  6 26  1  0  0  0  0
  7 11  1  0  0  0  0
  7  8  1  0  0  0  0
  7 41  1  0  0  0  0
  8  9  1  0  0  0  0
  8 27  1  0  0  0  0
  8 28  1  0  0  0  0
  9 10  1  0  0  0  0
  9 29  1  0  0  0  0
  9 30  1  0  0  0  0
 10 11  1  0  0  0  0
 10 31  1  0  0  0  0
 10 32  1  0  0  0  0
 11 12  1  0  0  0  0
 11 33  1  0  0  0  0
 12 13  1  0  0  0  0
 12 34  1  0  0  0  0
 12 35  1  0  0  0  0
 14 15  1  0  0  0  0
 14 36  1  0  0  0  0
 15 20  1  0  0  0  0
 15 16  2  0  0  0  0
 16 17  1  0  0  0  0
 16 37  1  0  0  0  0
 17 18  2  0  0  0  0
 17 38  1  0  0  0  0
 18 19  1  0  0  0  0
 18 39  1  0  0  0  0
 19 20  2  0  0  0  0
 20 40  1  0  0  0  0
M  CHG  1   7   1
M  END
> <s_m_source_file>
AV-unprocessed.smi

> <i_m_source_file_index>
618

> <i_lp_mmshare_version>
43012

> <i_f3d_flags>
0

> <s_epik_input>
W2NIXTFuW2NIXVtjSF1bY0hdYzFbTkhdQyg9TylbTkhdW0NIMl1bQ0BIXShbQ0gyXTIpT1tDSDJdW0NAQEhdKE4yMylbQ0gyXVtDSDJdW0NIMl0z

> <s_epik_cmdline>
J2VwaWtfcHl0aG9uJywgJy1waCcsICc3LjAnLCAnLXRuJywgJzgnLCAnLW1hJywgJzIwMCcsICctbWV0YWxfYmluZGluZycsICctaW1hZScsICc8aW5maWxlLm1hZT4nLCAnLW9tYWUnLCAnPG91dGZpbGUubWFlPic=

> <r_epik_Ionization_Penalty>
0.111044

> <r_epik_Ionization_Penalty_Charging>
0.10673

> <r_epik_Ionization_Penalty_Neutral>
0.00431361

> <r_epik_State_Penalty>
0.0978747

> <r_epik_Charging_Adjusted_Penalty>
0.204605

> <i_epik_Tot_Q>
1

> <i_epik_Tot_abs_Q>
1

> <r_epik_Metal_State_Penalty>
0.0947591

> <b_epik_Metal_Only>
0

> <s_lp_Force_Field>
OPLS_2005

> <r_lp_Energy>
39.3215

> <b_lp_Chiralities_Consistent>
1

> <s_lp_Variant>
AV-unprocessed.smi:618-8

> <Gold.Version>
5.8.1

> <Gold.Id.Protein>
6NUR|6NUR_protein|mol2

> <Gold.PLP.Fitness>
52.3481

> <Gold.PLP.PLP>
-38.6438

> <Gold.PLP.part.hbond>
-4.7852

> <Gold.PLP.part.metal>
0.0000

> <Gold.PLP.part.buried>
-4.0929

> <Gold.PLP.part.nonpolar>
-29.9244

> <Gold.PLP.part.repulsive>
0.3635

> <Gold.PLP.ligand.clash>
0.0000

> <Gold.PLP.ligand.torsion>
0.1233

> <Gold.PLP.Chemscore.Hbond>
3.6500

> <Gold.PLP.Chemscore.CHOScore>
1.0000

> <Gold.PLP.Chemscore.Metal>
0.0000

> <Gold.Chemscore.Hbonds>
donor molecule, donor type, donor heavy atom, donor atom, acceptor molecule, acceptor atom, score
      L1  H     3    21       P1  7948  0.65
      L1  H     7    41       P1 10747  1.00
      L1  H    14    36       P1  7948  1.00
      P1  H  7989  7998       L1    19  1.00
      L1  C    20    40       P1  7957  0.99

> <Gold.PLP.Chemscore.Internal.Correction>
0.0010

> <Gold.Rescore>
     Score         DG    S(hbond)    S(metal)    S(lipo)     H(rot)  DE(clash)    DE(int)     intcor
     20.15     -21.55       2.57        0.00      91.70       1.27       0.01       1.39       ----

> <Gold.Chemscore.Fitness>
20.1500

> <Gold.Chemscore.DG>
-21.5503

> <Gold.Chemscore.ZeroCoef>
-5.4800

> <Gold.Chemscore.Hbond>
2.5691

> <Gold.Chemscore.Metal>
0.0000

> <Gold.Chemscore.Lipo>
91.7037

> <Gold.Chemscore.Internal_Hbond>
0.0000

> <Gold.Chemscore.DEClash>
0.0126

> <Gold.Chemscore.DEInternal>
1.3877

> <Gold.Chemscore.Rot>
1.2656

> <Gold.Chemscore.Internal.Correction>
   9.000000E+99

> <Gold.Chemscore.Hbonds>
donor molecule, donor type, donor heavy atom, donor atom, acceptor molecule, acceptor atom, score
      L1  H     3    21       P1  7948  0.05
      L1  H     7    41       P1 10747  0.99
      L1  H    14    36       P1  7948  0.59
      P1  H  7989  7998       L1    19  0.38

> <Gold.Chemscore.Hbond.Weighted>
-8.5808

> <Gold.Chemscore.Metal.Weighted>
-0.0000

> <Gold.Chemscore.Lipo.Weighted>
-10.7293

> <Gold.Chemscore.Internal_Hbond.Weighted>
0.0000

> <Gold.Chemscore.DEClash.Weighted>
0.0126

> <Gold.Chemscore.DEInternal.Weighted>
1.3877

> <Gold.Chemscore.Rot.Weighted>
3.2399

> <Gold.Chemscore.Internal.Correction.Weighted>
   9.000000E+99

> <Gold.Protein.RotatedTorsions>
[ 6907 6896 6895 6894 ] final  161.19 input  -60.11 | X-H torsion
[ 7974 7965 7964 7962 ] final   53.50 input  175.53 | X-H torsion
[ 8008 7997 7996 7995 ] final  -35.71 input   59.86 | X-H torsion
[ 10167 10162 10161 10158 ] final -178.03 input  -65.29 | X-H torsion
[ 10718 10713 10712 10709 ] final  -48.30 input   66.30 | X-H torsion
[ 10763 10752 10751 10750 ] final -130.53 input  -60.55 | X-H torsion
[ 11005 11000 10999 10996 ] final  -49.30 input  -57.11 | X-H torsion

> <Gold.Protein.ActiveResidues>
 VAL166  LYS551  ARG553  GLY616  TRP617  ASP618  TYR619  PRO620  LYS621  CYS622 
 ASP623  PHE694  ASN695  SER759  ASP760  ASP761  ALA762  ILE779  LEU786  VAL792 
 PHE793  MET794  SER795  GLU796  ALA797  LYS798  CYS799  TRP800  GLU811  SER814 

> <Gold.Protein.RotatedAtoms>
  151.9593  133.3690  159.4028 H   0  0  0  0  0  0  0  0  0  0  0  0  # atno 6907 bound_to 6896
  150.6967  134.4258  159.5235 H   0  0  0  0  0  0  0  0  0  0  0  0  # atno 6908 bound_to 6896
  152.1944  134.8644  160.0565 H   0  0  0  0  0  0  0  0  0  0  0  0  # atno 6909 bound_to 6896
  145.9705  139.4144  143.0193 H   0  0  0  0  0  0  0  0  0  0  0  0  # atno 7974 bound_to 7965
  154.4089  140.1650  156.2256 H   0  0  0  0  0  0  0  0  0  0  0  0  # atno 8008 bound_to 7997
  155.9326  140.3413  155.6239 H   0  0  0  0  0  0  0  0  0  0  0  0  # atno 8009 bound_to 7997
  155.7087  140.0754  157.2371 H   0  0  0  0  0  0  0  0  0  0  0  0  # atno 8010 bound_to 7997
  139.5452  144.2256  152.0973 H   0  0  0  0  0  0  0  0  0  0  0  0  # atno 10167 bound_to 10162
  156.2001  130.4156  149.9253 H   0  0  0  0  0  0  0  0  0  0  0  0  # atno 10718 bound_to 10713
  154.8755  135.3859  154.4099 H   0  0  0  0  0  0  0  0  0  0  0  0  # atno 10763 bound_to 10752
  153.4814  135.7030  153.5941 H   0  0  0  0  0  0  0  0  0  0  0  0  # atno 10764 bound_to 10752
  153.4355  135.3868  155.2164 H   0  0  0  0  0  0  0  0  0  0  0  0  # atno 10765 bound_to 10752
  141.0751  133.6668  156.3565 H   0  0  0  0  0  0  0  0  0  0  0  0  # atno 11005 bound_to 11000
  145.7913  140.9813  143.1047 LP  0  0  0  0  0  0  0  0  0  0  0  0  # atno 17320 bound_to 7965
  144.6836  139.9686  143.7481 LP  0  0  0  0  0  0  0  0  0  0  0  0  # atno 17321 bound_to 7965
  140.1741  144.4907  150.6563 LP  0  0  0  0  0  0  0  0  0  0  0  0  # atno 17342 bound_to 10162
  140.6697  143.2281  151.5656 LP  0  0  0  0  0  0  0  0  0  0  0  0  # atno 17343 bound_to 10162
  156.6965  130.8916  151.3594 LP  0  0  0  0  0  0  0  0  0  0  0  0  # atno 17370 bound_to 10713
  157.6980  130.9303  150.0702 LP  0  0  0  0  0  0  0  0  0  0  0  0  # atno 17371 bound_to 10713
  140.5591  134.5952  157.5429 LP  0  0  0  0  0  0  0  0  0  0  0  0  # atno 17394 bound_to 11000
  139.9563  134.7529  156.0334 LP  0  0  0  0  0  0  0  0  0  0  0  0  # atno 17395 bound_to 11000

$$$$
