AV-unprocessed.smi:2078|AV-procd|sdf|8466|dock5
  -GOLD-   2272011163D 1   1.00000     0.00000
 Structure written by MMmdl.
 42 43  0  0  0  0  0  0  0  0  2 V2000
  153.4354  131.9679  165.2323 C   0  0  0  0  0  0  0  0  0  0  0  0
  154.0731  132.8114  164.1822 C   0  0  0  0  0  0  0  0  0  0  0  0
  154.2920  134.1562  164.0760 C   0  0  0  0  0  0  0  0  0  0  0  0
  154.9428  134.2759  162.8193 C   0  0  0  0  0  0  0  0  0  0  0  0
  155.3477  135.5427  162.3270 N   0  0  0  0  0  0  0  0  0  0  0  0
  154.8474  136.7462  162.6550 C   0  0  0  0  0  0  0  0  0  0  0  0
  153.9338  136.9422  163.4571 O   0  0  0  0  0  0  0  0  0  0  0  0
  155.4695  137.7322  161.9922 N   0  0  0  0  0  0  0  0  0  0  0  0
  155.1708  139.1522  162.1382 C   0  0  0  0  0  0  0  0  0  0  0  0
  154.7757  139.7907  160.7922 C   0  0  0  0  0  0  0  0  0  0  0  0
  153.7263  140.8300  160.9441 N   0  3  2  0  0  0  0  0  0  0  0  0
  153.4435  141.5318  159.6651 C   0  0  0  0  0  0  0  0  0  0  0  0
  152.2613  142.5028  159.8133 C   0  0  0  0  0  0  0  0  0  0  0  0
  152.5124  143.5077  160.9446 C   0  0  0  0  0  0  0  0  0  0  0  0
  152.8307  142.7673  162.2543 C   0  0  2  0  0  0  0  0  0  0  0  0
  153.1134  143.7499  163.3994 C   0  0  0  0  0  0  0  0  0  0  0  0
  154.0066  141.7922  162.0438 C   0  0  0  0  0  0  0  0  0  0  0  0
  155.1075  133.1101  162.2135 N   0  0  0  0  0  0  0  0  0  0  0  0
  154.5499  132.1657  163.0833 O   0  0  0  0  0  0  0  0  0  0  0  0
  153.4104  132.4908  166.1886 H   0  0  0  0  0  0  0  0  0  0  0  0
  153.9861  131.0372  165.3713 H   0  0  0  0  0  0  0  0  0  0  0  0
  152.4108  131.7178  164.9560 H   0  0  0  0  0  0  0  0  0  0  0  0
  154.0268  134.9265  164.7849 H   0  0  0  0  0  0  0  0  0  0  0  0
  156.1004  135.5300  161.6548 H   0  0  0  0  0  0  0  0  0  0  0  0
  156.2100  137.4836  161.3522 H   0  0  0  0  0  0  0  0  0  0  0  0
  154.3778  139.2912  162.8750 H   0  0  0  0  0  0  0  0  0  0  0  0
  156.0616  139.6260  162.5483 H   0  0  0  0  0  0  0  0  0  0  0  0
  155.6476  140.2143  160.2915 H   0  0  0  0  0  0  0  0  0  0  0  0
  154.3990  139.0036  160.1374 H   0  0  0  0  0  0  0  0  0  0  0  0
  154.3352  142.0691  159.3381 H   0  0  0  0  0  0  0  0  0  0  0  0
  153.2086  140.8034  158.8879 H   0  0  0  0  0  0  0  0  0  0  0  0
  152.0949  143.0333  158.8753 H   0  0  0  0  0  0  0  0  0  0  0  0
  151.3484  141.9413  160.0169 H   0  0  0  0  0  0  0  0  0  0  0  0
  153.3421  144.1632  160.6752 H   0  0  0  0  0  0  0  0  0  0  0  0
  151.6383  144.1473  161.0731 H   0  0  0  0  0  0  0  0  0  0  0  0
  151.9535  142.1814  162.5337 H   0  0  0  0  0  0  0  0  0  0  0  0
  153.9810  144.3738  163.1821 H   0  0  0  0  0  0  0  0  0  0  0  0
  153.3095  143.2211  164.3326 H   0  0  0  0  0  0  0  0  0  0  0  0
  152.2626  144.4106  163.5686 H   0  0  0  0  0  0  0  0  0  0  0  0
  154.1880  141.2550  162.9740 H   0  0  0  0  0  0  0  0  0  0  0  0
  154.9199  142.3456  161.8178 H   0  0  0  0  0  0  0  0  0  0  0  0
  152.8762  140.3416  161.1877 H   0  0  0  0  0  0  0  0  0  0  0  0
  1  2  1  0  0  0  0
  1 20  1  0  0  0  0
  1 21  1  0  0  0  0
  1 22  1  0  0  0  0
  2 19  1  0  0  0  0
  2  3  2  0  0  0  0
  3  4  1  0  0  0  0
  3 23  1  0  0  0  0
  4  5  1  0  0  0  0
  4 18  2  0  0  0  0
  5  6  1  0  0  0  0
  5 24  1  0  0  0  0
  6  7  2  0  0  0  0
  6  8  1  0  0  0  0
  8  9  1  0  0  0  0
  8 25  1  0  0  0  0
  9 10  1  0  0  0  0
  9 26  1  0  0  0  0
  9 27  1  0  0  0  0
 10 11  1  0  0  0  0
 10 28  1  0  0  0  0
 10 29  1  0  0  0  0
 11 17  1  0  0  0  0
 11 12  1  0  0  0  0
 11 42  1  0  0  0  0
 12 13  1  0  0  0  0
 12 30  1  0  0  0  0
 12 31  1  0  0  0  0
 13 14  1  0  0  0  0
 13 32  1  0  0  0  0
 13 33  1  0  0  0  0
 14 15  1  0  0  0  0
 14 34  1  0  0  0  0
 14 35  1  0  0  0  0
 15 16  1  0  0  0  0
 15 17  1  0  0  0  0
 15 36  1  0  0  0  0
 16 37  1  0  0  0  0
 16 38  1  0  0  0  0
 16 39  1  0  0  0  0
 17 40  1  0  0  0  0
 17 41  1  0  0  0  0
 18 19  1  0  0  0  0
M  CHG  1  11   1
M  END
> <s_m_source_file>
AV-unprocessed.smi

> <i_m_source_file_index>
2078

> <i_lp_mmshare_version>
43012

> <i_f3d_flags>
0

> <s_epik_input>
W0NIM11jMVtjSF1jKG5vMSlbTkhdQyg9TylbTkhdW0NIMl1bQ0gyXU4yW0NIMl1bQ0gyXVtDSDJdW0NAQEhdKFtDSDNdKVtDSDJdMg==

> <s_epik_cmdline>
J2VwaWtfcHl0aG9uJywgJy1waCcsICc3LjAnLCAnLXRuJywgJzgnLCAnLW1hJywgJzIwMCcsICctbWV0YWxfYmluZGluZycsICctaW1hZScsICc8aW5maWxlLm1hZT4nLCAnLW9tYWUnLCAnPG91dGZpbGUubWFlPic=

> <r_epik_Ionization_Penalty>
0.00216453

> <r_epik_Ionization_Penalty_Charging>
0.00212879

> <r_epik_Ionization_Penalty_Neutral>
3.57418e-05

> <r_epik_State_Penalty>
0.00146033

> <r_epik_Charging_Adjusted_Penalty>
0.00358912

> <i_epik_Tot_Q>
1

> <i_epik_Tot_abs_Q>
1

> <r_epik_Metal_State_Penalty>
0.0215827

> <b_epik_Metal_Only>
0

> <s_lp_Force_Field>
OPLS_2005

> <r_lp_Energy>
12.7075

> <b_lp_Chiralities_Consistent>
1

> <s_lp_Variant>
AV-unprocessed.smi:2078-4

> <Gold.Version>
5.8.1

> <Gold.Id.Protein>
6NUR|6NUR_protein|mol2

> <Gold.PLP.Fitness>
37.3487

> <Gold.PLP.PLP>
-38.1635

> <Gold.PLP.part.hbond>
0.0000

> <Gold.PLP.part.metal>
0.0000

> <Gold.PLP.part.buried>
-3.2941

> <Gold.PLP.part.nonpolar>
-33.6779

> <Gold.PLP.part.repulsive>
0.0854

> <Gold.PLP.ligand.clash>
0.0000

> <Gold.PLP.ligand.torsion>
0.4156

> <Gold.PLP.Chemscore.Hbond>
0.0000

> <Gold.PLP.Chemscore.CHOScore>
0.0000

> <Gold.PLP.Chemscore.Metal>
0.0000

> <Gold.PLP.Chemscore.Internal.Correction>
0.0164

> <Gold.Rescore>
     Score         DG    S(hbond)    S(metal)    S(lipo)     H(rot)  DE(clash)    DE(int)     intcor
     11.88     -14.18       0.00        0.00     108.67       1.57       0.60       1.70       ----

> <Gold.Chemscore.Fitness>
11.8801

> <Gold.Chemscore.DG>
-14.1756

> <Gold.Chemscore.ZeroCoef>
-5.4800

> <Gold.Chemscore.Hbond>
0.0000

> <Gold.Chemscore.Metal>
0.0000

> <Gold.Chemscore.Lipo>
108.6673

> <Gold.Chemscore.Internal_Hbond>
0.0000

> <Gold.Chemscore.DEClash>
0.5970

> <Gold.Chemscore.DEInternal>
1.6985

> <Gold.Chemscore.Rot>
1.5697

> <Gold.Chemscore.Internal.Correction>
   9.000000E+99

> <Gold.Chemscore.Hbond.Weighted>
-0.0000

> <Gold.Chemscore.Metal.Weighted>
-0.0000

> <Gold.Chemscore.Lipo.Weighted>
-12.7141

> <Gold.Chemscore.Internal_Hbond.Weighted>
0.0000

> <Gold.Chemscore.DEClash.Weighted>
0.5970

> <Gold.Chemscore.DEInternal.Weighted>
1.6985

> <Gold.Chemscore.Rot.Weighted>
4.0185

> <Gold.Chemscore.Internal.Correction.Weighted>
   9.000000E+99

> <Gold.Protein.RotatedTorsions>
[ 6907 6896 6895 6894 ] final -156.09 input  -60.11 | X-H torsion
[ 7974 7965 7964 7962 ] final -146.09 input  175.53 | X-H torsion
[ 8008 7997 7996 7995 ] final    0.44 input   59.86 | X-H torsion
[ 10167 10162 10161 10158 ] final -156.06 input  -65.29 | X-H torsion
[ 10718 10713 10712 10709 ] final   11.22 input   66.30 | X-H torsion
[ 10763 10752 10751 10750 ] final  -53.79 input  -60.55 | X-H torsion
[ 11005 11000 10999 10996 ] final  155.49 input  -57.11 | X-H torsion

> <Gold.Protein.ActiveResidues>
 VAL166  LYS551  ARG553  GLY616  TRP617  ASP618  TYR619  PRO620  LYS621  CYS622 
 ASP623  PHE694  ASN695  SER759  ASP760  ASP761  ALA762  ILE779  LEU786  VAL792 
 PHE793  MET794  SER795  GLU796  ALA797  LYS798  CYS799  TRP800  GLU811  SER814 

> <Gold.Protein.RotatedAtoms>
  151.2823  133.4204  159.2627 H   0  0  0  0  0  0  0  0  0  0  0  0  # atno 6907 bound_to 6896
  151.0349  134.9566  159.8141 H   0  0  0  0  0  0  0  0  0  0  0  0  # atno 6908 bound_to 6896
  152.5353  134.2783  159.9050 H   0  0  0  0  0  0  0  0  0  0  0  0  # atno 6909 bound_to 6896
  144.8183  140.5500  143.5596 H   0  0  0  0  0  0  0  0  0  0  0  0  # atno 7974 bound_to 7965
  154.6681  140.2605  155.7036 H   0  0  0  0  0  0  0  0  0  0  0  0  # atno 8008 bound_to 7997
  156.2647  140.2835  156.1101 H   0  0  0  0  0  0  0  0  0  0  0  0  # atno 8009 bound_to 7997
  155.1209  140.0377  157.2740 H   0  0  0  0  0  0  0  0  0  0  0  0  # atno 8010 bound_to 7997
  139.6880  143.9468  152.2371 H   0  0  0  0  0  0  0  0  0  0  0  0  # atno 10167 bound_to 10162
  156.9924  130.6047  149.5687 H   0  0  0  0  0  0  0  0  0  0  0  0  # atno 10718 bound_to 10713
  154.1644  135.6469  153.4994 H   0  0  0  0  0  0  0  0  0  0  0  0  # atno 10763 bound_to 10752
  153.0101  135.5368  154.6677 H   0  0  0  0  0  0  0  0  0  0  0  0  # atno 10764 bound_to 10752
  154.6000  135.2942  155.0518 H   0  0  0  0  0  0  0  0  0  0  0  0  # atno 10765 bound_to 10752
  140.1586  134.8625  157.2546 H   0  0  0  0  0  0  0  0  0  0  0  0  # atno 11005 bound_to 11000
  145.5164  139.1478  143.3576 LP  0  0  0  0  0  0  0  0  0  0  0  0  # atno 17320 bound_to 7965
  146.2487  140.5305  142.8903 LP  0  0  0  0  0  0  0  0  0  0  0  0  # atno 17321 bound_to 7965
  139.9276  144.6761  150.8396 LP  0  0  0  0  0  0  0  0  0  0  0  0  # atno 17342 bound_to 10162
  140.7674  143.3331  151.2368 LP  0  0  0  0  0  0  0  0  0  0  0  0  # atno 17343 bound_to 10162
  156.0202  130.5297  150.8253 LP  0  0  0  0  0  0  0  0  0  0  0  0  # atno 17370 bound_to 10713
  157.5449  131.0942  150.9776 LP  0  0  0  0  0  0  0  0  0  0  0  0  # atno 17371 bound_to 10713
  140.2517  134.3675  155.7440 LP  0  0  0  0  0  0  0  0  0  0  0  0  # atno 17394 bound_to 11000
  141.2207  133.7320  156.8945 LP  0  0  0  0  0  0  0  0  0  0  0  0  # atno 17395 bound_to 11000

$$$$
