#       Name:                AV-unprocessed.smi:822
#       Creating user name   scv26
#       Creation time:       Fri Mar 27 01:29:00 2020


#       File generated by GOLD software.
#

@<TRIPOS>MOLECULE
AV-unprocessed.smi:822
    41    42     1
SMALL
NO_CHARGES


@<TRIPOS>ATOM
      1 ****         0.7369   1.3205   0.0927 O.2            1 S1                 0.0000
      2 ****         0.1334   0.3386   0.5254 C.2            1 S1                 0.0000
      3 ****        -1.3842   0.3948   0.7318 C.3            1 S1                 0.0000
      4 ****        -2.1637   0.9040  -0.5018 C.3            1 S1                 0.0000
      5 ****        -3.6524   1.1133  -0.1547 C.3            1 S1                 0.0000
      6 ****        -4.4550   1.6263  -1.3612 C.3            1 S1                 0.0000
      7 ****        -4.3135   0.6823  -2.5643 C.3            1 S1                 0.0000
      8 ****        -2.8363   0.4712  -2.9274 C.3            1 S1                 0.0000
      9 ****        -2.0315  -0.0387  -1.7209 C.3            1 S1                 0.0000
     10 ****         0.7378  -0.8163   0.8436 N.am           1 S1                 0.0000
     11 ****         2.1675  -1.0737   0.7216 C.3            1 S1                 0.0000
     12 ****         2.9452  -0.5106   1.9218 C.3            1 S1                 0.0000
     13 ****         4.3632  -0.7855   1.8111 N.pl3          1 S1                 0.0000
     14 ****         5.0314  -1.9250   2.2391 C.2            1 S1                 0.0000
     15 ****         6.3588  -1.7440   1.9225 C.2            1 S1                 0.0000
     16 ****         6.5287  -0.5087   1.3017 N.2            1 S1                 0.0000
     17 ****         5.3039   0.0011   1.2706 C.2            1 S1                 0.0000
     18 ****        -1.7566  -0.5885   1.0231 H              1 S1                 0.0000
     19 ****        -1.5707   1.0542   1.5803 H              1 S1                 0.0000
     20 ****        -1.7575   1.8768  -0.7845 H              1 S1                 0.0000
     21 ****        -4.0845   0.1745   0.1946 H              1 S1                 0.0000
     22 ****        -3.7476   1.8204   0.6701 H              1 S1                 0.0000
     23 ****        -5.5065   1.7280  -1.0910 H              1 S1                 0.0000
     24 ****        -4.1080   2.6235  -1.6351 H              1 S1                 0.0000
     25 ****        -4.7744  -0.2786  -2.3318 H              1 S1                 0.0000
     26 ****        -4.8541   1.0862  -3.4208 H              1 S1                 0.0000
     27 ****        -2.7545  -0.2358  -3.7536 H              1 S1                 0.0000
     28 ****        -2.4085   1.4101  -3.2810 H              1 S1                 0.0000
     29 ****        -0.9866  -0.1435  -2.0137 H              1 S1                 0.0000
     30 ****        -2.3771  -1.0377  -1.4517 H              1 S1                 0.0000
     31 ****         0.1655  -1.5724   1.1909 H              1 S1                 0.0000
     32 ****         2.3118  -2.1527   0.6580 H              1 S1                 0.0000
     33 ****         2.5464  -0.6551  -0.2126 H              1 S1                 0.0000
     34 ****         2.8066   0.5687   2.0011 H              1 S1                 0.0000
     35 ****         2.5801  -0.9471   2.8524 H              1 S1                 0.0000
     36 ****         4.5215  -2.7473   2.7192 H              1 S1                 0.0000
     37 ****         7.1980  -2.4028   2.0916 H              1 S1                 0.0000
     38 ****         5.0862   0.9689   0.8427 H              1 S1                 0.0000
     39 ****         0.2369   2.1586  -0.1254 LP             1 S1                 0.0000
     40 ****         1.7272   1.2800  -0.0406 LP             1 S1                 0.0000
     41 ****         7.3755  -0.1013   0.9595 LP             1 S1                 0.0000
@<TRIPOS>BOND
    1    1    2 2     
    2    2    3 1     
    3    2   10 am    
    4    3    4 1     
    5    3   18 1     
    6    3   19 1     
    7    4    9 1     
    8    4    5 1     
    9    4   20 1     
   10    5    6 1     
   11    5   21 1     
   12    5   22 1     
   13    6    7 1     
   14    6   23 1     
   15    6   24 1     
   16    7    8 1     
   17    7   25 1     
   18    7   26 1     
   19    8    9 1     
   20    8   27 1     
   21    8   28 1     
   22    9   29 1     
   23    9   30 1     
   24   10   11 1     
   25   10   31 1     
   26   11   12 1     
   27   11   32 1     
   28   11   33 1     
   29   12   13 1     
   30   12   34 1     
   31   12   35 1     
   32   13   17 1     
   33   13   14 1     
   34   14   15 2     
   35   14   36 1     
   36   15   16 1     
   37   15   37 1     
   38   16   17 2     
   39   17   38 1     
   40    1   39 1     
   41    1   40 1     
   42   16   41 1     
@<TRIPOS>SUBSTRUCTURE
      1 S1             1
@<TRIPOS>SET
LONE_PAIRS      STATIC     ATOMS    <user>   **** ""
3 39 40 41
DONOR_HYDROGENS      STATIC     ATOMS    <user>   **** ""
1 31
ATOM$BLUE        STATIC     ATOMS    COLORGROUP SYSTEM
3 39 40 41
ATOM$RED        STATIC     ATOMS    COLORGROUP SYSTEM
1 31
