AV-unprocessed.smi:2896|AV-procd|sdf|11139|dock3
  -GOLD-   2272016 13D 1   1.00000     0.00000
 Structure written by MMmdl.
 49 50  0  0  0  0  0  0  0  0  1 V2000
  149.4108  133.8073  154.1795 C   0  0  0  0  0  0  0  0  0  0  0  0
  149.5736  135.2999  154.5301 C   0  0  1  0  0  0  0  0  0  0  0  0
  148.2651  135.9722  155.0064 C   0  0  0  0  0  0  0  0  0  0  0  0
  147.2863  136.1094  153.9335 N   0  0  0  0  0  0  0  0  0  0  0  0
  146.1198  135.4469  153.8544 C   0  0  0  0  0  0  0  0  0  0  0  0
  145.7807  134.6188  154.7017 O   0  0  0  0  0  0  0  0  0  0  0  0
  145.2081  135.7413  152.6354 C   0  0  0  0  0  0  0  0  0  0  0  0
  143.7989  136.1537  153.1375 C   0  0  0  0  0  0  0  0  0  0  0  0
  145.7394  136.9496  151.8203 C   0  0  0  0  0  0  0  0  0  0  0  0
  145.1760  134.4686  151.7643 C   0  0  0  0  0  0  0  0  0  0  0  0
  143.9743  133.7774  151.4699 C   0  0  0  0  0  0  0  0  0  0  0  0
  144.0180  132.6166  150.6746 C   0  0  0  0  0  0  0  0  0  0  0  0
  145.2657  132.1755  150.1978 C   0  0  0  0  0  0  0  0  0  0  0  0
  146.4233  132.8106  150.4686 N   0  0  0  0  0  0  0  0  0  0  0  0
  146.3708  133.9229  151.2314 C   0  0  0  0  0  0  0  0  0  0  0  0
  150.7792  135.5843  155.4602 C   0  0  0  0  0  0  0  0  0  0  0  0
  151.0839  136.9843  155.7734 N   0  0  0  0  0  0  0  0  0  0  0  0
  151.2485  137.7595  154.5473 C   0  0  0  0  0  0  0  0  0  0  0  0
  151.5604  139.2381  154.8330 C   0  0  0  0  0  0  0  0  0  0  0  0
  152.7307  139.3272  155.6376 O   0  0  0  0  0  0  0  0  0  0  0  0
  152.5987  138.6274  156.8698 C   0  0  0  0  0  0  0  0  0  0  0  0
  152.2785  137.1465  156.5984 C   0  0  0  0  0  0  0  0  0  0  0  0
  149.0208  133.2214  155.0091 H   0  0  0  0  0  0  0  0  0  0  0  0
  150.3630  133.3688  153.8807 H   0  0  0  0  0  0  0  0  0  0  0  0
  148.7235  133.6743  153.3437 H   0  0  0  0  0  0  0  0  0  0  0  0
  149.8398  135.7752  153.5850 H   0  0  0  0  0  0  0  0  0  0  0  0
  147.8012  135.3823  155.7966 H   0  0  0  0  0  0  0  0  0  0  0  0
  148.4774  136.9505  155.4410 H   0  0  0  0  0  0  0  0  0  0  0  0
  147.5061  136.7666  153.1991 H   0  0  0  0  0  0  0  0  0  0  0  0
  143.3382  135.4007  153.7780 H   0  0  0  0  0  0  0  0  0  0  0  0
  143.1193  136.3341  152.3038 H   0  0  0  0  0  0  0  0  0  0  0  0
  143.8414  137.0749  153.7201 H   0  0  0  0  0  0  0  0  0  0  0  0
  146.7462  136.8041  151.4299 H   0  0  0  0  0  0  0  0  0  0  0  0
  145.7645  137.8560  152.4271 H   0  0  0  0  0  0  0  0  0  0  0  0
  145.0954  137.1529  150.9640 H   0  0  0  0  0  0  0  0  0  0  0  0
  143.0162  134.1098  151.8369 H   0  0  0  0  0  0  0  0  0  0  0  0
  143.1142  132.0753  150.4372 H   0  0  0  0  0  0  0  0  0  0  0  0
  145.3358  131.2886  149.5856 H   0  0  0  0  0  0  0  0  0  0  0  0
  147.3278  134.3818  151.4270 H   0  0  0  0  0  0  0  0  0  0  0  0
  150.6816  135.0088  156.3819 H   0  0  0  0  0  0  0  0  0  0  0  0
  151.6517  135.1646  154.9569 H   0  0  0  0  0  0  0  0  0  0  0  0
  152.0526  137.3330  153.9453 H   0  0  0  0  0  0  0  0  0  0  0  0
  150.3419  137.6961  153.9445 H   0  0  0  0  0  0  0  0  0  0  0  0
  151.7263  139.7783  153.9008 H   0  0  0  0  0  0  0  0  0  0  0  0
  150.7225  139.7203  155.3390 H   0  0  0  0  0  0  0  0  0  0  0  0
  153.5281  138.7173  157.4321 H   0  0  0  0  0  0  0  0  0  0  0  0
  151.8141  139.0865  157.4731 H   0  0  0  0  0  0  0  0  0  0  0  0
  152.1415  136.6555  157.5584 H   0  0  0  0  0  0  0  0  0  0  0  0
  153.1328  136.6710  156.1144 H   0  0  0  0  0  0  0  0  0  0  0  0
  1  2  1  0  0  0  0
  1 23  1  0  0  0  0
  1 24  1  0  0  0  0
  1 25  1  0  0  0  0
  2  3  1  0  0  0  0
  2 16  1  0  0  0  0
  2 26  1  0  0  0  0
  3  4  1  0  0  0  0
  3 27  1  0  0  0  0
  3 28  1  0  0  0  0
  4  5  1  0  0  0  0
  4 29  1  0  0  0  0
  5  6  2  0  0  0  0
  5  7  1  0  0  0  0
  7  8  1  0  0  0  0
  7  9  1  0  0  0  0
  7 10  1  0  0  0  0
  8 30  1  0  0  0  0
  8 31  1  0  0  0  0
  8 32  1  0  0  0  0
  9 33  1  0  0  0  0
  9 34  1  0  0  0  0
  9 35  1  0  0  0  0
 10 15  1  0  0  0  0
 10 11  2  0  0  0  0
 11 12  1  0  0  0  0
 11 36  1  0  0  0  0
 12 13  2  0  0  0  0
 12 37  1  0  0  0  0
 13 14  1  0  0  0  0
 13 38  1  0  0  0  0
 14 15  2  0  0  0  0
 15 39  1  0  0  0  0
 16 17  1  0  0  0  0
 16 40  1  0  0  0  0
 16 41  1  0  0  0  0
 17 22  1  0  0  0  0
 17 18  1  0  0  0  0
 18 19  1  0  0  0  0
 18 42  1  0  0  0  0
 18 43  1  0  0  0  0
 19 20  1  0  0  0  0
 19 44  1  0  0  0  0
 19 45  1  0  0  0  0
 20 21  1  0  0  0  0
 21 22  1  0  0  0  0
 21 46  1  0  0  0  0
 21 47  1  0  0  0  0
 22 48  1  0  0  0  0
 22 49  1  0  0  0  0
M  END
> <s_m_source_file>
AV-unprocessed.smi

> <i_m_source_file_index>
2896

> <i_lp_mmshare_version>
43012

> <i_f3d_flags>
0

> <s_epik_input>
W0NIMl0xW0NIMl1PW0NIMl1bQ0gyXU4xW0NIMl1bQ0BIXShbQ0gzXSlbQ0gyXVtOSF1DKD1PKUMoW0NIM10pKFtDSDNdKWMyW2NIXVtjSF1bY0hdbltjSF0y

> <s_epik_cmdline>
J2VwaWtfcHl0aG9uJywgJy1waCcsICc3LjAnLCAnLXRuJywgJzgnLCAnLW1hJywgJzIwMCcsICctbWV0YWxfYmluZGluZycsICctaW1hZScsICc8aW5maWxlLm1hZT4nLCAnLW9tYWUnLCAnPG91dGZpbGUubWFlPic=

> <r_epik_Ionization_Penalty>
0.458454

> <r_epik_Ionization_Penalty_Charging>
0

> <r_epik_Ionization_Penalty_Neutral>
0.458454

> <r_epik_State_Penalty>
0.453234

> <r_epik_Charging_Adjusted_Penalty>
0.453234

> <i_epik_Tot_Q>
0

> <i_epik_Tot_abs_Q>
0

> <r_epik_Metal_State_Penalty>
0.448418

> <b_epik_Metal_Only>
0

> <s_lp_Force_Field>
OPLS_2005

> <r_lp_Energy>
37.0423

> <b_lp_Chiralities_Consistent>
1

> <s_lp_Variant>
AV-unprocessed.smi:2896-4

> <Gold.Version>
5.8.1

> <Gold.Id.Protein>
6NUR|6NUR_protein|mol2

> <Gold.PLP.Fitness>
41.0976

> <Gold.PLP.PLP>
-33.9282

> <Gold.PLP.part.hbond>
-2.0000

> <Gold.PLP.part.metal>
0.0000

> <Gold.PLP.part.buried>
-3.3062

> <Gold.PLP.part.nonpolar>
-28.9819

> <Gold.PLP.part.repulsive>
0.2934

> <Gold.PLP.ligand.clash>
0.0000

> <Gold.PLP.ligand.torsion>
0.3340

> <Gold.PLP.Chemscore.Hbond>
1.4960

> <Gold.PLP.Chemscore.CHOScore>
0.9853

> <Gold.PLP.Chemscore.Metal>
0.0000

> <Gold.Chemscore.Hbonds>
donor molecule, donor type, donor heavy atom, donor atom, acceptor molecule, acceptor atom, score
      L1  H     4    29       P1  7948  0.34
      P1  H  7997  8009       L1    20  0.85
      L1  C    15    39       P1  7948  0.99

> <Gold.PLP.Chemscore.Internal.Correction>
0.3935

> <Gold.Rescore>
     Score         DG    S(hbond)    S(metal)    S(lipo)     H(rot)  DE(clash)    DE(int)     intcor
     15.70     -16.52       1.52        0.00      87.83       1.68       0.27       0.55       ----

> <Gold.Chemscore.Fitness>
15.6994

> <Gold.Chemscore.DG>
-16.5176

> <Gold.Chemscore.ZeroCoef>
-5.4800

> <Gold.Chemscore.Hbond>
1.5180

> <Gold.Chemscore.Metal>
0.0000

> <Gold.Chemscore.Lipo>
87.8324

> <Gold.Chemscore.Internal_Hbond>
0.0000

> <Gold.Chemscore.DEClash>
0.2673

> <Gold.Chemscore.DEInternal>
0.5509

> <Gold.Chemscore.Rot>
1.6832

> <Gold.Chemscore.Internal.Correction>
   9.000000E+99

> <Gold.Chemscore.Hbonds>
donor molecule, donor type, donor heavy atom, donor atom, acceptor molecule, acceptor atom, score
      L1  H     4    29       P1  7948  0.33
      P1  H  7997  8009       L1    20  0.15

> <Gold.Chemscore.Hbond.Weighted>
-5.0702

> <Gold.Chemscore.Metal.Weighted>
-0.0000

> <Gold.Chemscore.Lipo.Weighted>
-10.2764

> <Gold.Chemscore.Internal_Hbond.Weighted>
0.0000

> <Gold.Chemscore.DEClash.Weighted>
0.2673

> <Gold.Chemscore.DEInternal.Weighted>
0.5509

> <Gold.Chemscore.Rot.Weighted>
4.3090

> <Gold.Chemscore.Internal.Correction.Weighted>
   9.000000E+99

> <Gold.Protein.RotatedTorsions>
[ 6907 6896 6895 6894 ] final   64.13 input  -60.11 | X-H torsion
[ 7974 7965 7964 7962 ] final  102.85 input  175.53 | X-H torsion
[ 8008 7997 7996 7995 ] final -143.85 input   59.86 | X-H torsion
[ 10167 10162 10161 10158 ] final   16.74 input  -65.29 | X-H torsion
[ 10718 10713 10712 10709 ] final   25.14 input   66.30 | X-H torsion
[ 10763 10752 10751 10750 ] final  -25.66 input  -60.55 | X-H torsion
[ 11005 11000 10999 10996 ] final  -22.61 input  -57.11 | X-H torsion

> <Gold.Protein.ActiveResidues>
 VAL166  LYS551  ARG553  GLY616  TRP617  ASP618  TYR619  PRO620  LYS621  CYS622 
 ASP623  PHE694  ASN695  SER759  ASP760  ASP761  ALA762  ILE779  LEU786  VAL792 
 PHE793  MET794  SER795  GLU796  ALA797  LYS798  CYS799  TRP800  GLU811  SER814 

> <Gold.Protein.RotatedAtoms>
  152.4308  134.5781  159.9940 H   0  0  0  0  0  0  0  0  0  0  0  0  # atno 6907 bound_to 6896
  151.5905  133.3361  159.3035 H   0  0  0  0  0  0  0  0  0  0  0  0  # atno 6908 bound_to 6896
  150.8201  134.7439  159.6829 H   0  0  0  0  0  0  0  0  0  0  0  0  # atno 6909 bound_to 6896
  145.3536  139.2433  143.3545 H   0  0  0  0  0  0  0  0  0  0  0  0  # atno 7974 bound_to 7965
  155.5174  140.0588  157.2913 H   0  0  0  0  0  0  0  0  0  0  0  0  # atno 8008 bound_to 7997
  154.4530  140.1958  156.0410 H   0  0  0  0  0  0  0  0  0  0  0  0  # atno 8009 bound_to 7997
  156.0742  140.3256  155.7617 H   0  0  0  0  0  0  0  0  0  0  0  0  # atno 8010 bound_to 7997
  140.5776  143.9043  150.6763 H   0  0  0  0  0  0  0  0  0  0  0  0  # atno 10167 bound_to 10162
  157.1893  130.6838  149.6143 H   0  0  0  0  0  0  0  0  0  0  0  0  # atno 10718 bound_to 10713
  153.7034  135.6955  153.5057 H   0  0  0  0  0  0  0  0  0  0  0  0  # atno 10763 bound_to 10752
  153.2325  135.4333  155.0610 H   0  0  0  0  0  0  0  0  0  0  0  0  # atno 10764 bound_to 10752
  154.8337  135.3488  154.6573 H   0  0  0  0  0  0  0  0  0  0  0  0  # atno 10765 bound_to 10752
  140.8673  133.7745  156.0145 H   0  0  0  0  0  0  0  0  0  0  0  0  # atno 11005 bound_to 11000
  146.2957  140.4157  142.8722 LP  0  0  0  0  0  0  0  0  0  0  0  0  # atno 17320 bound_to 7965
  144.8699  140.7258  143.6053 LP  0  0  0  0  0  0  0  0  0  0  0  0  # atno 17321 bound_to 7965
  140.2534  143.3576  152.1386 LP  0  0  0  0  0  0  0  0  0  0  0  0  # atno 17342 bound_to 10162
  139.5151  144.6958  151.5634 LP  0  0  0  0  0  0  0  0  0  0  0  0  # atno 17343 bound_to 10162
  155.9714  130.4620  150.6130 LP  0  0  0  0  0  0  0  0  0  0  0  0  # atno 17370 bound_to 10713
  157.3876  131.0791  151.1422 LP  0  0  0  0  0  0  0  0  0  0  0  0  # atno 17371 bound_to 10713
  140.8614  134.2836  157.5233 LP  0  0  0  0  0  0  0  0  0  0  0  0  # atno 17394 bound_to 11000
  139.8710  134.9520  156.4101 LP  0  0  0  0  0  0  0  0  0  0  0  0  # atno 17395 bound_to 11000

$$$$
