#       Name:                AV-unprocessed.smi:1935
#       Creating user name   scv26
#       Creation time:       Fri Mar 27 09:57:30 2020


#       File generated by GOLD software.
#

@<TRIPOS>MOLECULE
AV-unprocessed.smi:1935
    58    60     1
SMALL
NO_CHARGES


@<TRIPOS>ATOM
      1 ****         0.1136   2.0498  -0.3924 O.2            1 S1                 0.0000
      2 ****        -0.3548   0.9621  -0.7268 C.2            1 S1                 0.0000
      3 ****         0.3837  -0.1448  -0.8877 N.am           1 S1                 0.0000
      4 ****         1.8306  -0.2121  -0.7250 C.3            1 S1                 0.0000
      5 ****         2.2383  -0.2788   0.7593 C.3            1 S1                 0.0000
      6 ****         3.6960  -0.3842   0.9019 N.am           1 S1                 0.0000
      7 ****         4.2358  -1.7344   1.1345 C.3            1 S1                 0.0000
      8 ****         5.0203  -2.3092  -0.0687 C.3            1 S1                 0.0000
      9 ****         5.7118  -1.2836  -0.9886 C.3            1 S1                 0.0000
     10 ****         6.6366  -0.2799  -0.2686 C.3            1 S1                 0.0000
     11 ****         6.0167   0.5035   0.9127 C.3            1 S1                 0.0000
     12 ****         4.4968   0.7063   0.8059 C.2            1 S1                 0.0000
     13 ****         4.0620   1.8443   0.6273 O.2            1 S1                 0.0000
     14 ****        -1.6550   0.7180  -0.9619 N.am           1 S1                 0.0000
     15 ****        -2.7550   1.6177  -0.8607 C.ar           1 S1                 0.0000
     16 ****        -2.6148   3.0111  -1.0881 C.ar           1 S1                 0.0000
     17 ****        -3.7434   3.8502  -1.0133 C.ar           1 S1                 0.0000
     18 ****        -4.9971   3.2836  -0.7237 C.ar           1 S1                 0.0000
     19 ****        -5.0999   1.9530  -0.5271 N.pl3          1 S1                 1.0000
     20 ****        -4.0500   1.0970  -0.5874 C.ar           1 S1                 0.0000
     21 ****        -4.2742  -0.2751  -0.3435 N.3            1 S1                 0.0000
     22 ****        -3.7063  -0.7591   0.9127 C.3            1 S1                 0.0000
     23 ****        -4.7135  -1.7559   1.4916 C.3            1 S1                 0.0000
     24 ****        -6.0379  -1.3065   0.8865 C.3            1 S1                 0.0000
     25 ****        -5.6173  -0.8305  -0.5020 C.3            1 S1                 0.0000
     26 ****        -0.0831  -0.9984  -1.1571 H              1 S1                 0.0000
     27 ****         2.1855  -1.1020  -1.2455 H              1 S1                 0.0000
     28 ****         2.2966   0.6413  -1.2206 H              1 S1                 0.0000
     29 ****         1.8797   0.6044   1.2911 H              1 S1                 0.0000
     30 ****         1.7387  -1.1205   1.2401 H              1 S1                 0.0000
     31 ****         4.8763  -1.7145   2.0164 H              1 S1                 0.0000
     32 ****         3.4460  -2.4371   1.4011 H              1 S1                 0.0000
     33 ****         5.7564  -3.0244   0.3000 H              1 S1                 0.0000
     34 ****         4.3313  -2.8899  -0.6830 H              1 S1                 0.0000
     35 ****         6.2920  -1.8206  -1.7397 H              1 S1                 0.0000
     36 ****         4.9552  -0.7390  -1.5550 H              1 S1                 0.0000
     37 ****         7.5196  -0.8083   0.0924 H              1 S1                 0.0000
     38 ****         7.0052   0.4330  -1.0071 H              1 S1                 0.0000
     39 ****         6.2433   0.0044   1.8546 H              1 S1                 0.0000
     40 ****         6.5029   1.4768   0.9904 H              1 S1                 0.0000
     41 ****        -1.8979  -0.2442  -1.1476 H              1 S1                 0.0000
     42 ****        -1.6620   3.4528  -1.3368 H              1 S1                 0.0000
     43 ****        -3.6475   4.9128  -1.1831 H              1 S1                 0.0000
     44 ****        -5.9151   3.8484  -0.6484 H              1 S1                 0.0000
     45 ****        -2.7360  -1.2292   0.7508 H              1 S1                 0.0000
     46 ****        -3.5635   0.0710   1.6068 H              1 S1                 0.0000
     47 ****        -4.4760  -2.7635   1.1475 H              1 S1                 0.0000
     48 ****        -4.7225  -1.7646   2.5818 H              1 S1                 0.0000
     49 ****        -6.7861  -2.0990   0.8564 H              1 S1                 0.0000
     50 ****        -6.4462  -0.4731   1.4600 H              1 S1                 0.0000
     51 ****        -6.3471  -0.1465  -0.9344 H              1 S1                 0.0000
     52 ****        -5.5458  -1.6821  -1.1794 H              1 S1                 0.0000
     53 ****        -6.0219   1.5696  -0.3186 H              1 S1                 0.0000
     54 ****         1.0952   2.1413  -0.2252 LP             1 S1                 0.0000
     55 ****        -0.4874   2.8422  -0.2879 LP             1 S1                 0.0000
     56 ****         3.0769   1.9962   0.5462 LP             1 S1                 0.0000
     57 ****         4.6939   2.6167   0.5633 LP             1 S1                 0.0000
     58 ****        -3.7694  -0.6300  -1.1304 LP             1 S1                 0.0000
@<TRIPOS>BOND
    1    1    2 2     
    2    2    3 am    
    3    2   14 am    
    4    3    4 1     
    5    3   26 1     
    6    4    5 1     
    7    4   27 1     
    8    4   28 1     
    9    5    6 1     
   10    5   29 1     
   11    5   30 1     
   12    6   12 am    
   13    6    7 1     
   14    7    8 1     
   15    7   31 1     
   16    7   32 1     
   17    8    9 1     
   18    8   33 1     
   19    8   34 1     
   20    9   10 1     
   21    9   35 1     
   22    9   36 1     
   23   10   11 1     
   24   10   37 1     
   25   10   38 1     
   26   11   12 1     
   27   11   39 1     
   28   11   40 1     
   29   12   13 2     
   30   14   15 1     
   31   14   41 1     
   32   15   20 ar    
   33   15   16 ar    
   34   16   17 ar    
   35   16   42 1     
   36   17   18 ar    
   37   17   43 1     
   38   18   19 ar    
   39   18   44 1     
   40   19   20 ar    
   41   19   53 1     
   42   20   21 1     
   43   21   25 1     
   44   21   22 1     
   45   22   23 1     
   46   22   45 1     
   47   22   46 1     
   48   23   24 1     
   49   23   47 1     
   50   23   48 1     
   51   24   25 1     
   52   24   49 1     
   53   24   50 1     
   54   25   51 1     
   55   25   52 1     
   56    1   54 1     
   57    1   55 1     
   58   13   56 1     
   59   13   57 1     
   60   21   58 1     
@<TRIPOS>SUBSTRUCTURE
      1 S1             1
@<TRIPOS>SET
LONE_PAIRS      STATIC     ATOMS    <user>   **** ""
5 54 55 56 57 58
DONOR_HYDROGENS      STATIC     ATOMS    <user>   **** ""
3 26 41 53
ATOM$BLUE        STATIC     ATOMS    COLORGROUP SYSTEM
5 54 55 56 57 58
ATOM$RED        STATIC     ATOMS    COLORGROUP SYSTEM
3 26 41 53
