AV-unprocessed.smi:3303|AV-procd|sdf|12672|dock6
  -GOLD-   2272019 03D 1   1.00000     0.00000
 Structure written by MMmdl.
 45 46  0  0  0  0  0  0  0  0  3 V2000
  151.0296  137.7705  154.8391 C   0  0  0  0  0  0  0  0  0  0  0  0
  150.2896  139.0486  154.4057 C   0  0  1  0  0  0  0  0  0  0  0  0
  148.8799  138.6953  153.8888 C   0  0  0  0  0  0  0  0  0  0  0  0
  148.1244  139.8951  153.4431 N   0  3  1  0  0  0  0  0  0  0  0  0
  146.8365  139.5068  152.8181 C   0  0  0  0  0  0  0  0  0  0  0  0
  147.9910  140.9062  154.5342 C   0  0  2  0  0  0  0  0  0  0  0  0
  147.2345  142.1711  154.0835 C   0  0  0  0  0  0  0  0  0  0  0  0
  149.3845  141.2996  155.0663 C   0  0  0  0  0  0  0  0  0  0  0  0
  150.1929  140.0839  155.5462 C   0  0  2  0  0  0  0  0  0  0  0  0
  151.5388  140.5250  155.9794 N   0  3  0  0  0  0  0  0  0  0  0  0
  151.5848  141.1520  157.3153 C   0  0  0  0  0  0  0  0  0  0  0  0
  151.2587  142.6491  157.2313 C   0  0  0  0  0  0  0  0  0  0  0  0
  151.5449  143.3713  158.5335 C   0  0  0  0  0  0  0  0  0  0  0  0
  151.3458  144.7637  158.6448 C   0  0  0  0  0  0  0  0  0  0  0  0
  151.6368  145.3858  159.8745 C   0  0  0  0  0  0  0  0  0  0  0  0
  152.1127  144.5956  160.9383 C   0  0  0  0  0  0  0  0  0  0  0  0
  152.2787  143.2127  160.7247 C   0  0  0  0  0  0  0  0  0  0  0  0
  152.0055  142.6065  159.5486 N   0  0  0  0  0  0  0  0  0  0  0  0
  150.5335  137.2905  155.6834 H   0  0  0  0  0  0  0  0  0  0  0  0
  152.0581  137.9801  155.1338 H   0  0  0  0  0  0  0  0  0  0  0  0
  151.0708  137.0464  154.0248 H   0  0  0  0  0  0  0  0  0  0  0  0
  150.8479  139.4931  153.5797 H   0  0  0  0  0  0  0  0  0  0  0  0
  148.9700  137.9990  153.0535 H   0  0  0  0  0  0  0  0  0  0  0  0
  148.3113  138.1800  154.6651 H   0  0  0  0  0  0  0  0  0  0  0  0
  146.1349  139.1332  153.5649 H   0  0  0  0  0  0  0  0  0  0  0  0
  146.9872  138.7235  152.0743 H   0  0  0  0  0  0  0  0  0  0  0  0
  146.3752  140.3447  152.2964 H   0  0  0  0  0  0  0  0  0  0  0  0
  147.4270  140.4500  155.3500 H   0  0  0  0  0  0  0  0  0  0  0  0
  147.2397  142.9280  154.8684 H   0  0  0  0  0  0  0  0  0  0  0  0
  146.1876  141.9651  153.8609 H   0  0  0  0  0  0  0  0  0  0  0  0
  147.6891  142.6143  153.1969 H   0  0  0  0  0  0  0  0  0  0  0  0
  149.9371  141.8217  154.2830 H   0  0  0  0  0  0  0  0  0  0  0  0
  149.2762  142.0087  155.8885 H   0  0  0  0  0  0  0  0  0  0  0  0
  149.6646  139.6321  156.3882 H   0  0  0  0  0  0  0  0  0  0  0  0
  152.1500  139.7206  155.9859 H   0  0  0  0  0  0  0  0  0  0  0  0
  150.8739  140.6470  157.9708 H   0  0  0  0  0  0  0  0  0  0  0  0
  152.5779  141.0137  157.7451 H   0  0  0  0  0  0  0  0  0  0  0  0
  151.8366  143.1133  156.4309 H   0  0  0  0  0  0  0  0  0  0  0  0
  150.2079  142.7908  156.9730 H   0  0  0  0  0  0  0  0  0  0  0  0
  150.9803  145.3445  157.8106 H   0  0  0  0  0  0  0  0  0  0  0  0
  151.4989  146.4498  159.9989 H   0  0  0  0  0  0  0  0  0  0  0  0
  152.3458  145.0386  161.8951 H   0  0  0  0  0  0  0  0  0  0  0  0
  152.6421  142.5768  161.5183 H   0  0  0  0  0  0  0  0  0  0  0  0
  151.8928  141.1891  155.3053 H   0  0  0  0  0  0  0  0  0  0  0  0
  148.6740  140.3251  152.7125 H   0  0  0  0  0  0  0  0  0  0  0  0
  1  2  1  0  0  0  0
  1 19  1  0  0  0  0
  1 20  1  0  0  0  0
  1 21  1  0  0  0  0
  2  9  1  0  0  0  0
  2  3  1  0  0  0  0
  2 22  1  0  0  0  0
  3  4  1  0  0  0  0
  3 23  1  0  0  0  0
  3 24  1  0  0  0  0
  4  5  1  0  0  0  0
  4  6  1  0  0  0  0
  4 45  1  0  0  0  0
  5 25  1  0  0  0  0
  5 26  1  0  0  0  0
  5 27  1  0  0  0  0
  6  7  1  0  0  0  0
  6  8  1  0  0  0  0
  6 28  1  0  0  0  0
  7 29  1  0  0  0  0
  7 30  1  0  0  0  0
  7 31  1  0  0  0  0
  8  9  1  0  0  0  0
  8 32  1  0  0  0  0
  8 33  1  0  0  0  0
  9 10  1  0  0  0  0
  9 34  1  0  0  0  0
 10 11  1  0  0  0  0
 10 35  1  0  0  0  0
 10 44  1  0  0  0  0
 11 12  1  0  0  0  0
 11 36  1  0  0  0  0
 11 37  1  0  0  0  0
 12 13  1  0  0  0  0
 12 38  1  0  0  0  0
 12 39  1  0  0  0  0
 13 18  1  0  0  0  0
 13 14  2  0  0  0  0
 14 15  1  0  0  0  0
 14 40  1  0  0  0  0
 15 16  2  0  0  0  0
 15 41  1  0  0  0  0
 16 17  1  0  0  0  0
 16 42  1  0  0  0  0
 17 18  2  0  0  0  0
 17 43  1  0  0  0  0
M  CHG  1   4   1
M  CHG  1  10   1
M  END
> <s_m_source_file>
AV-unprocessed.smi

> <i_m_source_file_index>
3303

> <i_lp_mmshare_version>
43012

> <i_f3d_flags>
0

> <s_epik_input>
W0NIM11bQ0BASF0xW0NIMl1OKFtDSDNdKVtDQEBIXShbQ0gzXSlbQ0gyXVtDQEhdMVtOSF1bQ0gyXVtDSDJdYzJbY0hdW2NIXVtjSF1bY0hdbjI=

> <s_epik_cmdline>
J2VwaWtfcHl0aG9uJywgJy1waCcsICc3LjAnLCAnLXRuJywgJzgnLCAnLW1hJywgJzIwMCcsICctbWV0YWxfYmluZGluZycsICctaW1hZScsICc8aW5maWxlLm1hZT4nLCAnLW9tYWUnLCAnPG91dGZpbGUubWFlPic=

> <r_epik_Ionization_Penalty>
0.0769462

> <r_epik_Ionization_Penalty_Charging>
0.0759813

> <r_epik_Ionization_Penalty_Neutral>
0.000964829

> <r_epik_State_Penalty>
0.0654373

> <r_epik_Charging_Adjusted_Penalty>
0.141419

> <i_epik_Tot_Q>
2

> <i_epik_Tot_abs_Q>
2

> <r_epik_Metal_State_Penalty>
0.0656439

> <b_epik_Metal_Only>
0

> <s_lp_Force_Field>
OPLS_2005

> <r_lp_Energy>
29.1913

> <b_lp_Chiralities_Consistent>
1

> <s_lp_Variant>
AV-unprocessed.smi:3303-16

> <Gold.Version>
5.8.1

> <Gold.Id.Protein>
6NUR|6NUR_protein|mol2

> <Gold.PLP.Fitness>
46.0385

> <Gold.PLP.PLP>
-43.9168

> <Gold.PLP.part.hbond>
-1.0000

> <Gold.PLP.part.metal>
0.0000

> <Gold.PLP.part.buried>
-6.1509

> <Gold.PLP.part.nonpolar>
-37.6759

> <Gold.PLP.part.repulsive>
0.2435

> <Gold.PLP.ligand.clash>
0.0000

> <Gold.PLP.ligand.torsion>
0.3348

> <Gold.PLP.Chemscore.Hbond>
0.9280

> <Gold.PLP.Chemscore.CHOScore>
0.0000

> <Gold.PLP.Chemscore.Metal>
0.0000

> <Gold.Chemscore.Hbonds>
donor molecule, donor type, donor heavy atom, donor atom, acceptor molecule, acceptor atom, score
      L1  H     4    45       P1  7957  0.91

> <Gold.PLP.Chemscore.Internal.Correction>
0.0073

> <Gold.Rescore>
     Score         DG    S(hbond)    S(metal)    S(lipo)     H(rot)  DE(clash)    DE(int)     intcor
     19.97     -20.33       0.93        0.00     130.31       1.37       0.08       0.27       ----

> <Gold.Chemscore.Fitness>
19.9699

> <Gold.Chemscore.DG>
-20.3266

> <Gold.Chemscore.ZeroCoef>
-5.4800

> <Gold.Chemscore.Hbond>
0.9337

> <Gold.Chemscore.Metal>
0.0000

> <Gold.Chemscore.Lipo>
130.3134

> <Gold.Chemscore.Internal_Hbond>
0.0000

> <Gold.Chemscore.DEClash>
0.0826

> <Gold.Chemscore.DEInternal>
0.2742

> <Gold.Chemscore.Rot>
1.3744

> <Gold.Chemscore.Internal.Correction>
   9.000000E+99

> <Gold.Chemscore.Hbonds>
donor molecule, donor type, donor heavy atom, donor atom, acceptor molecule, acceptor atom, score
      L1  H     4    45       P1  7957  0.90

> <Gold.Chemscore.Hbond.Weighted>
-3.1184

> <Gold.Chemscore.Metal.Weighted>
-0.0000

> <Gold.Chemscore.Lipo.Weighted>
-15.2467

> <Gold.Chemscore.Internal_Hbond.Weighted>
0.0000

> <Gold.Chemscore.DEClash.Weighted>
0.0826

> <Gold.Chemscore.DEInternal.Weighted>
0.2742

> <Gold.Chemscore.Rot.Weighted>
3.5185

> <Gold.Chemscore.Internal.Correction.Weighted>
   9.000000E+99

> <Gold.Protein.RotatedTorsions>
[ 6907 6896 6895 6894 ] final -155.69 input  -60.11 | X-H torsion
[ 7974 7965 7964 7962 ] final   -4.96 input  175.53 | X-H torsion
[ 8008 7997 7996 7995 ] final -148.87 input   59.86 | X-H torsion
[ 10167 10162 10161 10158 ] final  138.83 input  -65.29 | X-H torsion
[ 10718 10713 10712 10709 ] final  136.69 input   66.30 | X-H torsion
[ 10763 10752 10751 10750 ] final  -12.67 input  -60.55 | X-H torsion
[ 11005 11000 10999 10996 ] final -168.51 input  -57.11 | X-H torsion

> <Gold.Protein.ActiveResidues>
 VAL166  LYS551  ARG553  GLY616  TRP617  ASP618  TYR619  PRO620  LYS621  CYS622 
 ASP623  PHE694  ASN695  SER759  ASP760  ASP761  ALA762  ILE779  LEU786  VAL792 
 PHE793  MET794  SER795  GLU796  ALA797  LYS798  CYS799  TRP800  GLU811  SER814 

> <Gold.Protein.RotatedAtoms>
  151.2762  133.4231  159.2623 H   0  0  0  0  0  0  0  0  0  0  0  0  # atno 6907 bound_to 6896
  151.0401  134.9601  159.8167 H   0  0  0  0  0  0  0  0  0  0  0  0  # atno 6908 bound_to 6896
  152.5363  134.2721  159.9028 H   0  0  0  0  0  0  0  0  0  0  0  0  # atno 6909 bound_to 6896
  146.2362  140.1950  142.8333 H   0  0  0  0  0  0  0  0  0  0  0  0  # atno 7974 bound_to 7965
  155.5986  140.0660  157.2739 H   0  0  0  0  0  0  0  0  0  0  0  0  # atno 8008 bound_to 7997
  154.4285  140.1822  156.1196 H   0  0  0  0  0  0  0  0  0  0  0  0  # atno 8009 bound_to 7997
  156.0177  140.3320  155.7009 H   0  0  0  0  0  0  0  0  0  0  0  0  # atno 8010 bound_to 7997
  139.5098  144.6331  151.5767 H   0  0  0  0  0  0  0  0  0  0  0  0  # atno 10167 bound_to 10162
  157.4440  131.1060  151.0110 H   0  0  0  0  0  0  0  0  0  0  0  0  # atno 10718 bound_to 10713
  153.5018  135.7017  153.5827 H   0  0  0  0  0  0  0  0  0  0  0  0  # atno 10763 bound_to 10752
  153.3955  135.3885  155.1952 H   0  0  0  0  0  0  0  0  0  0  0  0  # atno 10764 bound_to 10752
  154.8710  135.3869  154.4490 H   0  0  0  0  0  0  0  0  0  0  0  0  # atno 10765 bound_to 10752
  140.5411  134.5521  157.5100 H   0  0  0  0  0  0  0  0  0  0  0  0  # atno 11005 bound_to 11000
  144.9828  140.8475  143.5387 LP  0  0  0  0  0  0  0  0  0  0  0  0  # atno 17320 bound_to 7965
  145.1945  139.2283  143.5225 LP  0  0  0  0  0  0  0  0  0  0  0  0  # atno 17321 bound_to 7965
  140.6070  143.9506  150.6426 LP  0  0  0  0  0  0  0  0  0  0  0  0  # atno 17342 bound_to 10162
  140.2736  143.3438  152.1215 LP  0  0  0  0  0  0  0  0  0  0  0  0  # atno 17343 bound_to 10162
  157.0963  130.5963  149.5450 LP  0  0  0  0  0  0  0  0  0  0  0  0  # atno 17370 bound_to 10713
  155.9960  130.5028  150.7480 LP  0  0  0  0  0  0  0  0  0  0  0  0  # atno 17371 bound_to 10713
  139.9503  134.7628  156.0463 LP  0  0  0  0  0  0  0  0  0  0  0  0  # atno 17394 bound_to 11000
  141.1226  133.6608  156.3255 LP  0  0  0  0  0  0  0  0  0  0  0  0  # atno 17395 bound_to 11000

$$$$
