AV-unprocessed.smi:2075|AV-procd|sdf|8456|dock3
  -GOLD-   2272011153D 1   1.00000     0.00000
 Structure written by MMmdl.
 37 38  0  0  0  0  0  0  0  0  1 V2000
  150.4473  135.8404  155.8135 O   0  0  0  0  0  0  0  0  0  0  0  0
  149.4297  136.2222  155.2350 C   0  0  0  0  0  0  0  0  0  0  0  0
  148.0963  135.4862  155.4155 C   0  0  0  0  0  0  0  0  0  0  0  0
  148.1158  134.0049  154.9871 C   0  0  0  0  0  0  0  0  0  0  0  0
  148.9559  133.3343  155.7749 F   0  0  0  0  0  0  0  0  0  0  0  0
  146.9043  133.4581  155.0971 F   0  0  0  0  0  0  0  0  0  0  0  0
  148.5298  133.8870  153.7246 F   0  0  0  0  0  0  0  0  0  0  0  0
  149.4076  137.2894  154.4210 N   0  0  0  0  0  0  0  0  0  0  0  0
  150.5582  138.1371  154.1241 C   0  0  0  0  0  0  0  0  0  0  0  0
  150.7538  139.2890  155.0997 C   0  0  0  0  0  0  0  0  0  0  0  0
  149.8318  140.3523  155.1389 C   0  0  0  0  0  0  0  0  0  0  0  0
  150.0343  141.4041  156.0528 C   0  0  0  0  0  0  0  0  0  0  0  0
  151.1611  141.3676  156.9139 C   0  0  0  0  0  0  0  0  0  0  0  0
  151.4223  142.3879  157.8580 N   0  0  0  0  0  0  0  0  0  0  0  0
  152.0503  143.6244  157.3983 C   0  0  0  0  0  0  0  0  0  0  0  0
  151.9527  144.7178  158.4756 C   0  0  0  0  0  0  0  0  0  0  0  0
  152.4968  144.2390  159.6996 O   0  0  0  0  0  0  0  0  0  0  0  0
  151.7722  143.1174  160.1911 C   0  0  0  0  0  0  0  0  0  0  0  0
  151.8613  141.9569  159.1856 C   0  0  0  0  0  0  0  0  0  0  0  0
  152.0385  140.3350  156.8766 N   0  0  0  0  0  0  0  0  0  0  0  0
  151.8396  139.3300  155.9989 C   0  0  0  0  0  0  0  0  0  0  0  0
  147.8067  135.5479  156.4657 H   0  0  0  0  0  0  0  0  0  0  0  0
  147.3309  136.0215  154.8524 H   0  0  0  0  0  0  0  0  0  0  0  0
  148.5329  137.5355  153.9807 H   0  0  0  0  0  0  0  0  0  0  0  0
  151.4622  137.5267  154.0828 H   0  0  0  0  0  0  0  0  0  0  0  0
  150.4233  138.5553  153.1265 H   0  0  0  0  0  0  0  0  0  0  0  0
  148.9801  140.3681  154.4746 H   0  0  0  0  0  0  0  0  0  0  0  0
  149.3260  142.2181  156.0633 H   0  0  0  0  0  0  0  0  0  0  0  0
  153.0954  143.4282  157.1551 H   0  0  0  0  0  0  0  0  0  0  0  0
  151.5610  143.9861  156.4934 H   0  0  0  0  0  0  0  0  0  0  0  0
  152.5067  145.6026  158.1624 H   0  0  0  0  0  0  0  0  0  0  0  0
  150.9164  145.0275  158.6220 H   0  0  0  0  0  0  0  0  0  0  0  0
  152.1942  142.8148  161.1495 H   0  0  0  0  0  0  0  0  0  0  0  0
  150.7325  143.3932  160.3750 H   0  0  0  0  0  0  0  0  0  0  0  0
  151.2615  141.1279  159.5612 H   0  0  0  0  0  0  0  0  0  0  0  0
  152.8899  141.6008  159.1159 H   0  0  0  0  0  0  0  0  0  0  0  0
  152.5718  138.5363  156.0213 H   0  0  0  0  0  0  0  0  0  0  0  0
  1  2  2  0  0  0  0
  2  3  1  0  0  0  0
  2  8  1  0  0  0  0
  3  4  1  0  0  0  0
  3 22  1  0  0  0  0
  3 23  1  0  0  0  0
  4  5  1  0  0  0  0
  4  6  1  0  0  0  0
  4  7  1  0  0  0  0
  8  9  1  0  0  0  0
  8 24  1  0  0  0  0
  9 10  1  0  0  0  0
  9 25  1  0  0  0  0
  9 26  1  0  0  0  0
 10 21  1  0  0  0  0
 10 11  2  0  0  0  0
 11 12  1  0  0  0  0
 11 27  1  0  0  0  0
 12 13  2  0  0  0  0
 12 28  1  0  0  0  0
 13 14  1  0  0  0  0
 13 20  1  0  0  0  0
 14 19  1  0  0  0  0
 14 15  1  0  0  0  0
 15 16  1  0  0  0  0
 15 29  1  0  0  0  0
 15 30  1  0  0  0  0
 16 17  1  0  0  0  0
 16 31  1  0  0  0  0
 16 32  1  0  0  0  0
 17 18  1  0  0  0  0
 18 19  1  0  0  0  0
 18 33  1  0  0  0  0
 18 34  1  0  0  0  0
 19 35  1  0  0  0  0
 19 36  1  0  0  0  0
 20 21  2  0  0  0  0
 21 37  1  0  0  0  0
M  END
> <s_m_source_file>
AV-unprocessed.smi

> <i_m_source_file_index>
2075

> <i_lp_mmshare_version>
43012

> <i_f3d_flags>
0

> <s_epik_input>
RkMoRikoRilbQ0gyXUMoPU8pW05IXVtDSDJdYzFbY0hdW2NIXWMobltjSF0xKU4yW0NIMl1bQ0gyXU9bQ0gyXVtDSDJdMg==

> <s_epik_cmdline>
J2VwaWtfcHl0aG9uJywgJy1waCcsICc3LjAnLCAnLXRuJywgJzgnLCAnLW1hJywgJzIwMCcsICctbWV0YWxfYmluZGluZycsICctaW1hZScsICc8aW5maWxlLm1hZT4nLCAnLW9tYWUnLCAnPG91dGZpbGUubWFlPic=

> <r_lp_tautomer_probability>
1

> <r_epik_Ionization_Penalty>
0.00347018

> <r_epik_Ionization_Penalty_Charging>
0

> <r_epik_Ionization_Penalty_Neutral>
0.00347018

> <r_epik_State_Penalty>
0.00246037

> <r_epik_Charging_Adjusted_Penalty>
0.00246037

> <i_epik_Tot_Q>
0

> <i_epik_Tot_abs_Q>
0

> <r_epik_Metal_State_Penalty>
-0

> <b_epik_Metal_Only>
0

> <s_lp_Force_Field>
OPLS_2005

> <r_lp_Energy>
11.9442

> <b_lp_Chiralities_Consistent>
1

> <s_lp_Variant>
AV-unprocessed.smi:2075-1

> <Gold.Version>
5.8.1

> <Gold.Id.Protein>
6NUR|6NUR_protein|mol2

> <Gold.PLP.Fitness>
42.2000

> <Gold.PLP.PLP>
-39.7894

> <Gold.PLP.part.hbond>
-2.8879

> <Gold.PLP.part.metal>
0.0000

> <Gold.PLP.part.buried>
-3.9544

> <Gold.PLP.part.nonpolar>
-33.7394

> <Gold.PLP.part.repulsive>
0.1634

> <Gold.PLP.ligand.clash>
0.0000

> <Gold.PLP.ligand.torsion>
0.7911

> <Gold.PLP.Chemscore.Hbond>
1.1734

> <Gold.PLP.Chemscore.CHOScore>
0.0000

> <Gold.PLP.Chemscore.Metal>
0.0000

> <Gold.Chemscore.Hbonds>
donor molecule, donor type, donor heavy atom, donor atom, acceptor molecule, acceptor atom, score
      P1  H  7997  8009       L1    20  0.07

> <Gold.PLP.Chemscore.Internal.Correction>
0.4727

> <Gold.Rescore>
     Score         DG    S(hbond)    S(metal)    S(lipo)     H(rot)  DE(clash)    DE(int)     intcor
     11.97     -13.76       1.00        0.00      86.21       2.01       0.13       1.66       ----

> <Gold.Chemscore.Fitness>
11.9727

> <Gold.Chemscore.DG>
-13.7602

> <Gold.Chemscore.ZeroCoef>
-5.4800

> <Gold.Chemscore.Hbond>
1.0000

> <Gold.Chemscore.Metal>
0.0000

> <Gold.Chemscore.Lipo>
86.2051

> <Gold.Chemscore.Internal_Hbond>
0.0000

> <Gold.Chemscore.DEClash>
0.1251

> <Gold.Chemscore.DEInternal>
1.6623

> <Gold.Chemscore.Rot>
2.0101

> <Gold.Chemscore.Internal.Correction>
   9.000000E+99

> <Gold.Chemscore.Hbond.Weighted>
-3.3399

> <Gold.Chemscore.Metal.Weighted>
-0.0000

> <Gold.Chemscore.Lipo.Weighted>
-10.0860

> <Gold.Chemscore.Internal_Hbond.Weighted>
0.0000

> <Gold.Chemscore.DEClash.Weighted>
0.1251

> <Gold.Chemscore.DEInternal.Weighted>
1.6623

> <Gold.Chemscore.Rot.Weighted>
5.1458

> <Gold.Chemscore.Internal.Correction.Weighted>
   9.000000E+99

> <Gold.Protein.RotatedTorsions>
[ 6907 6896 6895 6894 ] final  -60.00 input  -60.11 | X-H torsion
[ 7974 7965 7964 7962 ] final  138.84 input  175.53 | X-H torsion
[ 8008 7997 7996 7995 ] final -165.27 input   59.86 | X-H torsion
[ 10167 10162 10161 10158 ] final  -52.33 input  -65.29 | X-H torsion
[ 10718 10713 10712 10709 ] final   -0.16 input   66.30 | X-H torsion
[ 10763 10752 10751 10750 ] final  -38.80 input  -60.55 | X-H torsion
[ 11005 11000 10999 10996 ] final  -77.70 input  -57.11 | X-H torsion

> <Gold.Protein.ActiveResidues>
 VAL166  LYS551  ARG553  GLY616  TRP617  ASP618  TYR619  PRO620  LYS621  CYS622 
 ASP623  PHE694  ASN695  SER759  ASP760  ASP761  ALA762  ILE779  LEU786  VAL792 
 PHE793  MET794  SER795  GLU796  ALA797  LYS798  CYS799  TRP800  GLU811  SER814 

> <Gold.Protein.RotatedAtoms>
  150.7888  134.6895  159.6488 H   0  0  0  0  0  0  0  0  0  0  0  0  # atno 6907 bound_to 6896
  152.3990  134.6315  160.0086 H   0  0  0  0  0  0  0  0  0  0  0  0  # atno 6908 bound_to 6896
  151.6592  133.3281  159.3206 H   0  0  0  0  0  0  0  0  0  0  0  0  # atno 6909 bound_to 6896
  144.9335  139.5018  143.5606 H   0  0  0  0  0  0  0  0  0  0  0  0  # atno 7974 bound_to 7965
  155.8474  140.0957  157.1697 H   0  0  0  0  0  0  0  0  0  0  0  0  # atno 8008 bound_to 7997
  154.3984  140.1389  156.3864 H   0  0  0  0  0  0  0  0  0  0  0  0  # atno 8009 bound_to 7997
  155.7999  140.3453  155.5399 H   0  0  0  0  0  0  0  0  0  0  0  0  # atno 8010 bound_to 7997
  140.6543  143.2587  151.4633 H   0  0  0  0  0  0  0  0  0  0  0  0  # atno 10167 bound_to 10162
  156.8246  130.5468  149.5693 H   0  0  0  0  0  0  0  0  0  0  0  0  # atno 10718 bound_to 10713
  153.9188  135.6784  153.4748 H   0  0  0  0  0  0  0  0  0  0  0  0  # atno 10763 bound_to 10752
  153.1039  135.4814  154.8914 H   0  0  0  0  0  0  0  0  0  0  0  0  # atno 10764 bound_to 10752
  154.7489  135.3179  154.8550 H   0  0  0  0  0  0  0  0  0  0  0  0  # atno 10765 bound_to 10752
  141.1661  133.7033  156.7860 H   0  0  0  0  0  0  0  0  0  0  0  0  # atno 11005 bound_to 11000
  146.3257  139.8303  142.8910 LP  0  0  0  0  0  0  0  0  0  0  0  0  # atno 17320 bound_to 7965
  145.3104  141.0218  143.3558 LP  0  0  0  0  0  0  0  0  0  0  0  0  # atno 17321 bound_to 7965
  139.5762  144.1813  152.1907 LP  0  0  0  0  0  0  0  0  0  0  0  0  # atno 17342 bound_to 10162
  140.1124  144.5445  150.6916 LP  0  0  0  0  0  0  0  0  0  0  0  0  # atno 17343 bound_to 10162
  156.0969  130.5939  150.9828 LP  0  0  0  0  0  0  0  0  0  0  0  0  # atno 17370 bound_to 10713
  157.6439  131.0906  150.8194 LP  0  0  0  0  0  0  0  0  0  0  0  0  # atno 17371 bound_to 10713
  140.2360  134.8650  157.3525 LP  0  0  0  0  0  0  0  0  0  0  0  0  # atno 17394 bound_to 11000
  140.1844  134.4450  155.7753 LP  0  0  0  0  0  0  0  0  0  0  0  0  # atno 17395 bound_to 11000

$$$$
