AV-unprocessed.smi:109|AV-procd|sdf|1043|dock5
  -GOLD-   2262018 73D 1   1.00000     0.00000
 Structure written by MMmdl.
 58 61  0  0  0  0  0  0  0  0  1 V2000
  150.9392  139.7732  154.6188 O   0  0  0  0  0  0  0  0  0  0  0  0
  151.6421  140.0520  155.8105 C   0  0  0  0  0  0  0  0  0  0  0  0
  150.6665  140.0726  156.9995 C   0  0  0  0  0  0  0  0  0  0  0  0
  150.1909  141.4888  157.4085 C   0  0  2  0  0  0  0  0  0  0  0  0
  149.5925  142.1553  156.2497 N   0  0  0  0  0  0  0  0  0  0  0  0
  148.6504  141.5574  155.4866 C   0  0  0  0  0  0  0  0  0  0  0  0
  148.7070  141.5899  154.1297 N   0  0  0  0  0  0  0  0  0  0  0  0
  147.7511  141.0004  153.4055 C   0  0  0  0  0  0  0  0  0  0  0  0
  146.6748  140.3335  153.8292 N   0  0  0  0  0  0  0  0  0  0  0  0
  146.6175  140.2920  155.1922 C   0  0  0  0  0  0  0  0  0  0  0  0
  147.5574  140.8787  156.0837 C   0  0  0  0  0  0  0  0  0  0  0  0
  147.1715  140.6417  157.3955 N   0  0  0  0  0  0  0  0  0  0  0  0
  146.0661  139.9563  157.2798 C   0  0  0  0  0  0  0  0  0  0  0  0
  145.6641  139.6893  155.9853 N   0  0  0  0  0  0  0  0  0  0  0  0
  144.4461  138.9692  155.4784 C   0  0  2  0  0  0  0  0  0  0  0  0
  143.8120  138.3794  156.5672 O   0  0  0  0  0  0  0  0  0  0  0  0
  144.3671  137.0914  156.7890 C   0  0  1  0  0  0  0  0  0  0  0  0
  143.3816  136.2440  157.6075 C   0  0  0  0  0  0  0  0  0  0  0  0
  142.0859  136.3268  157.0538 O   0  0  0  0  0  0  0  0  0  0  0  0
  144.6474  136.5665  155.3698 C   0  0  2  0  0  0  0  0  0  0  0  0
  145.8369  135.8022  155.3599 O   0  0  0  0  0  0  0  0  0  0  0  0
  144.8117  137.8284  154.5141 C   0  0  1  0  0  0  0  0  0  0  0  0
  143.9333  137.8003  153.4075 O   0  0  0  0  0  0  0  0  0  0  0  0
  151.3299  142.3785  157.9864 C   0  0  0  0  0  0  0  0  0  0  0  0
  151.9618  141.7935  159.2749 C   0  0  0  0  0  0  0  0  0  0  0  0
  153.0633  142.6971  159.8540 C   0  0  0  0  0  0  0  0  0  0  0  0
  152.5459  144.1156  160.1216 C   0  0  0  0  0  0  0  0  0  0  0  0
  151.9415  144.7176  158.8480 C   0  0  0  0  0  0  0  0  0  0  0  0
  150.8324  143.8179  158.2815 C   0  0  0  0  0  0  0  0  0  0  0  0
  143.8317  139.7484  155.0256 H   0  0  0  0  0  0  0  0  0  0  0  0
  145.2941  137.2232  157.3495 H   0  0  0  0  0  0  0  0  0  0  0  0
  143.8169  135.9559  155.0113 H   0  0  0  0  0  0  0  0  0  0  0  0
  145.8242  137.9617  154.1306 H   0  0  0  0  0  0  0  0  0  0  0  0
  150.3357  139.0655  154.7854 H   0  0  0  0  0  0  0  0  0  0  0  0
  152.4124  139.2923  155.9428 H   0  0  0  0  0  0  0  0  0  0  0  0
  152.1435  141.0147  155.7085 H   0  0  0  0  0  0  0  0  0  0  0  0
  149.8123  139.4618  156.7132 H   0  0  0  0  0  0  0  0  0  0  0  0
  151.1228  139.5778  157.8580 H   0  0  0  0  0  0  0  0  0  0  0  0
  149.4546  141.3762  158.2042 H   0  0  0  0  0  0  0  0  0  0  0  0
  149.8204  143.1343  156.1521 H   0  0  0  0  0  0  0  0  0  0  0  0
  147.8655  141.0729  152.3340 H   0  0  0  0  0  0  0  0  0  0  0  0
  145.5165  139.6307  158.1498 H   0  0  0  0  0  0  0  0  0  0  0  0
  143.6895  135.1982  157.5953 H   0  0  0  0  0  0  0  0  0  0  0  0
  143.3593  136.5617  158.6503 H   0  0  0  0  0  0  0  0  0  0  0  0
  141.5427  135.6684  157.4591 H   0  0  0  0  0  0  0  0  0  0  0  0
  145.6217  134.9049  155.5612 H   0  0  0  0  0  0  0  0  0  0  0  0
  143.7534  138.6901  153.1446 H   0  0  0  0  0  0  0  0  0  0  0  0
  152.1169  142.4467  157.2333 H   0  0  0  0  0  0  0  0  0  0  0  0
  151.1861  141.6376  160.0260 H   0  0  0  0  0  0  0  0  0  0  0  0
  152.4087  140.8196  159.0837 H   0  0  0  0  0  0  0  0  0  0  0  0
  153.4499  142.2644  160.7770 H   0  0  0  0  0  0  0  0  0  0  0  0
  153.9022  142.7401  159.1582 H   0  0  0  0  0  0  0  0  0  0  0  0
  151.7930  144.0907  160.9104 H   0  0  0  0  0  0  0  0  0  0  0  0
  153.3573  144.7468  160.4853 H   0  0  0  0  0  0  0  0  0  0  0  0
  151.5424  145.7099  159.0600 H   0  0  0  0  0  0  0  0  0  0  0  0
  152.7224  144.8519  158.0983 H   0  0  0  0  0  0  0  0  0  0  0  0
  150.4449  144.2886  157.3780 H   0  0  0  0  0  0  0  0  0  0  0  0
  150.0004  143.7803  158.9863 H   0  0  0  0  0  0  0  0  0  0  0  0
  1  2  1  0  0  0  0
  1 34  1  0  0  0  0
  2  3  1  0  0  0  0
  2 35  1  0  0  0  0
  2 36  1  0  0  0  0
  3  4  1  0  0  0  0
  3 37  1  0  0  0  0
  3 38  1  0  0  0  0
  4  5  1  0  0  0  0
  4 24  1  0  0  0  0
  4 39  1  0  0  0  0
  5  6  1  0  0  0  0
  5 40  1  0  0  0  0
  6 11  1  0  0  0  0
  6  7  2  0  0  0  0
  7  8  1  0  0  0  0
  8  9  2  0  0  0  0
  8 41  1  0  0  0  0
  9 10  1  0  0  0  0
 10 14  1  0  0  0  0
 10 11  2  0  0  0  0
 11 12  1  0  0  0  0
 12 13  2  0  0  0  0
 13 14  1  0  0  0  0
 13 42  1  0  0  0  0
 14 15  1  0  0  0  0
 15 30  1  0  0  0  0
 15 22  1  0  0  0  0
 15 16  1  0  0  0  0
 16 17  1  0  0  0  0
 17 31  1  0  0  0  0
 17 18  1  0  0  0  0
 17 20  1  0  0  0  0
 18 19  1  0  0  0  0
 18 43  1  0  0  0  0
 18 44  1  0  0  0  0
 19 45  1  0  0  0  0
 20 32  1  0  0  0  0
 20 21  1  0  0  0  0
 20 22  1  0  0  0  0
 21 46  1  0  0  0  0
 22 33  1  0  0  0  0
 22 23  1  0  0  0  0
 23 47  1  0  0  0  0
 24 29  1  0  0  0  0
 24 25  1  0  0  0  0
 24 48  1  0  0  0  0
 25 26  1  0  0  0  0
 25 49  1  0  0  0  0
 25 50  1  0  0  0  0
 26 27  1  0  0  0  0
 26 51  1  0  0  0  0
 26 52  1  0  0  0  0
 27 28  1  0  0  0  0
 27 53  1  0  0  0  0
 27 54  1  0  0  0  0
 28 29  1  0  0  0  0
 28 55  1  0  0  0  0
 28 56  1  0  0  0  0
 29 57  1  0  0  0  0
 29 58  1  0  0  0  0
M  END
> <s_m_source_file>
AV-unprocessed.smi

> <i_m_source_file_index>
109

> <i_lp_mmshare_version>
43012

> <i_f3d_flags>
0

> <s_epik_input>
W0NIMl0xW0NIMl1bQ0gyXVtDSDJdW0NIMl1bQ0hdMVtDQEhdKFtDSDJdW0NIMl1bT0hdKVtOSF1jKG5bY0hdbjIpYyhjMjMpbltjSF1uM1tDQEBIXTRPW0NASF0oW0NIMl1bT0hdKVtDQEBIXShbT0hdKVtDQEhdNFtPSF0=

> <s_epik_cmdline>
J2VwaWtfcHl0aG9uJywgJy1waCcsICc3LjAnLCAnLXRuJywgJzgnLCAnLW1hJywgJzIwMCcsICctbWV0YWxfYmluZGluZycsICctaW1hZScsICc8aW5maWxlLm1hZT4nLCAnLW9tYWUnLCAnPG91dGZpbGUubWFlPic=

> <r_lp_tautomer_probability>
1

> <r_epik_Ionization_Penalty>
0.000793976

> <r_epik_Ionization_Penalty_Charging>
0

> <r_epik_Ionization_Penalty_Neutral>
0.000793976

> <r_epik_State_Penalty>
-0

> <r_epik_Charging_Adjusted_Penalty>
0

> <i_epik_Tot_Q>
0

> <i_epik_Tot_abs_Q>
0

> <r_epik_Metal_State_Penalty>
-0

> <b_epik_Metal_Only>
0

> <s_epik_Chemistry_Notes>
This compound contains an acetal/aminal-like group ( X-CH(R)-Y where X, Y are N, S, or O) that may be acid/base labile, releasing an aldehyde.

> <s_lp_Force_Field>
OPLS_2005

> <r_lp_Energy>
47.5794

> <b_lp_Chiralities_Consistent>
1

> <s_lp_Variant>
AV-unprocessed.smi:109-13

> <Gold.Version>
5.8.1

> <Gold.Id.Protein>
6NUR|6NUR_protein|mol2

> <Gold.PLP.Fitness>
49.8193

> <Gold.PLP.PLP>
-37.3537

> <Gold.PLP.part.hbond>
-5.0000

> <Gold.PLP.part.metal>
0.0000

> <Gold.PLP.part.buried>
-5.2971

> <Gold.PLP.part.nonpolar>
-28.1436

> <Gold.PLP.part.repulsive>
0.4420

> <Gold.PLP.ligand.clash>
0.0000

> <Gold.PLP.ligand.torsion>
0.8822

> <Gold.PLP.Chemscore.Hbond>
3.7465

> <Gold.PLP.Chemscore.CHOScore>
0.8947

> <Gold.PLP.Chemscore.Metal>
0.0000

> <Gold.Chemscore.Hbonds>
donor molecule, donor type, donor heavy atom, donor atom, acceptor molecule, acceptor atom, score
      L1  H     5    40       P1  8028  0.74
      L1  H    19    45       P1 11000  0.62
      L1  H    23    47       P1 10175  1.00
      P1  H  7989  7998       L1     1  1.00
      P1  H  8011  8017       L1     7  0.18
      L1  C     8    41       P1  7957  0.89

> <Gold.PLP.Chemscore.Internal.Correction>
0.3065

> <Gold.Rescore>
     Score         DG    S(hbond)    S(metal)    S(lipo)     H(rot)  DE(clash)    DE(int)     intcor
     10.46     -11.55       3.04        0.00      84.54       5.47       0.18       0.91       ----

> <Gold.Chemscore.Fitness>
10.4590

> <Gold.Chemscore.DG>
-11.5460

> <Gold.Chemscore.ZeroCoef>
-5.4800

> <Gold.Chemscore.Hbond>
3.0445

> <Gold.Chemscore.Metal>
0.0000

> <Gold.Chemscore.Lipo>
84.5381

> <Gold.Chemscore.Internal_Hbond>
0.0000

> <Gold.Chemscore.DEClash>
0.1812

> <Gold.Chemscore.DEInternal>
0.9058

> <Gold.Chemscore.Rot>
5.4662

> <Gold.Chemscore.Internal.Correction>
   9.000000E+99

> <Gold.Chemscore.Hbonds>
donor molecule, donor type, donor heavy atom, donor atom, acceptor molecule, acceptor atom, score
      L1  H     5    40       P1  8028  0.74
      L1  H    19    45       P1 11000  0.27
      L1  H    23    47       P1 10175  1.00
      P1  H  7989  7998       L1     1  0.40
      P1  H  8011  8017       L1     7  0.02

> <Gold.Chemscore.Hbond.Weighted>
-10.1686

> <Gold.Chemscore.Metal.Weighted>
-0.0000

> <Gold.Chemscore.Lipo.Weighted>
-9.8910

> <Gold.Chemscore.Internal_Hbond.Weighted>
0.0000

> <Gold.Chemscore.DEClash.Weighted>
0.1812

> <Gold.Chemscore.DEInternal.Weighted>
0.9058

> <Gold.Chemscore.Rot.Weighted>
13.9935

> <Gold.Chemscore.Internal.Correction.Weighted>
   9.000000E+99

> <Gold.Protein.RotatedTorsions>
[ 6907 6896 6895 6894 ] final   24.40 input  -60.11 | X-H torsion
[ 7974 7965 7964 7962 ] final  -35.02 input  175.53 | X-H torsion
[ 8008 7997 7996 7995 ] final -143.43 input   59.86 | X-H torsion
[ 10167 10162 10161 10158 ] final  -11.67 input  -65.29 | X-H torsion
[ 10718 10713 10712 10709 ] final  102.51 input   66.30 | X-H torsion
[ 10763 10752 10751 10750 ] final  -75.66 input  -60.55 | X-H torsion
[ 11005 11000 10999 10996 ] final   23.47 input  -57.11 | X-H torsion

> <Gold.Protein.ActiveResidues>
 VAL166  LYS551  ARG553  GLY616  TRP617  ASP618  TYR619  PRO620  LYS621  CYS622 
 ASP623  PHE694  ASN695  SER759  ASP760  ASP761  ALA762  ILE779  LEU786  VAL792 
 PHE793  MET794  SER795  GLU796  ALA797  LYS798  CYS799  TRP800  GLU811  SER814 

> <Gold.Protein.RotatedAtoms>
  151.9569  135.0142  160.0545 H   0  0  0  0  0  0  0  0  0  0  0  0  # atno 6907 bound_to 6896
  152.1903  133.4764  159.5013 H   0  0  0  0  0  0  0  0  0  0  0  0  # atno 6908 bound_to 6896
  150.6934  134.1638  159.4229 H   0  0  0  0  0  0  0  0  0  0  0  0  # atno 6909 bound_to 6896
  146.0781  140.6108  142.8921 H   0  0  0  0  0  0  0  0  0  0  0  0  # atno 7974 bound_to 7965
  155.5104  140.0583  157.2924 H   0  0  0  0  0  0  0  0  0  0  0  0  # atno 8008 bound_to 7997
  154.4554  140.1970  156.0344 H   0  0  0  0  0  0  0  0  0  0  0  0  # atno 8009 bound_to 7997
  156.0788  140.3250  155.7671 H   0  0  0  0  0  0  0  0  0  0  0  0  # atno 8010 bound_to 7997
  140.7144  143.5614  150.9191 H   0  0  0  0  0  0  0  0  0  0  0  0  # atno 10167 bound_to 10162
  157.6800  131.0755  150.5414 H   0  0  0  0  0  0  0  0  0  0  0  0  # atno 10718 bound_to 10713
  154.4895  135.5823  153.6449 H   0  0  0  0  0  0  0  0  0  0  0  0  # atno 10763 bound_to 10752
  152.9860  135.6109  154.3143 H   0  0  0  0  0  0  0  0  0  0  0  0  # atno 10764 bound_to 10752
  154.3041  135.2846  155.2576 H   0  0  0  0  0  0  0  0  0  0  0  0  # atno 10765 bound_to 10752
  140.3692  134.2041  155.7667 H   0  0  0  0  0  0  0  0  0  0  0  0  # atno 11005 bound_to 11000
  144.7275  140.4570  143.6962 LP  0  0  0  0  0  0  0  0  0  0  0  0  # atno 17320 bound_to 7965
  145.6268  139.1531  143.2991 LP  0  0  0  0  0  0  0  0  0  0  0  0  # atno 17321 bound_to 7965
  139.9340  143.6460  152.3070 LP  0  0  0  0  0  0  0  0  0  0  0  0  # atno 17342 bound_to 10162
  139.6921  144.7645  151.1421 LP  0  0  0  0  0  0  0  0  0  0  0  0  # atno 17343 bound_to 10162
  156.5721  130.4282  149.6014 LP  0  0  0  0  0  0  0  0  0  0  0  0  # atno 17370 bound_to 10713
  156.2732  130.7028  151.1832 LP  0  0  0  0  0  0  0  0  0  0  0  0  # atno 17371 bound_to 10713
  141.1960  133.8093  157.0692 LP  0  0  0  0  0  0  0  0  0  0  0  0  # atno 17394 bound_to 11000
  140.0565  134.9778  157.1229 LP  0  0  0  0  0  0  0  0  0  0  0  0  # atno 17395 bound_to 11000

$$$$
