AV-unprocessed.smi:2338|AV-procd|sdf|9334|dock3
  -GOLD-   2272012553D 1   1.00000     0.00000
 Structure written by MMmdl.
 31 32  0  0  0  0  0  0  0  0  1 V2000
  151.4084  138.7836  154.4378 N   0  0  0  0  0  0  0  0  0  0  0  0
  152.3326  138.5594  155.3753 C   0  0  0  0  0  0  0  0  0  0  0  0
  153.4913  138.9555  155.2579 O   0  0  0  0  0  0  0  0  0  0  0  0
  151.8818  137.7935  156.6326 C   0  0  2  0  0  0  0  0  0  0  0  0
  151.3860  136.3932  156.2021 C   0  0  0  0  0  0  0  0  0  0  0  0
  150.9548  135.6473  157.3349 O   0  0  0  0  0  0  0  0  0  0  0  0
  149.8602  136.2749  157.9902 C   0  0  0  0  0  0  0  0  0  0  0  0
  150.3058  137.6498  158.5084 C   0  0  0  0  0  0  0  0  0  0  0  0
  150.8315  138.4619  157.4150 N   0  0  0  0  0  0  0  0  0  0  0  0
  151.0821  139.7817  157.8407 C   0  0  0  0  0  0  0  0  0  0  0  0
  150.3518  140.7788  157.2843 N   0  0  0  0  0  0  0  0  0  0  0  0
  150.5888  142.0489  157.6742 C   0  0  0  0  0  0  0  0  0  0  0  0
  151.5630  142.3999  158.6313 C   0  0  0  0  0  0  0  0  0  0  0  0
  151.7852  143.8531  159.0170 C   0  0  0  0  0  0  0  0  0  0  0  0
  152.7125  143.9631  159.9689 F   0  0  0  0  0  0  0  0  0  0  0  0
  152.1871  144.5349  157.9455 F   0  0  0  0  0  0  0  0  0  0  0  0
  150.6531  144.3915  159.4708 F   0  0  0  0  0  0  0  0  0  0  0  0
  152.3307  141.3626  159.2005 C   0  0  0  0  0  0  0  0  0  0  0  0
  152.0901  140.0330  158.8028 C   0  0  0  0  0  0  0  0  0  0  0  0
  153.0148  138.7513  159.5044 Cl  0  0  0  0  0  0  0  0  0  0  0  0
  151.6607  139.2782  153.5944 H   0  0  0  0  0  0  0  0  0  0  0  0
  150.4632  138.4550  154.5722 H   0  0  0  0  0  0  0  0  0  0  0  0
  152.7487  137.6542  157.2819 H   0  0  0  0  0  0  0  0  0  0  0  0
  150.5699  136.4662  155.4802 H   0  0  0  0  0  0  0  0  0  0  0  0
  152.1885  135.8384  155.7143 H   0  0  0  0  0  0  0  0  0  0  0  0
  149.0134  136.3686  157.3082 H   0  0  0  0  0  0  0  0  0  0  0  0
  149.5344  135.6469  158.8195 H   0  0  0  0  0  0  0  0  0  0  0  0
  149.4606  138.1504  158.9833 H   0  0  0  0  0  0  0  0  0  0  0  0
  151.0742  137.5264  159.2733 H   0  0  0  0  0  0  0  0  0  0  0  0
  149.9822  142.8081  157.2029 H   0  0  0  0  0  0  0  0  0  0  0  0
  153.0953  141.5773  159.9325 H   0  0  0  0  0  0  0  0  0  0  0  0
  1  2  1  0  0  0  0
  1 21  1  0  0  0  0
  1 22  1  0  0  0  0
  2  3  2  0  0  0  0
  2  4  1  0  0  0  0
  4  9  1  0  0  0  0
  4  5  1  0  0  0  0
  4 23  1  0  0  0  0
  5  6  1  0  0  0  0
  5 24  1  0  0  0  0
  5 25  1  0  0  0  0
  6  7  1  0  0  0  0
  7  8  1  0  0  0  0
  7 26  1  0  0  0  0
  7 27  1  0  0  0  0
  8  9  1  0  0  0  0
  8 28  1  0  0  0  0
  8 29  1  0  0  0  0
  9 10  1  0  0  0  0
 10 19  1  0  0  0  0
 10 11  2  0  0  0  0
 11 12  1  0  0  0  0
 12 13  2  0  0  0  0
 12 30  1  0  0  0  0
 13 14  1  0  0  0  0
 13 18  1  0  0  0  0
 14 15  1  0  0  0  0
 14 16  1  0  0  0  0
 14 17  1  0  0  0  0
 18 19  2  0  0  0  0
 18 31  1  0  0  0  0
 19 20  1  0  0  0  0
M  END
> <s_m_source_file>
AV-unprocessed.smi

> <i_m_source_file_index>
2338

> <i_lp_mmshare_version>
43012

> <i_f3d_flags>
0

> <s_epik_input>
W05IMl1DKD1PKVtDQEBIXTFbQ0gyXU9bQ0gyXVtDSDJdTjFjMm5bY0hdYyhDKEYpKEYpRilbY0hdYzJDbA==

> <s_epik_cmdline>
J2VwaWtfcHl0aG9uJywgJy1waCcsICc3LjAnLCAnLXRuJywgJzgnLCAnLW1hJywgJzIwMCcsICctbWV0YWxfYmluZGluZycsICctaW1hZScsICc8aW5maWxlLm1hZT4nLCAnLW9tYWUnLCAnPG91dGZpbGUubWFlPic=

> <r_lp_tautomer_probability>
1

> <r_epik_Ionization_Penalty>
1.71167e-07

> <r_epik_Ionization_Penalty_Charging>
0

> <r_epik_Ionization_Penalty_Neutral>
1.71167e-07

> <r_epik_State_Penalty>
-0

> <r_epik_Charging_Adjusted_Penalty>
0

> <i_epik_Tot_Q>
0

> <i_epik_Tot_abs_Q>
0

> <r_epik_Metal_State_Penalty>
-0

> <b_epik_Metal_Only>
0

> <s_lp_Force_Field>
OPLS_2005

> <r_lp_Energy>
18.5611

> <b_lp_Chiralities_Consistent>
1

> <s_lp_Variant>
AV-unprocessed.smi:2338-1

> <Gold.Version>
5.8.1

> <Gold.Id.Protein>
6NUR|6NUR_protein|mol2

> <Gold.PLP.Fitness>
41.3334

> <Gold.PLP.PLP>
-35.3566

> <Gold.PLP.part.hbond>
-1.7386

> <Gold.PLP.part.metal>
0.0000

> <Gold.PLP.part.buried>
-6.6220

> <Gold.PLP.part.nonpolar>
-26.4810

> <Gold.PLP.part.repulsive>
0.1664

> <Gold.PLP.ligand.clash>
0.4212

> <Gold.PLP.ligand.torsion>
0.1185

> <Gold.PLP.Chemscore.Hbond>
1.0000

> <Gold.PLP.Chemscore.CHOScore>
1.0000

> <Gold.PLP.Chemscore.Metal>
0.0000

> <Gold.Chemscore.Hbonds>
donor molecule, donor type, donor heavy atom, donor atom, acceptor molecule, acceptor atom, score
      P1  H  7997  8010       L1     3  0.99
      L1  C    12    30       P1  8028  0.61

> <Gold.PLP.Chemscore.Internal.Correction>
0.6351

> <Gold.Rescore>
     Score         DG    S(hbond)    S(metal)    S(lipo)     H(rot)  DE(clash)    DE(int)     intcor
     11.91     -12.03       0.98        0.00      61.23       1.51       0.02       0.11       ----

> <Gold.Chemscore.Fitness>
11.9071

> <Gold.Chemscore.DG>
-12.0349

> <Gold.Chemscore.ZeroCoef>
-5.4800

> <Gold.Chemscore.Hbond>
0.9754

> <Gold.Chemscore.Metal>
0.0000

> <Gold.Chemscore.Lipo>
61.2339

> <Gold.Chemscore.Internal_Hbond>
0.0000

> <Gold.Chemscore.DEClash>
0.0177

> <Gold.Chemscore.DEInternal>
0.1101

> <Gold.Chemscore.Rot>
1.5107

> <Gold.Chemscore.Internal.Correction>
   9.000000E+99

> <Gold.Chemscore.Hbonds>
donor molecule, donor type, donor heavy atom, donor atom, acceptor molecule, acceptor atom, score
      P1  H  7997  8010       L1     3  0.94

> <Gold.Chemscore.Hbond.Weighted>
-3.2579

> <Gold.Chemscore.Metal.Weighted>
-0.0000

> <Gold.Chemscore.Lipo.Weighted>
-7.1644

> <Gold.Chemscore.Internal_Hbond.Weighted>
0.0000

> <Gold.Chemscore.DEClash.Weighted>
0.0177

> <Gold.Chemscore.DEInternal.Weighted>
0.1101

> <Gold.Chemscore.Rot.Weighted>
3.8674

> <Gold.Chemscore.Internal.Correction.Weighted>
   9.000000E+99

> <Gold.Protein.RotatedTorsions>
[ 6907 6896 6895 6894 ] final -142.28 input  -60.11 | X-H torsion
[ 7974 7965 7964 7962 ] final  -31.20 input  175.53 | X-H torsion
[ 8008 7997 7996 7995 ] final   92.76 input   59.86 | X-H torsion
[ 10167 10162 10161 10158 ] final -173.35 input  -65.29 | X-H torsion
[ 10718 10713 10712 10709 ] final   13.77 input   66.30 | X-H torsion
[ 10763 10752 10751 10750 ] final -155.00 input  -60.55 | X-H torsion
[ 11005 11000 10999 10996 ] final   65.52 input  -57.11 | X-H torsion

> <Gold.Protein.ActiveResidues>
 VAL166  LYS551  ARG553  GLY616  TRP617  ASP618  TYR619  PRO620  LYS621  CYS622 
 ASP623  PHE694  ASN695  SER759  ASP760  ASP761  ALA762  ILE779  LEU786  VAL792 
 PHE793  MET794  SER795  GLU796  ALA797  LYS798  CYS799  TRP800  GLU811  SER814 

> <Gold.Protein.RotatedAtoms>
  151.0849  133.5361  159.2618 H   0  0  0  0  0  0  0  0  0  0  0  0  # atno 6907 bound_to 6896
  151.2250  135.0532  159.8974 H   0  0  0  0  0  0  0  0  0  0  0  0  # atno 6908 bound_to 6896
  152.5428  134.0647  159.8221 H   0  0  0  0  0  0  0  0  0  0  0  0  # atno 6909 bound_to 6896
  146.1085  140.5637  142.8788 H   0  0  0  0  0  0  0  0  0  0  0  0  # atno 7974 bound_to 7965
  156.0391  140.3321  155.7224 H   0  0  0  0  0  0  0  0  0  0  0  0  # atno 8008 bound_to 7997
  155.5771  140.0633  157.2810 H   0  0  0  0  0  0  0  0  0  0  0  0  # atno 8009 bound_to 7997
  154.4385  140.1850  156.0927 H   0  0  0  0  0  0  0  0  0  0  0  0  # atno 8010 bound_to 7997
  139.5693  144.1679  152.1360 H   0  0  0  0  0  0  0  0  0  0  0  0  # atno 10167 bound_to 10162
  157.0295  130.6187  149.5733 H   0  0  0  0  0  0  0  0  0  0  0  0  # atno 10718 bound_to 10713
  154.7819  135.3177  154.7972 H   0  0  0  0  0  0  0  0  0  0  0  0  # atno 10763 bound_to 10752
  153.8681  135.6847  153.4781 H   0  0  0  0  0  0  0  0  0  0  0  0  # atno 10764 bound_to 10752
  153.1458  135.4720  154.9501 H   0  0  0  0  0  0  0  0  0  0  0  0  # atno 10765 bound_to 10752
  139.9889  134.6623  156.0126 H   0  0  0  0  0  0  0  0  0  0  0  0  # atno 11005 bound_to 11000
  144.7491  140.5145  143.6814 LP  0  0  0  0  0  0  0  0  0  0  0  0  # atno 17320 bound_to 7965
  145.5712  139.1483  143.3287 LP  0  0  0  0  0  0  0  0  0  0  0  0  # atno 17321 bound_to 7965
  140.1209  144.5374  150.6864 LP  0  0  0  0  0  0  0  0  0  0  0  0  # atno 17342 bound_to 10162
  140.6978  143.2415  151.4952 LP  0  0  0  0  0  0  0  0  0  0  0  0  # atno 17343 bound_to 10162
  156.0074  130.5163  150.7877 LP  0  0  0  0  0  0  0  0  0  0  0  0  # atno 17370 bound_to 10713
  157.5189  131.0930  151.0104 LP  0  0  0  0  0  0  0  0  0  0  0  0  # atno 17371 bound_to 10713
  141.1549  133.6544  156.4129 LP  0  0  0  0  0  0  0  0  0  0  0  0  # atno 17394 bound_to 11000
  140.4947  134.6542  157.5225 LP  0  0  0  0  0  0  0  0  0  0  0  0  # atno 17395 bound_to 11000

$$$$
