#       Name:                AV-unprocessed.smi:877
#       Creating user name   scv26
#       Creation time:       Fri Mar 27 01:52:11 2020


#       File generated by GOLD software.
#

@<TRIPOS>MOLECULE
AV-unprocessed.smi:877
    50    52     1
SMALL
NO_CHARGES


@<TRIPOS>ATOM
      1 ****        -3.0552   4.8166   2.9960 C.3            1 S1                 0.0000
      2 ****        -2.8987   4.8838   1.5861 O.3            1 S1                 0.0000
      3 ****        -2.0397   3.9888   0.9854 C.ar           1 S1                 0.0000
      4 ****        -1.9244   4.0554  -0.4183 C.ar           1 S1                 0.0000
      5 ****        -1.0756   3.1750  -1.1157 C.ar           1 S1                 0.0000
      6 ****        -0.3252   2.2116  -0.4128 C.ar           1 S1                 0.0000
      7 ****         0.5806   1.2492  -1.1591 C.3            1 S1                 0.0000
      8 ****         0.0391  -0.1468  -1.1976 C.2            1 S1                 0.0000
      9 ****        -1.2753  -0.4929  -1.3173 N.pl3          1 S1                 1.0000
     10 ****        -1.4041  -1.8815  -1.3037 C.ar           1 S1                 0.0000
     11 ****        -2.5309  -2.6934  -1.3876 C.ar           1 S1                 0.0000
     12 ****        -2.3120  -4.0859  -1.3413 C.ar           1 S1                 0.0000
     13 ****        -1.0134  -4.6213  -1.2175 C.ar           1 S1                 0.0000
     14 ****         0.1214  -3.7873  -1.1335 C.ar           1 S1                 0.0000
     15 ****        -0.1043  -2.4119  -1.1788 C.ar           1 S1                 0.0000
     16 ****         0.7535  -1.3077  -1.1203 N.pl3          1 S1                 0.0000
     17 ****         2.2013  -1.5358  -0.9850 C.3            1 S1                 0.0000
     18 ****         2.6305  -1.8151   0.4695 C.3            1 S1                 0.0000
     19 ****         2.2637  -0.7139   1.2789 O.3            1 S1                 0.0000
     20 ****         4.1488  -2.0346   0.5842 C.3            1 S1                 0.0000
     21 ****         4.4662  -2.6343   1.8223 O.3            1 S1                 0.0000
     22 ****        -0.4276   2.1403   0.9912 C.ar           1 S1                 0.0000
     23 ****        -1.2789   3.0201   1.6876 C.ar           1 S1                 0.0000
     24 ****        -3.7717   5.5735   3.3145 H              1 S1                 0.0000
     25 ****        -2.1148   5.0147   3.5119 H              1 S1                 0.0000
     26 ****        -3.4416   3.8454   3.3082 H              1 S1                 0.0000
     27 ****        -2.4963   4.7891  -0.9673 H              1 S1                 0.0000
     28 ****        -1.0065   3.2415  -2.1917 H              1 S1                 0.0000
     29 ****         0.7362   1.5945  -2.1816 H              1 S1                 0.0000
     30 ****         1.5579   1.2534  -0.6766 H              1 S1                 0.0000
     31 ****        -3.5266  -2.2852  -1.4814 H              1 S1                 0.0000
     32 ****        -3.1568  -4.7568  -1.4013 H              1 S1                 0.0000
     33 ****        -0.8845  -5.6935  -1.1851 H              1 S1                 0.0000
     34 ****         1.1114  -4.2074  -1.0352 H              1 S1                 0.0000
     35 ****         2.4801  -2.3637  -1.6378 H              1 S1                 0.0000
     36 ****         2.7178  -0.6583  -1.3750 H              1 S1                 0.0000
     37 ****         2.1042  -2.6999   0.8304 H              1 S1                 0.0000
     38 ****         2.7748   0.0361   1.0157 H              1 S1                 0.0000
     39 ****         4.4914  -2.7103  -0.2003 H              1 S1                 0.0000
     40 ****         4.6988  -1.1002   0.4659 H              1 S1                 0.0000
     41 ****         5.4013  -2.7649   1.8630 H              1 S1                 0.0000
     42 ****         0.1431   1.4042   1.5388 H              1 S1                 0.0000
     43 ****        -1.3315   2.9306   2.7620 H              1 S1                 0.0000
     44 ****        -2.0286   0.1788  -1.3919 H              1 S1                 0.0000
     45 ****        -2.5709   5.8028   1.3671 LP             1 S1                 0.0000
     46 ****        -3.8022   4.7466   1.1801 LP             1 S1                 0.0000
     47 ****         2.4458  -0.9258   2.2391 LP             1 S1                 0.0000
     48 ****         1.2905  -0.5173   1.1598 LP             1 S1                 0.0000
     49 ****         3.9993  -3.5152   1.8995 LP             1 S1                 0.0000
     50 ****         4.1766  -2.0369   2.5702 LP             1 S1                 0.0000
@<TRIPOS>BOND
    1    1    2 1     
    2    1   24 1     
    3    1   25 1     
    4    1   26 1     
    5    2    3 1     
    6    3   23 ar    
    7    3    4 ar    
    8    4    5 ar    
    9    4   27 1     
   10    5    6 ar    
   11    5   28 1     
   12    6    7 1     
   13    6   22 ar    
   14    7    8 1     
   15    7   29 1     
   16    7   30 1     
   17    8   16 1     
   18    8    9 2     
   19    9   10 1     
   20    9   44 1     
   21   10   15 ar    
   22   10   11 ar    
   23   11   12 ar    
   24   11   31 1     
   25   12   13 ar    
   26   12   32 1     
   27   13   14 ar    
   28   13   33 1     
   29   14   15 ar    
   30   14   34 1     
   31   15   16 1     
   32   16   17 1     
   33   17   18 1     
   34   17   35 1     
   35   17   36 1     
   36   18   19 1     
   37   18   20 1     
   38   18   37 1     
   39   19   38 1     
   40   20   21 1     
   41   20   39 1     
   42   20   40 1     
   43   21   41 1     
   44   22   23 ar    
   45   22   42 1     
   46   23   43 1     
   47    2   45 1     
   48    2   46 1     
   49   19   47 1     
   50   19   48 1     
   51   21   49 1     
   52   21   50 1     
@<TRIPOS>SUBSTRUCTURE
      1 S1             1
@<TRIPOS>SET
LONE_PAIRS      STATIC     ATOMS    <user>   **** ""
6 45 46 47 48 49 50
DONOR_HYDROGENS      STATIC     ATOMS    <user>   **** ""
3 44 38 41
ATOM$BLUE        STATIC     ATOMS    COLORGROUP SYSTEM
6 45 46 47 48 49 50
ATOM$RED        STATIC     ATOMS    COLORGROUP SYSTEM
3 44 38 41
