AV-unprocessed.smi:2858|AV-procd|sdf|10999|dock3
  -GOLD-   2272015453D 1   1.00000     0.00000
 Structure written by MMmdl.
 40 41  0  0  0  0  0  0  0  0  2 V2000
  143.7250  142.6852  156.6380 O   0  0  0  0  0  0  0  0  0  0  0  0
  144.5186  142.6231  155.7026 C   0  0  0  0  0  0  0  0  0  0  0  0
  145.3200  141.3329  155.4710 C   0  0  0  0  0  0  0  0  0  0  0  0
  145.9454  141.2432  154.1259 N   0  3  2  0  0  0  0  0  0  0  0  0
  146.7989  140.0373  153.9855 C   0  0  0  0  0  0  0  0  0  0  0  0
  148.0478  140.0931  154.8815 C   0  0  0  0  0  0  0  0  0  0  0  0
  149.1683  140.9474  154.2658 C   0  0  0  0  0  0  0  0  0  0  0  0
  149.5971  142.0069  155.1717 N   0  0  0  0  0  0  0  0  0  0  0  0
  150.3765  141.8266  156.2480 C   0  0  0  0  0  0  0  0  0  0  0  0
  150.8085  140.7264  156.5943 O   0  0  0  0  0  0  0  0  0  0  0  0
  150.5977  142.9856  156.8920 N   0  0  0  0  0  0  0  0  0  0  0  0
  151.3312  143.1933  158.0897 C   0  0  0  0  0  0  0  0  0  0  0  0
  151.4643  144.4966  158.6335 C   0  0  0  0  0  0  0  0  0  0  0  0
  152.1727  144.6730  159.8377 C   0  0  0  0  0  0  0  0  0  0  0  0
  152.7206  143.5454  160.4742 C   0  0  0  0  0  0  0  0  0  0  0  0
  152.5258  142.2870  159.8763 C   0  0  0  0  0  0  0  0  0  0  0  0
  151.8454  142.1138  158.7230 N   0  0  0  0  0  0  0  0  0  0  0  0
  146.6306  142.5041  153.7527 C   0  0  0  0  0  0  0  0  0  0  0  0
  145.6246  143.6683  153.7292 C   0  0  0  0  0  0  0  0  0  0  0  0
  144.7127  143.6589  154.8703 N   0  0  0  0  0  0  0  0  0  0  0  0
  146.0961  141.2777  156.2360 H   0  0  0  0  0  0  0  0  0  0  0  0
  144.6604  140.4772  155.6210 H   0  0  0  0  0  0  0  0  0  0  0  0
  146.2119  139.1408  154.1908 H   0  0  0  0  0  0  0  0  0  0  0  0
  147.1315  139.9582  152.9492 H   0  0  0  0  0  0  0  0  0  0  0  0
  147.7783  140.4996  155.8573 H   0  0  0  0  0  0  0  0  0  0  0  0
  148.4249  139.0867  155.0603 H   0  0  0  0  0  0  0  0  0  0  0  0
  150.0214  140.3228  153.9953 H   0  0  0  0  0  0  0  0  0  0  0  0
  148.8191  141.4120  153.3432 H   0  0  0  0  0  0  0  0  0  0  0  0
  149.2838  142.9436  154.9608 H   0  0  0  0  0  0  0  0  0  0  0  0
  150.0931  143.7900  156.5502 H   0  0  0  0  0  0  0  0  0  0  0  0
  151.0245  145.3582  158.1542 H   0  0  0  0  0  0  0  0  0  0  0  0
  152.2877  145.6568  160.2680 H   0  0  0  0  0  0  0  0  0  0  0  0
  153.2694  143.6417  161.3993 H   0  0  0  0  0  0  0  0  0  0  0  0
  152.9234  141.3950  160.3371 H   0  0  0  0  0  0  0  0  0  0  0  0
  147.4237  142.7073  154.4742 H   0  0  0  0  0  0  0  0  0  0  0  0
  147.1065  142.4242  152.7762 H   0  0  0  0  0  0  0  0  0  0  0  0
  146.1496  144.6233  153.6928 H   0  0  0  0  0  0  0  0  0  0  0  0
  145.0184  143.6093  152.8244 H   0  0  0  0  0  0  0  0  0  0  0  0
  144.1826  144.5026  155.0379 H   0  0  0  0  0  0  0  0  0  0  0  0
  145.1816  141.1303  153.4748 H   0  0  0  0  0  0  0  0  0  0  0  0
  1  2  2  0  0  0  0
  2 20  1  0  0  0  0
  2  3  1  0  0  0  0
  3  4  1  0  0  0  0
  3 21  1  0  0  0  0
  3 22  1  0  0  0  0
  4  5  1  0  0  0  0
  4 18  1  0  0  0  0
  4 40  1  0  0  0  0
  5  6  1  0  0  0  0
  5 23  1  0  0  0  0
  5 24  1  0  0  0  0
  6  7  1  0  0  0  0
  6 25  1  0  0  0  0
  6 26  1  0  0  0  0
  7  8  1  0  0  0  0
  7 27  1  0  0  0  0
  7 28  1  0  0  0  0
  8  9  1  0  0  0  0
  8 29  1  0  0  0  0
  9 10  2  0  0  0  0
  9 11  1  0  0  0  0
 11 12  1  0  0  0  0
 11 30  1  0  0  0  0
 12 17  1  0  0  0  0
 12 13  2  0  0  0  0
 13 14  1  0  0  0  0
 13 31  1  0  0  0  0
 14 15  2  0  0  0  0
 14 32  1  0  0  0  0
 15 16  1  0  0  0  0
 15 33  1  0  0  0  0
 16 17  2  0  0  0  0
 16 34  1  0  0  0  0
 18 19  1  0  0  0  0
 18 35  1  0  0  0  0
 18 36  1  0  0  0  0
 19 20  1  0  0  0  0
 19 37  1  0  0  0  0
 19 38  1  0  0  0  0
 20 39  1  0  0  0  0
M  CHG  1   4   1
M  END
> <s_m_source_file>
AV-unprocessed.smi

> <i_m_source_file_index>
2858

> <i_lp_mmshare_version>
43012

> <i_f3d_flags>
0

> <s_epik_input>
Tz1DMVtDSDJdTihbQ0gyXVtDSDJdW05IXTEpW0NIMl1bQ0gyXVtDSDJdW05IXUMoPU8pW05IXWMyW2NIXVtjSF1bY0hdW2NIXW4y

> <s_epik_cmdline>
J2VwaWtfcHl0aG9uJywgJy1waCcsICc3LjAnLCAnLXRuJywgJzgnLCAnLW1hJywgJzIwMCcsICctbWV0YWxfYmluZGluZycsICctaW1hZScsICc8aW5maWxlLm1hZT4nLCAnLW9tYWUnLCAnPG91dGZpbGUubWFlPic=

> <r_epik_Ionization_Penalty>
0.11034

> <r_epik_Ionization_Penalty_Charging>
0.110189

> <r_epik_Ionization_Penalty_Neutral>
0.000150894

> <r_epik_State_Penalty>
0.0999426

> <r_epik_Charging_Adjusted_Penalty>
0.210132

> <i_epik_Tot_Q>
1

> <i_epik_Tot_abs_Q>
1

> <r_epik_Metal_State_Penalty>
0.172915

> <b_epik_Metal_Only>
0

> <s_lp_Force_Field>
OPLS_2005

> <r_lp_Energy>
23.7119

> <b_lp_Chiralities_Consistent>
1

> <s_lp_Variant>
AV-unprocessed.smi:2858-1

> <Gold.Version>
5.8.1

> <Gold.Id.Protein>
6NUR|6NUR_protein|mol2

> <Gold.PLP.Fitness>
50.8134

> <Gold.PLP.PLP>
-40.0279

> <Gold.PLP.part.hbond>
-3.0000

> <Gold.PLP.part.metal>
0.0000

> <Gold.PLP.part.buried>
-6.8785

> <Gold.PLP.part.nonpolar>
-30.8027

> <Gold.PLP.part.repulsive>
0.3030

> <Gold.PLP.ligand.clash>
0.0000

> <Gold.PLP.ligand.torsion>
0.5862

> <Gold.PLP.Chemscore.Hbond>
3.9760

> <Gold.PLP.Chemscore.CHOScore>
0.0000

> <Gold.PLP.Chemscore.Metal>
0.0000

> <Gold.Chemscore.Hbonds>
donor molecule, donor type, donor heavy atom, donor atom, acceptor molecule, acceptor atom, score
      L1  H     4    40       P1 10175  2.00
      L1  H     8    29       P1  8028  0.96
      L1  H    11    30       P1  8028  1.00

> <Gold.PLP.Chemscore.Internal.Correction>
0.0299

> <Gold.Rescore>
     Score         DG    S(hbond)    S(metal)    S(lipo)     H(rot)  DE(clash)    DE(int)     intcor
     17.38     -19.52       2.92        0.00      81.99       2.08       0.03       2.10       ----

> <Gold.Chemscore.Fitness>
17.3811

> <Gold.Chemscore.DG>
-19.5180

> <Gold.Chemscore.ZeroCoef>
-5.4800

> <Gold.Chemscore.Hbond>
2.9233

> <Gold.Chemscore.Metal>
0.0000

> <Gold.Chemscore.Lipo>
81.9912

> <Gold.Chemscore.Internal_Hbond>
0.0000

> <Gold.Chemscore.DEClash>
0.0321

> <Gold.Chemscore.DEInternal>
2.1048

> <Gold.Chemscore.Rot>
2.0777

> <Gold.Chemscore.Internal.Correction>
   9.000000E+99

> <Gold.Chemscore.Hbonds>
donor molecule, donor type, donor heavy atom, donor atom, acceptor molecule, acceptor atom, score
      L1  H     4    40       P1 10175  0.45
      L1  H     8    29       P1  8028  0.91
      L1  H    11    30       P1  8028  1.00

> <Gold.Chemscore.Hbond.Weighted>
-9.7638

> <Gold.Chemscore.Metal.Weighted>
-0.0000

> <Gold.Chemscore.Lipo.Weighted>
-9.5930

> <Gold.Chemscore.Internal_Hbond.Weighted>
0.0000

> <Gold.Chemscore.DEClash.Weighted>
0.0321

> <Gold.Chemscore.DEInternal.Weighted>
2.1048

> <Gold.Chemscore.Rot.Weighted>
5.3188

> <Gold.Chemscore.Internal.Correction.Weighted>
   9.000000E+99

> <Gold.Protein.RotatedTorsions>
[ 6907 6896 6895 6894 ] final  -54.08 input  -60.11 | X-H torsion
[ 7974 7965 7964 7962 ] final -107.73 input  175.53 | X-H torsion
[ 8008 7997 7996 7995 ] final  167.98 input   59.86 | X-H torsion
[ 10167 10162 10161 10158 ] final -138.74 input  -65.29 | X-H torsion
[ 10718 10713 10712 10709 ] final -162.97 input   66.30 | X-H torsion
[ 10763 10752 10751 10750 ] final  165.56 input  -60.55 | X-H torsion
[ 11005 11000 10999 10996 ] final   63.36 input  -57.11 | X-H torsion

> <Gold.Protein.ActiveResidues>
 VAL166  LYS551  ARG553  GLY616  TRP617  ASP618  TYR619  PRO620  LYS621  CYS622 
 ASP623  PHE694  ASN695  SER759  ASP760  ASP761  ALA762  ILE779  LEU786  VAL792 
 PHE793  MET794  SER795  GLU796  ALA797  LYS798  CYS799  TRP800  GLU811  SER814 

> <Gold.Protein.RotatedAtoms>
  150.8369  134.7646  159.6900 H   0  0  0  0  0  0  0  0  0  0  0  0  # atno 6907 bound_to 6896
  152.4464  134.5482  159.9869 H   0  0  0  0  0  0  0  0  0  0  0  0  # atno 6908 bound_to 6896
  151.5630  133.3363  159.3010 H   0  0  0  0  0  0  0  0  0  0  0  0  # atno 6909 bound_to 6896
  145.2017  140.9059  143.3366 H   0  0  0  0  0  0  0  0  0  0  0  0  # atno 7974 bound_to 7965
  156.1587  140.1602  156.8649 H   0  0  0  0  0  0  0  0  0  0  0  0  # atno 8008 bound_to 7997
  154.5139  140.0794  156.8080 H   0  0  0  0  0  0  0  0  0  0  0  0  # atno 8009 bound_to 7997
  155.3751  140.3402  155.4247 H   0  0  0  0  0  0  0  0  0  0  0  0  # atno 8010 bound_to 7997
  139.8448  143.7274  152.2661 H   0  0  0  0  0  0  0  0  0  0  0  0  # atno 10167 bound_to 10162
  156.6180  130.8878  151.2951 H   0  0  0  0  0  0  0  0  0  0  0  0  # atno 10718 bound_to 10713
  154.3258  135.2755  155.2496 H   0  0  0  0  0  0  0  0  0  0  0  0  # atno 10763 bound_to 10752
  154.4830  135.5853  153.6406 H   0  0  0  0  0  0  0  0  0  0  0  0  # atno 10764 bound_to 10752
  152.9871  135.6116  154.3447 H   0  0  0  0  0  0  0  0  0  0  0  0  # atno 10765 bound_to 10752
  140.0030  134.6413  155.9901 H   0  0  0  0  0  0  0  0  0  0  0  0  # atno 11005 bound_to 11000
  144.9942  139.3660  143.6200 LP  0  0  0  0  0  0  0  0  0  0  0  0  # atno 17320 bound_to 7965
  146.3416  139.9137  142.8776 LP  0  0  0  0  0  0  0  0  0  0  0  0  # atno 17321 bound_to 7965
  139.7523  144.7531  151.0488 LP  0  0  0  0  0  0  0  0  0  0  0  0  # atno 17342 bound_to 10162
  140.7794  143.4846  150.9973 LP  0  0  0  0  0  0  0  0  0  0  0  0  # atno 17343 bound_to 10162
  157.7235  130.9591  150.1538 LP  0  0  0  0  0  0  0  0  0  0  0  0  # atno 17370 bound_to 10713
  156.2335  130.3684  149.8418 LP  0  0  0  0  0  0  0  0  0  0  0  0  # atno 17371 bound_to 10713
  141.1656  133.6537  156.4467 LP  0  0  0  0  0  0  0  0  0  0  0  0  # atno 17394 bound_to 11000
  140.4694  134.6768  157.5122 LP  0  0  0  0  0  0  0  0  0  0  0  0  # atno 17395 bound_to 11000

$$$$
