AV-unprocessed.smi:1403|AV-procd|sdf|5699|dock3
  -GOLD-   22720 5333D 1   1.00000     0.00000
 Structure written by MMmdl.
 36 37  0  0  0  0  0  0  0  0  1 V2000
  148.4408  132.7772  155.5562 C   0  0  0  0  0  0  0  0  0  0  0  0
  149.1890  133.0634  154.2462 C   0  0  2  0  0  0  0  0  0  0  0  0
  148.3216  133.8529  153.3735 N   0  0  0  0  0  0  0  0  0  0  0  0
  147.0605  133.5492  153.0280 C   0  0  0  0  0  0  0  0  0  0  0  0
  146.4681  132.5495  153.4360 O   0  0  0  0  0  0  0  0  0  0  0  0
  146.3573  134.5516  152.1018 C   0  0  0  0  0  0  0  0  0  0  0  0
  145.5341  133.9020  151.0715 N   0  0  0  0  0  0  0  0  0  0  0  0
  146.0390  132.8368  150.3393 C   0  0  0  0  0  0  0  0  0  0  0  0
  145.3390  132.1996  149.3709 C   0  0  0  0  0  0  0  0  0  0  0  0
  143.9802  132.6186  149.0444 C   0  0  0  0  0  0  0  0  0  0  0  0
  143.2661  132.1043  148.1867 O   0  0  0  0  0  0  0  0  0  0  0  0
  143.5091  133.6948  149.8009 N   0  0  0  0  0  0  0  0  0  0  0  0
  144.2257  134.3572  150.7988 C   0  0  0  0  0  0  0  0  0  0  0  0
  143.7163  135.2994  151.4044 O   0  0  0  0  0  0  0  0  0  0  0  0
  149.6262  131.7645  153.5380 C   0  0  1  0  0  0  0  0  0  0  0  0
  150.5535  130.8637  154.3540 C   0  0  0  0  0  0  0  0  0  0  0  0
  150.3721  129.5322  153.6612 C   0  0  0  0  0  0  0  0  0  0  0  0
  148.8941  129.5598  153.2736 C   0  0  0  0  0  0  0  0  0  0  0  0
  148.5021  130.9311  153.2748 O   0  0  0  0  0  0  0  0  0  0  0  0
  142.5735  134.0218  149.6085 H   0  0  0  0  0  0  0  0  0  0  0  0
  149.0671  132.2219  156.2547 H   0  0  0  0  0  0  0  0  0  0  0  0
  147.5386  132.1904  155.3799 H   0  0  0  0  0  0  0  0  0  0  0  0
  148.1450  133.7038  156.0492 H   0  0  0  0  0  0  0  0  0  0  0  0
  150.0829  133.6368  154.4984 H   0  0  0  0  0  0  0  0  0  0  0  0
  148.7181  134.7009  152.9952 H   0  0  0  0  0  0  0  0  0  0  0  0
  145.7422  135.2066  152.7202 H   0  0  0  0  0  0  0  0  0  0  0  0
  147.0947  135.2074  151.6341 H   0  0  0  0  0  0  0  0  0  0  0  0
  147.0434  132.4946  150.5439 H   0  0  0  0  0  0  0  0  0  0  0  0
  145.7871  131.3760  148.8343 H   0  0  0  0  0  0  0  0  0  0  0  0
  150.1035  131.9976  152.5841 H   0  0  0  0  0  0  0  0  0  0  0  0
  151.5892  131.2042  154.3558 H   0  0  0  0  0  0  0  0  0  0  0  0
  150.2115  130.7974  155.3879 H   0  0  0  0  0  0  0  0  0  0  0  0
  150.9924  129.4935  152.7650 H   0  0  0  0  0  0  0  0  0  0  0  0
  150.6318  128.6818  154.2923 H   0  0  0  0  0  0  0  0  0  0  0  0
  148.7246  129.1055  152.2970 H   0  0  0  0  0  0  0  0  0  0  0  0
  148.2889  129.0242  154.0055 H   0  0  0  0  0  0  0  0  0  0  0  0
  1  2  1  0  0  0  0
  1 21  1  0  0  0  0
  1 22  1  0  0  0  0
  1 23  1  0  0  0  0
  2  3  1  0  0  0  0
  2 15  1  0  0  0  0
  2 24  1  0  0  0  0
  3  4  1  0  0  0  0
  3 25  1  0  0  0  0
  4  5  2  0  0  0  0
  4  6  1  0  0  0  0
  6  7  1  0  0  0  0
  6 26  1  0  0  0  0
  6 27  1  0  0  0  0
  7 13  1  0  0  0  0
  7  8  1  0  0  0  0
  8  9  2  0  0  0  0
  8 28  1  0  0  0  0
  9 10  1  0  0  0  0
  9 29  1  0  0  0  0
 10 11  2  0  0  0  0
 10 12  1  0  0  0  0
 12 20  1  0  0  0  0
 12 13  1  0  0  0  0
 13 14  2  0  0  0  0
 15 19  1  0  0  0  0
 15 16  1  0  0  0  0
 15 30  1  0  0  0  0
 16 17  1  0  0  0  0
 16 31  1  0  0  0  0
 16 32  1  0  0  0  0
 17 18  1  0  0  0  0
 17 33  1  0  0  0  0
 17 34  1  0  0  0  0
 18 19  1  0  0  0  0
 18 35  1  0  0  0  0
 18 36  1  0  0  0  0
M  END
> <s_m_source_file>
AV-unprocessed.smi

> <i_m_source_file_index>
1403

> <i_lp_mmshare_version>
43012

> <i_f3d_flags>
0

> <s_epik_input>
TzFbQ0gyXVtDSDJdW0NIMl1bQ0BIXTFbQ0BIXShbQ0gzXSlbTkhdQyg9TylbQ0gyXW4yW2NIXVtjSF1jKD1PKVtuSF1jMj1P

> <s_epik_cmdline>
J2VwaWtfcHl0aG9uJywgJy1waCcsICc3LjAnLCAnLXRuJywgJzgnLCAnLW1hJywgJzIwMCcsICctbWV0YWxfYmluZGluZycsICctaW1hZScsICc8aW5maWxlLm1hZT4nLCAnLW9tYWUnLCAnPG91dGZpbGUubWFlPic=

> <r_lp_tautomer_probability>
0.999537

> <r_epik_Ionization_Penalty>
0.00331407

> <r_epik_Ionization_Penalty_Charging>
0.00331405

> <r_epik_Ionization_Penalty_Neutral>
2.30132e-08

> <r_epik_State_Penalty>
0.00234266

> <r_epik_Charging_Adjusted_Penalty>
0.00565671

> <i_epik_Tot_Q>
0

> <i_epik_Tot_abs_Q>
0

> <r_epik_Metal_State_Penalty>
0.365604

> <b_epik_Metal_Only>
0

> <s_lp_Force_Field>
OPLS_2005

> <r_lp_Energy>
18.4227

> <b_lp_Chiralities_Consistent>
1

> <s_lp_Variant>
AV-unprocessed.smi:1403-3

> <Gold.Version>
5.8.1

> <Gold.Id.Protein>
6NUR|6NUR_protein|mol2

> <Gold.PLP.Fitness>
42.5831

> <Gold.PLP.PLP>
-32.8439

> <Gold.PLP.part.hbond>
-3.0000

> <Gold.PLP.part.metal>
0.0000

> <Gold.PLP.part.buried>
-6.0097

> <Gold.PLP.part.nonpolar>
-25.1047

> <Gold.PLP.part.repulsive>
0.8147

> <Gold.PLP.ligand.clash>
0.0000

> <Gold.PLP.ligand.torsion>
0.5267

> <Gold.PLP.Chemscore.Hbond>
2.5920

> <Gold.PLP.Chemscore.CHOScore>
1.0000

> <Gold.PLP.Chemscore.Metal>
0.0000

> <Gold.Chemscore.Hbonds>
donor molecule, donor type, donor heavy atom, donor atom, acceptor molecule, acceptor atom, score
      L1  H     3    25       P1  7948  0.90
      L1  H    12    20       P1 10186  1.00
      P1  H 10785 10796       L1    11  0.64
      L1  C     8    28       P1 10747  0.97

> <Gold.PLP.Chemscore.Internal.Correction>
0.0165

> <Gold.Rescore>
     Score         DG    S(hbond)    S(metal)    S(lipo)     H(rot)  DE(clash)    DE(int)     intcor
     10.51     -13.87       2.17        0.00      54.37       2.04       0.04       3.32       ----

> <Gold.Chemscore.Fitness>
10.5090

> <Gold.Chemscore.DG>
-13.8691

> <Gold.Chemscore.ZeroCoef>
-5.4800

> <Gold.Chemscore.Hbond>
2.1703

> <Gold.Chemscore.Metal>
0.0000

> <Gold.Chemscore.Lipo>
54.3722

> <Gold.Chemscore.Internal_Hbond>
0.0000

> <Gold.Chemscore.DEClash>
0.0412

> <Gold.Chemscore.DEInternal>
3.3190

> <Gold.Chemscore.Rot>
2.0395

> <Gold.Chemscore.Internal.Correction>
   9.000000E+99

> <Gold.Chemscore.Hbonds>
donor molecule, donor type, donor heavy atom, donor atom, acceptor molecule, acceptor atom, score
      L1  H     3    25       P1  7948  0.18
      L1  H    12    20       P1 10186  0.99
      P1  H 10785 10796       L1    11  0.27

> <Gold.Chemscore.Hbond.Weighted>
-7.2487

> <Gold.Chemscore.Metal.Weighted>
-0.0000

> <Gold.Chemscore.Lipo.Weighted>
-6.3615

> <Gold.Chemscore.Internal_Hbond.Weighted>
0.0000

> <Gold.Chemscore.DEClash.Weighted>
0.0412

> <Gold.Chemscore.DEInternal.Weighted>
3.3190

> <Gold.Chemscore.Rot.Weighted>
5.2211

> <Gold.Chemscore.Internal.Correction.Weighted>
   9.000000E+99

> <Gold.Protein.RotatedTorsions>
[ 6907 6896 6895 6894 ] final -108.53 input  -60.11 | X-H torsion
[ 7974 7965 7964 7962 ] final    6.04 input  175.53 | X-H torsion
[ 8008 7997 7996 7995 ] final   80.55 input   59.86 | X-H torsion
[ 10167 10162 10161 10158 ] final   44.91 input  -65.29 | X-H torsion
[ 10718 10713 10712 10709 ] final -140.33 input   66.30 | X-H torsion
[ 10763 10752 10751 10750 ] final  164.59 input  -60.55 | X-H torsion
[ 11005 11000 10999 10996 ] final  -79.24 input  -57.11 | X-H torsion

> <Gold.Protein.ActiveResidues>
 VAL166  LYS551  ARG553  GLY616  TRP617  ASP618  TYR619  PRO620  LYS621  CYS622 
 ASP623  PHE694  ASN695  SER759  ASP760  ASP761  ALA762  ILE779  LEU786  VAL792 
 PHE793  MET794  SER795  GLU796  ALA797  LYS798  CYS799  TRP800  GLU811  SER814 

> <Gold.Protein.RotatedAtoms>
  150.7507  133.9663  159.3531 H   0  0  0  0  0  0  0  0  0  0  0  0  # atno 6907 bound_to 6896
  151.7593  135.0812  160.0352 H   0  0  0  0  0  0  0  0  0  0  0  0  # atno 6908 bound_to 6896
  152.3413  133.6034  159.5915 H   0  0  0  0  0  0  0  0  0  0  0  0  # atno 6909 bound_to 6896
  146.2437  140.0293  142.8391 H   0  0  0  0  0  0  0  0  0  0  0  0  # atno 7974 bound_to 7965
  155.8850  140.3442  155.5915 H   0  0  0  0  0  0  0  0  0  0  0  0  # atno 8008 bound_to 7997
  155.7677  140.0841  157.2143 H   0  0  0  0  0  0  0  0  0  0  0  0  # atno 8009 bound_to 7997
  154.4028  140.1524  156.2892 H   0  0  0  0  0  0  0  0  0  0  0  0  # atno 8010 bound_to 7997
  140.3295  144.2606  150.6170 H   0  0  0  0  0  0  0  0  0  0  0  0  # atno 10167 bound_to 10162
  156.3211  130.7534  151.1632 H   0  0  0  0  0  0  0  0  0  0  0  0  # atno 10718 bound_to 10713
  154.3112  135.2757  155.2565 H   0  0  0  0  0  0  0  0  0  0  0  0  # atno 10763 bound_to 10752
  154.4959  135.5821  153.6498 H   0  0  0  0  0  0  0  0  0  0  0  0  # atno 10764 bound_to 10752
  152.9888  135.6146  154.3289 H   0  0  0  0  0  0  0  0  0  0  0  0  # atno 10765 bound_to 10752
  141.1667  133.7097  156.8093 H   0  0  0  0  0  0  0  0  0  0  0  0  # atno 11005 bound_to 11000
  145.1169  140.9439  143.4623 LP  0  0  0  0  0  0  0  0  0  0  0  0  # atno 17320 bound_to 7965
  145.0519  139.3174  143.5924 LP  0  0  0  0  0  0  0  0  0  0  0  0  # atno 17321 bound_to 7965
  140.5410  143.2223  151.8084 LP  0  0  0  0  0  0  0  0  0  0  0  0  # atno 17342 bound_to 10162
  139.4859  144.4600  151.9552 LP  0  0  0  0  0  0  0  0  0  0  0  0  # atno 17343 bound_to 10162
  157.7412  131.0507  150.5115 LP  0  0  0  0  0  0  0  0  0  0  0  0  # atno 17370 bound_to 10713
  156.5267  130.4175  149.6222 LP  0  0  0  0  0  0  0  0  0  0  0  0  # atno 17371 bound_to 10713
  140.2199  134.8765  157.3366 LP  0  0  0  0  0  0  0  0  0  0  0  0  # atno 17394 bound_to 11000
  140.1999  134.4268  155.7668 LP  0  0  0  0  0  0  0  0  0  0  0  0  # atno 17395 bound_to 11000

$$$$
