AV-unprocessed.smi:1047|AV-procd|sdf|4595|dock9
  -GOLD-   22720 3 83D 1   1.00000     0.00000
 Structure written by MMmdl.
 55 57  0  0  0  0  0  0  0  0  1 V2000
  142.9767  144.2278  158.5739 C   0  0  0  0  0  0  0  0  0  0  0  0
  142.2935  144.5150  157.2291 C   0  0  0  0  0  0  0  0  0  0  0  0
  143.1908  144.9609  156.1645 N   0  0  0  0  0  0  0  0  0  0  0  0
  142.4362  145.4368  155.0105 C   0  0  0  0  0  0  0  0  0  0  0  0
  143.3592  145.9048  153.8732 C   0  0  0  0  0  0  0  0  0  0  0  0
  144.2383  144.8454  153.5111 O   0  0  0  0  0  0  0  0  0  0  0  0
  145.0434  144.3955  154.5986 C   0  0  2  0  0  0  0  0  0  0  0  0
  145.9559  143.2711  154.0892 C   0  0  0  0  0  0  0  0  0  0  0  0
  146.7359  142.6988  155.1813 N   0  0  0  0  0  0  0  0  0  0  0  0
  146.8512  141.2451  155.1214 C   0  0  0  0  0  0  0  0  0  0  0  0
  148.1422  140.8186  154.4020 C   0  0  1  0  0  0  0  0  0  0  0  0
  147.9119  140.8481  153.0062 O   0  0  0  0  0  0  0  0  0  0  0  0
  149.3192  141.7563  154.7327 C   0  0  0  0  0  0  0  0  0  0  0  0
  150.2630  141.1532  155.6567 N   0  0  0  0  0  0  0  0  0  0  0  0
  150.7954  139.9177  155.5888 C   0  0  0  0  0  0  0  0  0  0  0  0
  151.6415  139.5653  156.5526 N   0  0  0  0  0  0  0  0  0  0  0  0
  151.6600  140.7056  157.3378 C   0  0  0  0  0  0  0  0  0  0  0  0
  152.3645  140.9879  158.5286 C   0  0  0  0  0  0  0  0  0  0  0  0
  152.2315  142.2402  159.1700 C   0  0  0  0  0  0  0  0  0  0  0  0
  153.0077  142.5012  160.4489 C   0  0  0  0  0  0  0  0  0  0  0  0
  151.3831  143.2342  158.6192 C   0  0  0  0  0  0  0  0  0  0  0  0
  151.2279  144.5886  159.2879 C   0  0  0  0  0  0  0  0  0  0  0  0
  150.6702  142.9678  157.4313 C   0  0  0  0  0  0  0  0  0  0  0  0
  150.8106  141.7179  156.8030 C   0  0  0  0  0  0  0  0  0  0  0  0
  144.1124  143.9134  155.7293 C   0  0  0  0  0  0  0  0  0  0  0  0
  142.2335  144.0131  159.3420 H   0  0  0  0  0  0  0  0  0  0  0  0
  143.5605  145.0856  158.9094 H   0  0  0  0  0  0  0  0  0  0  0  0
  143.6412  143.3659  158.5183 H   0  0  0  0  0  0  0  0  0  0  0  0
  141.7416  143.6314  156.9047 H   0  0  0  0  0  0  0  0  0  0  0  0
  141.5447  145.2888  157.4035 H   0  0  0  0  0  0  0  0  0  0  0  0
  141.7858  144.6423  154.6411 H   0  0  0  0  0  0  0  0  0  0  0  0
  141.7854  146.2602  155.3070 H   0  0  0  0  0  0  0  0  0  0  0  0
  142.7711  146.1942  153.0022 H   0  0  0  0  0  0  0  0  0  0  0  0
  143.9363  146.7798  154.1762 H   0  0  0  0  0  0  0  0  0  0  0  0
  145.6547  145.2216  154.9684 H   0  0  0  0  0  0  0  0  0  0  0  0
  145.3474  142.4884  153.6347 H   0  0  0  0  0  0  0  0  0  0  0  0
  146.6120  143.6524  153.3057 H   0  0  0  0  0  0  0  0  0  0  0  0
  147.6606  143.1177  155.1963 H   0  0  0  0  0  0  0  0  0  0  0  0
  146.8041  140.8088  156.1201 H   0  0  0  0  0  0  0  0  0  0  0  0
  145.9955  140.8498  154.5723 H   0  0  0  0  0  0  0  0  0  0  0  0
  148.4104  139.8015  154.6922 H   0  0  0  0  0  0  0  0  0  0  0  0
  148.7182  140.6322  152.5638 H   0  0  0  0  0  0  0  0  0  0  0  0
  149.8508  142.0422  153.8236 H   0  0  0  0  0  0  0  0  0  0  0  0
  148.9508  142.6797  155.1816 H   0  0  0  0  0  0  0  0  0  0  0  0
  150.5441  139.2369  154.7886 H   0  0  0  0  0  0  0  0  0  0  0  0
  153.0106  140.2303  158.9473 H   0  0  0  0  0  0  0  0  0  0  0  0
  153.6990  143.3332  160.3125 H   0  0  0  0  0  0  0  0  0  0  0  0
  153.5885  141.6281  160.7478 H   0  0  0  0  0  0  0  0  0  0  0  0
  152.3283  142.7455  161.2658 H   0  0  0  0  0  0  0  0  0  0  0  0
  150.5376  145.2274  158.7366 H   0  0  0  0  0  0  0  0  0  0  0  0
  152.1889  145.1009  159.3401 H   0  0  0  0  0  0  0  0  0  0  0  0
  150.8403  144.4738  160.3004 H   0  0  0  0  0  0  0  0  0  0  0  0
  150.0187  143.7142  157.0015 H   0  0  0  0  0  0  0  0  0  0  0  0
  144.7258  143.5824  156.5668 H   0  0  0  0  0  0  0  0  0  0  0  0
  143.5488  143.0425  155.3906 H   0  0  0  0  0  0  0  0  0  0  0  0
  1  2  1  0  0  0  0
  1 26  1  0  0  0  0
  1 27  1  0  0  0  0
  1 28  1  0  0  0  0
  2  3  1  0  0  0  0
  2 29  1  0  0  0  0
  2 30  1  0  0  0  0
  3 25  1  0  0  0  0
  3  4  1  0  0  0  0
  4  5  1  0  0  0  0
  4 31  1  0  0  0  0
  4 32  1  0  0  0  0
  5  6  1  0  0  0  0
  5 33  1  0  0  0  0
  5 34  1  0  0  0  0
  6  7  1  0  0  0  0
  7  8  1  0  0  0  0
  7 25  1  0  0  0  0
  7 35  1  0  0  0  0
  8  9  1  0  0  0  0
  8 36  1  0  0  0  0
  8 37  1  0  0  0  0
  9 10  1  0  0  0  0
  9 38  1  0  0  0  0
 10 11  1  0  0  0  0
 10 39  1  0  0  0  0
 10 40  1  0  0  0  0
 11 12  1  0  0  0  0
 11 13  1  0  0  0  0
 11 41  1  0  0  0  0
 12 42  1  0  0  0  0
 13 14  1  0  0  0  0
 13 43  1  0  0  0  0
 13 44  1  0  0  0  0
 14 24  1  0  0  0  0
 14 15  1  0  0  0  0
 15 16  2  0  0  0  0
 15 45  1  0  0  0  0
 16 17  1  0  0  0  0
 17 24  2  0  0  0  0
 17 18  1  0  0  0  0
 18 19  2  0  0  0  0
 18 46  1  0  0  0  0
 19 20  1  0  0  0  0
 19 21  1  0  0  0  0
 20 47  1  0  0  0  0
 20 48  1  0  0  0  0
 20 49  1  0  0  0  0
 21 22  1  0  0  0  0
 21 23  2  0  0  0  0
 22 50  1  0  0  0  0
 22 51  1  0  0  0  0
 22 52  1  0  0  0  0
 23 24  1  0  0  0  0
 23 53  1  0  0  0  0
 25 54  1  0  0  0  0
 25 55  1  0  0  0  0
M  END
> <s_m_source_file>
AV-unprocessed.smi

> <i_m_source_file_index>
1047

> <i_lp_mmshare_version>
43012

> <i_f3d_flags>
0

> <s_epik_input>
W0NIM11bQ0gyXU4xW0NIMl1bQ0gyXU9bQ0BIXShbQ0gyXTEpW0NIMl1bTkhdW0NIMl1bQ0BIXShbT0hdKVtDSDJdbihbY0hdbjIpYyhjMjMpW2NIXWMoW0NIM10pYyhbY0hdMylbQ0gzXQ==

> <s_epik_cmdline>
J2VwaWtfcHl0aG9uJywgJy1waCcsICc3LjAnLCAnLXRuJywgJzgnLCAnLW1hJywgJzIwMCcsICctbWV0YWxfYmluZGluZycsICctaW1hZScsICc8aW5maWxlLm1hZT4nLCAnLW9tYWUnLCAnPG91dGZpbGUubWFlPic=

> <r_epik_Ionization_Penalty>
2.74124

> <r_epik_Ionization_Penalty_Charging>
0

> <r_epik_Ionization_Penalty_Neutral>
2.74124

> <r_epik_State_Penalty>
2.37482

> <r_epik_Charging_Adjusted_Penalty>
2.37482

> <i_epik_Tot_Q>
0

> <i_epik_Tot_abs_Q>
0

> <r_epik_Metal_State_Penalty>
2.25944

> <b_epik_Metal_Only>
0

> <s_lp_Force_Field>
OPLS_2005

> <r_lp_Energy>
34.1371

> <b_lp_Chiralities_Consistent>
1

> <s_lp_Variant>
AV-unprocessed.smi:1047-36

> <Gold.Version>
5.8.1

> <Gold.Id.Protein>
6NUR|6NUR_protein|mol2

> <Gold.PLP.Fitness>
48.5137

> <Gold.PLP.PLP>
-46.2895

> <Gold.PLP.part.hbond>
-2.0000

> <Gold.PLP.part.metal>
0.0000

> <Gold.PLP.part.buried>
-4.9569

> <Gold.PLP.part.nonpolar>
-38.9730

> <Gold.PLP.part.repulsive>
0.1599

> <Gold.PLP.ligand.clash>
0.0000

> <Gold.PLP.ligand.torsion>
1.5840

> <Gold.PLP.Chemscore.Hbond>
1.7454

> <Gold.PLP.Chemscore.CHOScore>
0.0000

> <Gold.PLP.Chemscore.Metal>
0.0000

> <Gold.Chemscore.Hbonds>
donor molecule, donor type, donor heavy atom, donor atom, acceptor molecule, acceptor atom, score
      L1  H     9    38       P1  8028  0.95
      L1  H    12    42       P1  7957  1.00

> <Gold.PLP.Chemscore.Internal.Correction>
0.1560

> <Gold.Rescore>
     Score         DG    S(hbond)    S(metal)    S(lipo)     H(rot)  DE(clash)    DE(int)     intcor
     15.91     -18.93       1.56        0.00     125.64       2.52       1.46       1.57       ----

> <Gold.Chemscore.Fitness>
15.9053

> <Gold.Chemscore.DG>
-18.9279

> <Gold.Chemscore.ZeroCoef>
-5.4800

> <Gold.Chemscore.Hbond>
1.5594

> <Gold.Chemscore.Metal>
0.0000

> <Gold.Chemscore.Lipo>
125.6429

> <Gold.Chemscore.Internal_Hbond>
0.0000

> <Gold.Chemscore.DEClash>
1.4552

> <Gold.Chemscore.DEInternal>
1.5674

> <Gold.Chemscore.Rot>
2.5237

> <Gold.Chemscore.Internal.Correction>
   9.000000E+99

> <Gold.Chemscore.Hbonds>
donor molecule, donor type, donor heavy atom, donor atom, acceptor molecule, acceptor atom, score
      L1  H     9    38       P1  8028  0.43
      L1  H    12    42       P1  7957  0.95

> <Gold.Chemscore.Hbond.Weighted>
-5.2083

> <Gold.Chemscore.Metal.Weighted>
-0.0000

> <Gold.Chemscore.Lipo.Weighted>
-14.7002

> <Gold.Chemscore.Internal_Hbond.Weighted>
0.0000

> <Gold.Chemscore.DEClash.Weighted>
1.4552

> <Gold.Chemscore.DEInternal.Weighted>
1.5674

> <Gold.Chemscore.Rot.Weighted>
6.4607

> <Gold.Chemscore.Internal.Correction.Weighted>
   9.000000E+99

> <Gold.Protein.RotatedTorsions>
[ 6907 6896 6895 6894 ] final -130.95 input  -60.11 | X-H torsion
[ 7974 7965 7964 7962 ] final  131.28 input  175.53 | X-H torsion
[ 8008 7997 7996 7995 ] final  -52.10 input   59.86 | X-H torsion
[ 10167 10162 10161 10158 ] final   49.27 input  -65.29 | X-H torsion
[ 10718 10713 10712 10709 ] final  -62.40 input   66.30 | X-H torsion
[ 10763 10752 10751 10750 ] final  129.38 input  -60.55 | X-H torsion
[ 11005 11000 10999 10996 ] final  -52.91 input  -57.11 | X-H torsion

> <Gold.Protein.ActiveResidues>
 VAL166  LYS551  ARG553  GLY616  TRP617  ASP618  TYR619  PRO620  LYS621  CYS622 
 ASP623  PHE694  ASN695  SER759  ASP760  ASP761  ALA762  ILE779  LEU786  VAL792 
 PHE793  MET794  SER795  GLU796  ALA797  LYS798  CYS799  TRP800  GLU811  SER814 

> <Gold.Protein.RotatedAtoms>
  150.9455  133.6608  159.2782 H   0  0  0  0  0  0  0  0  0  0  0  0  # atno 6907 bound_to 6896
  151.3982  135.0966  159.9557 H   0  0  0  0  0  0  0  0  0  0  0  0  # atno 6908 bound_to 6896
  152.5088  133.8954  159.7469 H   0  0  0  0  0  0  0  0  0  0  0  0  # atno 6909 bound_to 6896
  145.0089  139.4239  143.5255 H   0  0  0  0  0  0  0  0  0  0  0  0  # atno 7974 bound_to 7965
  154.4098  140.1232  156.4937 H   0  0  0  0  0  0  0  0  0  0  0  0  # atno 8008 bound_to 7997
  155.6964  140.3495  155.4895 H   0  0  0  0  0  0  0  0  0  0  0  0  # atno 8009 bound_to 7997
  155.9423  140.1089  157.1035 H   0  0  0  0  0  0  0  0  0  0  0  0  # atno 8010 bound_to 7997
  140.2846  144.3117  150.6255 H   0  0  0  0  0  0  0  0  0  0  0  0  # atno 10167 bound_to 10162
  156.0857  130.4208  150.1130 H   0  0  0  0  0  0  0  0  0  0  0  0  # atno 10718 bound_to 10713
  153.7408  135.3224  155.3303 H   0  0  0  0  0  0  0  0  0  0  0  0  # atno 10763 bound_to 10752
  154.8296  135.4544  154.1029 H   0  0  0  0  0  0  0  0  0  0  0  0  # atno 10764 bound_to 10752
  153.2203  135.6947  153.8090 H   0  0  0  0  0  0  0  0  0  0  0  0  # atno 10765 bound_to 10752
  141.0949  133.6626  156.4094 H   0  0  0  0  0  0  0  0  0  0  0  0  # atno 11005 bound_to 11000
  146.3466  139.9522  142.8727 LP  0  0  0  0  0  0  0  0  0  0  0  0  # atno 17320 bound_to 7965
  145.2050  140.9871  143.4134 LP  0  0  0  0  0  0  0  0  0  0  0  0  # atno 17321 bound_to 7965
  140.5783  143.2174  151.7474 LP  0  0  0  0  0  0  0  0  0  0  0  0  # atno 17342 bound_to 10162
  139.4953  144.4117  152.0073 LP  0  0  0  0  0  0  0  0  0  0  0  0  # atno 17343 bound_to 10162
  156.9152  130.9665  151.3557 LP  0  0  0  0  0  0  0  0  0  0  0  0  # atno 17370 bound_to 10713
  157.5991  130.8499  149.8774 LP  0  0  0  0  0  0  0  0  0  0  0  0  # atno 17371 bound_to 10713
  140.5164  134.6346  157.5303 LP  0  0  0  0  0  0  0  0  0  0  0  0  # atno 17394 bound_to 11000
  139.9783  134.7179  155.9908 LP  0  0  0  0  0  0  0  0  0  0  0  0  # atno 17395 bound_to 11000

$$$$
