AV-unprocessed.smi:265|AV-procd|sdf|2025|dock2
  -GOLD-   2262021233D 1   1.00000     0.00000
 Structure written by MMmdl.
 52 56  0  0  0  0  0  0  0  0  1 V2000
  147.2517  137.7199  156.2778 C   0  0  0  0  0  0  0  0  0  0  0  0
  146.5802  138.4359  155.0947 C   0  0  2  0  0  0  0  0  0  0  0  0
  145.4360  137.7165  154.6581 O   0  0  0  0  0  0  0  0  0  0  0  0
  145.1137  138.1963  153.3655 C   0  0  0  0  0  0  0  0  0  0  0  0
  146.4752  138.2677  152.6848 C   0  0  0  0  0  0  0  0  0  0  0  0
  147.4358  138.6463  153.8166 C   0  0  2  0  0  0  0  0  0  0  0  0
  148.5413  137.7586  153.7711 O   0  0  0  0  0  0  0  0  0  0  0  0
  147.9688  140.0929  153.6687 C   0  0  0  0  0  0  0  0  0  0  0  0
  148.7962  140.5242  154.7858 N   0  0  0  0  0  0  0  0  0  0  0  0
  148.4381  141.3954  155.7900 C   0  0  0  0  0  0  0  0  0  0  0  0
  149.3644  141.6340  156.6773 N   0  0  0  0  0  0  0  0  0  0  0  0
  150.4396  140.8566  156.2637 C   0  0  0  0  0  0  0  0  0  0  0  0
  151.7569  140.6430  156.7597 C   0  0  0  0  0  0  0  0  0  0  0  0
  152.2214  141.2419  157.8855 N   0  0  0  0  0  0  0  0  0  0  0  0
  152.0254  140.5464  159.1573 C   0  0  0  0  0  0  0  0  0  0  0  0
  152.9379  141.1342  160.2444 C   0  0  0  0  0  0  0  0  0  0  0  0
  152.7710  142.6575  160.3704 C   0  0  2  0  0  0  0  0  0  0  0  0
  151.4864  142.9710  160.8927 O   0  0  0  0  0  0  0  0  0  0  0  0
  151.3154  144.3535  161.2102 C   0  0  0  0  0  0  0  0  0  0  0  0
  151.7576  145.2781  160.0606 C   0  0  0  0  0  0  0  0  0  0  0  0
  151.4120  146.4572  160.0549 O   0  0  0  0  0  0  0  0  0  0  0  0
  152.5542  144.7673  159.1081 N   0  0  0  0  0  0  0  0  0  0  0  0
  152.8996  143.3539  158.9982 C   0  0  2  0  0  0  0  0  0  0  0  0
  152.0014  142.6858  157.9377 C   0  0  0  0  0  0  0  0  0  0  0  0
  152.5596  139.7984  156.0580 N   0  0  0  0  0  0  0  0  0  0  0  0
  152.1058  139.1961  154.9551 C   0  0  0  0  0  0  0  0  0  0  0  0
  150.9044  139.2967  154.3840 N   0  0  0  0  0  0  0  0  0  0  0  0
  150.0973  140.1507  155.0759 C   0  0  0  0  0  0  0  0  0  0  0  0
  153.5307  143.0345  161.0580 H   0  0  0  0  0  0  0  0  0  0  0  0
  153.9368  143.2871  158.6669 H   0  0  0  0  0  0  0  0  0  0  0  0
  148.1366  138.2607  156.6143 H   0  0  0  0  0  0  0  0  0  0  0  0
  147.5541  136.7061  156.0148 H   0  0  0  0  0  0  0  0  0  0  0  0
  146.5673  137.6485  157.1231 H   0  0  0  0  0  0  0  0  0  0  0  0
  146.2084  139.4004  155.4422 H   0  0  0  0  0  0  0  0  0  0  0  0
  144.4181  137.5337  152.8502 H   0  0  0  0  0  0  0  0  0  0  0  0
  144.6597  139.1858  153.4406 H   0  0  0  0  0  0  0  0  0  0  0  0
  146.7146  137.2831  152.2790 H   0  0  0  0  0  0  0  0  0  0  0  0
  146.4830  138.9719  151.8520 H   0  0  0  0  0  0  0  0  0  0  0  0
  148.3975  137.1350  153.0760 H   0  0  0  0  0  0  0  0  0  0  0  0
  148.5529  140.1923  152.7529 H   0  0  0  0  0  0  0  0  0  0  0  0
  147.1348  140.7893  153.5722 H   0  0  0  0  0  0  0  0  0  0  0  0
  147.4640  141.8600  155.8390 H   0  0  0  0  0  0  0  0  0  0  0  0
  150.9804  140.6337  159.4590 H   0  0  0  0  0  0  0  0  0  0  0  0
  152.2409  139.4832  159.0427 H   0  0  0  0  0  0  0  0  0  0  0  0
  152.7390  140.6535  161.2024 H   0  0  0  0  0  0  0  0  0  0  0  0
  153.9757  140.9089  159.9961 H   0  0  0  0  0  0  0  0  0  0  0  0
  150.2671  144.5357  161.4486 H   0  0  0  0  0  0  0  0  0  0  0  0
  151.8964  144.5956  162.1009 H   0  0  0  0  0  0  0  0  0  0  0  0
  152.8746  145.3802  158.3726 H   0  0  0  0  0  0  0  0  0  0  0  0
  152.1806  143.1518  156.9691 H   0  0  0  0  0  0  0  0  0  0  0  0
  150.9507  142.8611  158.1738 H   0  0  0  0  0  0  0  0  0  0  0  0
  152.8058  138.5394  154.4597 H   0  0  0  0  0  0  0  0  0  0  0  0
  1  2  1  0  0  0  0
  1 31  1  0  0  0  0
  1 32  1  0  0  0  0
  1 33  1  0  0  0  0
  2  6  1  0  0  0  0
  2  3  1  0  0  0  0
  2 34  1  0  0  0  0
  3  4  1  0  0  0  0
  4  5  1  0  0  0  0
  4 35  1  0  0  0  0
  4 36  1  0  0  0  0
  5  6  1  0  0  0  0
  5 37  1  0  0  0  0
  5 38  1  0  0  0  0
  6  7  1  0  0  0  0
  6  8  1  0  0  0  0
  7 39  1  0  0  0  0
  8  9  1  0  0  0  0
  8 40  1  0  0  0  0
  8 41  1  0  0  0  0
  9 28  1  0  0  0  0
  9 10  1  0  0  0  0
 10 11  2  0  0  0  0
 10 42  1  0  0  0  0
 11 12  1  0  0  0  0
 12 28  2  0  0  0  0
 12 13  1  0  0  0  0
 13 14  1  0  0  0  0
 13 25  2  0  0  0  0
 14 24  1  0  0  0  0
 14 15  1  0  0  0  0
 15 16  1  0  0  0  0
 15 43  1  0  0  0  0
 15 44  1  0  0  0  0
 16 17  1  0  0  0  0
 16 45  1  0  0  0  0
 16 46  1  0  0  0  0
 17 29  1  0  0  0  0
 17 23  1  0  0  0  0
 17 18  1  0  0  0  0
 18 19  1  0  0  0  0
 19 20  1  0  0  0  0
 19 47  1  0  0  0  0
 19 48  1  0  0  0  0
 20 21  2  0  0  0  0
 20 22  1  0  0  0  0
 22 23  1  0  0  0  0
 22 49  1  0  0  0  0
 23 30  1  0  0  0  0
 23 24  1  0  0  0  0
 24 50  1  0  0  0  0
 24 51  1  0  0  0  0
 25 26  1  0  0  0  0
 26 27  2  0  0  0  0
 26 52  1  0  0  0  0
 27 28  1  0  0  0  0
M  END
> <s_m_source_file>
AV-unprocessed.smi

> <i_m_source_file_index>
265

> <i_lp_mmshare_version>
43012

> <i_f3d_flags>
0

> <s_epik_input>
W0NIMl0xW0NIMl1PW0NAQEhdKFtDSDNdKVtDQEBdMShbT0hdKVtDSDJdbihbY0hdbjIpYyhjMjMpbltjSF1uYzNOKFtDSDJdW0NIMl00KVtDSDJdW0NAQEhdKFtDQEhdNDUpW05IXUMoPU8pW0NIMl1PNQ==

> <s_epik_cmdline>
J2VwaWtfcHl0aG9uJywgJy1waCcsICc3LjAnLCAnLXRuJywgJzgnLCAnLW1hJywgJzIwMCcsICctbWV0YWxfYmluZGluZycsICctaW1hZScsICc8aW5maWxlLm1hZT4nLCAnLW9tYWUnLCAnPG91dGZpbGUubWFlPic=

> <r_lp_tautomer_probability>
1

> <r_epik_Ionization_Penalty>
0.00221504

> <r_epik_Ionization_Penalty_Charging>
0

> <r_epik_Ionization_Penalty_Neutral>
0.00221504

> <r_epik_State_Penalty>
-0

> <r_epik_Charging_Adjusted_Penalty>
0

> <i_epik_Tot_Q>
0

> <i_epik_Tot_abs_Q>
0

> <r_epik_Metal_State_Penalty>
-0

> <b_epik_Metal_Only>
0

> <s_lp_Force_Field>
OPLS_2005

> <r_lp_Energy>
44.0403

> <b_lp_Chiralities_Consistent>
1

> <s_lp_Variant>
AV-unprocessed.smi:265-11

> <Gold.Version>
5.8.1

> <Gold.Id.Protein>
6NUR|6NUR_protein|mol2

> <Gold.PLP.Fitness>
47.8390

> <Gold.PLP.PLP>
-42.1270

> <Gold.PLP.part.hbond>
-5.7712

> <Gold.PLP.part.metal>
0.0000

> <Gold.PLP.part.buried>
1.2183

> <Gold.PLP.part.nonpolar>
-37.5664

> <Gold.PLP.part.repulsive>
0.7410

> <Gold.PLP.ligand.clash>
0.0000

> <Gold.PLP.ligand.torsion>
0.6733

> <Gold.PLP.Chemscore.Hbond>
2.2274

> <Gold.PLP.Chemscore.CHOScore>
0.0000

> <Gold.PLP.Chemscore.Metal>
0.0000

> <Gold.Chemscore.Hbonds>
donor molecule, donor type, donor heavy atom, donor atom, acceptor molecule, acceptor atom, score
      L1  H     7    39       P1  7948  0.99
      P1  H  6933  6945       L1    18  0.08
      P1  H  7989  7998       L1    27  0.10
      P1  H  7997  8009       L1    25  1.00

> <Gold.PLP.Chemscore.Internal.Correction>
0.3763

> <Gold.Rescore>
     Score         DG    S(hbond)    S(metal)    S(lipo)     H(rot)  DE(clash)    DE(int)     intcor
     12.52     -16.60       1.87        0.00      90.86       2.25       2.10       1.98       ----

> <Gold.Chemscore.Fitness>
12.5242

> <Gold.Chemscore.DG>
-16.5994

> <Gold.Chemscore.ZeroCoef>
-5.4800

> <Gold.Chemscore.Hbond>
1.8674

> <Gold.Chemscore.Metal>
0.0000

> <Gold.Chemscore.Lipo>
90.8551

> <Gold.Chemscore.Internal_Hbond>
0.0000

> <Gold.Chemscore.DEClash>
2.0977

> <Gold.Chemscore.DEInternal>
1.9774

> <Gold.Chemscore.Rot>
2.2453

> <Gold.Chemscore.Internal.Correction>
   9.000000E+99

> <Gold.Chemscore.Hbonds>
donor molecule, donor type, donor heavy atom, donor atom, acceptor molecule, acceptor atom, score
      L1  H     7    39       P1  7948  0.93
      P1  H  6933  6945       L1    18  0.05
      P1  H  7997  8009       L1    25  0.87

> <Gold.Chemscore.Hbond.Weighted>
-6.2372

> <Gold.Chemscore.Metal.Weighted>
-0.0000

> <Gold.Chemscore.Lipo.Weighted>
-10.6300

> <Gold.Chemscore.Internal_Hbond.Weighted>
0.0000

> <Gold.Chemscore.DEClash.Weighted>
2.0977

> <Gold.Chemscore.DEInternal.Weighted>
1.9774

> <Gold.Chemscore.Rot.Weighted>
5.7479

> <Gold.Chemscore.Internal.Correction.Weighted>
   9.000000E+99

> <Gold.Protein.RotatedTorsions>
[ 6907 6896 6895 6894 ] final   74.12 input  -60.11 | X-H torsion
[ 7974 7965 7964 7962 ] final -147.14 input  175.53 | X-H torsion
[ 8008 7997 7996 7995 ] final -150.22 input   59.86 | X-H torsion
[ 10167 10162 10161 10158 ] final   95.36 input  -65.29 | X-H torsion
[ 10718 10713 10712 10709 ] final   28.65 input   66.30 | X-H torsion
[ 10763 10752 10751 10750 ] final -163.39 input  -60.55 | X-H torsion
[ 11005 11000 10999 10996 ] final  -69.30 input  -57.11 | X-H torsion

> <Gold.Protein.ActiveResidues>
 VAL166  LYS551  ARG553  GLY616  TRP617  ASP618  TYR619  PRO620  LYS621  CYS622 
 ASP623  PHE694  ASN695  SER759  ASP760  ASP761  ALA762  ILE779  LEU786  VAL792 
 PHE793  MET794  SER795  GLU796  ALA797  LYS798  CYS799  TRP800  GLU811  SER814 

> <Gold.Protein.RotatedAtoms>
  152.4959  134.4320  159.9514 H   0  0  0  0  0  0  0  0  0  0  0  0  # atno 6907 bound_to 6896
  151.4298  133.3667  159.2775 H   0  0  0  0  0  0  0  0  0  0  0  0  # atno 6908 bound_to 6896
  150.9162  134.8603  159.7518 H   0  0  0  0  0  0  0  0  0  0  0  0  # atno 6909 bound_to 6896
  144.8113  140.5365  143.5640 H   0  0  0  0  0  0  0  0  0  0  0  0  # atno 7974 bound_to 7965
  155.6202  140.0680  157.2680 H   0  0  0  0  0  0  0  0  0  0  0  0  # atno 8008 bound_to 7997
  154.4231  140.1786  156.1412 H   0  0  0  0  0  0  0  0  0  0  0  0  # atno 8009 bound_to 7997
  156.0016  140.3335  155.6854 H   0  0  0  0  0  0  0  0  0  0  0  0  # atno 8010 bound_to 7997
  139.7996  144.6819  150.9783 H   0  0  0  0  0  0  0  0  0  0  0  0  # atno 10167 bound_to 10162
  157.2362  130.7047  149.6336 H   0  0  0  0  0  0  0  0  0  0  0  0  # atno 10718 bound_to 10713
  154.7127  135.3009  154.9172 H   0  0  0  0  0  0  0  0  0  0  0  0  # atno 10763 bound_to 10752
  154.0069  135.6700  153.4767 H   0  0  0  0  0  0  0  0  0  0  0  0  # atno 10764 bound_to 10752
  153.0768  135.5030  154.8334 H   0  0  0  0  0  0  0  0  0  0  0  0  # atno 10765 bound_to 10752
  141.1551  133.6761  156.6578 H   0  0  0  0  0  0  0  0  0  0  0  0  # atno 11005 bound_to 11000
  145.5318  139.1475  143.3495 LP  0  0  0  0  0  0  0  0  0  0  0  0  # atno 17320 bound_to 7965
  146.2412  140.5458  142.8933 LP  0  0  0  0  0  0  0  0  0  0  0  0  # atno 17321 bound_to 7965
  140.7820  143.4295  151.0716 LP  0  0  0  0  0  0  0  0  0  0  0  0  # atno 17342 bound_to 10162
  139.7968  143.8140  152.3158 LP  0  0  0  0  0  0  0  0  0  0  0  0  # atno 17343 bound_to 10162
  155.9672  130.4473  150.5574 LP  0  0  0  0  0  0  0  0  0  0  0  0  # atno 17370 bound_to 10713
  157.3427  131.0719  151.1775 LP  0  0  0  0  0  0  0  0  0  0  0  0  # atno 17371 bound_to 10713
  140.3270  134.7960  157.4297 LP  0  0  0  0  0  0  0  0  0  0  0  0  # atno 17394 bound_to 11000
  140.1048  134.5424  155.8319 LP  0  0  0  0  0  0  0  0  0  0  0  0  # atno 17395 bound_to 11000

$$$$
