AV-unprocessed.smi:3274|AV-procd|sdf|12524|dock8
  -GOLD-   2272018443D 1   1.00000     0.00000
 Structure written by MMmdl.
 43 44  0  0  0  0  0  0  0  0  2 V2000
  153.5300  140.6125  159.5295 C   0  0  0  0  0  0  0  0  0  0  0  0
  152.8846  141.8889  160.0437 C   0  0  0  0  0  0  0  0  0  0  0  0
  153.0830  142.2698  161.3203 C   0  0  0  0  0  0  0  0  0  0  0  0
  152.5554  143.5532  161.9193 C   0  0  0  0  0  0  0  0  0  0  0  0
  152.2128  144.5701  160.8281 C   0  0  0  0  0  0  0  0  0  0  0  0
  151.3422  143.9403  159.7290 C   0  0  1  0  0  0  0  0  0  0  0  0
  150.9342  145.0254  158.7129 C   0  0  0  0  0  0  0  0  0  0  0  0
  152.0375  142.7166  159.0553 C   0  0  2  0  0  0  0  0  0  0  0  0
  150.9917  141.8616  158.2930 C   0  0  0  0  0  0  0  0  0  0  0  0
  151.5835  141.0817  157.1841 N   0  3  0  0  0  0  0  0  0  0  0  0
  150.6094  140.5380  156.2111 C   0  0  2  0  0  0  0  0  0  0  0  0
  151.3246  139.5628  155.2668 C   0  0  0  0  0  0  0  0  0  0  0  0
  149.9275  141.6711  155.4161 C   0  0  0  0  0  0  0  0  0  0  0  0
  148.6505  141.2747  154.8509 N   0  0  0  0  0  0  0  0  0  0  0  0
  147.4641  141.8840  154.8704 C   0  0  0  0  0  0  0  0  0  0  0  0
  146.5133  141.2219  154.2263 N   0  0  0  0  0  0  0  0  0  0  0  0
  147.2292  140.1336  153.8143 C   0  0  0  0  0  0  0  0  0  0  0  0
  148.5176  140.1198  154.1567 N   0  0  0  0  0  0  0  0  0  0  0  0
  154.0782  140.8062  158.6072 H   0  0  0  0  0  0  0  0  0  0  0  0
  152.7802  139.8436  159.3437 H   0  0  0  0  0  0  0  0  0  0  0  0
  154.2373  140.2068  160.2536 H   0  0  0  0  0  0  0  0  0  0  0  0
  153.6657  141.6478  161.9845 H   0  0  0  0  0  0  0  0  0  0  0  0
  151.6781  143.3221  162.5243 H   0  0  0  0  0  0  0  0  0  0  0  0
  153.3069  143.9711  162.5898 H   0  0  0  0  0  0  0  0  0  0  0  0
  151.7040  145.4233  161.2783 H   0  0  0  0  0  0  0  0  0  0  0  0
  153.1330  144.9570  160.3877 H   0  0  0  0  0  0  0  0  0  0  0  0
  150.4314  143.5861  160.2148 H   0  0  0  0  0  0  0  0  0  0  0  0
  151.7959  145.3878  158.1514 H   0  0  0  0  0  0  0  0  0  0  0  0
  150.4875  145.8830  159.2169 H   0  0  0  0  0  0  0  0  0  0  0  0
  150.1971  144.6678  157.9966 H   0  0  0  0  0  0  0  0  0  0  0  0
  152.7473  143.1124  158.3269 H   0  0  0  0  0  0  0  0  0  0  0  0
  150.4865  141.1861  158.9846 H   0  0  0  0  0  0  0  0  0  0  0  0
  150.2148  142.4931  157.8674 H   0  0  0  0  0  0  0  0  0  0  0  0
  152.2385  141.6671  156.6851 H   0  0  0  0  0  0  0  0  0  0  0  0
  149.8446  139.9703  156.7442 H   0  0  0  0  0  0  0  0  0  0  0  0
  150.6252  139.1186  154.5579 H   0  0  0  0  0  0  0  0  0  0  0  0
  151.7903  138.7481  155.8223 H   0  0  0  0  0  0  0  0  0  0  0  0
  152.1054  140.0639  154.6933 H   0  0  0  0  0  0  0  0  0  0  0  0
  149.7765  142.5477  156.0485 H   0  0  0  0  0  0  0  0  0  0  0  0
  150.5706  141.9895  154.5945 H   0  0  0  0  0  0  0  0  0  0  0  0
  147.2936  142.8326  155.3586 H   0  0  0  0  0  0  0  0  0  0  0  0
  146.7904  139.3330  153.2373 H   0  0  0  0  0  0  0  0  0  0  0  0
  152.0912  140.3093  157.5911 H   0  0  0  0  0  0  0  0  0  0  0  0
  1  2  1  0  0  0  0
  1 19  1  0  0  0  0
  1 20  1  0  0  0  0
  1 21  1  0  0  0  0
  2  8  1  0  0  0  0
  2  3  2  0  0  0  0
  3  4  1  0  0  0  0
  3 22  1  0  0  0  0
  4  5  1  0  0  0  0
  4 23  1  0  0  0  0
  4 24  1  0  0  0  0
  5  6  1  0  0  0  0
  5 25  1  0  0  0  0
  5 26  1  0  0  0  0
  6  7  1  0  0  0  0
  6  8  1  0  0  0  0
  6 27  1  0  0  0  0
  7 28  1  0  0  0  0
  7 29  1  0  0  0  0
  7 30  1  0  0  0  0
  8  9  1  0  0  0  0
  8 31  1  0  0  0  0
  9 10  1  0  0  0  0
  9 32  1  0  0  0  0
  9 33  1  0  0  0  0
 10 11  1  0  0  0  0
 10 34  1  0  0  0  0
 10 43  1  0  0  0  0
 11 12  1  0  0  0  0
 11 13  1  0  0  0  0
 11 35  1  0  0  0  0
 12 36  1  0  0  0  0
 12 37  1  0  0  0  0
 12 38  1  0  0  0  0
 13 14  1  0  0  0  0
 13 39  1  0  0  0  0
 13 40  1  0  0  0  0
 14 18  1  0  0  0  0
 14 15  1  0  0  0  0
 15 16  2  0  0  0  0
 15 41  1  0  0  0  0
 16 17  1  0  0  0  0
 17 18  2  0  0  0  0
 17 42  1  0  0  0  0
M  CHG  1  10   1
M  END
> <s_m_source_file>
AV-unprocessed.smi

> <i_m_source_file_index>
3274

> <i_lp_mmshare_version>
43012

> <i_f3d_flags>
0

> <s_epik_input>
W0NIM11DMT1bQ0hdW0NIMl1bQ0gyXVtDQEBIXShbQ0gzXSlbQ0BIXTFbQ0gyXVtOSF1bQ0BIXShbQ0gzXSlbQ0gyXW4yW2NIXW5bY0hdbjI=

> <s_epik_cmdline>
J2VwaWtfcHl0aG9uJywgJy1waCcsICc3LjAnLCAnLXRuJywgJzgnLCAnLW1hJywgJzIwMCcsICctbWV0YWxfYmluZGluZycsICctaW1hZScsICc8aW5maWxlLm1hZT4nLCAnLW9tYWUnLCAnPG91dGZpbGUubWFlPic=

> <r_lp_tautomer_probability>
1

> <r_epik_Ionization_Penalty>
0.0017527

> <r_epik_Ionization_Penalty_Charging>
0.00175191

> <r_epik_Ionization_Penalty_Neutral>
7.94565e-07

> <r_epik_State_Penalty>
0.00118605

> <r_epik_Charging_Adjusted_Penalty>
0.00293796

> <i_epik_Tot_Q>
1

> <i_epik_Tot_abs_Q>
1

> <r_epik_Metal_State_Penalty>
-0

> <b_epik_Metal_Only>
0

> <s_lp_Force_Field>
OPLS_2005

> <r_lp_Energy>
18.1094

> <b_lp_Chiralities_Consistent>
1

> <s_lp_Variant>
AV-unprocessed.smi:3274-3

> <Gold.Version>
5.8.1

> <Gold.Id.Protein>
6NUR|6NUR_protein|mol2

> <Gold.PLP.Fitness>
45.8017

> <Gold.PLP.PLP>
-44.0093

> <Gold.PLP.part.hbond>
0.0000

> <Gold.PLP.part.metal>
0.0000

> <Gold.PLP.part.buried>
-5.9157

> <Gold.PLP.part.nonpolar>
-38.7331

> <Gold.PLP.part.repulsive>
0.8338

> <Gold.PLP.ligand.clash>
0.0000

> <Gold.PLP.ligand.torsion>
0.6481

> <Gold.PLP.Chemscore.Hbond>
0.0000

> <Gold.PLP.Chemscore.CHOScore>
1.0000

> <Gold.PLP.Chemscore.Metal>
0.0000

> <Gold.Chemscore.Hbonds>
donor molecule, donor type, donor heavy atom, donor atom, acceptor molecule, acceptor atom, score
      L1  C    15    41       P1  8028  0.98

> <Gold.PLP.Chemscore.Internal.Correction>
0.0887

> <Gold.Rescore>
     Score         DG    S(hbond)    S(metal)    S(lipo)     H(rot)  DE(clash)    DE(int)     intcor
     12.22     -12.88       0.00        0.00     114.94       2.36       0.04       0.62       ----

> <Gold.Chemscore.Fitness>
12.2224

> <Gold.Chemscore.DG>
-12.8827

> <Gold.Chemscore.ZeroCoef>
-5.4800

> <Gold.Chemscore.Hbond>
0.0000

> <Gold.Chemscore.Metal>
0.0000

> <Gold.Chemscore.Lipo>
114.9412

> <Gold.Chemscore.Internal_Hbond>
0.0000

> <Gold.Chemscore.DEClash>
0.0383

> <Gold.Chemscore.DEInternal>
0.6220

> <Gold.Chemscore.Rot>
2.3615

> <Gold.Chemscore.Internal.Correction>
   9.000000E+99

> <Gold.Chemscore.Hbond.Weighted>
-0.0000

> <Gold.Chemscore.Metal.Weighted>
-0.0000

> <Gold.Chemscore.Lipo.Weighted>
-13.4481

> <Gold.Chemscore.Internal_Hbond.Weighted>
0.0000

> <Gold.Chemscore.DEClash.Weighted>
0.0383

> <Gold.Chemscore.DEInternal.Weighted>
0.6220

> <Gold.Chemscore.Rot.Weighted>
6.0454

> <Gold.Chemscore.Internal.Correction.Weighted>
   9.000000E+99

> <Gold.Protein.RotatedTorsions>
[ 6907 6896 6895 6894 ] final  -40.75 input  -60.11 | X-H torsion
[ 7974 7965 7964 7962 ] final   56.28 input  175.53 | X-H torsion
[ 8008 7997 7996 7995 ] final   16.11 input   59.86 | X-H torsion
[ 10167 10162 10161 10158 ] final  -55.19 input  -65.29 | X-H torsion
[ 10718 10713 10712 10709 ] final -102.65 input   66.30 | X-H torsion
[ 10763 10752 10751 10750 ] final -173.38 input  -60.55 | X-H torsion
[ 11005 11000 10999 10996 ] final  -21.32 input  -57.11 | X-H torsion

> <Gold.Protein.ActiveResidues>
 VAL166  LYS551  ARG553  GLY616  TRP617  ASP618  TYR619  PRO620  LYS621  CYS622 
 ASP623  PHE694  ASN695  SER759  ASP760  ASP761  ALA762  ILE779  LEU786  VAL792 
 PHE793  MET794  SER795  GLU796  ALA797  LYS798  CYS799  TRP800  GLU811  SER814 

> <Gold.Protein.RotatedAtoms>
  150.9748  134.9114  159.7809 H   0  0  0  0  0  0  0  0  0  0  0  0  # atno 6907 bound_to 6896
  152.5202  134.3491  159.9254 H   0  0  0  0  0  0  0  0  0  0  0  0  # atno 6908 bound_to 6896
  151.3499  133.3888  159.2714 H   0  0  0  0  0  0  0  0  0  0  0  0  # atno 6909 bound_to 6896
  145.9414  139.3892  143.0361 H   0  0  0  0  0  0  0  0  0  0  0  0  # atno 7974 bound_to 7965
  154.8722  140.2960  155.5474 H   0  0  0  0  0  0  0  0  0  0  0  0  # atno 8008 bound_to 7997
  156.3021  140.2458  156.3646 H   0  0  0  0  0  0  0  0  0  0  0  0  # atno 8009 bound_to 7997
  154.8805  140.0398  157.1768 H   0  0  0  0  0  0  0  0  0  0  0  0  # atno 8010 bound_to 7997
  140.6389  143.2497  151.5044 H   0  0  0  0  0  0  0  0  0  0  0  0  # atno 10167 bound_to 10162
  156.0236  130.5430  150.7139 H   0  0  0  0  0  0  0  0  0  0  0  0  # atno 10718 bound_to 10713
  154.6085  135.2862  155.0458 H   0  0  0  0  0  0  0  0  0  0  0  0  # atno 10763 bound_to 10752
  154.1697  135.6474  153.5010 H   0  0  0  0  0  0  0  0  0  0  0  0  # atno 10764 bound_to 10752
  153.0185  135.5398  154.6830 H   0  0  0  0  0  0  0  0  0  0  0  0  # atno 10765 bound_to 10752
  140.8550  133.7829  156.0009 H   0  0  0  0  0  0  0  0  0  0  0  0  # atno 11005 bound_to 11000
  145.8294  140.9638  143.0857 LP  0  0  0  0  0  0  0  0  0  0  0  0  # atno 17320 bound_to 7965
  144.6780  140.0143  143.7484 LP  0  0  0  0  0  0  0  0  0  0  0  0  # atno 17321 bound_to 7965
  139.5598  144.2185  152.1672 LP  0  0  0  0  0  0  0  0  0  0  0  0  # atno 17342 bound_to 10162
  140.1449  144.5168  150.6722 LP  0  0  0  0  0  0  0  0  0  0  0  0  # atno 17343 bound_to 10162
  157.4771  131.0899  151.0578 LP  0  0  0  0  0  0  0  0  0  0  0  0  # atno 17370 bound_to 10713
  157.1022  130.5986  149.5463 LP  0  0  0  0  0  0  0  0  0  0  0  0  # atno 17371 bound_to 10713
  140.8747  134.2683  157.5173 LP  0  0  0  0  0  0  0  0  0  0  0  0  # atno 17394 bound_to 11000
  139.8705  134.9585  156.4302 LP  0  0  0  0  0  0  0  0  0  0  0  0  # atno 17395 bound_to 11000

$$$$
