AV-unprocessed.smi:273|AV-procd|sdf|2056|dock6
  -GOLD-   2262021293D 1   1.00000     0.00000
 Structure written by MMmdl.
 59 62  0  0  0  0  0  0  0  0  1 V2000
  152.3978  143.3481  159.8014 C   0  0  0  0  0  0  0  0  0  0  0  0
  153.0566  141.9789  159.6080 C   0  0  0  0  0  0  0  0  0  0  0  0
  152.1901  141.1006  158.8351 N   0  0  0  0  0  0  0  0  0  0  0  0
  152.4993  139.8453  158.4742 C   0  0  0  0  0  0  0  0  0  0  0  0
  153.5691  139.3173  158.7789 O   0  0  0  0  0  0  0  0  0  0  0  0
  151.4571  139.0459  157.6666 C   0  0  0  0  0  0  0  0  0  0  0  0
  150.9702  137.8076  158.4507 C   0  0  0  0  0  0  0  0  0  0  0  0
  149.9137  137.0202  157.6591 C   0  0  0  0  0  0  0  0  0  0  0  0
  150.4083  136.6689  156.3290 N   0  0  0  0  0  0  0  0  0  0  0  0
  149.6885  135.7037  155.7026 C   0  0  0  0  0  0  0  0  0  0  0  0
  150.2017  134.4508  155.5692 N   0  0  0  0  0  0  0  0  0  0  0  0
  149.5070  133.4996  154.9381 C   0  0  0  0  0  0  0  0  0  0  0  0
  148.3008  133.5829  154.3738 N   0  0  0  0  0  0  0  0  0  0  0  0
  147.7769  134.8339  154.5126 C   0  0  0  0  0  0  0  0  0  0  0  0
  148.3950  135.9419  155.1579 C   0  0  0  0  0  0  0  0  0  0  0  0
  147.5508  137.0459  155.1121 N   0  0  0  0  0  0  0  0  0  0  0  0
  146.4995  136.6180  154.4677 C   0  0  0  0  0  0  0  0  0  0  0  0
  146.5560  135.3033  154.0641 N   0  0  0  0  0  0  0  0  0  0  0  0
  145.5404  134.5714  153.3284 C   0  0  0  0  0  0  0  0  0  0  0  0
  145.2929  135.1384  151.9084 C   0  0  2  0  0  0  0  0  0  0  0  0
  144.1047  136.1296  151.8605 C   0  0  0  0  0  0  0  0  0  0  0  0
  144.5260  137.4548  152.1109 O   0  0  0  0  0  0  0  0  0  0  0  0
  145.1622  134.0066  150.8583 C   0  0  1  0  0  0  0  0  0  0  0  0
  146.3544  133.0693  150.7750 C   0  0  0  0  0  0  0  0  0  0  0  0
  145.7657  131.8513  150.0702 C   0  0  0  0  0  0  0  0  0  0  0  0
  144.3935  131.8095  150.4459 O   0  0  0  0  0  0  0  0  0  0  0  0
  144.0438  132.9995  151.1445 C   0  0  0  0  0  0  0  0  0  0  0  0
  150.8640  137.8028  155.5243 C   0  0  0  0  0  0  0  0  0  0  0  0
  151.9456  138.6039  156.2660 C   0  0  0  0  0  0  0  0  0  0  0  0
  153.0375  144.0064  160.3895 H   0  0  0  0  0  0  0  0  0  0  0  0
  151.4445  143.2577  160.3231 H   0  0  0  0  0  0  0  0  0  0  0  0
  152.2125  143.8343  158.8430 H   0  0  0  0  0  0  0  0  0  0  0  0
  154.0136  142.0974  159.0974 H   0  0  0  0  0  0  0  0  0  0  0  0
  153.2607  141.5227  160.5779 H   0  0  0  0  0  0  0  0  0  0  0  0
  151.2935  141.4700  158.5539 H   0  0  0  0  0  0  0  0  0  0  0  0
  150.6055  139.7136  157.5280 H   0  0  0  0  0  0  0  0  0  0  0  0
  151.8152  137.1533  158.6718 H   0  0  0  0  0  0  0  0  0  0  0  0
  150.5466  138.1013  159.4121 H   0  0  0  0  0  0  0  0  0  0  0  0
  149.6295  136.1342  158.2257 H   0  0  0  0  0  0  0  0  0  0  0  0
  149.0101  137.6212  157.5485 H   0  0  0  0  0  0  0  0  0  0  0  0
  149.9879  132.5346  154.8731 H   0  0  0  0  0  0  0  0  0  0  0  0
  145.6521  137.2554  154.2602 H   0  0  0  0  0  0  0  0  0  0  0  0
  145.8578  133.5297  153.2778 H   0  0  0  0  0  0  0  0  0  0  0  0
  144.6165  134.5836  153.9079 H   0  0  0  0  0  0  0  0  0  0  0  0
  146.1793  135.7165  151.6427 H   0  0  0  0  0  0  0  0  0  0  0  0
  143.6072  136.0977  150.8911 H   0  0  0  0  0  0  0  0  0  0  0  0
  143.3438  135.8603  152.5926 H   0  0  0  0  0  0  0  0  0  0  0  0
  144.2214  138.0055  151.4057 H   0  0  0  0  0  0  0  0  0  0  0  0
  144.9925  134.4397  149.8711 H   0  0  0  0  0  0  0  0  0  0  0  0
  147.1999  133.4934  150.2326 H   0  0  0  0  0  0  0  0  0  0  0  0
  146.6933  132.7936  151.7748 H   0  0  0  0  0  0  0  0  0  0  0  0
  145.8248  131.9718  148.9878 H   0  0  0  0  0  0  0  0  0  0  0  0
  146.2805  130.9282  150.3373 H   0  0  0  0  0  0  0  0  0  0  0  0
  143.9946  132.7687  152.2097 H   0  0  0  0  0  0  0  0  0  0  0  0
  143.0637  133.3611  150.8325 H   0  0  0  0  0  0  0  0  0  0  0  0
  151.2650  137.4496  154.5732 H   0  0  0  0  0  0  0  0  0  0  0  0
  150.0143  138.4486  155.2968 H   0  0  0  0  0  0  0  0  0  0  0  0
  152.2184  139.4697  155.6613 H   0  0  0  0  0  0  0  0  0  0  0  0
  152.8431  137.9898  156.3596 H   0  0  0  0  0  0  0  0  0  0  0  0
  1  2  1  0  0  0  0
  1 30  1  0  0  0  0
  1 31  1  0  0  0  0
  1 32  1  0  0  0  0
  2  3  1  0  0  0  0
  2 33  1  0  0  0  0
  2 34  1  0  0  0  0
  3  4  1  0  0  0  0
  3 35  1  0  0  0  0
  4  5  2  0  0  0  0
  4  6  1  0  0  0  0
  6 29  1  0  0  0  0
  6  7  1  0  0  0  0
  6 36  1  0  0  0  0
  7  8  1  0  0  0  0
  7 37  1  0  0  0  0
  7 38  1  0  0  0  0
  8  9  1  0  0  0  0
  8 39  1  0  0  0  0
  8 40  1  0  0  0  0
  9 10  1  0  0  0  0
  9 28  1  0  0  0  0
 10 15  1  0  0  0  0
 10 11  2  0  0  0  0
 11 12  1  0  0  0  0
 12 13  2  0  0  0  0
 12 41  1  0  0  0  0
 13 14  1  0  0  0  0
 14 18  1  0  0  0  0
 14 15  2  0  0  0  0
 15 16  1  0  0  0  0
 16 17  2  0  0  0  0
 17 18  1  0  0  0  0
 17 42  1  0  0  0  0
 18 19  1  0  0  0  0
 19 20  1  0  0  0  0
 19 43  1  0  0  0  0
 19 44  1  0  0  0  0
 20 21  1  0  0  0  0
 20 23  1  0  0  0  0
 20 45  1  0  0  0  0
 21 22  1  0  0  0  0
 21 46  1  0  0  0  0
 21 47  1  0  0  0  0
 22 48  1  0  0  0  0
 23 27  1  0  0  0  0
 23 24  1  0  0  0  0
 23 49  1  0  0  0  0
 24 25  1  0  0  0  0
 24 50  1  0  0  0  0
 24 51  1  0  0  0  0
 25 26  1  0  0  0  0
 25 52  1  0  0  0  0
 25 53  1  0  0  0  0
 26 27  1  0  0  0  0
 27 54  1  0  0  0  0
 27 55  1  0  0  0  0
 28 29  1  0  0  0  0
 28 56  1  0  0  0  0
 28 57  1  0  0  0  0
 29 58  1  0  0  0  0
 29 59  1  0  0  0  0
M  END
> <s_m_source_file>
AV-unprocessed.smi

> <i_m_source_file_index>
273

> <i_lp_mmshare_version>
43012

> <i_f3d_flags>
0

> <s_epik_input>
W0NIM11bQ0gyXVtOSF1DKD1PKVtDSF0xW0NIMl1bQ0gyXU4oW0NIMl1bQ0gyXTEpYyhuW2NIXW4yKWMoYzIzKW5bY0hdbjNbQ0gyXVtDQEhdKFtDSDJdW09IXSlbQ0BASF00W0NIMl1bQ0gyXU9bQ0gyXTQ=

> <s_epik_cmdline>
J2VwaWtfcHl0aG9uJywgJy1waCcsICc3LjAnLCAnLXRuJywgJzgnLCAnLW1hJywgJzIwMCcsICctbWV0YWxfYmluZGluZycsICctaW1hZScsICc8aW5maWxlLm1hZT4nLCAnLW9tYWUnLCAnPG91dGZpbGUubWFlPic=

> <r_lp_tautomer_probability>
1

> <r_epik_Ionization_Penalty>
0.00226556

> <r_epik_Ionization_Penalty_Charging>
0

> <r_epik_Ionization_Penalty_Neutral>
0.00226556

> <r_epik_State_Penalty>
0.00139883

> <r_epik_Charging_Adjusted_Penalty>
0.00139883

> <i_epik_Tot_Q>
0

> <i_epik_Tot_abs_Q>
0

> <r_epik_Metal_State_Penalty>
-0

> <b_epik_Metal_Only>
0

> <s_lp_Force_Field>
OPLS_2005

> <r_lp_Energy>
43.2491

> <b_lp_Chiralities_Consistent>
1

> <s_lp_Variant>
AV-unprocessed.smi:273-3

> <Gold.Version>
5.8.1

> <Gold.Id.Protein>
6NUR|6NUR_protein|mol2

> <Gold.PLP.Fitness>
45.2149

> <Gold.PLP.PLP>
-41.0402

> <Gold.PLP.part.hbond>
-2.9940

> <Gold.PLP.part.metal>
0.0000

> <Gold.PLP.part.buried>
-5.8605

> <Gold.PLP.part.nonpolar>
-32.2810

> <Gold.PLP.part.repulsive>
0.5858

> <Gold.PLP.ligand.clash>
0.0000

> <Gold.PLP.ligand.torsion>
1.2201

> <Gold.PLP.Chemscore.Hbond>
2.0000

> <Gold.PLP.Chemscore.CHOScore>
0.0000

> <Gold.PLP.Chemscore.Metal>
0.0000

> <Gold.Chemscore.Hbonds>
donor molecule, donor type, donor heavy atom, donor atom, acceptor molecule, acceptor atom, score
      L1  H    22    48       P1 10171  1.00
      P1  H  7997  8008       L1     5  0.73

> <Gold.PLP.Chemscore.Internal.Correction>
0.6148

> <Gold.Rescore>
     Score         DG    S(hbond)    S(metal)    S(lipo)     H(rot)  DE(clash)    DE(int)     intcor
     12.99     -14.35       1.91        0.00      91.80       3.22       0.07       1.30       ----

> <Gold.Chemscore.Fitness>
12.9854

> <Gold.Chemscore.DG>
-14.3505

> <Gold.Chemscore.ZeroCoef>
-5.4800

> <Gold.Chemscore.Hbond>
1.9114

> <Gold.Chemscore.Metal>
0.0000

> <Gold.Chemscore.Lipo>
91.8028

> <Gold.Chemscore.Internal_Hbond>
0.0000

> <Gold.Chemscore.DEClash>
0.0692

> <Gold.Chemscore.DEInternal>
1.2960

> <Gold.Chemscore.Rot>
3.2244

> <Gold.Chemscore.Internal.Correction>
   9.000000E+99

> <Gold.Chemscore.Hbonds>
donor molecule, donor type, donor heavy atom, donor atom, acceptor molecule, acceptor atom, score
      L1  H    22    48       P1 10171  1.00
      P1  H  7997  8008       L1     5  0.29

> <Gold.Chemscore.Hbond.Weighted>
-6.3841

> <Gold.Chemscore.Metal.Weighted>
-0.0000

> <Gold.Chemscore.Lipo.Weighted>
-10.7409

> <Gold.Chemscore.Internal_Hbond.Weighted>
0.0000

> <Gold.Chemscore.DEClash.Weighted>
0.0692

> <Gold.Chemscore.DEInternal.Weighted>
1.2960

> <Gold.Chemscore.Rot.Weighted>
8.2545

> <Gold.Chemscore.Internal.Correction.Weighted>
   9.000000E+99

> <Gold.Protein.RotatedTorsions>
[ 6907 6896 6895 6894 ] final  135.50 input  -60.11 | X-H torsion
[ 7974 7965 7964 7962 ] final  -85.39 input  175.53 | X-H torsion
[ 8008 7997 7996 7995 ] final -109.00 input   59.86 | X-H torsion
[ 10167 10162 10161 10158 ] final  177.72 input  -65.29 | X-H torsion
[ 10718 10713 10712 10709 ] final  152.05 input   66.30 | X-H torsion
[ 10763 10752 10751 10750 ] final   49.67 input  -60.55 | X-H torsion
[ 11005 11000 10999 10996 ] final  150.11 input  -57.11 | X-H torsion

> <Gold.Protein.ActiveResidues>
 VAL166  LYS551  ARG553  GLY616  TRP617  ASP618  TYR619  PRO620  LYS621  CYS622 
 ASP623  PHE694  ASN695  SER759  ASP760  ASP761  ALA762  ILE779  LEU786  VAL792 
 PHE793  MET794  SER795  GLU796  ALA797  LYS798  CYS799  TRP800  GLU811  SER814 

> <Gold.Protein.RotatedAtoms>
  152.2997  133.5643  159.5610 H   0  0  0  0  0  0  0  0  0  0  0  0  # atno 6907 bound_to 6896
  150.7272  134.0309  159.3742 H   0  0  0  0  0  0  0  0  0  0  0  0  # atno 6908 bound_to 6896
  151.8209  135.0652  160.0476 H   0  0  0  0  0  0  0  0  0  0  0  0  # atno 6909 bound_to 6896
  145.4939  140.9551  143.1797 H   0  0  0  0  0  0  0  0  0  0  0  0  # atno 7974 bound_to 7965
  154.9527  140.0400  157.2151 H   0  0  0  0  0  0  0  0  0  0  0  0  # atno 8008 bound_to 7997
  154.7963  140.2844  155.5932 H   0  0  0  0  0  0  0  0  0  0  0  0  # atno 8009 bound_to 7997
  156.2956  140.2563  156.2822 H   0  0  0  0  0  0  0  0  0  0  0  0  # atno 8010 bound_to 7997
  139.5264  144.2765  152.0583 H   0  0  0  0  0  0  0  0  0  0  0  0  # atno 10167 bound_to 10162
  157.2628  131.0801  151.1654 H   0  0  0  0  0  0  0  0  0  0  0  0  # atno 10718 bound_to 10713
  152.9786  135.5904  154.4126 H   0  0  0  0  0  0  0  0  0  0  0  0  # atno 10763 bound_to 10752
  154.3760  135.2767  155.2241 H   0  0  0  0  0  0  0  0  0  0  0  0  # atno 10764 bound_to 10752
  154.4176  135.6067  153.6044 H   0  0  0  0  0  0  0  0  0  0  0  0  # atno 10765 bound_to 10752
  140.1103  134.8928  157.1926 H   0  0  0  0  0  0  0  0  0  0  0  0  # atno 11005 bound_to 11000
  144.7818  139.6510  143.7151 LP  0  0  0  0  0  0  0  0  0  0  0  0  # atno 17320 bound_to 7965
  146.2267  139.5736  142.9582 LP  0  0  0  0  0  0  0  0  0  0  0  0  # atno 17321 bound_to 7965
  140.2222  144.4454  150.6337 LP  0  0  0  0  0  0  0  0  0  0  0  0  # atno 17342 bound_to 10162
  140.6411  143.2204  151.6289 LP  0  0  0  0  0  0  0  0  0  0  0  0  # atno 17343 bound_to 10162
  157.3156  130.6912  149.6240 LP  0  0  0  0  0  0  0  0  0  0  0  0  # atno 17370 bound_to 10713
  155.9664  130.4350  150.5074 LP  0  0  0  0  0  0  0  0  0  0  0  0  # atno 17371 bound_to 10713
  140.3100  134.3034  155.7269 LP  0  0  0  0  0  0  0  0  0  0  0  0  # atno 17394 bound_to 11000
  141.2128  133.7644  156.9763 LP  0  0  0  0  0  0  0  0  0  0  0  0  # atno 17395 bound_to 11000

$$$$
