AV-unprocessed.smi:236|AV-procd|sdf|1810|dock9
  -GOLD-   2262020393D 1   1.00000     0.00000
 Structure written by MMmdl.
 58 62  0  0  0  0  0  0  0  0  1 V2000
  147.7442  135.7306  162.8577 C   0  0  0  0  0  0  0  0  0  0  0  0
  146.5288  135.1594  162.1097 C   0  0  1  0  0  0  0  0  0  0  0  0
  145.9173  134.1635  162.9240 O   0  0  0  0  0  0  0  0  0  0  0  0
  144.5351  134.1198  162.6188 C   0  0  0  0  0  0  0  0  0  0  0  0
  144.1903  135.5940  162.4857 C   0  0  0  0  0  0  0  0  0  0  0  0
  145.3999  136.1627  161.7413 C   0  0  1  0  0  0  0  0  0  0  0  0
  145.6490  137.4696  162.2322 O   0  0  0  0  0  0  0  0  0  0  0  0
  145.2087  136.2435  160.2036 C   0  0  0  0  0  0  0  0  0  0  0  0
  146.3385  136.8176  159.4874 N   0  0  0  0  0  0  0  0  0  0  0  0
  147.6409  136.9004  159.9271 C   0  0  0  0  0  0  0  0  0  0  0  0
  148.4748  137.4631  159.0956 N   0  0  0  0  0  0  0  0  0  0  0  0
  147.6924  137.7754  157.9903 C   0  0  0  0  0  0  0  0  0  0  0  0
  147.9442  138.3945  156.7330 C   0  0  0  0  0  0  0  0  0  0  0  0
  149.1431  138.8619  156.3277 N   0  0  0  0  0  0  0  0  0  0  0  0
  149.5137  138.4179  154.9910 C   0  0  0  0  0  0  0  0  0  0  0  0
  150.9533  138.8555  154.6777 C   0  0  0  0  0  0  0  0  0  0  0  0
  151.0668  140.2652  154.8478 O   0  0  0  0  0  0  0  0  0  0  0  0
  150.7923  140.6774  156.1860 C   0  0  1  0  0  0  0  0  0  0  0  0
  151.0180  142.1919  156.2756 C   0  0  0  0  0  0  0  0  0  0  0  0
  150.8543  142.6034  157.6226 O   0  0  0  0  0  0  0  0  0  0  0  0
  151.5437  143.8062  157.9144 C   0  0  0  0  0  0  0  0  0  0  0  0
  151.2227  144.2263  159.3330 C   0  0  0  0  0  0  0  0  0  0  0  0
  151.8980  145.4277  159.9553 C   0  0  0  0  0  0  0  0  0  0  0  0
  152.2437  144.0405  160.4325 C   0  0  0  0  0  0  0  0  0  0  0  0
  149.3387  140.2930  156.5242 C   0  0  0  0  0  0  0  0  0  0  0  0
  146.9038  138.5461  155.8779 N   0  0  0  0  0  0  0  0  0  0  0  0
  145.6875  138.1118  156.2223 C   0  0  0  0  0  0  0  0  0  0  0  0
  145.3025  137.5163  157.3534 N   0  0  0  0  0  0  0  0  0  0  0  0
  146.3473  137.3705  158.2185 C   0  0  0  0  0  0  0  0  0  0  0  0
  148.2509  136.4914  162.2636 H   0  0  0  0  0  0  0  0  0  0  0  0
  148.4686  134.9454  163.0749 H   0  0  0  0  0  0  0  0  0  0  0  0
  147.4523  136.1799  163.8074 H   0  0  0  0  0  0  0  0  0  0  0  0
  146.8843  134.6573  161.2087 H   0  0  0  0  0  0  0  0  0  0  0  0
  144.3754  133.5893  161.6786 H   0  0  0  0  0  0  0  0  0  0  0  0
  143.9648  133.6211  163.4026 H   0  0  0  0  0  0  0  0  0  0  0  0
  143.2321  135.7624  161.9974 H   0  0  0  0  0  0  0  0  0  0  0  0
  144.1206  136.0226  163.4871 H   0  0  0  0  0  0  0  0  0  0  0  0
  145.5250  138.0831  161.5244 H   0  0  0  0  0  0  0  0  0  0  0  0
  145.0244  135.2475  159.7987 H   0  0  0  0  0  0  0  0  0  0  0  0
  144.3228  136.8338  159.9662 H   0  0  0  0  0  0  0  0  0  0  0  0
  147.9541  136.5329  160.8937 H   0  0  0  0  0  0  0  0  0  0  0  0
  149.4285  137.3329  154.9202 H   0  0  0  0  0  0  0  0  0  0  0  0
  148.8292  138.8455  154.2574 H   0  0  0  0  0  0  0  0  0  0  0  0
  151.6667  138.3414  155.3237 H   0  0  0  0  0  0  0  0  0  0  0  0
  151.2102  138.5982  153.6502 H   0  0  0  0  0  0  0  0  0  0  0  0
  151.4712  140.1726  156.8761 H   0  0  0  0  0  0  0  0  0  0  0  0
  152.0106  142.4524  155.9045 H   0  0  0  0  0  0  0  0  0  0  0  0
  150.2873  142.7137  155.6553 H   0  0  0  0  0  0  0  0  0  0  0  0
  152.6204  143.6554  157.8249 H   0  0  0  0  0  0  0  0  0  0  0  0
  151.2551  144.5962  157.2190 H   0  0  0  0  0  0  0  0  0  0  0  0
  150.1879  144.0500  159.6205 H   0  0  0  0  0  0  0  0  0  0  0  0
  152.6431  145.9555  159.3629 H   0  0  0  0  0  0  0  0  0  0  0  0
  151.2994  146.0527  160.6149 H   0  0  0  0  0  0  0  0  0  0  0  0
  151.8775  143.7405  161.4121 H   0  0  0  0  0  0  0  0  0  0  0  0
  153.2195  143.6440  160.1581 H   0  0  0  0  0  0  0  0  0  0  0  0
  148.6540  140.8555  155.8888 H   0  0  0  0  0  0  0  0  0  0  0  0
  149.1111  140.5561  157.5580 H   0  0  0  0  0  0  0  0  0  0  0  0
  144.9114  138.2647  155.4868 H   0  0  0  0  0  0  0  0  0  0  0  0
  1  2  1  0  0  0  0
  1 30  1  0  0  0  0
  1 31  1  0  0  0  0
  1 32  1  0  0  0  0
  2  6  1  0  0  0  0
  2  3  1  0  0  0  0
  2 33  1  0  0  0  0
  3  4  1  0  0  0  0
  4  5  1  0  0  0  0
  4 34  1  0  0  0  0
  4 35  1  0  0  0  0
  5  6  1  0  0  0  0
  5 36  1  0  0  0  0
  5 37  1  0  0  0  0
  6  7  1  0  0  0  0
  6  8  1  0  0  0  0
  7 38  1  0  0  0  0
  8  9  1  0  0  0  0
  8 39  1  0  0  0  0
  8 40  1  0  0  0  0
  9 29  1  0  0  0  0
  9 10  1  0  0  0  0
 10 11  2  0  0  0  0
 10 41  1  0  0  0  0
 11 12  1  0  0  0  0
 12 29  2  0  0  0  0
 12 13  1  0  0  0  0
 13 14  1  0  0  0  0
 13 26  2  0  0  0  0
 14 25  1  0  0  0  0
 14 15  1  0  0  0  0
 15 16  1  0  0  0  0
 15 42  1  0  0  0  0
 15 43  1  0  0  0  0
 16 17  1  0  0  0  0
 16 44  1  0  0  0  0
 16 45  1  0  0  0  0
 17 18  1  0  0  0  0
 18 19  1  0  0  0  0
 18 25  1  0  0  0  0
 18 46  1  0  0  0  0
 19 20  1  0  0  0  0
 19 47  1  0  0  0  0
 19 48  1  0  0  0  0
 20 21  1  0  0  0  0
 21 22  1  0  0  0  0
 21 49  1  0  0  0  0
 21 50  1  0  0  0  0
 22 24  1  0  0  0  0
 22 23  1  0  0  0  0
 22 51  1  0  0  0  0
 23 24  1  0  0  0  0
 23 52  1  0  0  0  0
 23 53  1  0  0  0  0
 24 54  1  0  0  0  0
 24 55  1  0  0  0  0
 25 56  1  0  0  0  0
 25 57  1  0  0  0  0
 26 27  1  0  0  0  0
 27 28  2  0  0  0  0
 27 58  1  0  0  0  0
 28 29  1  0  0  0  0
M  END
> <s_m_source_file>
AV-unprocessed.smi

> <i_m_source_file_index>
236

> <i_lp_mmshare_version>
43012

> <i_f3d_flags>
0

> <s_epik_input>
W0NIMl0xW0NIMl1PW0NAQEhdKFtDSDNdKVtDQEBdMShbT0hdKVtDSDJdbihbY0hdbjIpYyhjMjMpbltjSF1uYzNONFtDSDJdW0NIMl1PW0NASF0oW0NIMl00KVtDSDJdT1tDSDJdW0NIXTVbQ0gyXVtDSDJdNQ==

> <s_epik_cmdline>
J2VwaWtfcHl0aG9uJywgJy1waCcsICc3LjAnLCAnLXRuJywgJzgnLCAnLW1hJywgJzIwMCcsICctbWV0YWxfYmluZGluZycsICctaW1hZScsICc8aW5maWxlLm1hZT4nLCAnLW9tYWUnLCAnPG91dGZpbGUubWFlPic=

> <r_lp_tautomer_probability>
1

> <r_epik_Ionization_Penalty>
7.21838e-05

> <r_epik_Ionization_Penalty_Charging>
0

> <r_epik_Ionization_Penalty_Neutral>
7.21838e-05

> <r_epik_State_Penalty>
-0

> <r_epik_Charging_Adjusted_Penalty>
0

> <i_epik_Tot_Q>
0

> <i_epik_Tot_abs_Q>
0

> <r_epik_Metal_State_Penalty>
-0

> <b_epik_Metal_Only>
0

> <s_lp_Force_Field>
OPLS_2005

> <r_lp_Energy>
50.1764

> <b_lp_Chiralities_Consistent>
1

> <s_lp_Variant>
AV-unprocessed.smi:236-2

> <Gold.Version>
5.8.1

> <Gold.Id.Protein>
6NUR|6NUR_protein|mol2

> <Gold.PLP.Fitness>
47.7256

> <Gold.PLP.PLP>
-46.3810

> <Gold.PLP.part.hbond>
-2.9889

> <Gold.PLP.part.metal>
0.0000

> <Gold.PLP.part.buried>
-8.2305

> <Gold.PLP.part.nonpolar>
-35.5296

> <Gold.PLP.part.repulsive>
0.2016

> <Gold.PLP.ligand.clash>
0.0000

> <Gold.PLP.ligand.torsion>
1.2049

> <Gold.PLP.Chemscore.Hbond>
1.0000

> <Gold.PLP.Chemscore.CHOScore>
0.0000

> <Gold.PLP.Chemscore.Metal>
0.0000

> <Gold.Chemscore.Hbonds>
donor molecule, donor type, donor heavy atom, donor atom, acceptor molecule, acceptor atom, score
      P1  H  7989  7998       L1    17  1.00

> <Gold.PLP.Chemscore.Internal.Correction>
0.7543

> <Gold.Rescore>
     Score         DG    S(hbond)    S(metal)    S(lipo)     H(rot)  DE(clash)    DE(int)     intcor
     12.60     -15.10       0.90        0.00     119.21       2.87       0.09       2.42       ----

> <Gold.Chemscore.Fitness>
12.5999

> <Gold.Chemscore.DG>
-15.1047

> <Gold.Chemscore.ZeroCoef>
-5.4800

> <Gold.Chemscore.Hbond>
0.9020

> <Gold.Chemscore.Metal>
0.0000

> <Gold.Chemscore.Lipo>
119.2121

> <Gold.Chemscore.Internal_Hbond>
0.0000

> <Gold.Chemscore.DEClash>
0.0862

> <Gold.Chemscore.DEInternal>
2.4186

> <Gold.Chemscore.Rot>
2.8655

> <Gold.Chemscore.Internal.Correction>
   9.000000E+99

> <Gold.Chemscore.Hbonds>
donor molecule, donor type, donor heavy atom, donor atom, acceptor molecule, acceptor atom, score
      P1  H  7989  7998       L1    17  0.64

> <Gold.Chemscore.Hbond.Weighted>
-3.0126

> <Gold.Chemscore.Metal.Weighted>
-0.0000

> <Gold.Chemscore.Lipo.Weighted>
-13.9478

> <Gold.Chemscore.Internal_Hbond.Weighted>
0.0000

> <Gold.Chemscore.DEClash.Weighted>
0.0862

> <Gold.Chemscore.DEInternal.Weighted>
2.4186

> <Gold.Chemscore.Rot.Weighted>
7.3358

> <Gold.Chemscore.Internal.Correction.Weighted>
   9.000000E+99

> <Gold.Protein.RotatedTorsions>
[ 6907 6896 6895 6894 ] final   53.38 input  -60.11 | X-H torsion
[ 7974 7965 7964 7962 ] final  129.34 input  175.53 | X-H torsion
[ 8008 7997 7996 7995 ] final  -40.12 input   59.86 | X-H torsion
[ 10167 10162 10161 10158 ] final -115.92 input  -65.29 | X-H torsion
[ 10718 10713 10712 10709 ] final   86.54 input   66.30 | X-H torsion
[ 10763 10752 10751 10750 ] final  -37.52 input  -60.55 | X-H torsion
[ 11005 11000 10999 10996 ] final   68.46 input  -57.11 | X-H torsion

> <Gold.Protein.ActiveResidues>
 VAL166  LYS551  ARG553  GLY616  TRP617  ASP618  TYR619  PRO620  LYS621  CYS622 
 ASP623  PHE694  ASN695  SER759  ASP760  ASP761  ALA762  ILE779  LEU786  VAL792 
 PHE793  MET794  SER795  GLU796  ALA797  LYS798  CYS799  TRP800  GLU811  SER814 

> <Gold.Protein.RotatedAtoms>
  152.3331  134.7233  160.0283 H   0  0  0  0  0  0  0  0  0  0  0  0  # atno 6907 bound_to 6896
  151.7643  133.3331  159.3434 H   0  0  0  0  0  0  0  0  0  0  0  0  # atno 6908 bound_to 6896
  150.7434  134.6009  159.6080 H   0  0  0  0  0  0  0  0  0  0  0  0  # atno 6909 bound_to 6896
  145.0297  139.4057  143.5156 H   0  0  0  0  0  0  0  0  0  0  0  0  # atno 7974 bound_to 7965
  154.4015  140.1533  156.2975 H   0  0  0  0  0  0  0  0  0  0  0  0  # atno 8008 bound_to 7997
  155.8730  140.3448  155.5813 H   0  0  0  0  0  0  0  0  0  0  0  0  # atno 8009 bound_to 7997
  155.7753  140.0836  157.2078 H   0  0  0  0  0  0  0  0  0  0  0  0  # atno 8010 bound_to 7997
  140.0849  143.4753  152.1904 H   0  0  0  0  0  0  0  0  0  0  0  0  # atno 10167 bound_to 10162
  157.6930  131.0220  150.2989 H   0  0  0  0  0  0  0  0  0  0  0  0  # atno 10718 bound_to 10713
  153.8977  135.6805  153.4757 H   0  0  0  0  0  0  0  0  0  0  0  0  # atno 10763 bound_to 10752
  153.1146  135.4767  154.9091 H   0  0  0  0  0  0  0  0  0  0  0  0  # atno 10764 bound_to 10752
  154.7591  135.3205  154.8367 H   0  0  0  0  0  0  0  0  0  0  0  0  # atno 10765 bound_to 10752
  139.9710  134.6900  156.0447 H   0  0  0  0  0  0  0  0  0  0  0  0  # atno 11005 bound_to 11000
  146.3497  139.9840  142.8692 LP  0  0  0  0  0  0  0  0  0  0  0  0  # atno 17320 bound_to 7965
  145.1787  140.9756  143.4279 LP  0  0  0  0  0  0  0  0  0  0  0  0  # atno 17321 bound_to 7965
  139.5758  144.7486  151.3769 LP  0  0  0  0  0  0  0  0  0  0  0  0  # atno 17342 bound_to 10162
  140.7059  143.7516  150.7481 LP  0  0  0  0  0  0  0  0  0  0  0  0  # atno 17343 bound_to 10162
  156.3508  130.3830  149.7331 LP  0  0  0  0  0  0  0  0  0  0  0  0  # atno 17370 bound_to 10713
  156.4809  130.8040  151.3055 LP  0  0  0  0  0  0  0  0  0  0  0  0  # atno 17371 bound_to 10713
  141.1390  133.6569  156.3674 LP  0  0  0  0  0  0  0  0  0  0  0  0  # atno 17394 bound_to 11000
  140.5293  134.6228  157.5344 LP  0  0  0  0  0  0  0  0  0  0  0  0  # atno 17395 bound_to 11000

$$$$
