#       Name:                AV-unprocessed.smi:2321
#       Creating user name   scv26
#       Creation time:       Fri Mar 27 12:50:55 2020


#       File generated by GOLD software.
#

@<TRIPOS>MOLECULE
AV-unprocessed.smi:2321
    39    40     1
SMALL
NO_CHARGES


@<TRIPOS>ATOM
      1 ****        -2.6778   0.0144   1.1752 O.2            1 S1                 0.0000
      2 ****        -1.4680   0.1675   1.0221 C.2            1 S1                 0.0000
      3 ****        -0.8546   1.3593   0.8848 N.am           1 S1                 0.0000
      4 ****        -1.4220   2.6617   0.8662 C.ar           1 S1                 0.0000
      5 ****        -2.6745   2.9923   1.4376 C.ar           1 S1                 0.0000
      6 ****        -3.1155   4.3291   1.3669 C.ar           1 S1                 0.0000
      7 ****        -2.4031   5.3184   0.7871 N.ar           1 S1                 0.0000
      8 ****        -1.2036   5.0015   0.2553 C.ar           1 S1                 0.0000
      9 ****        -0.6694   3.6977   0.2737 C.ar           1 S1                 0.0000
     10 ****         0.5446   3.4482  -0.2743 F              1 S1                 0.0000
     11 ****        -0.6387  -0.8902   0.9529 N.am           1 S1                 0.0000
     12 ****        -0.9632  -2.3171   1.0602 C.3            1 S1                 0.0000
     13 ****         0.1286  -3.1620   0.3761 C.3            1 S1                 0.0000
     14 ****         1.4465  -3.1620   1.1689 C.3            1 S1                 0.0000
     15 ****         1.2263  -3.6134   2.6208 C.3            1 S1                 0.0000
     16 ****         0.1689  -2.7442   3.3333 C.3            1 S1                 0.0000
     17 ****        -0.0447  -3.1776   4.7983 C.3            1 S1                 0.0000
     18 ****        -0.5128  -4.4245   4.8613 F              1 S1                 0.0000
     19 ****         1.1074  -3.1156   5.4659 F              1 S1                 0.0000
     20 ****        -0.9140  -2.3604   5.3928 F              1 S1                 0.0000
     21 ****        -1.1523  -2.7528   2.5313 C.3            1 S1                 0.0000
     22 ****         0.1356   1.3221   0.6917 H              1 S1                 0.0000
     23 ****        -3.2933   2.2608   1.9336 H              1 S1                 0.0000
     24 ****        -4.0661   4.6125   1.7939 H              1 S1                 0.0000
     25 ****        -0.6516   5.8119  -0.1971 H              1 S1                 0.0000
     26 ****         0.3352  -0.6795   0.7887 H              1 S1                 0.0000
     27 ****        -1.8935  -2.4986   0.5193 H              1 S1                 0.0000
     28 ****        -0.2251  -4.1894   0.2796 H              1 S1                 0.0000
     29 ****         0.3027  -2.8062  -0.6402 H              1 S1                 0.0000
     30 ****         2.1687  -3.8188   0.6833 H              1 S1                 0.0000
     31 ****         1.8855  -2.1638   1.1588 H              1 S1                 0.0000
     32 ****         0.9154  -4.6588   2.6326 H              1 S1                 0.0000
     33 ****         2.1735  -3.5688   3.1590 H              1 S1                 0.0000
     34 ****         0.5425  -1.7192   3.3530 H              1 S1                 0.0000
     35 ****        -1.8914  -2.1186   3.0210 H              1 S1                 0.0000
     36 ****        -1.5717  -3.7594   2.5459 H              1 S1                 0.0000
     37 ****        -3.2827   0.8101   1.2050 LP             1 S1                 0.0000
     38 ****        -3.0573  -0.9060   1.2699 LP             1 S1                 0.0000
     39 ****        -2.7524   6.2548   0.7527 LP             1 S1                 0.0000
@<TRIPOS>BOND
    1    1    2 2     
    2    2    3 am    
    3    2   11 am    
    4    3    4 1     
    5    3   22 1     
    6    4    9 ar    
    7    4    5 ar    
    8    5    6 ar    
    9    5   23 1     
   10    6    7 ar    
   11    6   24 1     
   12    7    8 ar    
   13    8    9 ar    
   14    8   25 1     
   15    9   10 1     
   16   11   12 1     
   17   11   26 1     
   18   12   21 1     
   19   12   13 1     
   20   12   27 1     
   21   13   14 1     
   22   13   28 1     
   23   13   29 1     
   24   14   15 1     
   25   14   30 1     
   26   14   31 1     
   27   15   16 1     
   28   15   32 1     
   29   15   33 1     
   30   16   17 1     
   31   16   21 1     
   32   16   34 1     
   33   17   18 1     
   34   17   19 1     
   35   17   20 1     
   36   21   35 1     
   37   21   36 1     
   38    1   37 1     
   39    1   38 1     
   40    7   39 1     
@<TRIPOS>SUBSTRUCTURE
      1 S1             1
@<TRIPOS>SET
LONE_PAIRS      STATIC     ATOMS    <user>   **** ""
3 37 38 39
DONOR_HYDROGENS      STATIC     ATOMS    <user>   **** ""
2 22 26
ATOM$BLUE        STATIC     ATOMS    COLORGROUP SYSTEM
3 37 38 39
ATOM$RED        STATIC     ATOMS    COLORGROUP SYSTEM
2 22 26
