AV-unprocessed.smi:102|AV-procd|sdf|957|dock2
  -GOLD-   2262017493D 1   1.00000     0.00000
 Structure written by MMmdl.
 44 45  0  0  0  0  0  0  0  0  1 V2000
  147.0142  136.4194  160.5880 C   0  0  0  0  0  0  0  0  0  0  0  0
  148.1216  136.4244  159.5419 C   0  0  0  0  0  0  0  0  0  0  0  0
  149.1835  135.8306  159.7303 O   0  0  0  0  0  0  0  0  0  0  0  0
  147.7959  137.1297  158.4479 O   0  0  0  0  0  0  0  0  0  0  0  0
  148.8167  137.5582  157.5627 C   0  0  0  0  0  0  0  0  0  0  0  0
  148.2011  137.8549  156.1815 C   0  0  2  0  0  0  0  0  0  0  0  0
  147.0172  137.0806  156.0187 O   0  0  0  0  0  0  0  0  0  0  0  0
  147.3556  135.8115  155.5478 C   0  0  1  0  0  0  0  0  0  0  0  0
  146.2586  135.3216  154.6311 N   0  0  0  0  0  0  0  0  0  0  0  0
  146.1393  135.8371  153.3475 C   0  0  0  0  0  0  0  0  0  0  0  0
  145.1998  135.4174  152.4672 C   0  0  0  0  0  0  0  0  0  0  0  0
  145.1434  135.9691  151.2431 F   0  0  0  0  0  0  0  0  0  0  0  0
  144.2525  134.3686  152.8333 C   0  0  0  0  0  0  0  0  0  0  0  0
  143.3646  133.9246  152.1081 O   0  0  0  0  0  0  0  0  0  0  0  0
  144.4234  133.8635  154.1254 N   0  0  0  0  0  0  0  0  0  0  0  0
  145.3899  134.2841  155.0407 C   0  0  0  0  0  0  0  0  0  0  0  0
  145.4582  133.7495  156.1457 O   0  0  0  0  0  0  0  0  0  0  0  0
  148.7257  135.9147  154.8446 C   0  0  2  0  0  0  0  0  0  0  0  0
  149.6797  135.0977  155.5168 O   0  0  0  0  0  0  0  0  0  0  0  0
  149.7728  133.7891  155.2236 C   0  0  0  0  0  0  0  0  0  0  0  0
  150.8203  133.0747  156.0674 C   0  0  0  0  0  0  0  0  0  0  0  0
  149.1028  133.1861  154.3854 O   0  0  0  0  0  0  0  0  0  0  0  0
  149.0565  137.3999  154.9944 C   0  0  2  0  0  0  0  0  0  0  0  0
  150.4427  137.6780  155.1681 O   0  0  0  0  0  0  0  0  0  0  0  0
  150.9385  138.8856  154.8470 C   0  0  0  0  0  0  0  0  0  0  0  0
  152.4485  138.9597  155.0290 C   0  0  0  0  0  0  0  0  0  0  0  0
  150.2903  139.8511  154.4434 O   0  0  0  0  0  0  0  0  0  0  0  0
  143.7988  133.1267  154.4190 H   0  0  0  0  0  0  0  0  0  0  0  0
  146.1391  136.9652  160.2341 H   0  0  0  0  0  0  0  0  0  0  0  0
  147.3642  136.8889  161.5074 H   0  0  0  0  0  0  0  0  0  0  0  0
  146.7142  135.3964  160.8151 H   0  0  0  0  0  0  0  0  0  0  0  0
  149.2672  138.4624  157.9741 H   0  0  0  0  0  0  0  0  0  0  0  0
  149.6036  136.8063  157.4914 H   0  0  0  0  0  0  0  0  0  0  0  0
  147.9758  138.9188  156.0999 H   0  0  0  0  0  0  0  0  0  0  0  0
  147.3705  135.1246  156.3959 H   0  0  0  0  0  0  0  0  0  0  0  0
  146.8163  136.6145  153.0230 H   0  0  0  0  0  0  0  0  0  0  0  0
  148.6567  135.6423  153.7903 H   0  0  0  0  0  0  0  0  0  0  0  0
  150.3432  132.5561  156.8990 H   0  0  0  0  0  0  0  0  0  0  0  0
  151.5439  133.7839  156.4702 H   0  0  0  0  0  0  0  0  0  0  0  0
  151.3566  132.3417  155.4646 H   0  0  0  0  0  0  0  0  0  0  0  0
  148.6907  137.9292  154.1138 H   0  0  0  0  0  0  0  0  0  0  0  0
  152.9251  138.0653  154.6270 H   0  0  0  0  0  0  0  0  0  0  0  0
  152.6977  139.0401  156.0872 H   0  0  0  0  0  0  0  0  0  0  0  0
  152.8541  139.8288  154.5109 H   0  0  0  0  0  0  0  0  0  0  0  0
  1  2  1  0  0  0  0
  1 29  1  0  0  0  0
  1 30  1  0  0  0  0
  1 31  1  0  0  0  0
  2  3  2  0  0  0  0
  2  4  1  0  0  0  0
  4  5  1  0  0  0  0
  5  6  1  0  0  0  0
  5 32  1  0  0  0  0
  5 33  1  0  0  0  0
  6 23  1  0  0  0  0
  6  7  1  0  0  0  0
  6 34  1  0  0  0  0
  7  8  1  0  0  0  0
  8  9  1  0  0  0  0
  8 18  1  0  0  0  0
  8 35  1  0  0  0  0
  9 16  1  0  0  0  0
  9 10  1  0  0  0  0
 10 11  2  0  0  0  0
 10 36  1  0  0  0  0
 11 12  1  0  0  0  0
 11 13  1  0  0  0  0
 13 14  2  0  0  0  0
 13 15  1  0  0  0  0
 15 28  1  0  0  0  0
 15 16  1  0  0  0  0
 16 17  2  0  0  0  0
 18 19  1  0  0  0  0
 18 23  1  0  0  0  0
 18 37  1  0  0  0  0
 19 20  1  0  0  0  0
 20 21  1  0  0  0  0
 20 22  2  0  0  0  0
 21 38  1  0  0  0  0
 21 39  1  0  0  0  0
 21 40  1  0  0  0  0
 23 24  1  0  0  0  0
 23 41  1  0  0  0  0
 24 25  1  0  0  0  0
 25 26  1  0  0  0  0
 25 27  2  0  0  0  0
 26 42  1  0  0  0  0
 26 43  1  0  0  0  0
 26 44  1  0  0  0  0
M  END
> <s_m_source_file>
AV-unprocessed.smi

> <i_m_source_file_index>
102

> <i_lp_mmshare_version>
43012

> <i_f3d_flags>
0

> <s_epik_input>
W0NIM11DKD1PKU9bQ0gyXVtDQEBIXTFPW0NASF0oW0NAQEhdKE9DKD1PKVtDSDNdKVtDQEhdMU9DKD1PKVtDSDNdKW4yW2NIXWMoRiljKD1PKVtuSF1jMj1P

> <s_epik_cmdline>
J2VwaWtfcHl0aG9uJywgJy1waCcsICc3LjAnLCAnLXRuJywgJzgnLCAnLW1hJywgJzIwMCcsICctbWV0YWxfYmluZGluZycsICctaW1hZScsICc8aW5maWxlLm1hZT4nLCAnLW9tYWUnLCAnPG91dGZpbGUubWFlPic=

> <r_lp_tautomer_probability>
0.999537

> <r_epik_Ionization_Penalty>
0.058267

> <r_epik_Ionization_Penalty_Charging>
0.058267

> <r_epik_Ionization_Penalty_Neutral>
6.57791e-16

> <r_epik_State_Penalty>
0.0503774

> <r_epik_Charging_Adjusted_Penalty>
0.108644

> <i_epik_Tot_Q>
0

> <i_epik_Tot_abs_Q>
0

> <r_epik_Metal_State_Penalty>
2.6644

> <b_epik_Metal_Only>
0

> <s_epik_Chemistry_Notes>
This compound has an ester and may undergo hydrolysis at high or low pH. This compound contains an acetal/aminal-like group ( X-CH(R)-Y where X, Y are N, S, or O) that may be acid/base labile, releasing an aldehyde.

> <s_lp_Force_Field>
OPLS_2005

> <r_lp_Energy>
12.818

> <b_lp_Chiralities_Consistent>
1

> <s_lp_Variant>
AV-unprocessed.smi:102-13

> <Gold.Version>
5.8.1

> <Gold.Id.Protein>
6NUR|6NUR_protein|mol2

> <Gold.PLP.Fitness>
34.3780

> <Gold.PLP.PLP>
-25.6732

> <Gold.PLP.part.hbond>
-3.0000

> <Gold.PLP.part.metal>
0.0000

> <Gold.PLP.part.buried>
-4.4298

> <Gold.PLP.part.nonpolar>
-19.2850

> <Gold.PLP.part.repulsive>
0.6476

> <Gold.PLP.ligand.clash>
0.0000

> <Gold.PLP.ligand.torsion>
1.6504

> <Gold.PLP.Chemscore.Hbond>
3.0000

> <Gold.PLP.Chemscore.CHOScore>
0.9135

> <Gold.PLP.Chemscore.Metal>
0.0000

> <Gold.Chemscore.Hbonds>
donor molecule, donor type, donor heavy atom, donor atom, acceptor molecule, acceptor atom, score
      L1  H    15    28       P1 10957  1.00
      P1  H  6896  6907       L1     3  1.00
      P1  H  7989  7998       L1    27  1.00
      L1  C    10    36       P1  7948  0.90

> <Gold.PLP.Chemscore.Internal.Correction>
0.2650

> <Gold.Rescore>
     Score         DG    S(hbond)    S(metal)    S(lipo)     H(rot)  DE(clash)    DE(int)     intcor
      7.36      -8.89       2.96        0.00      33.24       4.05       0.07       1.46       ----

> <Gold.Chemscore.Fitness>
7.3567

> <Gold.Chemscore.DG>
-8.8910

> <Gold.Chemscore.ZeroCoef>
-5.4800

> <Gold.Chemscore.Hbond>
2.9626

> <Gold.Chemscore.Metal>
0.0000

> <Gold.Chemscore.Lipo>
33.2401

> <Gold.Chemscore.Internal_Hbond>
0.0000

> <Gold.Chemscore.DEClash>
0.0726

> <Gold.Chemscore.DEInternal>
1.4617

> <Gold.Chemscore.Rot>
4.0520

> <Gold.Chemscore.Internal.Correction>
   9.000000E+99

> <Gold.Chemscore.Hbonds>
donor molecule, donor type, donor heavy atom, donor atom, acceptor molecule, acceptor atom, score
      L1  H    15    28       P1 10957  1.00
      P1  H  6896  6907       L1     3  0.98
      P1  H  7989  7998       L1    27  0.34

> <Gold.Chemscore.Hbond.Weighted>
-9.8951

> <Gold.Chemscore.Metal.Weighted>
-0.0000

> <Gold.Chemscore.Lipo.Weighted>
-3.8891

> <Gold.Chemscore.Internal_Hbond.Weighted>
0.0000

> <Gold.Chemscore.DEClash.Weighted>
0.0726

> <Gold.Chemscore.DEInternal.Weighted>
1.4617

> <Gold.Chemscore.Rot.Weighted>
10.3732

> <Gold.Chemscore.Internal.Correction.Weighted>
   9.000000E+99

> <Gold.Protein.RotatedTorsions>
[ 6907 6896 6895 6894 ] final  -46.48 input  -60.11 | X-H torsion
[ 7974 7965 7964 7962 ] final -115.66 input  175.53 | X-H torsion
[ 8008 7997 7996 7995 ] final   22.81 input   59.86 | X-H torsion
[ 10167 10162 10161 10158 ] final  141.88 input  -65.29 | X-H torsion
[ 10718 10713 10712 10709 ] final  140.66 input   66.30 | X-H torsion
[ 10763 10752 10751 10750 ] final   10.15 input  -60.55 | X-H torsion
[ 11005 11000 10999 10996 ] final   83.41 input  -57.11 | X-H torsion

> <Gold.Protein.ActiveResidues>
 VAL166  LYS551  ARG553  GLY616  TRP617  ASP618  TYR619  PRO620  LYS621  CYS622 
 ASP623  PHE694  ASN695  SER759  ASP760  ASP761  ALA762  ILE779  LEU786  VAL792 
 PHE793  MET794  SER795  GLU796  ALA797  LYS798  CYS799  TRP800  GLU811  SER814 

> <Gold.Protein.RotatedAtoms>
  150.9108  134.8524  159.7423 H   0  0  0  0  0  0  0  0  0  0  0  0  # atno 6907 bound_to 6896
  152.4943  134.4363  159.9538 H   0  0  0  0  0  0  0  0  0  0  0  0  # atno 6908 bound_to 6896
  151.4405  133.3605  159.2816 H   0  0  0  0  0  0  0  0  0  0  0  0  # atno 6909 bound_to 6896
  145.1057  140.8580  143.3899 H   0  0  0  0  0  0  0  0  0  0  0  0  # atno 7974 bound_to 7965
  154.9713  140.3090  155.4986 H   0  0  0  0  0  0  0  0  0  0  0  0  # atno 8008 bound_to 7997
  156.2965  140.2283  156.4745 H   0  0  0  0  0  0  0  0  0  0  0  0  # atno 8009 bound_to 7997
  154.7874  140.0442  157.1162 H   0  0  0  0  0  0  0  0  0  0  0  0  # atno 8010 bound_to 7997
  139.5009  144.6143  151.6200 H   0  0  0  0  0  0  0  0  0  0  0  0  # atno 10167 bound_to 10162
  157.4008  131.1016  151.0553 H   0  0  0  0  0  0  0  0  0  0  0  0  # atno 10718 bound_to 10713
  153.2062  135.6863  153.8169 H   0  0  0  0  0  0  0  0  0  0  0  0  # atno 10763 bound_to 10752
  153.7418  135.3237  155.3306 H   0  0  0  0  0  0  0  0  0  0  0  0  # atno 10764 bound_to 10752
  154.8198  135.4660  154.0850 H   0  0  0  0  0  0  0  0  0  0  0  0  # atno 10765 bound_to 10752
  139.9032  134.8143  156.2306 H   0  0  0  0  0  0  0  0  0  0  0  0  # atno 11005 bound_to 11000
  145.0904  139.2894  143.5738 LP  0  0  0  0  0  0  0  0  0  0  0  0  # atno 17320 bound_to 7965
  146.3528  140.0439  142.8641 LP  0  0  0  0  0  0  0  0  0  0  0  0  # atno 17321 bound_to 7965
  140.5826  143.9919  150.6277 LP  0  0  0  0  0  0  0  0  0  0  0  0  # atno 17342 bound_to 10162
  140.3073  143.3221  152.0913 LP  0  0  0  0  0  0  0  0  0  0  0  0  # atno 17343 bound_to 10162
  157.1553  130.6202  149.5594 LP  0  0  0  0  0  0  0  0  0  0  0  0  # atno 17370 bound_to 10713
  155.9823  130.4835  150.6872 LP  0  0  0  0  0  0  0  0  0  0  0  0  # atno 17371 bound_to 10713
  141.0348  133.6969  156.1493 LP  0  0  0  0  0  0  0  0  0  0  0  0  # atno 17394 bound_to 11000
  140.7043  134.4530  157.5585 LP  0  0  0  0  0  0  0  0  0  0  0  0  # atno 17395 bound_to 11000

$$$$
