AV-unprocessed.smi:3331|AV-procd|sdf|12828|dock4
  -GOLD-   2272019203D 1   1.00000     0.00000
 Structure written by MMmdl.
 46 47  0  0  0  0  0  0  0  0  1 V2000
  154.1037  141.7034  161.0527 C   0  0  0  0  0  0  0  0  0  0  0  0
  152.8380  142.0080  160.2394 C   0  0  1  0  0  0  0  0  0  0  0  0
  152.8053  143.4830  159.7766 C   0  0  0  0  0  0  0  0  0  0  0  0
  151.6186  143.7940  158.8364 C   0  0  2  0  0  0  0  0  0  0  0  0
  150.2917  143.9350  159.6037 C   0  0  0  0  0  0  0  0  0  0  0  0
  151.5521  142.7379  157.7115 C   0  0  0  0  0  0  0  0  0  0  0  0
  151.4679  141.3933  158.2998 N   0  0  0  0  0  0  0  0  0  0  0  0
  150.3929  140.5642  158.2734 C   0  0  0  0  0  0  0  0  0  0  0  0
  150.4289  139.4381  158.7740 O   0  0  0  0  0  0  0  0  0  0  0  0
  149.0722  141.0164  157.6053 C   0  0  1  0  0  0  0  0  0  0  0  0
  148.2233  139.7879  157.2422 C   0  0  0  0  0  0  0  0  0  0  0  0
  148.2755  141.9354  158.4399 N   0  0  0  0  0  0  0  0  0  0  0  0
  147.2055  142.6088  157.7115 C   0  0  0  0  0  0  0  0  0  0  0  0
  145.8945  142.4828  158.5000 C   0  0  0  0  0  0  0  0  0  0  0  0
  145.9871  143.1285  159.7953 N   0  0  0  0  0  0  0  0  0  0  0  0
  146.3838  144.4172  160.0844 C   0  0  0  0  0  0  0  0  0  0  0  0
  146.3062  144.5717  161.4390 C   0  0  0  0  0  0  0  0  0  0  0  0
  145.8459  143.3058  161.8974 C   0  0  0  0  0  0  0  0  0  0  0  0
  145.6570  142.4436  160.9114 N   0  0  0  0  0  0  0  0  0  0  0  0
  152.6999  141.0611  159.0284 C   0  0  0  0  0  0  0  0  0  0  0  0
  155.0038  141.8396  160.4525 H   0  0  0  0  0  0  0  0  0  0  0  0
  154.0982  140.6756  161.4166 H   0  0  0  0  0  0  0  0  0  0  0  0
  154.1790  142.3591  161.9205 H   0  0  0  0  0  0  0  0  0  0  0  0
  151.9831  141.8386  160.8955 H   0  0  0  0  0  0  0  0  0  0  0  0
  152.7908  144.1512  160.6386 H   0  0  0  0  0  0  0  0  0  0  0  0
  153.7317  143.7023  159.2437 H   0  0  0  0  0  0  0  0  0  0  0  0
  151.8130  144.7608  158.3704 H   0  0  0  0  0  0  0  0  0  0  0  0
  150.0166  143.0145  160.1182 H   0  0  0  0  0  0  0  0  0  0  0  0
  149.4755  144.1929  158.9288 H   0  0  0  0  0  0  0  0  0  0  0  0
  150.3565  144.7235  160.3536 H   0  0  0  0  0  0  0  0  0  0  0  0
  150.7554  142.9696  157.0078 H   0  0  0  0  0  0  0  0  0  0  0  0
  152.4619  142.7943  157.1119 H   0  0  0  0  0  0  0  0  0  0  0  0
  149.2877  141.5619  156.6890 H   0  0  0  0  0  0  0  0  0  0  0  0
  148.7653  139.1081  156.5839 H   0  0  0  0  0  0  0  0  0  0  0  0
  147.3105  140.0826  156.7232 H   0  0  0  0  0  0  0  0  0  0  0  0
  147.9321  139.2262  158.1310 H   0  0  0  0  0  0  0  0  0  0  0  0
  148.8602  142.6166  158.9030 H   0  0  0  0  0  0  0  0  0  0  0  0
  147.4393  143.6634  157.5635 H   0  0  0  0  0  0  0  0  0  0  0  0
  147.0927  142.1579  156.7245 H   0  0  0  0  0  0  0  0  0  0  0  0
  145.0666  142.9292  157.9465 H   0  0  0  0  0  0  0  0  0  0  0  0
  145.6427  141.4326  158.6554 H   0  0  0  0  0  0  0  0  0  0  0  0
  146.6836  145.1097  159.3116 H   0  0  0  0  0  0  0  0  0  0  0  0
  146.5419  145.4544  162.0148 H   0  0  0  0  0  0  0  0  0  0  0  0
  145.6455  142.9894  162.9104 H   0  0  0  0  0  0  0  0  0  0  0  0
  153.5565  141.1707  158.3615 H   0  0  0  0  0  0  0  0  0  0  0  0
  152.7250  140.0242  159.3662 H   0  0  0  0  0  0  0  0  0  0  0  0
  1  2  1  0  0  0  0
  1 21  1  0  0  0  0
  1 22  1  0  0  0  0
  1 23  1  0  0  0  0
  2 20  1  0  0  0  0
  2  3  1  0  0  0  0
  2 24  1  0  0  0  0
  3  4  1  0  0  0  0
  3 25  1  0  0  0  0
  3 26  1  0  0  0  0
  4  5  1  0  0  0  0
  4  6  1  0  0  0  0
  4 27  1  0  0  0  0
  5 28  1  0  0  0  0
  5 29  1  0  0  0  0
  5 30  1  0  0  0  0
  6  7  1  0  0  0  0
  6 31  1  0  0  0  0
  6 32  1  0  0  0  0
  7  8  1  0  0  0  0
  7 20  1  0  0  0  0
  8  9  2  0  0  0  0
  8 10  1  0  0  0  0
 10 11  1  0  0  0  0
 10 12  1  0  0  0  0
 10 33  1  0  0  0  0
 11 34  1  0  0  0  0
 11 35  1  0  0  0  0
 11 36  1  0  0  0  0
 12 13  1  0  0  0  0
 12 37  1  0  0  0  0
 13 14  1  0  0  0  0
 13 38  1  0  0  0  0
 13 39  1  0  0  0  0
 14 15  1  0  0  0  0
 14 40  1  0  0  0  0
 14 41  1  0  0  0  0
 15 19  1  0  0  0  0
 15 16  1  0  0  0  0
 16 17  2  0  0  0  0
 16 42  1  0  0  0  0
 17 18  1  0  0  0  0
 17 43  1  0  0  0  0
 18 19  2  0  0  0  0
 18 44  1  0  0  0  0
 20 45  1  0  0  0  0
 20 46  1  0  0  0  0
M  END
> <s_m_source_file>
AV-unprocessed.smi

> <i_m_source_file_index>
3331

> <i_lp_mmshare_version>
43012

> <i_f3d_flags>
0

> <s_epik_input>
W0NIM11bQ0BASF0xW0NIMl1bQ0BASF0oW0NIM10pW0NIMl1OKFtDSDJdMSlDKD1PKVtDQEhdKFtDSDNdKVtOSF1bQ0gyXVtDSDJdbjJbY0hdW2NIXVtjSF1uMg==

> <s_epik_cmdline>
J2VwaWtfcHl0aG9uJywgJy1waCcsICc3LjAnLCAnLXRuJywgJzgnLCAnLW1hJywgJzIwMCcsICctbWV0YWxfYmluZGluZycsICctaW1hZScsICc8aW5maWxlLm1hZT4nLCAnLW9tYWUnLCAnPG91dGZpbGUubWFlPic=

> <r_lp_tautomer_probability>
1

> <r_epik_Ionization_Penalty>
0.767994

> <r_epik_Ionization_Penalty_Charging>
0

> <r_epik_Ionization_Penalty_Neutral>
0.767994

> <r_epik_State_Penalty>
0.795453

> <r_epik_Charging_Adjusted_Penalty>
0.795453

> <i_epik_Tot_Q>
0

> <i_epik_Tot_abs_Q>
0

> <r_epik_Metal_State_Penalty>
0.794784

> <b_epik_Metal_Only>
0

> <s_lp_Force_Field>
OPLS_2005

> <r_lp_Energy>
29.1639

> <b_lp_Chiralities_Consistent>
1

> <s_lp_Variant>
AV-unprocessed.smi:3331-12

> <Gold.Version>
5.8.1

> <Gold.Id.Protein>
6NUR|6NUR_protein|mol2

> <Gold.PLP.Fitness>
41.5520

> <Gold.PLP.PLP>
-37.5486

> <Gold.PLP.part.hbond>
-1.2274

> <Gold.PLP.part.metal>
0.0000

> <Gold.PLP.part.buried>
-6.6364

> <Gold.PLP.part.nonpolar>
-30.1977

> <Gold.PLP.part.repulsive>
0.0000

> <Gold.PLP.ligand.clash>
0.0000

> <Gold.PLP.ligand.torsion>
1.0281

> <Gold.PLP.Chemscore.Hbond>
1.0000

> <Gold.PLP.Chemscore.CHOScore>
1.0000

> <Gold.PLP.Chemscore.Metal>
0.0000

> <Gold.Chemscore.Hbonds>
donor molecule, donor type, donor heavy atom, donor atom, acceptor molecule, acceptor atom, score
      P1  H  6934  6946       L1    19  1.00
      L1  C    16    42       P1  8029  1.00

> <Gold.PLP.Chemscore.Internal.Correction>
0.0595

> <Gold.Rescore>
     Score         DG    S(hbond)    S(metal)    S(lipo)     H(rot)  DE(clash)    DE(int)     intcor
     14.30     -15.38       0.89        0.00      95.54       1.66       0.02       1.05       ----

> <Gold.Chemscore.Fitness>
14.2994

> <Gold.Chemscore.DG>
-15.3761

> <Gold.Chemscore.ZeroCoef>
-5.4800

> <Gold.Chemscore.Hbond>
0.8920

> <Gold.Chemscore.Metal>
0.0000

> <Gold.Chemscore.Lipo>
95.5446

> <Gold.Chemscore.Internal_Hbond>
0.0000

> <Gold.Chemscore.DEClash>
0.0223

> <Gold.Chemscore.DEInternal>
1.0544

> <Gold.Chemscore.Rot>
1.6649

> <Gold.Chemscore.Internal.Correction>
   9.000000E+99

> <Gold.Chemscore.Hbonds>
donor molecule, donor type, donor heavy atom, donor atom, acceptor molecule, acceptor atom, score
      P1  H  6934  6946       L1    19  0.23

> <Gold.Chemscore.Hbond.Weighted>
-2.9794

> <Gold.Chemscore.Metal.Weighted>
-0.0000

> <Gold.Chemscore.Lipo.Weighted>
-11.1787

> <Gold.Chemscore.Internal_Hbond.Weighted>
0.0000

> <Gold.Chemscore.DEClash.Weighted>
0.0223

> <Gold.Chemscore.DEInternal.Weighted>
1.0544

> <Gold.Chemscore.Rot.Weighted>
4.2621

> <Gold.Chemscore.Internal.Correction.Weighted>
   9.000000E+99

> <Gold.Protein.RotatedTorsions>
[ 6907 6896 6895 6894 ] final  116.58 input  -60.11 | X-H torsion
[ 7974 7965 7964 7962 ] final -141.70 input  175.53 | X-H torsion
[ 8008 7997 7996 7995 ] final -157.10 input   59.86 | X-H torsion
[ 10167 10162 10161 10158 ] final  136.34 input  -65.29 | X-H torsion
[ 10718 10713 10712 10709 ] final   -1.07 input   66.30 | X-H torsion
[ 10763 10752 10751 10750 ] final   41.62 input  -60.55 | X-H torsion
[ 11005 11000 10999 10996 ] final  -32.13 input  -57.11 | X-H torsion

> <Gold.Protein.ActiveResidues>
 VAL166  LYS551  ARG553  GLY616  TRP617  ASP618  TYR619  PRO620  LYS621  CYS622 
 ASP623  PHE694  ASN695  SER759  ASP760  ASP761  ALA762  ILE779  LEU786  VAL792 
 PHE793  MET794  SER795  GLU796  ALA797  LYS798  CYS799  TRP800  GLU811  SER814 

> <Gold.Protein.RotatedAtoms>
  152.4668  133.7942  159.6917 H   0  0  0  0  0  0  0  0  0  0  0  0  # atno 6907 bound_to 6896
  150.8637  133.7596  159.2990 H   0  0  0  0  0  0  0  0  0  0  0  0  # atno 6908 bound_to 6896
  151.5153  135.1069  159.9916 H   0  0  0  0  0  0  0  0  0  0  0  0  # atno 6909 bound_to 6896
  144.8499  140.6047  143.5397 H   0  0  0  0  0  0  0  0  0  0  0  0  # atno 7974 bound_to 7965
  155.7273  140.0797  157.2304 H   0  0  0  0  0  0  0  0  0  0  0  0  # atno 8008 bound_to 7997
  154.4037  140.1602  156.2523 H   0  0  0  0  0  0  0  0  0  0  0  0  # atno 8009 bound_to 7997
  155.9142  140.3402  155.6125 H   0  0  0  0  0  0  0  0  0  0  0  0  # atno 8010 bound_to 7997
  139.5183  144.6470  151.5412 H   0  0  0  0  0  0  0  0  0  0  0  0  # atno 10167 bound_to 10162
  156.8111  130.5425  149.5709 H   0  0  0  0  0  0  0  0  0  0  0  0  # atno 10718 bound_to 10713
  152.9903  135.6156  154.2818 H   0  0  0  0  0  0  0  0  0  0  0  0  # atno 10763 bound_to 10752
  154.2547  135.2784  155.2804 H   0  0  0  0  0  0  0  0  0  0  0  0  # atno 10764 bound_to 10752
  154.5258  135.5802  153.6775 H   0  0  0  0  0  0  0  0  0  0  0  0  # atno 10765 bound_to 10752
  140.9526  133.7211  156.1244 H   0  0  0  0  0  0  0  0  0  0  0  0  # atno 11005 bound_to 11000
  145.4521  139.1522  143.3912 LP  0  0  0  0  0  0  0  0  0  0  0  0  # atno 17320 bound_to 7965
  146.2776  140.4648  142.8789 LP  0  0  0  0  0  0  0  0  0  0  0  0  # atno 17321 bound_to 7965
  140.6259  143.9170  150.6564 LP  0  0  0  0  0  0  0  0  0  0  0  0  # atno 17342 bound_to 10162
  140.2459  143.3629  152.1447 LP  0  0  0  0  0  0  0  0  0  0  0  0  # atno 17343 bound_to 10162
  156.1044  130.5993  150.9946 LP  0  0  0  0  0  0  0  0  0  0  0  0  # atno 17370 bound_to 10713
  157.6505  131.0897  150.8061 LP  0  0  0  0  0  0  0  0  0  0  0  0  # atno 17371 bound_to 10713
  140.7581  134.3970  157.5530 LP  0  0  0  0  0  0  0  0  0  0  0  0  # atno 17394 bound_to 11000
  139.8852  134.8943  156.2656 LP  0  0  0  0  0  0  0  0  0  0  0  0  # atno 17395 bound_to 11000

$$$$
