AV-unprocessed.smi:36|AV-procd|sdf|290|dock1
  -GOLD-   2262016 73D 1   1.00000     0.00000
 Structure written by MMmdl.
 64 67  0  0  0  0  0  0  0  0  1 V2000
  159.8064  131.1982  168.9966 C   0  0  0  0  0  0  0  0  0  0  0  0
  159.6940  130.0955  167.9308 C   0  0  0  0  0  0  0  0  0  0  0  0
  160.6405  128.9343  168.2779 C   0  0  0  0  0  0  0  0  0  0  0  0
  158.2468  129.5802  167.8619 C   0  0  0  0  0  0  0  0  0  0  0  0
  160.1807  130.8071  166.2257 Si  0  0  0  0  0  0  0  0  0  0  0  0
  161.9287  131.5516  166.2699 C   0  0  0  0  0  0  0  0  0  0  0  0
  160.0802  129.4789  164.8707 C   0  0  0  0  0  0  0  0  0  0  0  0
  159.0839  132.0366  165.8443 O   0  0  0  0  0  0  0  0  0  0  0  0
  158.7427  133.0795  166.7327 C   0  0  0  0  0  0  0  0  0  0  0  0
  157.4174  133.7059  166.2766 C   0  0  1  0  0  0  0  0  0  0  0  0
  157.5463  134.3094  164.9892 O   0  0  0  0  0  0  0  0  0  0  0  0
  156.3725  134.1387  164.2525 C   0  0  2  0  0  0  0  0  0  0  0  0
  155.8977  135.4750  163.7799 N   0  0  0  0  0  0  0  0  0  0  0  0
  155.5198  136.5043  164.5608 C   0  0  0  0  0  0  0  0  0  0  0  0
  155.1354  137.6012  163.9140 N   0  0  0  0  0  0  0  0  0  0  0  0
  155.2773  137.2329  162.5802 C   0  0  0  0  0  0  0  0  0  0  0  0
  155.0146  138.0025  161.3450 C   0  0  0  0  0  0  0  0  0  0  0  0
  154.5990  139.2261  161.4744 N   0  0  0  0  0  0  0  0  0  0  0  0
  154.3350  139.9960  160.3490 C   0  0  0  0  0  0  0  0  0  0  0  0
  154.7622  139.8574  159.1994 O   0  0  0  0  0  0  0  0  0  0  0  0
  153.4468  141.1645  160.6292 C   0  0  0  0  0  0  0  0  0  0  0  0
  152.5816  141.6512  159.6262 C   0  0  0  0  0  0  0  0  0  0  0  0
  151.7483  142.7564  159.8874 C   0  0  0  0  0  0  0  0  0  0  0  0
  151.7792  143.3795  161.1503 C   0  0  0  0  0  0  0  0  0  0  0  0
  152.6447  142.8984  162.1521 C   0  0  0  0  0  0  0  0  0  0  0  0
  153.4782  141.7929  161.8925 C   0  0  0  0  0  0  0  0  0  0  0  0
  155.2895  137.2096  160.2232 N   0  0  0  0  0  0  0  0  0  0  0  0
  155.7589  135.8875  160.2453 C   0  0  0  0  0  0  0  0  0  0  0  0
  156.0049  135.2007  161.3287 N   0  0  0  0  0  0  0  0  0  0  0  0
  155.7377  135.9377  162.4744 C   0  0  0  0  0  0  0  0  0  0  0  0
  155.3398  133.4813  165.1701 C   0  0  0  0  0  0  0  0  0  0  0  0
  156.2303  132.7416  166.1464 C   0  0  1  0  0  0  0  0  0  0  0  0
  156.6176  131.4848  165.6225 O   0  0  0  0  0  0  0  0  0  0  0  0
  159.5395  130.8222  169.9848 H   0  0  0  0  0  0  0  0  0  0  0  0
  159.1439  132.0349  168.7741 H   0  0  0  0  0  0  0  0  0  0  0  0
  160.8219  131.5898  169.0581 H   0  0  0  0  0  0  0  0  0  0  0  0
  161.6762  129.2693  168.3381 H   0  0  0  0  0  0  0  0  0  0  0  0
  160.5929  128.1468  167.5251 H   0  0  0  0  0  0  0  0  0  0  0  0
  160.3842  128.4873  169.2390 H   0  0  0  0  0  0  0  0  0  0  0  0
  157.9337  129.1479  168.8129 H   0  0  0  0  0  0  0  0  0  0  0  0
  158.1366  128.8102  167.0975 H   0  0  0  0  0  0  0  0  0  0  0  0
  157.5497  130.3834  167.6219 H   0  0  0  0  0  0  0  0  0  0  0  0
  162.6729  130.8102  166.5594 H   0  0  0  0  0  0  0  0  0  0  0  0
  161.9949  132.3750  166.9807 H   0  0  0  0  0  0  0  0  0  0  0  0
  162.2231  131.9408  165.2956 H   0  0  0  0  0  0  0  0  0  0  0  0
  160.7460  128.6419  165.0793 H   0  0  0  0  0  0  0  0  0  0  0  0
  160.3603  129.8810  163.8974 H   0  0  0  0  0  0  0  0  0  0  0  0
  159.0715  129.0775  164.7770 H   0  0  0  0  0  0  0  0  0  0  0  0
  158.6686  132.7035  167.7534 H   0  0  0  0  0  0  0  0  0  0  0  0
  159.5395  133.8237  166.7117 H   0  0  0  0  0  0  0  0  0  0  0  0
  157.1333  134.4895  166.9805 H   0  0  0  0  0  0  0  0  0  0  0  0
  156.5792  133.5620  163.3498 H   0  0  0  0  0  0  0  0  0  0  0  0
  155.5307  136.4491  165.6394 H   0  0  0  0  0  0  0  0  0  0  0  0
  152.5529  141.1791  158.6543 H   0  0  0  0  0  0  0  0  0  0  0  0
  151.0859  143.1270  159.1188 H   0  0  0  0  0  0  0  0  0  0  0  0
  151.1405  144.2273  161.3497 H   0  0  0  0  0  0  0  0  0  0  0  0
  152.6701  143.3783  163.1194 H   0  0  0  0  0  0  0  0  0  0  0  0
  154.1412  141.4309  162.6653 H   0  0  0  0  0  0  0  0  0  0  0  0
  155.9119  135.4544  159.2557 H   0  0  0  0  0  0  0  0  0  0  0  0
  154.7655  134.2462  165.6947 H   0  0  0  0  0  0  0  0  0  0  0  0
  154.6528  132.8458  164.6102 H   0  0  0  0  0  0  0  0  0  0  0  0
  155.7352  132.5779  167.1039 H   0  0  0  0  0  0  0  0  0  0  0  0
  155.9937  131.2341  164.9584 H   0  0  0  0  0  0  0  0  0  0  0  0
  155.1411  137.6308  159.3173 H   0  0  0  0  0  0  0  0  0  0  0  0
  1  2  1  0  0  0  0
  1 34  1  0  0  0  0
  1 35  1  0  0  0  0
  1 36  1  0  0  0  0
  2  3  1  0  0  0  0
  2  4  1  0  0  0  0
  2  5  1  0  0  0  0
  3 37  1  0  0  0  0
  3 38  1  0  0  0  0
  3 39  1  0  0  0  0
  4 40  1  0  0  0  0
  4 41  1  0  0  0  0
  4 42  1  0  0  0  0
  5  6  1  0  0  0  0
  5  7  1  0  0  0  0
  5  8  1  0  0  0  0
  6 43  1  0  0  0  0
  6 44  1  0  0  0  0
  6 45  1  0  0  0  0
  7 46  1  0  0  0  0
  7 47  1  0  0  0  0
  7 48  1  0  0  0  0
  8  9  1  0  0  0  0
  9 10  1  0  0  0  0
  9 49  1  0  0  0  0
  9 50  1  0  0  0  0
 10 32  1  0  0  0  0
 10 11  1  0  0  0  0
 10 51  1  0  0  0  0
 11 12  1  0  0  0  0
 12 13  1  0  0  0  0
 12 31  1  0  0  0  0
 12 52  1  0  0  0  0
 13 30  1  0  0  0  0
 13 14  1  0  0  0  0
 14 15  2  0  0  0  0
 14 53  1  0  0  0  0
 15 16  1  0  0  0  0
 16 30  2  0  0  0  0
 16 17  1  0  0  0  0
 17 18  2  0  0  0  0
 17 27  1  0  0  0  0
 18 19  1  0  0  0  0
 19 20  2  0  0  0  0
 19 21  1  0  0  0  0
 21 26  1  0  0  0  0
 21 22  2  0  0  0  0
 22 23  1  0  0  0  0
 22 54  1  0  0  0  0
 23 24  2  0  0  0  0
 23 55  1  0  0  0  0
 24 25  1  0  0  0  0
 24 56  1  0  0  0  0
 25 26  2  0  0  0  0
 25 57  1  0  0  0  0
 26 58  1  0  0  0  0
 27 28  1  0  0  0  0
 27 64  1  0  0  0  0
 28 29  2  0  0  0  0
 28 59  1  0  0  0  0
 29 30  1  0  0  0  0
 31 32  1  0  0  0  0
 31 60  1  0  0  0  0
 31 61  1  0  0  0  0
 32 33  1  0  0  0  0
 32 62  1  0  0  0  0
 33 63  1  0  0  0  0
M  END
> <s_m_source_file>
AV-unprocessed.smi

> <i_m_source_file_index>
36

> <i_lp_mmshare_version>
43012

> <i_f3d_flags>
0

> <s_epik_input>
W0NIM11DKFtDSDNdKShbQ0gzXSlbU2ldKFtDSDNdKShbQ0gzXSlPW0NIMl1bQ0BASF0xT1tDQEhdKFtDSDJdW0NASF0xW09IXSluKFtjSF1uMiljKGMyMyluW2NIXW5jM1tOSF1DKD1PKWM0W2NIXVtjSF1bY0hdW2NIXVtjSF00

> <s_epik_cmdline>
J2VwaWtfcHl0aG9uJywgJy1waCcsICc3LjAnLCAnLXRuJywgJzgnLCAnLW1hJywgJzIwMCcsICctbWV0YWxfYmluZGluZycsICctaW1hZScsICc8aW5maWxlLm1hZT4nLCAnLW9tYWUnLCAnPG91dGZpbGUubWFlPic=

> <r_epik_Ionization_Penalty>
0.0850405

> <r_epik_Ionization_Penalty_Charging>
0.0850403

> <r_epik_Ionization_Penalty_Neutral>
1.47497e-07

> <r_epik_State_Penalty>
2.6133

> <r_epik_Charging_Adjusted_Penalty>
2.69834

> <i_epik_Tot_Q>
0

> <i_epik_Tot_abs_Q>
0

> <r_epik_Metal_State_Penalty>
2.92945

> <b_epik_Metal_Only>
0

> <s_epik_Chemistry_Notes>
This compound contains an acetal/aminal-like group ( X-CH(R)-Y where X, Y are N, S, or O) that may be acid/base labile, releasing an aldehyde.

> <s_lp_Force_Field>
OPLS_2005

> <r_lp_Energy>
50.4083

> <b_lp_Chiralities_Consistent>
1

> <s_lp_Variant>
AV-unprocessed.smi:36-12

> <Gold.Version>
5.8.1

> <Gold.Id.Protein>
6NUR|6NUR_protein|mol2

> <Gold.PLP.Fitness>
58.2455

> <Gold.PLP.PLP>
-56.3257

> <Gold.PLP.part.hbond>
-1.0000

> <Gold.PLP.part.metal>
0.0000

> <Gold.PLP.part.buried>
-6.8215

> <Gold.PLP.part.nonpolar>
-47.0171

> <Gold.PLP.part.repulsive>
0.1124

> <Gold.PLP.ligand.clash>
0.0000

> <Gold.PLP.ligand.torsion>
0.7201

> <Gold.PLP.Chemscore.Hbond>
1.0000

> <Gold.PLP.Chemscore.CHOScore>
0.0000

> <Gold.PLP.Chemscore.Metal>
0.0000

> <Gold.Chemscore.Hbonds>
donor molecule, donor type, donor heavy atom, donor atom, acceptor molecule, acceptor atom, score
      P1  H  7997  8008       L1    20  1.00

> <Gold.PLP.Chemscore.Internal.Correction>
0.3601

> <Gold.Rescore>
     Score         DG    S(hbond)    S(metal)    S(lipo)     H(rot)  DE(clash)    DE(int)     intcor
     13.72     -16.71       0.99        0.00     126.78       2.70       0.04       2.95       ----

> <Gold.Chemscore.Fitness>
13.7244

> <Gold.Chemscore.DG>
-16.7086

> <Gold.Chemscore.ZeroCoef>
-5.4800

> <Gold.Chemscore.Hbond>
0.9932

> <Gold.Chemscore.Metal>
0.0000

> <Gold.Chemscore.Lipo>
126.7835

> <Gold.Chemscore.Internal_Hbond>
0.0000

> <Gold.Chemscore.DEClash>
0.0372

> <Gold.Chemscore.DEInternal>
2.9470

> <Gold.Chemscore.Rot>
2.7041

> <Gold.Chemscore.Internal.Correction>
   9.000000E+99

> <Gold.Chemscore.Hbonds>
donor molecule, donor type, donor heavy atom, donor atom, acceptor molecule, acceptor atom, score
      P1  H  7997  8008       L1    20  0.98

> <Gold.Chemscore.Hbond.Weighted>
-3.3174

> <Gold.Chemscore.Metal.Weighted>
-0.0000

> <Gold.Chemscore.Lipo.Weighted>
-14.8337

> <Gold.Chemscore.Internal_Hbond.Weighted>
0.0000

> <Gold.Chemscore.DEClash.Weighted>
0.0372

> <Gold.Chemscore.DEInternal.Weighted>
2.9470

> <Gold.Chemscore.Rot.Weighted>
6.9225

> <Gold.Chemscore.Internal.Correction.Weighted>
   9.000000E+99

> <Gold.Protein.RotatedTorsions>
[ 6907 6896 6895 6894 ] final  -35.58 input  -60.11 | X-H torsion
[ 7974 7965 7964 7962 ] final  -48.06 input  175.53 | X-H torsion
[ 8008 7997 7996 7995 ] final -120.10 input   59.86 | X-H torsion
[ 10167 10162 10161 10158 ] final  -68.72 input  -65.29 | X-H torsion
[ 10718 10713 10712 10709 ] final -123.75 input   66.30 | X-H torsion
[ 10763 10752 10751 10750 ] final  -83.78 input  -60.55 | X-H torsion
[ 11005 11000 10999 10996 ] final -143.72 input  -57.11 | X-H torsion

> <Gold.Protein.ActiveResidues>
 VAL166  LYS551  ARG553  GLY616  TRP617  ASP618  TYR619  PRO620  LYS621  CYS622 
 ASP623  PHE694  ASN695  SER759  ASP760  ASP761  ALA762  ILE779  LEU786  VAL792 
 PHE793  MET794  SER795  GLU796  ALA797  LYS798  CYS799  TRP800  GLU811  SER814 

> <Gold.Protein.RotatedAtoms>
  151.0380  134.9587  159.8146 H   0  0  0  0  0  0  0  0  0  0  0  0  # atno 6907 bound_to 6896
  152.5358  134.2695  159.8976 H   0  0  0  0  0  0  0  0  0  0  0  0  # atno 6908 bound_to 6896
  151.2706  133.4214  159.2655 H   0  0  0  0  0  0  0  0  0  0  0  0  # atno 6909 bound_to 6896
  145.9551  140.7534  142.9485 H   0  0  0  0  0  0  0  0  0  0  0  0  # atno 7974 bound_to 7965
  155.1264  140.0399  157.2763 H   0  0  0  0  0  0  0  0  0  0  0  0  # atno 8008 bound_to 7997
  154.6575  140.2583  155.7119 H   0  0  0  0  0  0  0  0  0  0  0  0  # atno 8009 bound_to 7997
  156.2605  140.2823  156.1034 H   0  0  0  0  0  0  0  0  0  0  0  0  # atno 8010 bound_to 7997
  140.5486  143.2312  151.6954 H   0  0  0  0  0  0  0  0  0  0  0  0  # atno 10167 bound_to 10162
  156.1528  130.6547  150.9939 H   0  0  0  0  0  0  0  0  0  0  0  0  # atno 10718 bound_to 10713
  154.5918  135.5544  153.7286 H   0  0  0  0  0  0  0  0  0  0  0  0  # atno 10763 bound_to 10752
  153.0120  135.6345  154.1839 H   0  0  0  0  0  0  0  0  0  0  0  0  # atno 10764 bound_to 10752
  154.1779  135.2888  155.3041 H   0  0  0  0  0  0  0  0  0  0  0  0  # atno 10765 bound_to 10752
  140.8096  134.2760  157.4946 H   0  0  0  0  0  0  0  0  0  0  0  0  # atno 11005 bound_to 11000
  144.6803  140.2498  143.7333 LP  0  0  0  0  0  0  0  0  0  0  0  0  # atno 17320 bound_to 7965
  145.8118  139.2006  143.1989 LP  0  0  0  0  0  0  0  0  0  0  0  0  # atno 17321 bound_to 7965
  139.5018  144.3854  152.0333 LP  0  0  0  0  0  0  0  0  0  0  0  0  # atno 17342 bound_to 10162
  140.2969  144.3690  150.6071 LP  0  0  0  0  0  0  0  0  0  0  0  0  # atno 17343 bound_to 10162
  157.6671  131.0869  150.7702 LP  0  0  0  0  0  0  0  0  0  0  0  0  # atno 17370 bound_to 10713
  156.7769  130.4847  149.5408 LP  0  0  0  0  0  0  0  0  0  0  0  0  # atno 17371 bound_to 10713
  139.8715  134.9476  156.3971 LP  0  0  0  0  0  0  0  0  0  0  0  0  # atno 17394 bound_to 11000
  140.9211  133.7644  155.9907 LP  0  0  0  0  0  0  0  0  0  0  0  0  # atno 17395 bound_to 11000

$$$$
