#       Name:                AV-unprocessed.smi:2164
#       Creating user name   scv26
#       Creation time:       Fri Mar 27 11:59:51 2020


#       File generated by GOLD software.
#

@<TRIPOS>MOLECULE
AV-unprocessed.smi:2164
    43    45     1
SMALL
NO_CHARGES


@<TRIPOS>ATOM
      1 ****         1.4663   0.9783  -1.0359 O.2            1 S1                 0.0000
      2 ****         1.0469  -0.1774  -0.9545 C.2            1 S1                 0.0000
      3 ****         1.8804  -1.2311  -0.8855 N.am           1 S1                 0.0000
      4 ****         3.3406  -1.1721  -0.9029 C.3            1 S1                 0.0000
      5 ****         3.9489  -1.1635   0.5133 C.3            1 S1                 0.0000
      6 ****         3.5143   0.0214   1.3585 C.ar           1 S1                 0.0000
      7 ****         4.0460   1.3075   1.1161 C.ar           1 S1                 0.0000
      8 ****         3.6064   2.3965   1.8971 C.ar           1 S1                 0.0000
      9 ****         2.6456   2.1748   2.9047 C.ar           1 S1                 0.0000
     10 ****         2.1625   0.9298   3.1109 N.pl3          1 S1                 1.0000
     11 ****         2.5583  -0.1389   2.3853 C.ar           1 S1                 0.0000
     12 ****        -0.3708  -0.5422  -0.9084 C.2            1 S1                 0.0000
     13 ****        -1.3099   0.4229  -0.9258 C.2            1 S1                 0.0000
     14 ****        -2.6821   0.1671  -0.8861 N.pl3          1 S1                 0.0000
     15 ****        -3.5894   1.3068  -0.8144 C.3            1 S1                 0.0000
     16 ****        -4.8031   1.0737  -1.6995 C.3            1 S1                 0.0000
     17 ****        -5.6677  -0.3895  -1.0123 S.o2           1 S1                 0.0000
     18 ****        -6.0609  -0.0778   0.3708 O.2            1 S1                 0.0000
     19 ****        -6.6950  -0.8084  -1.9777 O.2            1 S1                 0.0000
     20 ****        -4.4174  -1.5060  -0.9897 N.2            1 S1                 0.0000
     21 ****        -3.1675  -1.1657  -0.8995 C.2            1 S1                 0.0000
     22 ****        -2.1564  -2.2093  -0.8394 C.2            1 S1                 0.0000
     23 ****        -0.8387  -1.9206  -0.8444 C.2            1 S1                 0.0000
     24 ****         1.4671  -2.1504  -0.8227 H              1 S1                 0.0000
     25 ****         3.7020  -2.0466  -1.4447 H              1 S1                 0.0000
     26 ****         3.6843  -0.3048  -1.4692 H              1 S1                 0.0000
     27 ****         3.6871  -2.0878   1.0300 H              1 S1                 0.0000
     28 ****         5.0372  -1.1561   0.4417 H              1 S1                 0.0000
     29 ****         4.7747   1.4610   0.3334 H              1 S1                 0.0000
     30 ****         3.9984   3.3879   1.7227 H              1 S1                 0.0000
     31 ****         2.2516   2.9494   3.5465 H              1 S1                 0.0000
     32 ****         2.0931  -1.0801   2.6401 H              1 S1                 0.0000
     33 ****        -1.0566   1.4731  -0.9719 H              1 S1                 0.0000
     34 ****        -3.8894   1.4639   0.2222 H              1 S1                 0.0000
     35 ****        -3.0862   2.2191  -1.1364 H              1 S1                 0.0000
     36 ****        -5.4851   1.9237  -1.6818 H              1 S1                 0.0000
     37 ****        -4.5234   0.8765  -2.7351 H              1 S1                 0.0000
     38 ****        -2.4356  -3.2525  -0.7994 H              1 S1                 0.0000
     39 ****        -0.1430  -2.7455  -0.8016 H              1 S1                 0.0000
     40 ****         1.4677   0.7912   3.8454 H              1 S1                 0.0000
     41 ****         2.4508   1.1530  -1.0522 LP             1 S1                 0.0000
     42 ****         0.8222   1.7417  -1.0857 LP             1 S1                 0.0000
     43 ****        -4.6444  -2.4781  -1.0483 LP             1 S1                 0.0000
@<TRIPOS>BOND
    1    1    2 2     
    2    2    3 am    
    3    2   12 1     
    4    3    4 1     
    5    3   24 1     
    6    4    5 1     
    7    4   25 1     
    8    4   26 1     
    9    5    6 1     
   10    5   27 1     
   11    5   28 1     
   12    6   11 ar    
   13    6    7 ar    
   14    7    8 ar    
   15    7   29 1     
   16    8    9 ar    
   17    8   30 1     
   18    9   10 ar    
   19    9   31 1     
   20   10   11 ar    
   21   10   40 1     
   22   11   32 1     
   23   12   23 1     
   24   12   13 2     
   25   13   14 1     
   26   13   33 1     
   27   14   21 1     
   28   14   15 1     
   29   15   16 1     
   30   15   34 1     
   31   15   35 1     
   32   16   17 1     
   33   16   36 1     
   34   16   37 1     
   35   17   18 2     
   36   17   19 2     
   37   17   20 1     
   38   20   21 2     
   39   21   22 1     
   40   22   23 2     
   41   22   38 1     
   42   23   39 1     
   43    1   41 1     
   44    1   42 1     
   45   20   43 1     
@<TRIPOS>SUBSTRUCTURE
      1 S1             1
@<TRIPOS>SET
LONE_PAIRS      STATIC     ATOMS    <user>   **** ""
5 41 42 18 19 43
DONOR_HYDROGENS      STATIC     ATOMS    <user>   **** ""
2 24 40
ATOM$BLUE        STATIC     ATOMS    COLORGROUP SYSTEM
5 41 42 18 19 43
ATOM$RED        STATIC     ATOMS    COLORGROUP SYSTEM
2 24 40
