AV-unprocessed.smi:189|AV-procd|sdf|1483|dock4
  -GOLD-   2262019303D 1   1.00000     0.00000
 Structure written by MMmdl.
 53 57  0  0  0  0  0  0  0  0  1 V2000
  150.2442  141.3527  156.3869 C   0  0  0  0  0  0  0  0  0  0  0  0
  150.5773  141.8115  157.8171 C   0  0  2  0  0  0  0  0  0  0  0  0
  150.7887  143.3355  157.9050 C   0  0  0  0  0  0  0  0  0  0  0  0
  152.2942  143.4911  158.1338 C   0  0  1  0  0  0  0  0  0  0  0  0
  152.7609  144.8130  158.7764 C   0  0  0  0  0  0  0  0  0  0  0  0
  152.4502  144.8968  160.2786 C   0  0  0  0  0  0  0  0  0  0  0  0
  152.9792  143.6608  161.0182 C   0  0  0  0  0  0  0  0  0  0  0  0
  152.3583  142.3826  160.4410 C   0  0  0  0  0  0  0  0  0  0  0  0
  152.6548  142.2284  158.9288 C   0  0  1  0  0  0  0  0  0  0  0  0
  151.8201  141.2049  158.3086 N   0  0  0  0  0  0  0  0  0  0  0  0
  151.8711  139.9106  158.7323 C   0  0  0  0  0  0  0  0  0  0  0  0
  150.7457  139.1501  158.6635 N   0  0  0  0  0  0  0  0  0  0  0  0
  150.7533  137.8782  159.0696 C   0  0  0  0  0  0  0  0  0  0  0  0
  151.7648  137.1712  159.5727 N   0  0  0  0  0  0  0  0  0  0  0  0
  152.9013  137.9205  159.6462 C   0  0  0  0  0  0  0  0  0  0  0  0
  153.0441  139.2821  159.2489 C   0  0  0  0  0  0  0  0  0  0  0  0
  154.3570  139.6896  159.4603 N   0  0  0  0  0  0  0  0  0  0  0  0
  154.9483  138.6400  159.9600 C   0  0  0  0  0  0  0  0  0  0  0  0
  154.1457  137.5332  160.1123 N   0  0  0  0  0  0  0  0  0  0  0  0
  154.5436  136.2335  160.6329 C   0  0  0  0  0  0  0  0  0  0  0  0
  155.3962  136.3117  161.9226 C   0  0  2  0  0  0  0  0  0  0  0  0
  156.7078  136.7217  161.5795 O   0  0  0  0  0  0  0  0  0  0  0  0
  155.4684  134.9691  162.6537 C   0  0  0  0  0  0  0  0  0  0  0  0
  154.6159  135.1913  163.8971 C   0  0  0  0  0  0  0  0  0  0  0  0
  154.8733  136.5484  164.2091 O   0  0  0  0  0  0  0  0  0  0  0  0
  154.8277  137.2716  162.9877 C   0  0  0  0  0  0  0  0  0  0  0  0
  149.3329  141.8311  156.0279 H   0  0  0  0  0  0  0  0  0  0  0  0
  150.0888  140.2757  156.3323 H   0  0  0  0  0  0  0  0  0  0  0  0
  151.0480  141.6068  155.6951 H   0  0  0  0  0  0  0  0  0  0  0  0
  149.7502  141.5433  158.4758 H   0  0  0  0  0  0  0  0  0  0  0  0
  150.4478  143.8709  157.0182 H   0  0  0  0  0  0  0  0  0  0  0  0
  150.2305  143.7290  158.7546 H   0  0  0  0  0  0  0  0  0  0  0  0
  152.7702  143.4149  157.1544 H   0  0  0  0  0  0  0  0  0  0  0  0
  153.8396  144.9023  158.6418 H   0  0  0  0  0  0  0  0  0  0  0  0
  152.3197  145.6612  158.2523 H   0  0  0  0  0  0  0  0  0  0  0  0
  152.8958  145.7995  160.6975 H   0  0  0  0  0  0  0  0  0  0  0  0
  151.3745  144.9860  160.4332 H   0  0  0  0  0  0  0  0  0  0  0  0
  154.0660  143.6146  160.9377 H   0  0  0  0  0  0  0  0  0  0  0  0
  152.7478  143.7378  162.0808 H   0  0  0  0  0  0  0  0  0  0  0  0
  152.7353  141.5173  160.9862 H   0  0  0  0  0  0  0  0  0  0  0  0
  151.2815  142.4035  160.6153 H   0  0  0  0  0  0  0  0  0  0  0  0
  153.7128  142.0209  158.7759 H   0  0  0  0  0  0  0  0  0  0  0  0
  149.8142  137.3527  158.9792 H   0  0  0  0  0  0  0  0  0  0  0  0
  155.9936  138.6440  160.2332 H   0  0  0  0  0  0  0  0  0  0  0  0
  153.6422  135.6476  160.8177 H   0  0  0  0  0  0  0  0  0  0  0  0
  155.0913  135.7077  159.8495 H   0  0  0  0  0  0  0  0  0  0  0  0
  156.6521  137.3150  160.8459 H   0  0  0  0  0  0  0  0  0  0  0  0
  155.1150  134.1281  162.0560 H   0  0  0  0  0  0  0  0  0  0  0  0
  156.4910  134.7433  162.9609 H   0  0  0  0  0  0  0  0  0  0  0  0
  153.5558  135.0577  163.6755 H   0  0  0  0  0  0  0  0  0  0  0  0
  154.8857  134.5278  164.7190 H   0  0  0  0  0  0  0  0  0  0  0  0
  155.3695  138.2152  163.0621 H   0  0  0  0  0  0  0  0  0  0  0  0
  153.7824  137.5077  162.7883 H   0  0  0  0  0  0  0  0  0  0  0  0
  1  2  1  0  0  0  0
  1 27  1  0  0  0  0
  1 28  1  0  0  0  0
  1 29  1  0  0  0  0
  2 10  1  0  0  0  0
  2  3  1  0  0  0  0
  2 30  1  0  0  0  0
  3  4  1  0  0  0  0
  3 31  1  0  0  0  0
  3 32  1  0  0  0  0
  4  9  1  0  0  0  0
  4  5  1  0  0  0  0
  4 33  1  0  0  0  0
  5  6  1  0  0  0  0
  5 34  1  0  0  0  0
  5 35  1  0  0  0  0
  6  7  1  0  0  0  0
  6 36  1  0  0  0  0
  6 37  1  0  0  0  0
  7  8  1  0  0  0  0
  7 38  1  0  0  0  0
  7 39  1  0  0  0  0
  8  9  1  0  0  0  0
  8 40  1  0  0  0  0
  8 41  1  0  0  0  0
  9 10  1  0  0  0  0
  9 42  1  0  0  0  0
 10 11  1  0  0  0  0
 11 16  1  0  0  0  0
 11 12  2  0  0  0  0
 12 13  1  0  0  0  0
 13 14  2  0  0  0  0
 13 43  1  0  0  0  0
 14 15  1  0  0  0  0
 15 19  1  0  0  0  0
 15 16  2  0  0  0  0
 16 17  1  0  0  0  0
 17 18  2  0  0  0  0
 18 19  1  0  0  0  0
 18 44  1  0  0  0  0
 19 20  1  0  0  0  0
 20 21  1  0  0  0  0
 20 45  1  0  0  0  0
 20 46  1  0  0  0  0
 21 26  1  0  0  0  0
 21 22  1  0  0  0  0
 21 23  1  0  0  0  0
 22 47  1  0  0  0  0
 23 24  1  0  0  0  0
 23 48  1  0  0  0  0
 23 49  1  0  0  0  0
 24 25  1  0  0  0  0
 24 50  1  0  0  0  0
 24 51  1  0  0  0  0
 25 26  1  0  0  0  0
 26 52  1  0  0  0  0
 26 53  1  0  0  0  0
M  END
> <s_m_source_file>
AV-unprocessed.smi

> <i_m_source_file_index>
189

> <i_lp_mmshare_version>
43012

> <i_f3d_flags>
0

> <s_epik_input>
W0NIMl0xW0NIMl1bQ0gyXVtDSDJdW0NASF0oW0NASF0xMilOKFtDQEhdKFtDSDNdKVtDSDJdMiljKG5bY0hdbjMpYyhjMzQpbltjSF1uNFtDSDJdW0NAQF01KFtPSF0pW0NIMl1bQ0gyXU9bQ0gyXTU=

> <s_epik_cmdline>
J2VwaWtfcHl0aG9uJywgJy1waCcsICc3LjAnLCAnLXRuJywgJzgnLCAnLW1hJywgJzIwMCcsICctbWV0YWxfYmluZGluZycsICctaW1hZScsICc8aW5maWxlLm1hZT4nLCAnLW9tYWUnLCAnPG91dGZpbGUubWFlPic=

> <r_lp_tautomer_probability>
1

> <r_epik_Ionization_Penalty>
0.00594261

> <r_epik_Ionization_Penalty_Charging>
0

> <r_epik_Ionization_Penalty_Neutral>
0.00594261

> <r_epik_State_Penalty>
0.00429776

> <r_epik_Charging_Adjusted_Penalty>
0.00429776

> <i_epik_Tot_Q>
0

> <i_epik_Tot_abs_Q>
0

> <r_epik_Metal_State_Penalty>
-0

> <b_epik_Metal_Only>
0

> <s_lp_Force_Field>
OPLS_2005

> <r_lp_Energy>
57.6623

> <b_lp_Chiralities_Consistent>
1

> <s_lp_Variant>
AV-unprocessed.smi:189-9

> <Gold.Version>
5.8.1

> <Gold.Id.Protein>
6NUR|6NUR_protein|mol2

> <Gold.PLP.Fitness>
52.5487

> <Gold.PLP.PLP>
-50.4242

> <Gold.PLP.part.hbond>
-1.0000

> <Gold.PLP.part.metal>
0.0000

> <Gold.PLP.part.buried>
-6.1346

> <Gold.PLP.part.nonpolar>
-44.1837

> <Gold.PLP.part.repulsive>
0.0958

> <Gold.PLP.ligand.clash>
0.0000

> <Gold.PLP.ligand.torsion>
0.5553

> <Gold.PLP.Chemscore.Hbond>
0.9913

> <Gold.PLP.Chemscore.CHOScore>
0.0000

> <Gold.PLP.Chemscore.Metal>
0.0000

> <Gold.Chemscore.Hbonds>
donor molecule, donor type, donor heavy atom, donor atom, acceptor molecule, acceptor atom, score
      P1  H  6896  6909       L1    14  0.93
      P1  H  7997  8009       L1    17  0.41

> <Gold.PLP.Chemscore.Internal.Correction>
0.2614

> <Gold.Rescore>
     Score         DG    S(hbond)    S(metal)    S(lipo)     H(rot)  DE(clash)    DE(int)     intcor
     19.23     -19.86       1.49        0.00     118.60       1.74       0.18       0.44       ----

> <Gold.Chemscore.Fitness>
19.2335

> <Gold.Chemscore.DG>
-19.8613

> <Gold.Chemscore.ZeroCoef>
-5.4800

> <Gold.Chemscore.Hbond>
1.4863

> <Gold.Chemscore.Metal>
0.0000

> <Gold.Chemscore.Lipo>
118.6032

> <Gold.Chemscore.Internal_Hbond>
0.0000

> <Gold.Chemscore.DEClash>
0.1830

> <Gold.Chemscore.DEInternal>
0.4448

> <Gold.Chemscore.Rot>
1.7420

> <Gold.Chemscore.Internal.Correction>
   9.000000E+99

> <Gold.Chemscore.Hbonds>
donor molecule, donor type, donor heavy atom, donor atom, acceptor molecule, acceptor atom, score
      P1  H  6896  6909       L1    14  0.86
      P1  H  7997  8009       L1    17  0.08

> <Gold.Chemscore.Hbond.Weighted>
-4.9641

> <Gold.Chemscore.Metal.Weighted>
-0.0000

> <Gold.Chemscore.Lipo.Weighted>
-13.8766

> <Gold.Chemscore.Internal_Hbond.Weighted>
0.0000

> <Gold.Chemscore.DEClash.Weighted>
0.1830

> <Gold.Chemscore.DEInternal.Weighted>
0.4448

> <Gold.Chemscore.Rot.Weighted>
4.4594

> <Gold.Chemscore.Internal.Correction.Weighted>
   9.000000E+99

> <Gold.Protein.RotatedTorsions>
[ 6907 6896 6895 6894 ] final  113.35 input  -60.11 | X-H torsion
[ 7974 7965 7964 7962 ] final  109.61 input  175.53 | X-H torsion
[ 8008 7997 7996 7995 ] final  126.96 input   59.86 | X-H torsion
[ 10167 10162 10161 10158 ] final   43.21 input  -65.29 | X-H torsion
[ 10718 10713 10712 10709 ] final  -94.82 input   66.30 | X-H torsion
[ 10763 10752 10751 10750 ] final  166.65 input  -60.55 | X-H torsion
[ 11005 11000 10999 10996 ] final   12.11 input  -57.11 | X-H torsion

> <Gold.Protein.ActiveResidues>
 VAL166  LYS551  ARG553  GLY616  TRP617  ASP618  TYR619  PRO620  LYS621  CYS622 
 ASP623  PHE694  ASN695  SER759  ASP760  ASP761  ALA762  ILE779  LEU786  VAL792 
 PHE793  MET794  SER795  GLU796  ALA797  LYS798  CYS799  TRP800  GLU811  SER814 

> <Gold.Protein.RotatedAtoms>
  152.4866  133.8388  159.7141 H   0  0  0  0  0  0  0  0  0  0  0  0  # atno 6907 bound_to 6896
  150.8957  133.7174  159.2899 H   0  0  0  0  0  0  0  0  0  0  0  0  # atno 6908 bound_to 6896
  151.4632  135.1044  159.9783 H   0  0  0  0  0  0  0  0  0  0  0  0  # atno 6909 bound_to 6896
  145.2656  139.2686  143.3994 H   0  0  0  0  0  0  0  0  0  0  0  0  # atno 7974 bound_to 7965
  156.2878  140.2680  156.2195 H   0  0  0  0  0  0  0  0  0  0  0  0  # atno 8008 bound_to 7997
  155.0182  140.0387  157.2445 H   0  0  0  0  0  0  0  0  0  0  0  0  # atno 8009 bound_to 7997
  154.7458  140.2733  155.6339 H   0  0  0  0  0  0  0  0  0  0  0  0  # atno 8010 bound_to 7997
  140.3467  144.2402  150.6150 H   0  0  0  0  0  0  0  0  0  0  0  0  # atno 10167 bound_to 10162
  156.0033  130.5083  150.5984 H   0  0  0  0  0  0  0  0  0  0  0  0  # atno 10718 bound_to 10713
  154.3421  135.2754  155.2417 H   0  0  0  0  0  0  0  0  0  0  0  0  # atno 10763 bound_to 10752
  154.4683  135.5889  153.6307 H   0  0  0  0  0  0  0  0  0  0  0  0  # atno 10764 bound_to 10752
  152.9857  135.6082  154.3623 H   0  0  0  0  0  0  0  0  0  0  0  0  # atno 10765 bound_to 10752
  140.4957  134.0796  155.7781 H   0  0  0  0  0  0  0  0  0  0  0  0  # atno 11005 bound_to 11000
  146.3262  140.3085  142.8625 LP  0  0  0  0  0  0  0  0  0  0  0  0  # atno 17320 bound_to 7965
  144.9380  140.8047  143.5648 LP  0  0  0  0  0  0  0  0  0  0  0  0  # atno 17321 bound_to 7965
  140.5258  143.2255  151.8317 LP  0  0  0  0  0  0  0  0  0  0  0  0  # atno 17342 bound_to 10162
  139.4832  144.4781  151.9341 LP  0  0  0  0  0  0  0  0  0  0  0  0  # atno 17343 bound_to 10162
  157.3837  131.0785  151.1454 LP  0  0  0  0  0  0  0  0  0  0  0  0  # atno 17370 bound_to 10713
  157.2168  130.6463  149.5795 LP  0  0  0  0  0  0  0  0  0  0  0  0  # atno 17371 bound_to 10713
  141.1461  133.9052  157.2211 LP  0  0  0  0  0  0  0  0  0  0  0  0  # atno 17394 bound_to 11000
  139.9743  135.0119  156.9591 LP  0  0  0  0  0  0  0  0  0  0  0  0  # atno 17395 bound_to 11000

$$$$
