#       Name:                AV-unprocessed.smi:928
#       Creating user name   scv26
#       Creation time:       Fri Mar 27 02:09:45 2020


#       File generated by GOLD software.
#

@<TRIPOS>MOLECULE
AV-unprocessed.smi:928
    48    49     1
SMALL
NO_CHARGES


@<TRIPOS>ATOM
      1 ****        -2.5623   7.1720  -0.0164 C.3            1 S1                 0.0000
      2 ****        -3.7271   6.1774   0.0346 C.3            1 S1                 0.0000
      3 ****        -3.3672   4.8245  -0.4847 C.2            1 S1                 0.0000
      4 ****        -3.6938   4.2797  -1.7022 C.2            1 S1                 0.0000
      5 ****        -3.1953   2.9894  -1.8960 N.2            1 S1                 0.0000
      6 ****        -2.5110   2.5436  -0.8398 C.2            1 S1                 0.0000
      7 ****        -1.8392   1.2126  -0.7939 C.3            1 S1                 0.0000
      8 ****        -0.4024   1.2660  -1.3381 C.3            1 S1                 0.0000
      9 ****         0.2390  -0.0429  -1.3005 N.am           1 S1                 0.0000
     10 ****         0.7775  -0.6002  -0.2073 C.2            1 S1                 0.0000
     11 ****         0.7831  -0.0706   0.9043 O.2            1 S1                 0.0000
     12 ****         1.3070  -1.8027  -0.4725 N.am           1 S1                 0.0000
     13 ****         1.9657  -2.6712   0.5016 C.3            1 S1                 0.0000
     14 ****         3.2429  -3.2351  -0.1547 C.3            1 S1                 0.0000
     15 ****         3.9402  -4.2781   0.7303 C.3            1 S1                 0.0000
     16 ****         2.9794  -5.4179   1.0927 C.3            1 S1                 0.0000
     17 ****         1.7287  -4.8692   1.7919 C.3            1 S1                 0.0000
     18 ****         1.0099  -3.8107   0.9329 C.3            1 S1                 0.0000
     19 ****        -0.0472  -3.2856   1.7113 O.3            1 S1                 0.0000
     20 ****        -2.4138   3.7160   0.4684 S.3            1 S1                 0.0000
     21 ****        -2.8675   8.1471   0.3634 H              1 S1                 0.0000
     22 ****        -2.2075   7.3089  -1.0382 H              1 S1                 0.0000
     23 ****        -1.7219   6.8281   0.5874 H              1 S1                 0.0000
     24 ****        -4.0801   6.0874   1.0625 H              1 S1                 0.0000
     25 ****        -4.5657   6.5763  -0.5372 H              1 S1                 0.0000
     26 ****        -4.2706   4.7405  -2.4906 H              1 S1                 0.0000
     27 ****        -1.8425   0.8633   0.2392 H              1 S1                 0.0000
     28 ****        -2.4335   0.4989  -1.3660 H              1 S1                 0.0000
     29 ****        -0.4098   1.6093  -2.3731 H              1 S1                 0.0000
     30 ****         0.1924   1.9879  -0.7755 H              1 S1                 0.0000
     31 ****         0.2812  -0.5562  -2.1688 H              1 S1                 0.0000
     32 ****         1.2460  -2.1490  -1.4187 H              1 S1                 0.0000
     33 ****         2.2678  -2.1029   1.3838 H              1 S1                 0.0000
     34 ****         2.9926  -3.6960  -1.1115 H              1 S1                 0.0000
     35 ****         3.9360  -2.4230  -0.3778 H              1 S1                 0.0000
     36 ****         4.8140  -4.6778   0.2150 H              1 S1                 0.0000
     37 ****         4.3074  -3.8021   1.6405 H              1 S1                 0.0000
     38 ****         2.6905  -5.9589   0.1906 H              1 S1                 0.0000
     39 ****         3.4818  -6.1376   1.7396 H              1 S1                 0.0000
     40 ****         1.0468  -5.6887   2.0224 H              1 S1                 0.0000
     41 ****         2.0202  -4.4332   2.7489 H              1 S1                 0.0000
     42 ****         0.5863  -4.2938   0.0510 H              1 S1                 0.0000
     43 ****         0.3227  -2.8270   2.4502 H              1 S1                 0.0000
     44 ****        -3.3353   2.4590  -2.7321 LP             1 S1                 0.0000
     45 ****         0.3681   0.8304   1.0310 LP             1 S1                 0.0000
     46 ****         1.2026  -0.5414   1.6804 LP             1 S1                 0.0000
     47 ****        -0.6303  -4.0309   2.0346 LP             1 S1                 0.0000
     48 ****        -0.5903  -2.6529   1.1593 LP             1 S1                 0.0000
@<TRIPOS>BOND
    1    1    2 1     
    2    1   21 1     
    3    1   22 1     
    4    1   23 1     
    5    2    3 1     
    6    2   24 1     
    7    2   25 1     
    8    3   20 1     
    9    3    4 2     
   10    4    5 1     
   11    4   26 1     
   12    5    6 2     
   13    6    7 1     
   14    6   20 1     
   15    7    8 1     
   16    7   27 1     
   17    7   28 1     
   18    8    9 1     
   19    8   29 1     
   20    8   30 1     
   21    9   10 am    
   22    9   31 1     
   23   10   11 2     
   24   10   12 am    
   25   12   13 1     
   26   12   32 1     
   27   13   18 1     
   28   13   14 1     
   29   13   33 1     
   30   14   15 1     
   31   14   34 1     
   32   14   35 1     
   33   15   16 1     
   34   15   36 1     
   35   15   37 1     
   36   16   17 1     
   37   16   38 1     
   38   16   39 1     
   39   17   18 1     
   40   17   40 1     
   41   17   41 1     
   42   18   19 1     
   43   18   42 1     
   44   19   43 1     
   45    5   44 1     
   46   11   45 1     
   47   11   46 1     
   48   19   47 1     
   49   19   48 1     
@<TRIPOS>SUBSTRUCTURE
      1 S1             1
@<TRIPOS>SET
LONE_PAIRS      STATIC     ATOMS    <user>   **** ""
5 44 45 46 47 48
DONOR_HYDROGENS      STATIC     ATOMS    <user>   **** ""
3 31 32 43
ATOM$BLUE        STATIC     ATOMS    COLORGROUP SYSTEM
5 44 45 46 47 48
ATOM$RED        STATIC     ATOMS    COLORGROUP SYSTEM
3 31 32 43
