AV-unprocessed.smi:2752|AV-procd|sdf|10606|dock3
  -GOLD-   2272015 53D 1   1.00000     0.00000
 Structure written by MMmdl.
 34 35  0  0  0  0  0  0  0  0  1 V2000
  148.1153  138.8580  157.3243 C   0  0  0  0  0  0  0  0  0  0  0  0
  148.6433  140.0763  156.8256 O   0  0  0  0  0  0  0  0  0  0  0  0
  149.2354  139.9600  155.5344 C   0  0  1  0  0  0  0  0  0  0  0  0
  148.1407  139.6380  154.5114 C   0  0  0  0  0  0  0  0  0  0  0  0
  147.5066  140.9923  154.2061 C   0  0  0  0  0  0  0  0  0  0  0  0
  148.6719  141.9854  154.2355 C   0  0  0  0  0  0  0  0  0  0  0  0
  149.7844  141.3311  155.0784 C   0  0  1  0  0  0  0  0  0  0  0  0
  150.1808  142.1884  156.1936 N   0  0  0  0  0  0  0  0  0  0  0  0
  150.8669  141.7748  157.2684 C   0  0  0  0  0  0  0  0  0  0  0  0
  151.2541  140.6157  157.4202 O   0  0  0  0  0  0  0  0  0  0  0  0
  151.0612  142.7811  158.1385 N   0  0  0  0  0  0  0  0  0  0  0  0
  151.7396  142.7444  159.3857 C   0  0  0  0  0  0  0  0  0  0  0  0
  151.5130  143.8604  160.2232 C   0  0  0  0  0  0  0  0  0  0  0  0
  152.1410  143.9211  161.4826 C   0  0  0  0  0  0  0  0  0  0  0  0
  152.9804  142.8618  161.8706 C   0  0  0  0  0  0  0  0  0  0  0  0
  153.6056  142.8757  163.0717 F   0  0  0  0  0  0  0  0  0  0  0  0
  153.1535  141.7875  160.9785 C   0  0  0  0  0  0  0  0  0  0  0  0
  152.5522  141.7284  159.7714 N   0  0  0  0  0  0  0  0  0  0  0  0
  147.6586  139.0314  158.2986 H   0  0  0  0  0  0  0  0  0  0  0  0
  148.9035  138.1154  157.4528 H   0  0  0  0  0  0  0  0  0  0  0  0
  147.3515  138.4462  156.6645 H   0  0  0  0  0  0  0  0  0  0  0  0
  150.0311  139.2125  155.5397 H   0  0  0  0  0  0  0  0  0  0  0  0
  148.5969  139.2394  153.6045 H   0  0  0  0  0  0  0  0  0  0  0  0
  147.4145  138.9048  154.8620 H   0  0  0  0  0  0  0  0  0  0  0  0
  146.9736  141.0006  153.2550 H   0  0  0  0  0  0  0  0  0  0  0  0
  146.7907  141.2435  154.9899 H   0  0  0  0  0  0  0  0  0  0  0  0
  149.0371  142.1586  153.2226 H   0  0  0  0  0  0  0  0  0  0  0  0
  148.3510  142.9511  154.6282 H   0  0  0  0  0  0  0  0  0  0  0  0
  150.6453  141.1695  154.4267 H   0  0  0  0  0  0  0  0  0  0  0  0
  149.8937  143.1549  156.1497 H   0  0  0  0  0  0  0  0  0  0  0  0
  150.6776  143.6777  157.8787 H   0  0  0  0  0  0  0  0  0  0  0  0
  150.8644  144.6649  159.9080 H   0  0  0  0  0  0  0  0  0  0  0  0
  151.9807  144.7646  162.1374 H   0  0  0  0  0  0  0  0  0  0  0  0
  153.7901  140.9548  161.2390 H   0  0  0  0  0  0  0  0  0  0  0  0
  1  2  1  0  0  0  0
  1 19  1  0  0  0  0
  1 20  1  0  0  0  0
  1 21  1  0  0  0  0
  2  3  1  0  0  0  0
  3  7  1  0  0  0  0
  3  4  1  0  0  0  0
  3 22  1  0  0  0  0
  4  5  1  0  0  0  0
  4 23  1  0  0  0  0
  4 24  1  0  0  0  0
  5  6  1  0  0  0  0
  5 25  1  0  0  0  0
  5 26  1  0  0  0  0
  6  7  1  0  0  0  0
  6 27  1  0  0  0  0
  6 28  1  0  0  0  0
  7  8  1  0  0  0  0
  7 29  1  0  0  0  0
  8  9  1  0  0  0  0
  8 30  1  0  0  0  0
  9 10  2  0  0  0  0
  9 11  1  0  0  0  0
 11 12  1  0  0  0  0
 11 31  1  0  0  0  0
 12 18  1  0  0  0  0
 12 13  2  0  0  0  0
 13 14  1  0  0  0  0
 13 32  1  0  0  0  0
 14 15  2  0  0  0  0
 14 33  1  0  0  0  0
 15 16  1  0  0  0  0
 15 17  1  0  0  0  0
 17 18  2  0  0  0  0
 17 34  1  0  0  0  0
M  END
> <s_m_source_file>
AV-unprocessed.smi

> <i_m_source_file_index>
2752

> <i_lp_mmshare_version>
43012

> <i_f3d_flags>
0

> <s_epik_input>
W0NIM11PW0NAQEhdMVtDSDJdW0NIMl1bQ0gyXVtDQEhdMVtOSF1DKD1PKVtOSF1jMltjSF1bY0hdYyhGKVtjSF1uMg==

> <s_epik_cmdline>
J2VwaWtfcHl0aG9uJywgJy1waCcsICc3LjAnLCAnLXRuJywgJzgnLCAnLW1hJywgJzIwMCcsICctbWV0YWxfYmluZGluZycsICctaW1hZScsICc8aW5maWxlLm1hZT4nLCAnLW9tYWUnLCAnPG91dGZpbGUubWFlPic=

> <r_lp_tautomer_probability>
1

> <r_epik_Ionization_Penalty>
3.49853e-05

> <r_epik_Ionization_Penalty_Charging>
0

> <r_epik_Ionization_Penalty_Neutral>
3.49853e-05

> <r_epik_State_Penalty>
-0

> <r_epik_Charging_Adjusted_Penalty>
0

> <i_epik_Tot_Q>
0

> <i_epik_Tot_abs_Q>
0

> <r_epik_Metal_State_Penalty>
-0

> <b_epik_Metal_Only>
0

> <s_lp_Force_Field>
OPLS_2005

> <r_lp_Energy>
23.7986

> <b_lp_Chiralities_Consistent>
1

> <s_lp_Variant>
AV-unprocessed.smi:2752-2

> <Gold.Version>
5.8.1

> <Gold.Id.Protein>
6NUR|6NUR_protein|mol2

> <Gold.PLP.Fitness>
36.8826

> <Gold.PLP.PLP>
-34.4404

> <Gold.PLP.part.hbond>
-1.0000

> <Gold.PLP.part.metal>
0.0000

> <Gold.PLP.part.buried>
-2.0688

> <Gold.PLP.part.nonpolar>
-30.5663

> <Gold.PLP.part.repulsive>
0.1460

> <Gold.PLP.ligand.clash>
0.0000

> <Gold.PLP.ligand.torsion>
0.2849

> <Gold.PLP.Chemscore.Hbond>
1.0000

> <Gold.PLP.Chemscore.CHOScore>
0.0000

> <Gold.PLP.Chemscore.Metal>
0.0000

> <Gold.Chemscore.Hbonds>
donor molecule, donor type, donor heavy atom, donor atom, acceptor molecule, acceptor atom, score
      L1  H     8    30       P1  8028  1.00

> <Gold.PLP.Chemscore.Internal.Correction>
0.0120

> <Gold.Rescore>
     Score         DG    S(hbond)    S(metal)    S(lipo)     H(rot)  DE(clash)    DE(int)     intcor
      8.60     -14.28       0.97        0.00      75.51       1.28       0.22       5.46       ----

> <Gold.Chemscore.Fitness>
8.6031

> <Gold.Chemscore.DG>
-14.2831

> <Gold.Chemscore.ZeroCoef>
-5.4800

> <Gold.Chemscore.Hbond>
0.9731

> <Gold.Chemscore.Metal>
0.0000

> <Gold.Chemscore.Lipo>
75.5143

> <Gold.Chemscore.Internal_Hbond>
0.0000

> <Gold.Chemscore.DEClash>
0.2247

> <Gold.Chemscore.DEInternal>
5.4553

> <Gold.Chemscore.Rot>
1.2821

> <Gold.Chemscore.Internal.Correction>
   9.000000E+99

> <Gold.Chemscore.Hbonds>
donor molecule, donor type, donor heavy atom, donor atom, acceptor molecule, acceptor atom, score
      L1  H     8    30       P1  8028  0.99

> <Gold.Chemscore.Hbond.Weighted>
-3.2501

> <Gold.Chemscore.Metal.Weighted>
-0.0000

> <Gold.Chemscore.Lipo.Weighted>
-8.8352

> <Gold.Chemscore.Internal_Hbond.Weighted>
0.0000

> <Gold.Chemscore.DEClash.Weighted>
0.2247

> <Gold.Chemscore.DEInternal.Weighted>
5.4553

> <Gold.Chemscore.Rot.Weighted>
3.2822

> <Gold.Chemscore.Internal.Correction.Weighted>
   9.000000E+99

> <Gold.Protein.RotatedTorsions>
[ 6907 6896 6895 6894 ] final   73.18 input  -60.11 | X-H torsion
[ 7974 7965 7964 7962 ] final  -35.46 input  175.53 | X-H torsion
[ 8008 7997 7996 7995 ] final -135.21 input   59.86 | X-H torsion
[ 10167 10162 10161 10158 ] final  -87.70 input  -65.29 | X-H torsion
[ 10718 10713 10712 10709 ] final  -58.61 input   66.30 | X-H torsion
[ 10763 10752 10751 10750 ] final  -90.81 input  -60.55 | X-H torsion
[ 11005 11000 10999 10996 ] final   95.48 input  -57.11 | X-H torsion

> <Gold.Protein.ActiveResidues>
 VAL166  LYS551  ARG553  GLY616  TRP617  ASP618  TYR619  PRO620  LYS621  CYS622 
 ASP623  PHE694  ASN695  SER759  ASP760  ASP761  ALA762  ILE779  LEU786  VAL792 
 PHE793  MET794  SER795  GLU796  ALA797  LYS798  CYS799  TRP800  GLU811  SER814 

> <Gold.Protein.RotatedAtoms>
  152.4909  134.4461  159.9558 H   0  0  0  0  0  0  0  0  0  0  0  0  # atno 6907 bound_to 6896
  151.4448  133.3627  159.2794 H   0  0  0  0  0  0  0  0  0  0  0  0  # atno 6908 bound_to 6896
  150.9062  134.8501  159.7454 H   0  0  0  0  0  0  0  0  0  0  0  0  # atno 6909 bound_to 6896
  146.0745  140.6161  142.8937 H   0  0  0  0  0  0  0  0  0  0  0  0  # atno 7974 bound_to 7965
  155.3749  140.0490  157.3045 H   0  0  0  0  0  0  0  0  0  0  0  0  # atno 8008 bound_to 7997
  154.5111  140.2192  155.9117 H   0  0  0  0  0  0  0  0  0  0  0  0  # atno 8009 bound_to 7997
  156.1584  140.3121  155.8770 H   0  0  0  0  0  0  0  0  0  0  0  0  # atno 8010 bound_to 7997
  140.3819  143.2745  151.9373 H   0  0  0  0  0  0  0  0  0  0  0  0  # atno 10167 bound_to 10162
  156.1122  130.4174  150.0601 H   0  0  0  0  0  0  0  0  0  0  0  0  # atno 10718 bound_to 10713
  154.6696  135.5290  153.8122 H   0  0  0  0  0  0  0  0  0  0  0  0  # atno 10763 bound_to 10752
  153.0493  135.6526  154.0745 H   0  0  0  0  0  0  0  0  0  0  0  0  # atno 10764 bound_to 10752
  154.0645  135.2959  155.3299 H   0  0  0  0  0  0  0  0  0  0  0  0  # atno 10765 bound_to 10752
  139.8789  134.8901  156.4017 H   0  0  0  0  0  0  0  0  0  0  0  0  # atno 11005 bound_to 11000
  144.7252  140.4503  143.6978 LP  0  0  0  0  0  0  0  0  0  0  0  0  # atno 17320 bound_to 7965
  145.6332  139.1539  143.2957 LP  0  0  0  0  0  0  0  0  0  0  0  0  # atno 17321 bound_to 7965
  139.4795  144.5810  151.7932 LP  0  0  0  0  0  0  0  0  0  0  0  0  # atno 17342 bound_to 10162
  140.4929  144.1284  150.5954 LP  0  0  0  0  0  0  0  0  0  0  0  0  # atno 17343 bound_to 10162
  156.8561  130.9475  151.3622 LP  0  0  0  0  0  0  0  0  0  0  0  0  # atno 17370 bound_to 10713
  157.6304  130.8725  149.9264 LP  0  0  0  0  0  0  0  0  0  0  0  0  # atno 17371 bound_to 10713
  140.9262  133.7611  155.9967 LP  0  0  0  0  0  0  0  0  0  0  0  0  # atno 17394 bound_to 11000
  140.8383  134.3097  157.5323 LP  0  0  0  0  0  0  0  0  0  0  0  0  # atno 17395 bound_to 11000

$$$$
