AV-unprocessed.smi:1268|AV-procd|sdf|5325|dock2
  -GOLD-   22720 4453D 1   1.00000     0.00000
 Structure written by MMmdl.
 39 40  0  0  0  0  0  0  0  0  3 V2000
  146.1263  135.5141  152.7400 O   0  0  0  0  0  0  0  0  0  0  0  0
  145.4102  136.1157  151.9368 C   0  0  0  0  0  0  0  0  0  0  0  0
  145.1336  137.4115  152.1294 N   0  0  0  0  0  0  0  0  0  0  0  0
  145.6311  138.2247  153.2319 C   0  0  0  0  0  0  0  0  0  0  0  0
  146.7551  139.1587  152.7535 C   0  0  2  0  0  0  0  0  0  0  0  0
  147.8808  138.3627  152.4363 O   0  0  0  0  0  0  0  0  0  0  0  0
  147.1791  140.1448  153.8601 C   0  0  0  0  0  0  0  0  0  0  0  0
  146.1846  141.2281  154.0700 N   0  3  0  0  0  0  0  0  0  0  0  0
  146.7369  142.5700  153.7501 C   0  0  0  0  0  0  0  0  0  0  0  0
  145.6476  143.6529  153.8299 C   0  0  0  0  0  0  0  0  0  0  0  0
  144.9759  143.6563  155.2089 C   0  0  0  0  0  0  0  0  0  0  0  0
  144.4439  142.2550  155.5350 C   0  0  0  0  0  0  0  0  0  0  0  0
  145.5579  141.2006  155.4190 C   0  0  0  0  0  0  0  0  0  0  0  0
  144.8420  135.6011  150.8234 N   0  5  0  0  0  0  0  0  0  0  0  0
  145.0028  134.3012  150.5259 C   0  0  0  0  0  0  0  0  0  0  0  0
  144.0417  133.5553  149.9691 N   0  0  0  0  0  0  0  0  0  0  0  0
  144.4280  132.2334  149.7397 C   0  0  0  0  0  0  0  0  0  0  0  0
  145.7162  131.9688  150.1220 C   0  0  0  0  0  0  0  0  0  0  0  0
  146.4873  133.3807  150.7862 S   0  0  0  0  0  0  0  0  0  0  0  0
  144.5380  137.8644  151.4521 H   0  0  0  0  0  0  0  0  0  0  0  0
  144.7918  138.8138  153.6040 H   0  0  0  0  0  0  0  0  0  0  0  0
  145.9720  137.6016  154.0610 H   0  0  0  0  0  0  0  0  0  0  0  0
  146.4278  139.6962  151.8635 H   0  0  0  0  0  0  0  0  0  0  0  0
  148.4919  138.8931  151.9461 H   0  0  0  0  0  0  0  0  0  0  0  0
  147.3423  139.6198  154.8026 H   0  0  0  0  0  0  0  0  0  0  0  0
  148.1434  140.5754  153.5841 H   0  0  0  0  0  0  0  0  0  0  0  0
  147.5525  142.8025  154.4367 H   0  0  0  0  0  0  0  0  0  0  0  0
  147.1592  142.5649  152.7446 H   0  0  0  0  0  0  0  0  0  0  0  0
  146.0797  144.6325  153.6233 H   0  0  0  0  0  0  0  0  0  0  0  0
  144.8980  143.4758  153.0576 H   0  0  0  0  0  0  0  0  0  0  0  0
  145.6949  143.9647  155.9690 H   0  0  0  0  0  0  0  0  0  0  0  0
  144.1639  144.3838  155.2316 H   0  0  0  0  0  0  0  0  0  0  0  0
  144.0215  142.2426  156.5402 H   0  0  0  0  0  0  0  0  0  0  0  0
  143.6297  142.0037  154.8540 H   0  0  0  0  0  0  0  0  0  0  0  0
  145.1351  140.2176  155.6228 H   0  0  0  0  0  0  0  0  0  0  0  0
  146.3207  141.3785  156.1787 H   0  0  0  0  0  0  0  0  0  0  0  0
  143.7204  131.5479  149.2977 H   0  0  0  0  0  0  0  0  0  0  0  0
  146.2563  131.0367  150.0529 H   0  0  0  0  0  0  0  0  0  0  0  0
  145.4486  141.0619  153.3980 H   0  0  0  0  0  0  0  0  0  0  0  0
  1  2  2  0  0  0  0
  2  3  1  0  0  0  0
  2 14  1  0  0  0  0
  3  4  1  0  0  0  0
  3 20  1  0  0  0  0
  4  5  1  0  0  0  0
  4 21  1  0  0  0  0
  4 22  1  0  0  0  0
  5  6  1  0  0  0  0
  5  7  1  0  0  0  0
  5 23  1  0  0  0  0
  6 24  1  0  0  0  0
  7  8  1  0  0  0  0
  7 25  1  0  0  0  0
  7 26  1  0  0  0  0
  8 13  1  0  0  0  0
  8  9  1  0  0  0  0
  8 39  1  0  0  0  0
  9 10  1  0  0  0  0
  9 27  1  0  0  0  0
  9 28  1  0  0  0  0
 10 11  1  0  0  0  0
 10 29  1  0  0  0  0
 10 30  1  0  0  0  0
 11 12  1  0  0  0  0
 11 31  1  0  0  0  0
 11 32  1  0  0  0  0
 12 13  1  0  0  0  0
 12 33  1  0  0  0  0
 12 34  1  0  0  0  0
 13 35  1  0  0  0  0
 13 36  1  0  0  0  0
 14 15  1  0  0  0  0
 15 19  1  0  0  0  0
 15 16  2  0  0  0  0
 16 17  1  0  0  0  0
 17 18  2  0  0  0  0
 17 37  1  0  0  0  0
 18 19  1  0  0  0  0
 18 38  1  0  0  0  0
M  CHG  1   8   1
M  CHG  1  14  -1
M  END
> <s_m_source_file>
AV-unprocessed.smi

> <i_m_source_file_index>
1268

> <i_lp_mmshare_version>
43012

> <i_f3d_flags>
0

> <s_epik_input>
czFbY0hdW2NIXW5jMVtOSF1DKD1PKVtOSF1bQ0gyXVtDQEhdKFtPSF0pW0NIMl1OMltDSDJdW0NIMl1bQ0gyXVtDSDJdW0NIMl0y

> <s_epik_cmdline>
J2VwaWtfcHl0aG9uJywgJy1waCcsICc3LjAnLCAnLXRuJywgJzgnLCAnLW1hJywgJzIwMCcsICctbWV0YWxfYmluZGluZycsICctaW1hZScsICc8aW5maWxlLm1hZT4nLCAnLW9tYWUnLCAnPG91dGZpbGUubWFlPic=

> <r_lp_tautomer_probability>
0.999

> <r_epik_Ionization_Penalty>
6.36291

> <r_epik_Ionization_Penalty_Charging>
5.4816

> <r_epik_Ionization_Penalty_Neutral>
0.881305

> <r_epik_State_Penalty>
5.4805

> <r_epik_Charging_Adjusted_Penalty>
10.9621

> <i_epik_Tot_Q>
0

> <i_epik_Tot_abs_Q>
2

> <r_epik_Metal_State_Penalty>
1.48871

> <b_epik_Metal_Only>
1

> <s_lp_Force_Field>
OPLS_2005

> <r_lp_Energy>
11.3564

> <b_lp_Chiralities_Consistent>
1

> <s_lp_Variant>
AV-unprocessed.smi:1268-3

> <Gold.Version>
5.8.1

> <Gold.Id.Protein>
6NUR|6NUR_protein|mol2

> <Gold.PLP.Fitness>
46.0986

> <Gold.PLP.PLP>
-33.6799

> <Gold.PLP.part.hbond>
-3.6891

> <Gold.PLP.part.metal>
0.0000

> <Gold.PLP.part.buried>
-5.8438

> <Gold.PLP.part.nonpolar>
-25.2747

> <Gold.PLP.part.repulsive>
1.6054

> <Gold.PLP.ligand.clash>
0.0000

> <Gold.PLP.ligand.torsion>
1.2376

> <Gold.PLP.Chemscore.Hbond>
4.0000

> <Gold.PLP.Chemscore.CHOScore>
0.8981

> <Gold.PLP.Chemscore.Metal>
0.0000

> <Gold.Chemscore.Hbonds>
donor molecule, donor type, donor heavy atom, donor atom, acceptor molecule, acceptor atom, score
      L1  H     3    20       P1 10171  1.00
      L1  H     6    24       P1  7957  1.00
      L1  H     8    39       P1 10175  1.82
      L1  C    18    38       P1 10747  0.46

> <Gold.PLP.Chemscore.Internal.Correction>
0.1994

> <Gold.Rescore>
     Score         DG    S(hbond)    S(metal)    S(lipo)     H(rot)  DE(clash)    DE(int)     intcor
     13.29     -16.38       2.89        0.00      64.89       2.48       0.72       2.37       ----

> <Gold.Chemscore.Fitness>
13.2931

> <Gold.Chemscore.DG>
-16.3765

> <Gold.Chemscore.ZeroCoef>
-5.4800

> <Gold.Chemscore.Hbond>
2.8927

> <Gold.Chemscore.Metal>
0.0000

> <Gold.Chemscore.Lipo>
64.8929

> <Gold.Chemscore.Internal_Hbond>
0.0000

> <Gold.Chemscore.DEClash>
0.7160

> <Gold.Chemscore.DEInternal>
2.3674

> <Gold.Chemscore.Rot>
2.4834

> <Gold.Chemscore.Internal.Correction>
   9.000000E+99

> <Gold.Chemscore.Hbonds>
donor molecule, donor type, donor heavy atom, donor atom, acceptor molecule, acceptor atom, score
      L1  H     3    20       P1 10171  1.00
      L1  H     6    24       P1  7957  0.91
      L1  H     8    39       P1 10175  0.44

> <Gold.Chemscore.Hbond.Weighted>
-9.6615

> <Gold.Chemscore.Metal.Weighted>
-0.0000

> <Gold.Chemscore.Lipo.Weighted>
-7.5925

> <Gold.Chemscore.Internal_Hbond.Weighted>
0.0000

> <Gold.Chemscore.DEClash.Weighted>
0.7160

> <Gold.Chemscore.DEInternal.Weighted>
2.3674

> <Gold.Chemscore.Rot.Weighted>
6.3575

> <Gold.Chemscore.Internal.Correction.Weighted>
   9.000000E+99

> <Gold.Protein.RotatedTorsions>
[ 6907 6896 6895 6894 ] final  131.69 input  -60.11 | X-H torsion
[ 7974 7965 7964 7962 ] final  -15.44 input  175.53 | X-H torsion
[ 8008 7997 7996 7995 ] final   66.58 input   59.86 | X-H torsion
[ 10167 10162 10161 10158 ] final  -22.12 input  -65.29 | X-H torsion
[ 10718 10713 10712 10709 ] final   59.30 input   66.30 | X-H torsion
[ 10763 10752 10751 10750 ] final   23.46 input  -60.55 | X-H torsion
[ 11005 11000 10999 10996 ] final  -23.54 input  -57.11 | X-H torsion

> <Gold.Protein.ActiveResidues>
 VAL166  LYS551  ARG553  GLY616  TRP617  ASP618  TYR619  PRO620  LYS621  CYS622 
 ASP623  PHE694  ASN695  SER759  ASP760  ASP761  ALA762  ILE779  LEU786  VAL792 
 PHE793  MET794  SER795  GLU796  ALA797  LYS798  CYS799  TRP800  GLU811  SER814 

> <Gold.Protein.RotatedAtoms>
  152.3401  133.6056  159.5869 H   0  0  0  0  0  0  0  0  0  0  0  0  # atno 6907 bound_to 6896
  150.7473  133.9736  159.3562 H   0  0  0  0  0  0  0  0  0  0  0  0  # atno 6908 bound_to 6896
  151.7601  135.0813  160.0395 H   0  0  0  0  0  0  0  0  0  0  0  0  # atno 6909 bound_to 6896
  146.2032  140.3493  142.8416 H   0  0  0  0  0  0  0  0  0  0  0  0  # atno 7974 bound_to 7965
  155.6796  140.3496  155.4850 H   0  0  0  0  0  0  0  0  0  0  0  0  # atno 8008 bound_to 7997
  155.9618  140.1139  157.0911 H   0  0  0  0  0  0  0  0  0  0  0  0  # atno 8009 bound_to 7997
  154.4145  140.1174  156.5176 H   0  0  0  0  0  0  0  0  0  0  0  0  # atno 8010 bound_to 7997
  140.7285  143.4564  151.0442 H   0  0  0  0  0  0  0  0  0  0  0  0  # atno 10167 bound_to 10162
  157.5665  130.8874  149.9195 H   0  0  0  0  0  0  0  0  0  0  0  0  # atno 10718 bound_to 10713
  153.0837  135.6626  153.9993 H   0  0  0  0  0  0  0  0  0  0  0  0  # atno 10763 bound_to 10752
  153.9608  135.2974  155.3435 H   0  0  0  0  0  0  0  0  0  0  0  0  # atno 10764 bound_to 10752
  154.7241  135.5152  153.8930 H   0  0  0  0  0  0  0  0  0  0  0  0  # atno 10765 bound_to 10752
  140.8762  133.7686  156.0246 H   0  0  0  0  0  0  0  0  0  0  0  0  # atno 11005 bound_to 11000
  144.8730  140.7299  143.6034 LP  0  0  0  0  0  0  0  0  0  0  0  0  # atno 17320 bound_to 7965
  145.3412  139.1731  143.4484 LP  0  0  0  0  0  0  0  0  0  0  0  0  # atno 17321 bound_to 7965
  139.8245  143.7775  152.3178 LP  0  0  0  0  0  0  0  0  0  0  0  0  # atno 17342 bound_to 10162
  139.7869  144.7424  151.0009 LP  0  0  0  0  0  0  0  0  0  0  0  0  # atno 17343 bound_to 10162
  156.0712  130.3685  150.0771 LP  0  0  0  0  0  0  0  0  0  0  0  0  # atno 17370 bound_to 10713
  156.8929  130.9594  151.3586 LP  0  0  0  0  0  0  0  0  0  0  0  0  # atno 17371 bound_to 10713
  140.8516  134.2948  157.5273 LP  0  0  0  0  0  0  0  0  0  0  0  0  # atno 17394 bound_to 11000
  139.8716  134.9470  156.3956 LP  0  0  0  0  0  0  0  0  0  0  0  0  # atno 17395 bound_to 11000

$$$$
