AV-unprocessed.smi:289|AV-procd|sdf|2213|dock6
  -GOLD-   2262022 43D 1   1.00000     0.00000
 Structure written by MMmdl.
 51 54  0  0  0  0  0  0  0  0  1 V2000
  155.7505  137.0960  160.1019 O   0  0  0  0  0  0  0  0  0  0  0  0
  155.1693  136.7355  161.1274 C   0  0  0  0  0  0  0  0  0  0  0  0
  153.8888  137.4797  161.5621 C   0  0  0  0  0  0  0  0  0  0  0  0
  153.4234  138.4900  160.5849 N   0  0  0  0  0  0  0  0  0  0  0  0
  152.7088  138.0537  159.4424 C   0  0  0  0  0  0  0  0  0  0  0  0
  152.4537  136.8619  159.2642 O   0  0  0  0  0  0  0  0  0  0  0  0
  152.3234  139.1015  158.5051 C   0  0  0  0  0  0  0  0  0  0  0  0
  151.6752  138.7763  157.3738 F   0  0  0  0  0  0  0  0  0  0  0  0
  152.6225  140.3945  158.7455 C   0  0  0  0  0  0  0  0  0  0  0  0
  153.2881  140.8158  159.8852 N   0  0  0  0  0  0  0  0  0  0  0  0
  153.6996  142.2637  160.1090 C   0  0  2  0  0  0  0  0  0  0  0  0
  153.1399  142.8894  161.3937 C   0  0  0  0  0  0  0  0  0  0  0  0
  151.9001  143.6367  160.9091 C   0  0  0  0  0  0  0  0  0  0  0  0
  151.8626  143.3933  159.3964 C   0  0  0  0  0  0  0  0  0  0  0  0
  153.1961  143.0321  159.0635 O   0  0  0  0  0  0  0  0  0  0  0  0
  153.7447  139.8502  160.8106 C   0  0  0  0  0  0  0  0  0  0  0  0
  154.4120  140.1851  161.7921 O   0  0  0  0  0  0  0  0  0  0  0  0
  155.6201  135.7055  161.8848 N   0  0  0  0  0  0  0  0  0  0  0  0
  154.9625  135.1656  163.0842 C   0  0  0  0  0  0  0  0  0  0  0  0
  154.5457  133.7035  162.8240 C   0  0  0  0  0  0  0  0  0  0  0  0
  155.7324  132.9140  162.4478 N   0  0  0  0  0  0  0  0  0  0  0  0
  156.2725  131.8982  163.1674 C   0  0  0  0  0  0  0  0  0  0  0  0
  157.4149  131.4820  162.9724 O   0  0  0  0  0  0  0  0  0  0  0  0
  155.4646  131.2482  164.2221 C   0  0  0  0  0  0  0  0  0  0  0  0
  155.8509  130.4379  165.2556 C   0  0  0  0  0  0  0  0  0  0  0  0
  154.6628  130.0442  165.9313 C   0  0  0  0  0  0  0  0  0  0  0  0
  153.6327  130.6229  165.2473 C   0  0  0  0  0  0  0  0  0  0  0  0
  154.1024  131.3464  164.1951 O   0  0  0  0  0  0  0  0  0  0  0  0
  156.3982  133.4715  161.2596 C   0  0  0  0  0  0  0  0  0  0  0  0
  156.8177  134.9266  161.5403 C   0  0  0  0  0  0  0  0  0  0  0  0
  153.1067  136.7442  161.7575 H   0  0  0  0  0  0  0  0  0  0  0  0
  154.0658  137.9538  162.5287 H   0  0  0  0  0  0  0  0  0  0  0  0
  152.3312  141.1107  157.9939 H   0  0  0  0  0  0  0  0  0  0  0  0
  154.7908  142.2577  160.1137 H   0  0  0  0  0  0  0  0  0  0  0  0
  152.9636  142.1553  162.1797 H   0  0  0  0  0  0  0  0  0  0  0  0
  153.8728  143.6039  161.7703 H   0  0  0  0  0  0  0  0  0  0  0  0
  150.9883  143.2857  161.3927 H   0  0  0  0  0  0  0  0  0  0  0  0
  152.0009  144.7014  161.1223 H   0  0  0  0  0  0  0  0  0  0  0  0
  151.1869  142.5735  159.1493 H   0  0  0  0  0  0  0  0  0  0  0  0
  151.5390  144.2727  158.8396 H   0  0  0  0  0  0  0  0  0  0  0  0
  155.6610  135.2110  163.9212 H   0  0  0  0  0  0  0  0  0  0  0  0
  154.0896  135.7318  163.4027 H   0  0  0  0  0  0  0  0  0  0  0  0
  154.0437  133.3417  163.7187 H   0  0  0  0  0  0  0  0  0  0  0  0
  153.8107  133.6538  162.0193 H   0  0  0  0  0  0  0  0  0  0  0  0
  156.8673  130.1634  165.4976 H   0  0  0  0  0  0  0  0  0  0  0  0
  154.5731  129.4104  166.8012 H   0  0  0  0  0  0  0  0  0  0  0  0
  152.5588  130.6177  165.3623 H   0  0  0  0  0  0  0  0  0  0  0  0
  157.2694  132.8913  160.9524 H   0  0  0  0  0  0  0  0  0  0  0  0
  155.7076  133.4366  160.4155 H   0  0  0  0  0  0  0  0  0  0  0  0
  157.3499  135.3251  160.6757 H   0  0  0  0  0  0  0  0  0  0  0  0
  157.5252  134.9640  162.3701 H   0  0  0  0  0  0  0  0  0  0  0  0
  1  2  2  0  0  0  0
  2  3  1  0  0  0  0
  2 18  1  0  0  0  0
  3  4  1  0  0  0  0
  3 31  1  0  0  0  0
  3 32  1  0  0  0  0
  4 16  1  0  0  0  0
  4  5  1  0  0  0  0
  5  6  2  0  0  0  0
  5  7  1  0  0  0  0
  7  8  1  0  0  0  0
  7  9  2  0  0  0  0
  9 10  1  0  0  0  0
  9 33  1  0  0  0  0
 10 11  1  0  0  0  0
 10 16  1  0  0  0  0
 11 15  1  0  0  0  0
 11 12  1  0  0  0  0
 11 34  1  0  0  0  0
 12 13  1  0  0  0  0
 12 35  1  0  0  0  0
 12 36  1  0  0  0  0
 13 14  1  0  0  0  0
 13 37  1  0  0  0  0
 13 38  1  0  0  0  0
 14 15  1  0  0  0  0
 14 39  1  0  0  0  0
 14 40  1  0  0  0  0
 16 17  2  0  0  0  0
 18 30  1  0  0  0  0
 18 19  1  0  0  0  0
 19 20  1  0  0  0  0
 19 41  1  0  0  0  0
 19 42  1  0  0  0  0
 20 21  1  0  0  0  0
 20 43  1  0  0  0  0
 20 44  1  0  0  0  0
 21 22  1  0  0  0  0
 21 29  1  0  0  0  0
 22 23  2  0  0  0  0
 22 24  1  0  0  0  0
 24 28  1  0  0  0  0
 24 25  2  0  0  0  0
 25 26  1  0  0  0  0
 25 45  1  0  0  0  0
 26 27  2  0  0  0  0
 26 46  1  0  0  0  0
 27 28  1  0  0  0  0
 27 47  1  0  0  0  0
 29 30  1  0  0  0  0
 29 48  1  0  0  0  0
 29 49  1  0  0  0  0
 30 50  1  0  0  0  0
 30 51  1  0  0  0  0
M  END
> <s_m_source_file>
AV-unprocessed.smi

> <i_m_source_file_index>
289

> <i_lp_mmshare_version>
43012

> <i_f3d_flags>
0

> <s_epik_input>
bzFbY0hdW2NIXVtjSF1jMUMoPU8pTihbQ0gyXVtDSDJdMilbQ0gyXVtDSDJdTjJDKD1PKVtDSDJdbjNjKD1PKWMoRilbY0hdbihjMz1PKVtDQEBIXTRbQ0gyXVtDSDJdW0NIMl1PNA==

> <s_epik_cmdline>
J2VwaWtfcHl0aG9uJywgJy1waCcsICc3LjAnLCAnLXRuJywgJzgnLCAnLW1hJywgJzIwMCcsICctbWV0YWxfYmluZGluZycsICctaW1hZScsICc8aW5maWxlLm1hZT4nLCAnLW9tYWUnLCAnPG91dGZpbGUubWFlPic=

> <r_lp_tautomer_probability>
1

> <r_epik_Ionization_Penalty>
6.38128e-09

> <r_epik_Ionization_Penalty_Charging>
4.20153e-09

> <r_epik_Ionization_Penalty_Neutral>
2.17976e-09

> <r_epik_State_Penalty>
-0

> <r_epik_Charging_Adjusted_Penalty>
4.20153e-09

> <i_epik_Tot_Q>
0

> <i_epik_Tot_abs_Q>
0

> <r_epik_Metal_State_Penalty>
-0

> <b_epik_Metal_Only>
0

> <s_epik_Chemistry_Notes>
This compound contains an acetal/aminal-like group ( X-CH(R)-Y where X, Y are N, S, or O) that may be acid/base labile, releasing an aldehyde.

> <s_lp_Force_Field>
OPLS_2005

> <r_lp_Energy>
70.009

> <b_lp_Chiralities_Consistent>
1

> <s_lp_Variant>
AV-unprocessed.smi:289-1

> <Gold.Version>
5.8.1

> <Gold.Id.Protein>
6NUR|6NUR_protein|mol2

> <Gold.PLP.Fitness>
41.8321

> <Gold.PLP.PLP>
-39.4675

> <Gold.PLP.part.hbond>
-1.0000

> <Gold.PLP.part.metal>
0.0000

> <Gold.PLP.part.buried>
-5.9846

> <Gold.PLP.part.nonpolar>
-32.5862

> <Gold.PLP.part.repulsive>
0.0054

> <Gold.PLP.ligand.clash>
0.0000

> <Gold.PLP.ligand.torsion>
0.5902

> <Gold.PLP.Chemscore.Hbond>
1.0000

> <Gold.PLP.Chemscore.CHOScore>
0.0000

> <Gold.PLP.Chemscore.Metal>
0.0000

> <Gold.Chemscore.Hbonds>
donor molecule, donor type, donor heavy atom, donor atom, acceptor molecule, acceptor atom, score
      P1  H  6896  6909       L1     6  1.00

> <Gold.PLP.Chemscore.Internal.Correction>
0.5450

> <Gold.Rescore>
     Score         DG    S(hbond)    S(metal)    S(lipo)     H(rot)  DE(clash)    DE(int)     intcor
     12.90     -15.01       0.98        0.00      89.75       1.66       0.00       2.11       ----

> <Gold.Chemscore.Fitness>
12.9015

> <Gold.Chemscore.DG>
-15.0147

> <Gold.Chemscore.ZeroCoef>
-5.4800

> <Gold.Chemscore.Hbond>
0.9817

> <Gold.Chemscore.Metal>
0.0000

> <Gold.Chemscore.Lipo>
89.7478

> <Gold.Chemscore.Internal_Hbond>
0.0000

> <Gold.Chemscore.DEClash>
0.0015

> <Gold.Chemscore.DEInternal>
2.1117

> <Gold.Chemscore.Rot>
1.6580

> <Gold.Chemscore.Internal.Correction>
   9.000000E+99

> <Gold.Chemscore.Hbonds>
donor molecule, donor type, donor heavy atom, donor atom, acceptor molecule, acceptor atom, score
      P1  H  6896  6909       L1     6  0.92

> <Gold.Chemscore.Hbond.Weighted>
-3.2788

> <Gold.Chemscore.Metal.Weighted>
-0.0000

> <Gold.Chemscore.Lipo.Weighted>
-10.5005

> <Gold.Chemscore.Internal_Hbond.Weighted>
0.0000

> <Gold.Chemscore.DEClash.Weighted>
0.0015

> <Gold.Chemscore.DEInternal.Weighted>
2.1117

> <Gold.Chemscore.Rot.Weighted>
4.2446

> <Gold.Chemscore.Internal.Correction.Weighted>
   9.000000E+99

> <Gold.Protein.RotatedTorsions>
[ 6907 6896 6895 6894 ] final  128.07 input  -60.11 | X-H torsion
[ 7974 7965 7964 7962 ] final  -24.42 input  175.53 | X-H torsion
[ 8008 7997 7996 7995 ] final   77.32 input   59.86 | X-H torsion
[ 10167 10162 10161 10158 ] final   12.23 input  -65.29 | X-H torsion
[ 10718 10713 10712 10709 ] final   54.35 input   66.30 | X-H torsion
[ 10763 10752 10751 10750 ] final   60.64 input  -60.55 | X-H torsion
[ 11005 11000 10999 10996 ] final -174.05 input  -57.11 | X-H torsion

> <Gold.Protein.ActiveResidues>
 VAL166  LYS551  ARG553  GLY616  TRP617  ASP618  TYR619  PRO620  LYS621  CYS622 
 ASP623  PHE694  ASN695  SER759  ASP760  ASP761  ALA762  ILE779  LEU786  VAL792 
 PHE793  MET794  SER795  GLU796  ALA797  LYS798  CYS799  TRP800  GLU811  SER814 

> <Gold.Protein.RotatedAtoms>
  152.3753  133.6473  159.6118 H   0  0  0  0  0  0  0  0  0  0  0  0  # atno 6907 bound_to 6896
  150.7699  133.9202  159.3404 H   0  0  0  0  0  0  0  0  0  0  0  0  # atno 6908 bound_to 6896
  151.7018  135.0930  160.0303 H   0  0  0  0  0  0  0  0  0  0  0  0  # atno 6909 bound_to 6896
  146.1556  140.4749  142.8593 H   0  0  0  0  0  0  0  0  0  0  0  0  # atno 7974 bound_to 7965
  155.8399  140.3462  155.5625 H   0  0  0  0  0  0  0  0  0  0  0  0  # atno 8008 bound_to 7997
  155.8152  140.0904  157.1901 H   0  0  0  0  0  0  0  0  0  0  0  0  # atno 8009 bound_to 7997
  154.4005  140.1440  156.3421 H   0  0  0  0  0  0  0  0  0  0  0  0  # atno 8010 bound_to 7997
  140.6081  143.8466  150.7035 H   0  0  0  0  0  0  0  0  0  0  0  0  # atno 10167 bound_to 10162
  157.5249  130.8590  149.8608 H   0  0  0  0  0  0  0  0  0  0  0  0  # atno 10718 bound_to 10713
  152.9927  135.5529  154.5907 H   0  0  0  0  0  0  0  0  0  0  0  0  # atno 10763 bound_to 10752
  154.5269  135.2811  155.1216 H   0  0  0  0  0  0  0  0  0  0  0  0  # atno 10764 bound_to 10752
  154.2547  135.6392  153.5305 H   0  0  0  0  0  0  0  0  0  0  0  0  # atno 10765 bound_to 10752
  140.4789  134.6094  157.4911 H   0  0  0  0  0  0  0  0  0  0  0  0  # atno 11005 bound_to 11000
  144.7959  140.6121  143.6510 LP  0  0  0  0  0  0  0  0  0  0  0  0  # atno 17320 bound_to 7965
  145.4717  139.1503  143.3810 LP  0  0  0  0  0  0  0  0  0  0  0  0  # atno 17321 bound_to 7965
  140.2027  143.3946  152.1779 LP  0  0  0  0  0  0  0  0  0  0  0  0  # atno 17342 bound_to 10162
  139.5340  144.7190  151.4957 LP  0  0  0  0  0  0  0  0  0  0  0  0  # atno 17343 bound_to 10162
  156.0380  130.3746  150.1510 LP  0  0  0  0  0  0  0  0  0  0  0  0  # atno 17370 bound_to 10713
  156.9697  130.9830  151.3461 LP  0  0  0  0  0  0  0  0  0  0  0  0  # atno 17371 bound_to 10713
  139.9839  134.7093  155.9810 LP  0  0  0  0  0  0  0  0  0  0  0  0  # atno 17394 bound_to 11000
  141.1541  133.6545  156.4105 LP  0  0  0  0  0  0  0  0  0  0  0  0  # atno 17395 bound_to 11000

$$$$
