AV-unprocessed.smi:609|AV-procd|sdf|3049|dock3
  -GOLD-   2262023573D 1   1.00000     0.00000
 Structure written by MMmdl.
 44 46  0  0  0  0  0  0  0  0  3 V2000
  153.0235  143.3125  160.4081 C   0  0  0  0  0  0  0  0  0  0  0  0
  152.3163  142.4482  159.3780 C   0  0  0  0  0  0  0  0  0  0  0  0
  151.4498  143.0737  158.4533 C   0  0  0  0  0  0  0  0  0  0  0  0
  150.8206  142.2569  157.5213 C   0  0  0  0  0  0  0  0  0  0  0  0
  149.9305  142.5618  156.4891 N   0  3  0  0  0  0  0  0  0  0  0  0
  149.5855  141.4188  155.8339 C   0  0  0  0  0  0  0  0  0  0  0  0
  150.2337  140.3872  156.4406 N   0  0  0  0  0  0  0  0  0  0  0  0
  150.2190  138.9506  156.1361 C   0  0  0  0  0  0  0  0  0  0  0  0
  151.0884  138.5738  154.9187 C   0  0  2  0  0  0  0  0  0  0  0  0
  150.7817  139.4749  153.8752 O   0  0  0  0  0  0  0  0  0  0  0  0
  150.8742  137.1308  154.4257 C   0  0  0  0  0  0  0  0  0  0  0  0
  150.6895  135.9583  155.7991 S   0  0  0  0  0  0  0  0  0  0  0  0
  150.1500  134.4508  155.0551 C   0  0  0  0  0  0  0  0  0  0  0  0
  149.4122  134.3723  153.9447 N   0  3  0  0  0  0  0  0  0  0  0  0
  149.1690  133.0601  153.6398 C   0  0  0  0  0  0  0  0  0  0  0  0
  149.7946  132.3124  154.6056 C   0  0  0  0  0  0  0  0  0  0  0  0
  150.3974  133.1966  155.4642 N   0  0  0  0  0  0  0  0  0  0  0  0
  151.1945  132.8558  156.6450 C   0  0  0  0  0  0  0  0  0  0  0  0
  151.0243  140.8638  157.4912 C   0  0  0  0  0  0  0  0  0  0  0  0
  151.8750  140.2312  158.3939 C   0  0  0  0  0  0  0  0  0  0  0  0
  152.5275  141.0451  159.3473 C   0  0  0  0  0  0  0  0  0  0  0  0
  153.4655  140.3839  160.3430 C   0  0  0  0  0  0  0  0  0  0  0  0
  152.7392  144.3608  160.3127 H   0  0  0  0  0  0  0  0  0  0  0  0
  154.1047  143.2480  160.2833 H   0  0  0  0  0  0  0  0  0  0  0  0
  152.7710  142.9900  161.4185 H   0  0  0  0  0  0  0  0  0  0  0  0
  151.2869  144.1414  158.4687 H   0  0  0  0  0  0  0  0  0  0  0  0
  148.9170  141.3442  154.9882 H   0  0  0  0  0  0  0  0  0  0  0  0
  150.5727  138.4287  157.0267 H   0  0  0  0  0  0  0  0  0  0  0  0
  149.1827  138.6429  155.9878 H   0  0  0  0  0  0  0  0  0  0  0  0
  152.1401  138.7079  155.1730 H   0  0  0  0  0  0  0  0  0  0  0  0
  149.8422  139.5607  153.8174 H   0  0  0  0  0  0  0  0  0  0  0  0
  149.9744  137.0724  153.8158 H   0  0  0  0  0  0  0  0  0  0  0  0
  151.7059  136.8133  153.7956 H   0  0  0  0  0  0  0  0  0  0  0  0
  148.5860  132.7637  152.7799 H   0  0  0  0  0  0  0  0  0  0  0  0
  149.8562  131.2417  154.7390 H   0  0  0  0  0  0  0  0  0  0  0  0
  151.5970  131.8491  156.5295 H   0  0  0  0  0  0  0  0  0  0  0  0
  150.5581  132.8895  157.5292 H   0  0  0  0  0  0  0  0  0  0  0  0
  152.0222  133.5572  156.7538 H   0  0  0  0  0  0  0  0  0  0  0  0
  152.0363  139.1635  158.3689 H   0  0  0  0  0  0  0  0  0  0  0  0
  153.5509  139.3123  160.1600 H   0  0  0  0  0  0  0  0  0  0  0  0
  153.1005  140.5209  161.3612 H   0  0  0  0  0  0  0  0  0  0  0  0
  154.4653  140.8128  160.2719 H   0  0  0  0  0  0  0  0  0  0  0  0
  149.0821  135.1675  153.4124 H   0  0  0  0  0  0  0  0  0  0  0  0
  149.5887  143.4822  156.2430 H   0  0  0  0  0  0  0  0  0  0  0  0
  1  2  1  0  0  0  0
  1 23  1  0  0  0  0
  1 24  1  0  0  0  0
  1 25  1  0  0  0  0
  2 21  1  0  0  0  0
  2  3  2  0  0  0  0
  3  4  1  0  0  0  0
  3 26  1  0  0  0  0
  4 19  2  0  0  0  0
  4  5  1  0  0  0  0
  5  6  2  0  0  0  0
  5 44  1  0  0  0  0
  6  7  1  0  0  0  0
  6 27  1  0  0  0  0
  7  8  1  0  0  0  0
  7 19  1  0  0  0  0
  8  9  1  0  0  0  0
  8 28  1  0  0  0  0
  8 29  1  0  0  0  0
  9 10  1  0  0  0  0
  9 11  1  0  0  0  0
  9 30  1  0  0  0  0
 10 31  1  0  0  0  0
 11 12  1  0  0  0  0
 11 32  1  0  0  0  0
 11 33  1  0  0  0  0
 12 13  1  0  0  0  0
 13 17  1  0  0  0  0
 13 14  2  0  0  0  0
 14 15  1  0  0  0  0
 14 43  1  0  0  0  0
 15 16  2  0  0  0  0
 15 34  1  0  0  0  0
 16 17  1  0  0  0  0
 16 35  1  0  0  0  0
 17 18  1  0  0  0  0
 18 36  1  0  0  0  0
 18 37  1  0  0  0  0
 18 38  1  0  0  0  0
 19 20  1  0  0  0  0
 20 21  2  0  0  0  0
 20 39  1  0  0  0  0
 21 22  1  0  0  0  0
 22 40  1  0  0  0  0
 22 41  1  0  0  0  0
 22 42  1  0  0  0  0
M  CHG  1   5   1
M  CHG  1  14   1
M  END
> <s_m_source_file>
AV-unprocessed.smi

> <i_m_source_file_index>
609

> <i_lp_mmshare_version>
43012

> <i_f3d_flags>
0

> <s_epik_input>
W0NIM11jKFtjSF0xKWMoW0NIM10pW2NIXWMoYzEyKW4oW2NIXW4yKVtDSDJdW0NASF0oW09IXSlbQ0gyXVNjM25bY0hdW2NIXW4zW0NIM10=

> <s_epik_cmdline>
J2VwaWtfcHl0aG9uJywgJy1waCcsICc3LjAnLCAnLXRuJywgJzgnLCAnLW1hJywgJzIwMCcsICctbWV0YWxfYmluZGluZycsICctaW1hZScsICc8aW5maWxlLm1hZT4nLCAnLW9tYWUnLCAnPG91dGZpbGUubWFlPic=

> <r_lp_tautomer_probability>
1

> <r_epik_Ionization_Penalty>
1.19058

> <r_epik_Ionization_Penalty_Charging>
1.07615

> <r_epik_Ionization_Penalty_Neutral>
0.114429

> <r_epik_State_Penalty>
1.23473

> <r_epik_Charging_Adjusted_Penalty>
2.31088

> <i_epik_Tot_Q>
2

> <i_epik_Tot_abs_Q>
2

> <r_epik_Metal_State_Penalty>
4.63867

> <b_epik_Metal_Only>
0

> <s_lp_Force_Field>
OPLS_2005

> <r_lp_Energy>
20.2349

> <b_lp_Chiralities_Consistent>
1

> <s_lp_Variant>
AV-unprocessed.smi:609-5

> <Gold.Version>
5.8.1

> <Gold.Id.Protein>
6NUR|6NUR_protein|mol2

> <Gold.PLP.Fitness>
55.8217

> <Gold.PLP.PLP>
-42.5726

> <Gold.PLP.part.hbond>
-4.0000

> <Gold.PLP.part.metal>
0.0000

> <Gold.PLP.part.buried>
-1.7417

> <Gold.PLP.part.nonpolar>
-36.6042

> <Gold.PLP.part.repulsive>
0.0886

> <Gold.PLP.ligand.clash>
0.0000

> <Gold.PLP.ligand.torsion>
0.8948

> <Gold.PLP.Chemscore.Hbond>
5.0000

> <Gold.PLP.Chemscore.CHOScore>
0.0000

> <Gold.PLP.Chemscore.Metal>
0.0000

> <Gold.Chemscore.Hbonds>
donor molecule, donor type, donor heavy atom, donor atom, acceptor molecule, acceptor atom, score
      L1  H     5    44       P1  8028  2.00
      L1  H    14    43       P1  7948  2.00
      P1  H  7989  7998       L1    10  1.00

> <Gold.PLP.Chemscore.Internal.Correction>
0.0387

> <Gold.Rescore>
     Score         DG    S(hbond)    S(metal)    S(lipo)     H(rot)  DE(clash)    DE(int)     intcor
     17.74     -20.03       2.68        0.00     104.38       2.59       0.34       1.96       ----

> <Gold.Chemscore.Fitness>
17.7365

> <Gold.Chemscore.DG>
-20.0320

> <Gold.Chemscore.ZeroCoef>
-5.4800

> <Gold.Chemscore.Hbond>
2.6827

> <Gold.Chemscore.Metal>
0.0000

> <Gold.Chemscore.Lipo>
104.3811

> <Gold.Chemscore.Internal_Hbond>
0.0000

> <Gold.Chemscore.DEClash>
0.3375

> <Gold.Chemscore.DEInternal>
1.9580

> <Gold.Chemscore.Rot>
2.5863

> <Gold.Chemscore.Internal.Correction>
   9.000000E+99

> <Gold.Chemscore.Hbonds>
donor molecule, donor type, donor heavy atom, donor atom, acceptor molecule, acceptor atom, score
      L1  H     5    44       P1  8028  0.93
      L1  H    14    43       P1  7948  0.33
      P1  H  7989  7998       L1    10  0.89

> <Gold.Chemscore.Hbond.Weighted>
-8.9603

> <Gold.Chemscore.Metal.Weighted>
-0.0000

> <Gold.Chemscore.Lipo.Weighted>
-12.2126

> <Gold.Chemscore.Internal_Hbond.Weighted>
0.0000

> <Gold.Chemscore.DEClash.Weighted>
0.3375

> <Gold.Chemscore.DEInternal.Weighted>
1.9580

> <Gold.Chemscore.Rot.Weighted>
6.6210

> <Gold.Chemscore.Internal.Correction.Weighted>
   9.000000E+99

> <Gold.Protein.RotatedTorsions>
[ 6907 6896 6895 6894 ] final   77.55 input  -60.11 | X-H torsion
[ 7974 7965 7964 7962 ] final  120.66 input  175.53 | X-H torsion
[ 8008 7997 7996 7995 ] final  -64.61 input   59.86 | X-H torsion
[ 10167 10162 10161 10158 ] final -100.62 input  -65.29 | X-H torsion
[ 10718 10713 10712 10709 ] final   65.74 input   66.30 | X-H torsion
[ 10763 10752 10751 10750 ] final  111.91 input  -60.55 | X-H torsion
[ 11005 11000 10999 10996 ] final  -12.90 input  -57.11 | X-H torsion

> <Gold.Protein.ActiveResidues>
 VAL166  LYS551  ARG553  GLY616  TRP617  ASP618  TYR619  PRO620  LYS621  CYS622 
 ASP623  PHE694  ASN695  SER759  ASP760  ASP761  ALA762  ILE779  LEU786  VAL792 
 PHE793  MET794  SER795  GLU796  ALA797  LYS798  CYS799  TRP800  GLU811  SER814 

> <Gold.Protein.RotatedAtoms>
  152.5122  134.3800  159.9347 H   0  0  0  0  0  0  0  0  0  0  0  0  # atno 6907 bound_to 6896
  151.3757  133.3833  159.2712 H   0  0  0  0  0  0  0  0  0  0  0  0  # atno 6908 bound_to 6896
  150.9544  134.8960  159.7750 H   0  0  0  0  0  0  0  0  0  0  0  0  # atno 6909 bound_to 6896
  145.1285  139.3343  143.4677 H   0  0  0  0  0  0  0  0  0  0  0  0  # atno 7974 bound_to 7965
  154.4622  140.0950  156.6924 H   0  0  0  0  0  0  0  0  0  0  0  0  # atno 8008 bound_to 7997
  155.4961  140.3472  155.4345 H   0  0  0  0  0  0  0  0  0  0  0  0  # atno 8009 bound_to 7997
  156.0891  140.1392  156.9604 H   0  0  0  0  0  0  0  0  0  0  0  0  # atno 8010 bound_to 7997
  140.2499  143.3479  152.0724 H   0  0  0  0  0  0  0  0  0  0  0  0  # atno 10167 bound_to 10162
  157.6124  130.9230  150.0016 H   0  0  0  0  0  0  0  0  0  0  0  0  # atno 10718 bound_to 10713
  153.4702  135.3702  155.2386 H   0  0  0  0  0  0  0  0  0  0  0  0  # atno 10763 bound_to 10752
  154.8757  135.3929  154.3821 H   0  0  0  0  0  0  0  0  0  0  0  0  # atno 10764 bound_to 10752
  153.4408  135.7084  153.6234 H   0  0  0  0  0  0  0  0  0  0  0  0  # atno 10765 bound_to 10752
  140.7706  133.8442  155.9203 H   0  0  0  0  0  0  0  0  0  0  0  0  # atno 11005 bound_to 11000
  146.3516  140.1274  142.8598 LP  0  0  0  0  0  0  0  0  0  0  0  0  # atno 17320 bound_to 7965
  145.0662  140.9123  143.4909 LP  0  0  0  0  0  0  0  0  0  0  0  0  # atno 17321 bound_to 7965
  139.5049  144.6785  151.6068 LP  0  0  0  0  0  0  0  0  0  0  0  0  # atno 17342 bound_to 10162
  140.6048  143.9544  150.6411 LP  0  0  0  0  0  0  0  0  0  0  0  0  # atno 17343 bound_to 10162
  156.1233  130.3645  149.9851 LP  0  0  0  0  0  0  0  0  0  0  0  0  # atno 17370 bound_to 10713
  156.7927  130.9262  151.3646 LP  0  0  0  0  0  0  0  0  0  0  0  0  # atno 17371 bound_to 10713
  140.9578  134.1695  157.4678 LP  0  0  0  0  0  0  0  0  0  0  0  0  # atno 17394 bound_to 11000
  139.8756  134.9933  156.5639 LP  0  0  0  0  0  0  0  0  0  0  0  0  # atno 17395 bound_to 11000

$$$$
