AV-unprocessed.smi:1701|AV-procd|sdf|6844|dock5
  -GOLD-   22720 8 23D 1   1.00000     0.00000
 Structure written by MMmdl.
 54 56  0  0  0  0  0  0  0  0  4 V2000
  151.9853  142.5442  161.8889 C   0  0  0  0  0  0  0  0  0  0  0  0
  152.7993  142.2388  160.6227 C   0  0  0  0  0  0  0  0  0  0  0  0
  152.0763  142.5643  159.3931 N   0  0  0  0  0  0  0  0  0  0  0  0
  151.3545  143.8390  159.3631 C   0  0  0  0  0  0  0  0  0  0  0  0
  152.2264  145.0287  159.7944 C   0  0  0  0  0  0  0  0  0  0  0  0
  151.5701  141.4726  158.6467 C   0  0  0  0  0  0  0  0  0  0  0  0
  150.3557  141.5388  157.9205 C   0  0  0  0  0  0  0  0  0  0  0  0
  149.9110  140.4192  157.1884 C   0  0  0  0  0  0  0  0  0  0  0  0
  150.6831  139.2403  157.1723 C   0  0  0  0  0  0  0  0  0  0  0  0
  150.1859  138.1305  156.4377 N   0  0  0  0  0  0  0  0  0  0  0  0
  150.8629  137.0909  155.8898 C   0  0  0  0  0  0  0  0  0  0  0  0
  152.0898  137.0698  155.9683 O   0  0  0  0  0  0  0  0  0  0  0  0
  150.1784  136.1022  155.2378 N   0  5  0  0  0  0  0  0  0  0  0  0
  149.2647  135.0850  155.7885 C   0  0  1  0  0  0  0  0  0  0  0  0
  147.8475  135.6732  155.9281 C   0  0  0  0  0  0  0  0  0  0  0  0
  147.1100  135.3137  154.6263 C   0  0  0  0  0  0  0  0  0  0  0  0
  148.0655  134.5191  153.8266 N   0  3  2  0  0  0  0  0  0  0  0  0
  147.4878  133.5770  152.8342 C   0  0  0  0  0  0  0  0  0  0  0  0
  147.0028  132.2662  153.4753 C   0  0  0  0  0  0  0  0  0  0  0  0
  148.1176  131.6286  154.3116 C   0  0  0  0  0  0  0  0  0  0  0  0
  148.5783  132.6187  155.3877 C   0  0  0  0  0  0  0  0  0  0  0  0
  149.0686  133.9538  154.7591 C   0  0  2  0  0  0  0  0  0  0  0  0
  151.8786  139.2136  157.9270 C   0  0  0  0  0  0  0  0  0  0  0  0
  152.2662  140.3091  158.6151 N   0  3  0  0  0  0  0  0  0  0  0  0
  152.5668  142.3195  162.7834 H   0  0  0  0  0  0  0  0  0  0  0  0
  151.0737  141.9474  161.9304 H   0  0  0  0  0  0  0  0  0  0  0  0
  151.7011  143.5958  161.9359 H   0  0  0  0  0  0  0  0  0  0  0  0
  153.7200  142.8225  160.6438 H   0  0  0  0  0  0  0  0  0  0  0  0
  153.1248  141.2001  160.6269 H   0  0  0  0  0  0  0  0  0  0  0  0
  150.9439  144.0118  158.3675 H   0  0  0  0  0  0  0  0  0  0  0  0
  150.4938  143.7798  160.0301 H   0  0  0  0  0  0  0  0  0  0  0  0
  151.6449  145.9508  159.7920 H   0  0  0  0  0  0  0  0  0  0  0  0
  153.0784  145.1786  159.1317 H   0  0  0  0  0  0  0  0  0  0  0  0
  152.6110  144.8850  160.8046 H   0  0  0  0  0  0  0  0  0  0  0  0
  149.7449  142.4283  157.9230 H   0  0  0  0  0  0  0  0  0  0  0  0
  148.9820  140.4705  156.6394 H   0  0  0  0  0  0  0  0  0  0  0  0
  149.1936  138.1437  156.2532 H   0  0  0  0  0  0  0  0  0  0  0  0
  149.6197  134.6872  156.7401 H   0  0  0  0  0  0  0  0  0  0  0  0
  147.3389  135.2048  156.7714 H   0  0  0  0  0  0  0  0  0  0  0  0
  147.8469  136.7476  156.1182 H   0  0  0  0  0  0  0  0  0  0  0  0
  146.2100  134.7388  154.8496 H   0  0  0  0  0  0  0  0  0  0  0  0
  146.8087  136.2012  154.0687 H   0  0  0  0  0  0  0  0  0  0  0  0
  146.6797  134.0648  152.2882 H   0  0  0  0  0  0  0  0  0  0  0  0
  148.2636  133.3505  152.1021 H   0  0  0  0  0  0  0  0  0  0  0  0
  146.1320  132.4556  154.1040 H   0  0  0  0  0  0  0  0  0  0  0  0
  146.6764  131.5732  152.6993 H   0  0  0  0  0  0  0  0  0  0  0  0
  147.7605  130.7086  154.7755 H   0  0  0  0  0  0  0  0  0  0  0  0
  148.9565  131.3535  153.6712 H   0  0  0  0  0  0  0  0  0  0  0  0
  147.7440  132.7761  156.0755 H   0  0  0  0  0  0  0  0  0  0  0  0
  149.3759  132.1637  155.9779 H   0  0  0  0  0  0  0  0  0  0  0  0
  149.9913  133.7538  154.2112 H   0  0  0  0  0  0  0  0  0  0  0  0
  152.5344  138.3609  158.0198 H   0  0  0  0  0  0  0  0  0  0  0  0
  148.5787  135.2107  153.2979 H   0  0  0  0  0  0  0  0  0  0  0  0
  153.1358  140.2549  159.1451 H   0  0  0  0  0  0  0  0  0  0  0  0
  1  2  1  0  0  0  0
  1 25  1  0  0  0  0
  1 26  1  0  0  0  0
  1 27  1  0  0  0  0
  2  3  1  0  0  0  0
  2 28  1  0  0  0  0
  2 29  1  0  0  0  0
  3  4  1  0  0  0  0
  3  6  1  0  0  0  0
  4  5  1  0  0  0  0
  4 30  1  0  0  0  0
  4 31  1  0  0  0  0
  5 32  1  0  0  0  0
  5 33  1  0  0  0  0
  5 34  1  0  0  0  0
  6 24  1  0  0  0  0
  6  7  2  0  0  0  0
  7  8  1  0  0  0  0
  7 35  1  0  0  0  0
  8  9  2  0  0  0  0
  8 36  1  0  0  0  0
  9 10  1  0  0  0  0
  9 23  1  0  0  0  0
 10 11  1  0  0  0  0
 10 37  1  0  0  0  0
 11 12  2  0  0  0  0
 11 13  1  0  0  0  0
 13 14  1  0  0  0  0
 14 22  1  0  0  0  0
 14 15  1  0  0  0  0
 14 38  1  0  0  0  0
 15 16  1  0  0  0  0
 15 39  1  0  0  0  0
 15 40  1  0  0  0  0
 16 17  1  0  0  0  0
 16 41  1  0  0  0  0
 16 42  1  0  0  0  0
 17 22  1  0  0  0  0
 17 18  1  0  0  0  0
 17 53  1  0  0  0  0
 18 19  1  0  0  0  0
 18 43  1  0  0  0  0
 18 44  1  0  0  0  0
 19 20  1  0  0  0  0
 19 45  1  0  0  0  0
 19 46  1  0  0  0  0
 20 21  1  0  0  0  0
 20 47  1  0  0  0  0
 20 48  1  0  0  0  0
 21 22  1  0  0  0  0
 21 49  1  0  0  0  0
 21 50  1  0  0  0  0
 22 51  1  0  0  0  0
 23 24  2  0  0  0  0
 23 52  1  0  0  0  0
 24 54  1  0  0  0  0
M  CHG  1  13  -1
M  CHG  1  17   1
M  CHG  1  24   1
M  END
> <s_m_source_file>
AV-unprocessed.smi

> <i_m_source_file_index>
1701

> <i_lp_mmshare_version>
43012

> <i_f3d_flags>
0

> <s_epik_input>
W0NIM11bQ0gyXU4oW0NIMl1bQ0gzXSljMVtjSF1bY0hdYyhbY0hdbjEpW05IXUMoPU8pW05IXVtDQEhdKFtDSDJdW0NIMl0yKVtDQEBIXShOMjMpW0NIMl1bQ0gyXVtDSDJdW0NIMl0z

> <s_epik_cmdline>
J2VwaWtfcHl0aG9uJywgJy1waCcsICc3LjAnLCAnLXRuJywgJzgnLCAnLW1hJywgJzIwMCcsICctbWV0YWxfYmluZGluZycsICctaW1hZScsICc8aW5maWxlLm1hZT4nLCAnLW9tYWUnLCAnPG91dGZpbGUubWFlPic=

> <r_lp_tautomer_probability>
0.999994

> <r_epik_Ionization_Penalty>
7.37095

> <r_epik_Ionization_Penalty_Charging>
7.37095

> <r_epik_Ionization_Penalty_Neutral>
3.78969e-06

> <r_epik_State_Penalty>
6.83842

> <r_epik_Charging_Adjusted_Penalty>
14.2094

> <i_epik_Tot_Q>
1

> <i_epik_Tot_abs_Q>
3

> <r_epik_Metal_State_Penalty>
2.78552

> <b_epik_Metal_Only>
1

> <s_lp_Force_Field>
OPLS_2005

> <r_lp_Energy>
52.2686

> <b_lp_Chiralities_Consistent>
1

> <s_lp_Variant>
AV-unprocessed.smi:1701-24

> <Gold.Version>
5.8.1

> <Gold.Id.Protein>
6NUR|6NUR_protein|mol2

> <Gold.PLP.Fitness>
49.2869

> <Gold.PLP.PLP>
-43.6621

> <Gold.PLP.part.hbond>
-2.0655

> <Gold.PLP.part.metal>
0.0000

> <Gold.PLP.part.buried>
-5.0404

> <Gold.PLP.part.nonpolar>
-36.8940

> <Gold.PLP.part.repulsive>
0.2905

> <Gold.PLP.ligand.clash>
0.0000

> <Gold.PLP.ligand.torsion>
1.6716

> <Gold.PLP.Chemscore.Hbond>
2.6560

> <Gold.PLP.Chemscore.CHOScore>
0.0000

> <Gold.PLP.Chemscore.Metal>
0.0000

> <Gold.Chemscore.Hbonds>
donor molecule, donor type, donor heavy atom, donor atom, acceptor molecule, acceptor atom, score
      L1  H    17    53       P1  7948  2.00
      P1  H 10752 10765       L1    12  0.81

> <Gold.PLP.Chemscore.Internal.Correction>
1.0000

> <Gold.Rescore>
     Score         DG    S(hbond)    S(metal)    S(lipo)     H(rot)  DE(clash)    DE(int)     intcor
     14.36     -17.24       1.00        0.00     100.03       1.28       0.01       2.87       ----

> <Gold.Chemscore.Fitness>
14.3642

> <Gold.Chemscore.DG>
-17.2442

> <Gold.Chemscore.ZeroCoef>
-5.4800

> <Gold.Chemscore.Hbond>
1.0020

> <Gold.Chemscore.Metal>
0.0000

> <Gold.Chemscore.Lipo>
100.0346

> <Gold.Chemscore.Internal_Hbond>
0.0000

> <Gold.Chemscore.DEClash>
0.0077

> <Gold.Chemscore.DEInternal>
2.8723

> <Gold.Chemscore.Rot>
1.2838

> <Gold.Chemscore.Internal.Correction>
   9.000000E+99

> <Gold.Chemscore.Hbonds>
donor molecule, donor type, donor heavy atom, donor atom, acceptor molecule, acceptor atom, score
      L1  H    17    53       P1  7948  0.84
      P1  H 10752 10765       L1    12  0.68

> <Gold.Chemscore.Hbond.Weighted>
-3.3467

> <Gold.Chemscore.Metal.Weighted>
-0.0000

> <Gold.Chemscore.Lipo.Weighted>
-11.7040

> <Gold.Chemscore.Internal_Hbond.Weighted>
0.0000

> <Gold.Chemscore.DEClash.Weighted>
0.0077

> <Gold.Chemscore.DEInternal.Weighted>
2.8723

> <Gold.Chemscore.Rot.Weighted>
3.2865

> <Gold.Chemscore.Internal.Correction.Weighted>
   9.000000E+99

> <Gold.Protein.RotatedTorsions>
[ 6907 6896 6895 6894 ] final -163.88 input  -60.11 | X-H torsion
[ 7974 7965 7964 7962 ] final   -7.71 input  175.53 | X-H torsion
[ 8008 7997 7996 7995 ] final  -81.77 input   59.86 | X-H torsion
[ 10167 10162 10161 10158 ] final   98.36 input  -65.29 | X-H torsion
[ 10718 10713 10712 10709 ] final   10.97 input   66.30 | X-H torsion
[ 10763 10752 10751 10750 ] final -164.11 input  -60.55 | X-H torsion
[ 11005 11000 10999 10996 ] final   81.39 input  -57.11 | X-H torsion

> <Gold.Protein.ActiveResidues>
 VAL166  LYS551  ARG553  GLY616  TRP617  ASP618  TYR619  PRO620  LYS621  CYS622 
 ASP623  PHE694  ASN695  SER759  ASP760  ASP761  ALA762  ILE779  LEU786  VAL792 
 PHE793  MET794  SER795  GLU796  ALA797  LYS798  CYS799  TRP800  GLU811  SER814 

> <Gold.Protein.RotatedAtoms>
  151.4030  133.3751  159.2734 H   0  0  0  0  0  0  0  0  0  0  0  0  # atno 6907 bound_to 6896
  150.9419  134.8828  159.7628 H   0  0  0  0  0  0  0  0  0  0  0  0  # atno 6908 bound_to 6896
  152.5075  134.3981  159.9459 H   0  0  0  0  0  0  0  0  0  0  0  0  # atno 6909 bound_to 6896
  146.2300  140.2360  142.8342 H   0  0  0  0  0  0  0  0  0  0  0  0  # atno 7974 bound_to 7965
  154.6017  140.0643  156.9377 H   0  0  0  0  0  0  0  0  0  0  0  0  # atno 8008 bound_to 7997
  155.2121  140.3323  155.4309 H   0  0  0  0  0  0  0  0  0  0  0  0  # atno 8009 bound_to 7997
  156.2322  140.1846  156.7196 H   0  0  0  0  0  0  0  0  0  0  0  0  # atno 8010 bound_to 7997
  139.7715  144.6920  151.0149 H   0  0  0  0  0  0  0  0  0  0  0  0  # atno 10167 bound_to 10162
  156.9888  130.6034  149.5684 H   0  0  0  0  0  0  0  0  0  0  0  0  # atno 10718 bound_to 10713
  154.7059  135.2997  154.9271 H   0  0  0  0  0  0  0  0  0  0  0  0  # atno 10763 bound_to 10752
  154.0188  135.6685  153.4775 H   0  0  0  0  0  0  0  0  0  0  0  0  # atno 10764 bound_to 10752
  153.0717  135.5057  154.8230 H   0  0  0  0  0  0  0  0  0  0  0  0  # atno 10765 bound_to 10752
  139.9100  134.7993  156.2035 H   0  0  0  0  0  0  0  0  0  0  0  0  # atno 11005 bound_to 11000
  144.9521  140.8189  143.5565 LP  0  0  0  0  0  0  0  0  0  0  0  0  # atno 17320 bound_to 7965
  145.2321  139.2110  143.5037 LP  0  0  0  0  0  0  0  0  0  0  0  0  # atno 17321 bound_to 7965
  140.7814  143.4583  151.0314 LP  0  0  0  0  0  0  0  0  0  0  0  0  # atno 17342 bound_to 10162
  139.8266  143.7747  152.3179 LP  0  0  0  0  0  0  0  0  0  0  0  0  # atno 17343 bound_to 10162
  156.0215  130.5310  150.8289 LP  0  0  0  0  0  0  0  0  0  0  0  0  # atno 17370 bound_to 10713
  157.5474  131.0943  150.9744 LP  0  0  0  0  0  0  0  0  0  0  0  0  # atno 17371 bound_to 10713
  141.0510  133.6889  156.1772 LP  0  0  0  0  0  0  0  0  0  0  0  0  # atno 17394 bound_to 11000
  140.6810  134.4767  157.5589 LP  0  0  0  0  0  0  0  0  0  0  0  0  # atno 17395 bound_to 11000

$$$$
