AV-unprocessed.smi:99|AV-procd|sdf|875|dock5
  -GOLD-   2262017343D 1   1.00000     0.00000
 Structure written by MMmdl.
 53 56  0  0  0  0  0  0  0  0  1 V2000
  153.4468  140.7749  158.9661 O   0  0  0  0  0  0  0  0  0  0  0  0
  152.4847  141.4795  158.6555 C   0  0  0  0  0  0  0  0  0  0  0  0
  151.4789  141.0675  157.8636 O   0  0  0  0  0  0  0  0  0  0  0  0
  151.2914  139.6895  157.5752 C   0  0  0  0  0  0  0  0  0  0  0  0
  151.0164  139.5126  156.0727 C   0  0  2  0  0  0  0  0  0  0  0  0
  150.3436  140.6485  155.5471 O   0  0  0  0  0  0  0  0  0  0  0  0
  149.4432  140.2804  154.5475 C   0  0  2  0  0  0  0  0  0  0  0  0
  148.0877  140.8460  154.9485 N   0  0  0  0  0  0  0  0  0  0  0  0
  147.9015  141.7272  156.0106 C   0  0  0  0  0  0  0  0  0  0  0  0
  146.7156  142.3152  156.2945 C   0  0  0  0  0  0  0  0  0  0  0  0
  145.5454  142.0628  155.4635 C   0  0  0  0  0  0  0  0  0  0  0  0
  144.4303  142.5475  155.6420 O   0  0  0  0  0  0  0  0  0  0  0  0
  145.7772  141.2031  154.3885 N   0  0  0  0  0  0  0  0  0  0  0  0
  146.9971  140.5993  154.0812 C   0  0  0  0  0  0  0  0  0  0  0  0
  147.0877  139.8887  153.0806 O   0  0  0  0  0  0  0  0  0  0  0  0
  149.5018  138.7440  154.3847 C   0  0  1  0  0  0  0  0  0  0  0  0
  150.2493  138.3639  153.2467 O   0  0  0  0  0  0  0  0  0  0  0  0
  150.2167  138.2731  155.6479 C   0  0  2  0  0  0  0  0  0  0  0  0
  149.2792  137.8721  156.6408 O   0  0  0  0  0  0  0  0  0  0  0  0
  148.7666  136.6229  156.6584 C   0  0  0  0  0  0  0  0  0  0  0  0
  148.6708  135.9060  155.6608 O   0  0  0  0  0  0  0  0  0  0  0  0
  148.3330  136.1998  158.0202 C   0  0  0  0  0  0  0  0  0  0  0  0
  148.5953  137.0396  159.1273 C   0  0  0  0  0  0  0  0  0  0  0  0
  148.1897  136.6639  160.4230 C   0  0  0  0  0  0  0  0  0  0  0  0
  147.5211  135.4426  160.6275 C   0  0  0  0  0  0  0  0  0  0  0  0
  147.2620  134.5948  159.5351 C   0  0  0  0  0  0  0  0  0  0  0  0
  147.6668  134.9698  158.2401 C   0  0  0  0  0  0  0  0  0  0  0  0
  152.2934  142.8772  159.1373 C   0  0  0  0  0  0  0  0  0  0  0  0
  152.2892  143.1385  160.5268 C   0  0  0  0  0  0  0  0  0  0  0  0
  152.0860  144.4461  161.0089 C   0  0  0  0  0  0  0  0  0  0  0  0
  151.8889  145.5080  160.1071 C   0  0  0  0  0  0  0  0  0  0  0  0
  151.8988  145.2621  158.7220 C   0  0  0  0  0  0  0  0  0  0  0  0
  152.1020  143.9554  158.2381 C   0  0  0  0  0  0  0  0  0  0  0  0
  144.9999  141.0142  153.7724 H   0  0  0  0  0  0  0  0  0  0  0  0
  152.1963  139.1508  157.8576 H   0  0  0  0  0  0  0  0  0  0  0  0
  150.4663  139.2684  158.1516 H   0  0  0  0  0  0  0  0  0  0  0  0
  151.9752  139.4627  155.5553 H   0  0  0  0  0  0  0  0  0  0  0  0
  149.6902  140.7776  153.6071 H   0  0  0  0  0  0  0  0  0  0  0  0
  148.7114  141.9852  156.6680 H   0  0  0  0  0  0  0  0  0  0  0  0
  146.6349  142.9856  157.1381 H   0  0  0  0  0  0  0  0  0  0  0  0
  148.5178  138.3014  154.2416 H   0  0  0  0  0  0  0  0  0  0  0  0
  149.9000  137.5509  152.9149 H   0  0  0  0  0  0  0  0  0  0  0  0
  150.9038  137.4505  155.4421 H   0  0  0  0  0  0  0  0  0  0  0  0
  149.1045  137.9834  158.9937 H   0  0  0  0  0  0  0  0  0  0  0  0
  148.3911  137.3150  161.2608 H   0  0  0  0  0  0  0  0  0  0  0  0
  147.2092  135.1554  161.6209 H   0  0  0  0  0  0  0  0  0  0  0  0
  146.7518  133.6551  159.6887 H   0  0  0  0  0  0  0  0  0  0  0  0
  147.4599  134.2946  157.4244 H   0  0  0  0  0  0  0  0  0  0  0  0
  152.4312  142.3372  161.2376 H   0  0  0  0  0  0  0  0  0  0  0  0
  152.0788  144.6334  162.0726 H   0  0  0  0  0  0  0  0  0  0  0  0
  151.7319  146.5105  160.4775 H   0  0  0  0  0  0  0  0  0  0  0  0
  151.7498  146.0768  158.0287 H   0  0  0  0  0  0  0  0  0  0  0  0
  152.1039  143.8003  157.1690 H   0  0  0  0  0  0  0  0  0  0  0  0
  1  2  2  0  0  0  0
  2  3  1  0  0  0  0
  2 28  1  0  0  0  0
  3  4  1  0  0  0  0
  4  5  1  0  0  0  0
  4 35  1  0  0  0  0
  4 36  1  0  0  0  0
  5 18  1  0  0  0  0
  5  6  1  0  0  0  0
  5 37  1  0  0  0  0
  6  7  1  0  0  0  0
  7  8  1  0  0  0  0
  7 16  1  0  0  0  0
  7 38  1  0  0  0  0
  8 14  1  0  0  0  0
  8  9  1  0  0  0  0
  9 10  2  0  0  0  0
  9 39  1  0  0  0  0
 10 11  1  0  0  0  0
 10 40  1  0  0  0  0
 11 12  2  0  0  0  0
 11 13  1  0  0  0  0
 13 34  1  0  0  0  0
 13 14  1  0  0  0  0
 14 15  2  0  0  0  0
 16 17  1  0  0  0  0
 16 18  1  0  0  0  0
 16 41  1  0  0  0  0
 17 42  1  0  0  0  0
 18 19  1  0  0  0  0
 18 43  1  0  0  0  0
 19 20  1  0  0  0  0
 20 21  2  0  0  0  0
 20 22  1  0  0  0  0
 22 27  1  0  0  0  0
 22 23  2  0  0  0  0
 23 24  1  0  0  0  0
 23 44  1  0  0  0  0
 24 25  2  0  0  0  0
 24 45  1  0  0  0  0
 25 26  1  0  0  0  0
 25 46  1  0  0  0  0
 26 27  2  0  0  0  0
 26 47  1  0  0  0  0
 27 48  1  0  0  0  0
 28 33  1  0  0  0  0
 28 29  2  0  0  0  0
 29 30  1  0  0  0  0
 29 49  1  0  0  0  0
 30 31  2  0  0  0  0
 30 50  1  0  0  0  0
 31 32  1  0  0  0  0
 31 51  1  0  0  0  0
 32 33  2  0  0  0  0
 32 52  1  0  0  0  0
 33 53  1  0  0  0  0
M  END
> <s_m_source_file>
AV-unprocessed.smi

> <i_m_source_file_index>
99

> <i_lp_mmshare_version>
43012

> <i_f3d_flags>
0

> <s_epik_input>
W2NIXTFbY0hdW2NIXVtjSF1bY0hdYzFDKD1PKU9bQ0gyXVtDQEBIXTJPW0NAQEhdKG4zW2NIXVtjSF1jKD1PKVtuSF1jMz1PKVtDQEBIXShbT0hdKVtDQEhdMk9DKD1PKWM0W2NIXVtjSF1bY0hdW2NIXVtjSF00

> <s_epik_cmdline>
J2VwaWtfcHl0aG9uJywgJy1waCcsICc3LjAnLCAnLXRuJywgJzgnLCAnLW1hJywgJzIwMCcsICctbWV0YWxfYmluZGluZycsICctaW1hZScsICc8aW5maWxlLm1hZT4nLCAnLW9tYWUnLCAnPG91dGZpbGUubWFlPic=

> <r_lp_tautomer_probability>
1

> <r_epik_Ionization_Penalty>
0.00454555

> <r_epik_Ionization_Penalty_Charging>
0.0045191

> <r_epik_Ionization_Penalty_Neutral>
2.64449e-05

> <r_epik_State_Penalty>
-0

> <r_epik_Charging_Adjusted_Penalty>
0.0045191

> <i_epik_Tot_Q>
0

> <i_epik_Tot_abs_Q>
0

> <r_epik_Metal_State_Penalty>
1.27877

> <b_epik_Metal_Only>
0

> <s_epik_Chemistry_Notes>
This compound has an ester and may undergo hydrolysis at high or low pH. This compound contains an acetal/aminal-like group ( X-CH(R)-Y where X, Y are N, S, or O) that may be acid/base labile, releasing an aldehyde.

> <s_lp_Force_Field>
OPLS_2005

> <r_lp_Energy>
29.5489

> <b_lp_Chiralities_Consistent>
1

> <s_lp_Variant>
AV-unprocessed.smi:99-11

> <Gold.Version>
5.8.1

> <Gold.Id.Protein>
6NUR|6NUR_protein|mol2

> <Gold.PLP.Fitness>
55.1531

> <Gold.PLP.PLP>
-52.8609

> <Gold.PLP.part.hbond>
-5.0565

> <Gold.PLP.part.metal>
0.0000

> <Gold.PLP.part.buried>
-3.6518

> <Gold.PLP.part.nonpolar>
-42.7609

> <Gold.PLP.part.repulsive>
0.4704

> <Gold.PLP.ligand.clash>
0.0000

> <Gold.PLP.ligand.torsion>
2.5415

> <Gold.PLP.Chemscore.Hbond>
2.3276

> <Gold.PLP.Chemscore.CHOScore>
0.0000

> <Gold.PLP.Chemscore.Metal>
0.0000

> <Gold.Chemscore.Hbonds>
donor molecule, donor type, donor heavy atom, donor atom, acceptor molecule, acceptor atom, score
      L1  H    13    34       P1 10175  1.00
      L1  H    17    42       P1  7948  1.00
      P1  H  7997  8008       L1     1  0.17
      L1  C     9    39       P1  8028  0.01

> <Gold.PLP.Chemscore.Internal.Correction>
0.3924

> <Gold.Rescore>
     Score         DG    S(hbond)    S(metal)    S(lipo)     H(rot)  DE(clash)    DE(int)     intcor
     14.26     -18.82       2.18        0.00     121.63       3.19       0.92       3.64       ----

> <Gold.Chemscore.Fitness>
14.2564

> <Gold.Chemscore.DG>
-18.8156

> <Gold.Chemscore.ZeroCoef>
-5.4800

> <Gold.Chemscore.Hbond>
2.1772

> <Gold.Chemscore.Metal>
0.0000

> <Gold.Chemscore.Lipo>
121.6317

> <Gold.Chemscore.Internal_Hbond>
0.0000

> <Gold.Chemscore.DEClash>
0.9151

> <Gold.Chemscore.DEInternal>
3.6440

> <Gold.Chemscore.Rot>
3.1903

> <Gold.Chemscore.Internal.Correction>
   9.000000E+99

> <Gold.Chemscore.Hbonds>
donor molecule, donor type, donor heavy atom, donor atom, acceptor molecule, acceptor atom, score
      L1  H    13    34       P1 10175  0.78
      L1  H    17    42       P1  7948  0.30
      P1  H  7997  8008       L1     1  0.16

> <Gold.Chemscore.Hbond.Weighted>
-7.2717

> <Gold.Chemscore.Metal.Weighted>
-0.0000

> <Gold.Chemscore.Lipo.Weighted>
-14.2309

> <Gold.Chemscore.Internal_Hbond.Weighted>
0.0000

> <Gold.Chemscore.DEClash.Weighted>
0.9151

> <Gold.Chemscore.DEInternal.Weighted>
3.6440

> <Gold.Chemscore.Rot.Weighted>
8.1671

> <Gold.Chemscore.Internal.Correction.Weighted>
   9.000000E+99

> <Gold.Protein.RotatedTorsions>
[ 6907 6896 6895 6894 ] final  -95.65 input  -60.11 | X-H torsion
[ 7974 7965 7964 7962 ] final -103.15 input  175.53 | X-H torsion
[ 8008 7997 7996 7995 ] final  -96.86 input   59.86 | X-H torsion
[ 10167 10162 10161 10158 ] final -105.47 input  -65.29 | X-H torsion
[ 10718 10713 10712 10709 ] final  -53.75 input   66.30 | X-H torsion
[ 10763 10752 10751 10750 ] final  149.93 input  -60.55 | X-H torsion
[ 11005 11000 10999 10996 ] final   21.24 input  -57.11 | X-H torsion

> <Gold.Protein.ActiveResidues>
 VAL166  LYS551  ARG553  GLY616  TRP617  ASP618  TYR619  PRO620  LYS621  CYS622 
 ASP623  PHE694  ASN695  SER759  ASP760  ASP761  ALA762  ILE779  LEU786  VAL792 
 PHE793  MET794  SER795  GLU796  ALA797  LYS798  CYS799  TRP800  GLU811  SER814 

> <Gold.Protein.RotatedAtoms>
  150.6969  134.1625  159.4181 H   0  0  0  0  0  0  0  0  0  0  0  0  # atno 6907 bound_to 6896
  151.9605  135.0123  160.0556 H   0  0  0  0  0  0  0  0  0  0  0  0  # atno 6908 bound_to 6896
  152.1931  133.4752  159.5055 H   0  0  0  0  0  0  0  0  0  0  0  0  # atno 6909 bound_to 6896
  145.2596  140.9265  143.3048 H   0  0  0  0  0  0  0  0  0  0  0  0  # atno 7974 bound_to 7965
  154.7801  140.0468  157.1120 H   0  0  0  0  0  0  0  0  0  0  0  0  # atno 8008 bound_to 7997
  154.9715  140.3090  155.4966 H   0  0  0  0  0  0  0  0  0  0  0  0  # atno 8009 bound_to 7997
  156.2935  140.2252  156.4808 H   0  0  0  0  0  0  0  0  0  0  0  0  # atno 8010 bound_to 7997
  140.1982  143.3839  152.1151 H   0  0  0  0  0  0  0  0  0  0  0  0  # atno 10167 bound_to 10162
  156.1508  130.4151  149.9948 H   0  0  0  0  0  0  0  0  0  0  0  0  # atno 10718 bound_to 10713
  154.0792  135.2861  155.3293 H   0  0  0  0  0  0  0  0  0  0  0  0  # atno 10763 bound_to 10752
  154.6695  135.5304  153.8123 H   0  0  0  0  0  0  0  0  0  0  0  0  # atno 10764 bound_to 10752
  153.0455  135.6554  154.0968 H   0  0  0  0  0  0  0  0  0  0  0  0  # atno 10765 bound_to 10752
  140.3937  134.1792  155.7663 H   0  0  0  0  0  0  0  0  0  0  0  0  # atno 11005 bound_to 11000
  144.9430  139.4167  143.6439 LP  0  0  0  0  0  0  0  0  0  0  0  0  # atno 17320 bound_to 7965
  146.3279  139.8400  142.8892 LP  0  0  0  0  0  0  0  0  0  0  0  0  # atno 17321 bound_to 7965
  139.5228  144.7063  151.5344 LP  0  0  0  0  0  0  0  0  0  0  0  0  # atno 17342 bound_to 10162
  140.6409  143.8892  150.6690 LP  0  0  0  0  0  0  0  0  0  0  0  0  # atno 17343 bound_to 10162
  156.7806  130.9220  151.3646 LP  0  0  0  0  0  0  0  0  0  0  0  0  # atno 17370 bound_to 10713
  157.6655  130.9004  149.9923 LP  0  0  0  0  0  0  0  0  0  0  0  0  # atno 17371 bound_to 10713
  141.1882  133.8266  157.1005 LP  0  0  0  0  0  0  0  0  0  0  0  0  # atno 17394 bound_to 11000
  140.0387  134.9865  157.0921 LP  0  0  0  0  0  0  0  0  0  0  0  0  # atno 17395 bound_to 11000

$$$$
