AV-unprocessed.smi:2674|AV-procd|sdf|10358|dock5
  -GOLD-   2272014383D 1   1.00000     0.00000
 Structure written by MMmdl.
 45 46  0  0  0  0  0  0  0  0  2 V2000
  147.1880  141.6486  153.5750 C   0  0  0  0  0  0  0  0  0  0  0  0
  148.1862  140.5489  153.5902 N   0  3  2  0  0  0  0  0  0  0  0  0
  147.5162  139.2266  153.7201 C   0  0  0  0  0  0  0  0  0  0  0  0
  146.7075  138.8807  152.4568 C   0  0  0  0  0  0  0  0  0  0  0  0
  146.8951  137.4899  152.0603 N   0  0  0  0  0  0  0  0  0  0  0  0
  145.9028  136.6074  151.8739 C   0  0  0  0  0  0  0  0  0  0  0  0
  144.7126  136.8925  152.0099 O   0  0  0  0  0  0  0  0  0  0  0  0
  146.3809  135.3996  151.5260 N   0  0  0  0  0  0  0  0  0  0  0  0
  145.6497  134.2175  151.2331 C   0  0  0  0  0  0  0  0  0  0  0  0
  146.4252  133.0388  151.1497 C   0  0  0  0  0  0  0  0  0  0  0  0
  145.7943  131.8133  150.8610 C   0  0  0  0  0  0  0  0  0  0  0  0
  144.4024  131.7979  150.6623 C   0  0  0  0  0  0  0  0  0  0  0  0
  143.7049  133.0156  150.7622 C   0  0  0  0  0  0  0  0  0  0  0  0
  144.3074  134.1916  151.0388 N   0  0  0  0  0  0  0  0  0  0  0  0
  149.3200  140.7258  154.5526 C   0  0  0  0  0  0  0  0  0  0  0  0
  150.1608  139.4408  154.7800 C   0  0  0  0  0  0  0  0  0  0  0  0
  151.2905  139.6616  155.7997 C   0  0  0  0  0  0  0  0  0  0  0  0
  150.7448  140.1722  157.1391 C   0  0  0  0  0  0  0  0  0  0  0  0
  149.9163  141.4473  156.9372 C   0  0  0  0  0  0  0  0  0  0  0  0
  148.7863  141.2206  155.9211 C   0  0  0  0  0  0  0  0  0  0  0  0
  146.7653  141.8066  154.5680 H   0  0  0  0  0  0  0  0  0  0  0  0
  146.3662  141.4235  152.8952 H   0  0  0  0  0  0  0  0  0  0  0  0
  147.6272  142.5834  153.2273 H   0  0  0  0  0  0  0  0  0  0  0  0
  148.2464  138.4372  153.8937 H   0  0  0  0  0  0  0  0  0  0  0  0
  146.8739  139.2183  154.6026 H   0  0  0  0  0  0  0  0  0  0  0  0
  145.6428  139.0369  152.6285 H   0  0  0  0  0  0  0  0  0  0  0  0
  146.9878  139.5405  151.6336 H   0  0  0  0  0  0  0  0  0  0  0  0
  147.8453  137.1750  151.9288 H   0  0  0  0  0  0  0  0  0  0  0  0
  147.3845  135.3139  151.4630 H   0  0  0  0  0  0  0  0  0  0  0  0
  147.4941  133.0680  151.3052 H   0  0  0  0  0  0  0  0  0  0  0  0
  146.3692  130.9014  150.7932 H   0  0  0  0  0  0  0  0  0  0  0  0
  143.8830  130.8776  150.4393 H   0  0  0  0  0  0  0  0  0  0  0  0
  142.6353  133.0469  150.6162 H   0  0  0  0  0  0  0  0  0  0  0  0
  149.9910  141.4808  154.1383 H   0  0  0  0  0  0  0  0  0  0  0  0
  149.5169  138.6308  155.1261 H   0  0  0  0  0  0  0  0  0  0  0  0
  150.6196  139.1042  153.8503 H   0  0  0  0  0  0  0  0  0  0  0  0
  151.8386  138.7319  155.9542 H   0  0  0  0  0  0  0  0  0  0  0  0
  152.0081  140.3794  155.4002 H   0  0  0  0  0  0  0  0  0  0  0  0
  150.1274  139.4014  157.6024 H   0  0  0  0  0  0  0  0  0  0  0  0
  151.5672  140.3664  157.8282 H   0  0  0  0  0  0  0  0  0  0  0  0
  149.4990  141.7718  157.8907 H   0  0  0  0  0  0  0  0  0  0  0  0
  150.5626  142.2552  156.5916 H   0  0  0  0  0  0  0  0  0  0  0  0
  148.2257  142.1493  155.8203 H   0  0  0  0  0  0  0  0  0  0  0  0
  148.0833  140.4898  156.3238 H   0  0  0  0  0  0  0  0  0  0  0  0
  148.6150  140.5568  152.6756 H   0  0  0  0  0  0  0  0  0  0  0  0
  1  2  1  0  0  0  0
  1 21  1  0  0  0  0
  1 22  1  0  0  0  0
  1 23  1  0  0  0  0
  2  3  1  0  0  0  0
  2 15  1  0  0  0  0
  2 45  1  0  0  0  0
  3  4  1  0  0  0  0
  3 24  1  0  0  0  0
  3 25  1  0  0  0  0
  4  5  1  0  0  0  0
  4 26  1  0  0  0  0
  4 27  1  0  0  0  0
  5  6  1  0  0  0  0
  5 28  1  0  0  0  0
  6  7  2  0  0  0  0
  6  8  1  0  0  0  0
  8  9  1  0  0  0  0
  8 29  1  0  0  0  0
  9 14  1  0  0  0  0
  9 10  2  0  0  0  0
 10 11  1  0  0  0  0
 10 30  1  0  0  0  0
 11 12  2  0  0  0  0
 11 31  1  0  0  0  0
 12 13  1  0  0  0  0
 12 32  1  0  0  0  0
 13 14  2  0  0  0  0
 13 33  1  0  0  0  0
 15 20  1  0  0  0  0
 15 16  1  0  0  0  0
 15 34  1  0  0  0  0
 16 17  1  0  0  0  0
 16 35  1  0  0  0  0
 16 36  1  0  0  0  0
 17 18  1  0  0  0  0
 17 37  1  0  0  0  0
 17 38  1  0  0  0  0
 18 19  1  0  0  0  0
 18 39  1  0  0  0  0
 18 40  1  0  0  0  0
 19 20  1  0  0  0  0
 19 41  1  0  0  0  0
 19 42  1  0  0  0  0
 20 43  1  0  0  0  0
 20 44  1  0  0  0  0
M  CHG  1   2   1
M  END
> <s_m_source_file>
AV-unprocessed.smi

> <i_m_source_file_index>
2674

> <i_lp_mmshare_version>
43012

> <i_f3d_flags>
0

> <s_epik_input>
W0NIMl0xW0NIMl1bQ0gyXVtDSDJdW0NIMl1bQ0hdMU4oW0NIM10pW0NIMl1bQ0gyXVtOSF1DKD1PKVtOSF1jMltjSF1bY0hdW2NIXVtjSF1uMg==

> <s_epik_cmdline>
J2VwaWtfcHl0aG9uJywgJy1waCcsICc3LjAnLCAnLXRuJywgJzgnLCAnLW1hJywgJzIwMCcsICctbWV0YWxfYmluZGluZycsICctaW1hZScsICc8aW5maWxlLm1hZT4nLCAnLW9tYWUnLCAnPG91dGZpbGUubWFlPic=

> <r_epik_Ionization_Penalty>
0.00206741

> <r_epik_Ionization_Penalty_Charging>
0.00203269

> <r_epik_Ionization_Penalty_Neutral>
3.47205e-05

> <r_epik_State_Penalty>
0.00139005

> <r_epik_Charging_Adjusted_Penalty>
0.00342273

> <i_epik_Tot_Q>
1

> <i_epik_Tot_abs_Q>
1

> <r_epik_Metal_State_Penalty>
-0

> <b_epik_Metal_Only>
0

> <s_lp_Force_Field>
OPLS_2005

> <r_lp_Energy>
21.2235

> <b_lp_Chiralities_Consistent>
1

> <s_lp_Variant>
AV-unprocessed.smi:2674-1

> <Gold.Version>
5.8.1

> <Gold.Id.Protein>
6NUR|6NUR_protein|mol2

> <Gold.PLP.Fitness>
50.2873

> <Gold.PLP.PLP>
-40.4258

> <Gold.PLP.part.hbond>
-2.8156

> <Gold.PLP.part.metal>
0.0000

> <Gold.PLP.part.buried>
-3.3061

> <Gold.PLP.part.nonpolar>
-34.9413

> <Gold.PLP.part.repulsive>
1.0178

> <Gold.PLP.ligand.clash>
0.0000

> <Gold.PLP.ligand.torsion>
0.8051

> <Gold.PLP.Chemscore.Hbond>
2.8000

> <Gold.PLP.Chemscore.CHOScore>
0.9925

> <Gold.PLP.Chemscore.Metal>
0.0000

> <Gold.Chemscore.Hbonds>
donor molecule, donor type, donor heavy atom, donor atom, acceptor molecule, acceptor atom, score
      L1  H     2    45       P1  7957  1.00
      L1  H     5    28       P1  7948  0.76
      L1  H     8    29       P1  7948  0.86
      L1  C    13    33       P1 10186  1.00

> <Gold.PLP.Chemscore.Internal.Correction>
0.0943

> <Gold.Rescore>
     Score         DG    S(hbond)    S(metal)    S(lipo)     H(rot)  DE(clash)    DE(int)     intcor
     18.68     -20.54       2.73        0.00      88.13       1.70       0.15       1.71       ----

> <Gold.Chemscore.Fitness>
18.6810

> <Gold.Chemscore.DG>
-20.5393

> <Gold.Chemscore.ZeroCoef>
-5.4800

> <Gold.Chemscore.Hbond>
2.7268

> <Gold.Chemscore.Metal>
0.0000

> <Gold.Chemscore.Lipo>
88.1319

> <Gold.Chemscore.Internal_Hbond>
0.0000

> <Gold.Chemscore.DEClash>
0.1483

> <Gold.Chemscore.DEInternal>
1.7100

> <Gold.Chemscore.Rot>
1.7030

> <Gold.Chemscore.Internal.Correction>
   9.000000E+99

> <Gold.Chemscore.Hbonds>
donor molecule, donor type, donor heavy atom, donor atom, acceptor molecule, acceptor atom, score
      L1  H     2    45       P1  7957  1.00
      L1  H     5    28       P1  7948  0.74
      L1  H     8    29       P1  7948  0.72

> <Gold.Chemscore.Hbond.Weighted>
-9.1075

> <Gold.Chemscore.Metal.Weighted>
-0.0000

> <Gold.Chemscore.Lipo.Weighted>
-10.3114

> <Gold.Chemscore.Internal_Hbond.Weighted>
0.0000

> <Gold.Chemscore.DEClash.Weighted>
0.1483

> <Gold.Chemscore.DEInternal.Weighted>
1.7100

> <Gold.Chemscore.Rot.Weighted>
4.3597

> <Gold.Chemscore.Internal.Correction.Weighted>
   9.000000E+99

> <Gold.Protein.RotatedTorsions>
[ 6907 6896 6895 6894 ] final -149.51 input  -60.11 | X-H torsion
[ 7974 7965 7964 7962 ] final   95.53 input  175.53 | X-H torsion
[ 8008 7997 7996 7995 ] final -111.24 input   59.86 | X-H torsion
[ 10167 10162 10161 10158 ] final  -44.83 input  -65.29 | X-H torsion
[ 10718 10713 10712 10709 ] final -117.61 input   66.30 | X-H torsion
[ 10763 10752 10751 10750 ] final  169.92 input  -60.55 | X-H torsion
[ 11005 11000 10999 10996 ] final  131.77 input  -57.11 | X-H torsion

> <Gold.Protein.ActiveResidues>
 VAL166  LYS551  ARG553  GLY616  TRP617  ASP618  TYR619  PRO620  LYS621  CYS622 
 ASP623  PHE694  ASN695  SER759  ASP760  ASP761  ALA762  ILE779  LEU786  VAL792 
 PHE793  MET794  SER795  GLU796  ALA797  LYS798  CYS799  TRP800  GLU811  SER814 

> <Gold.Protein.RotatedAtoms>
  151.1852  133.4700  159.2594 H   0  0  0  0  0  0  0  0  0  0  0  0  # atno 6907 bound_to 6896
  151.1219  135.0083  159.8552 H   0  0  0  0  0  0  0  0  0  0  0  0  # atno 6908 bound_to 6896
  152.5456  134.1763  159.8670 H   0  0  0  0  0  0  0  0  0  0  0  0  # atno 6909 bound_to 6896
  145.4510  139.2293  143.3040 H   0  0  0  0  0  0  0  0  0  0  0  0  # atno 7974 bound_to 7965
  154.9868  140.0395  157.2302 H   0  0  0  0  0  0  0  0  0  0  0  0  # atno 8008 bound_to 7997
  154.7664  140.2794  155.6150 H   0  0  0  0  0  0  0  0  0  0  0  0  # atno 8009 bound_to 7997
  156.2913  140.2618  156.2455 H   0  0  0  0  0  0  0  0  0  0  0  0  # atno 8010 bound_to 7997
  140.6882  143.2910  151.3552 H   0  0  0  0  0  0  0  0  0  0  0  0  # atno 10167 bound_to 10162
  156.1046  130.6200  150.9186 H   0  0  0  0  0  0  0  0  0  0  0  0  # atno 10718 bound_to 10713
  154.3902  135.2754  155.2159 H   0  0  0  0  0  0  0  0  0  0  0  0  # atno 10763 bound_to 10752
  154.4229  135.5996  153.6024 H   0  0  0  0  0  0  0  0  0  0  0  0  # atno 10764 bound_to 10752
  152.9832  135.5977  154.4156 H   0  0  0  0  0  0  0  0  0  0  0  0  # atno 10765 bound_to 10752
  139.9750  134.9566  156.9487 H   0  0  0  0  0  0  0  0  0  0  0  0  # atno 11005 bound_to 11000
  146.2504  140.5269  142.8896 LP  0  0  0  0  0  0  0  0  0  0  0  0  # atno 17320 bound_to 7965
  144.8062  140.6303  143.6446 LP  0  0  0  0  0  0  0  0  0  0  0  0  # atno 17321 bound_to 7965
  139.6259  144.0816  152.2433 LP  0  0  0  0  0  0  0  0  0  0  0  0  # atno 17342 bound_to 10162
  140.0275  144.6106  150.7515 LP  0  0  0  0  0  0  0  0  0  0  0  0  # atno 17343 bound_to 10162
  157.6221  131.0929  150.8602 LP  0  0  0  0  0  0  0  0  0  0  0  0  # atno 17370 bound_to 10713
  156.8724  130.5151  149.5296 LP  0  0  0  0  0  0  0  0  0  0  0  0  # atno 17371 bound_to 10713
  140.5213  134.0904  155.7293 LP  0  0  0  0  0  0  0  0  0  0  0  0  # atno 17394 bound_to 11000
  141.1428  133.9108  157.2287 LP  0  0  0  0  0  0  0  0  0  0  0  0  # atno 17395 bound_to 11000

$$$$
