#       Name:                AV-unprocessed.smi:540
#       Creating user name   scv26
#       Creation time:       Thu Mar 26 23:36:11 2020


#       File generated by GOLD software.
#

@<TRIPOS>MOLECULE
AV-unprocessed.smi:540
    56    58     1
SMALL
NO_CHARGES


@<TRIPOS>ATOM
      1 ****        -3.0016   2.3575  -3.6538 C.3            1 S1                 0.0000
      2 ****        -2.6192   1.1765  -2.7590 C.3            1 S1                 0.0000
      3 ****        -1.2191   1.2021  -2.5395 O.3            1 S1                 0.0000
      4 ****        -0.7767   0.1447  -1.7063 C.3            1 S1                 0.0000
      5 ****         0.7310   0.2978  -1.4741 C.3            1 S1                 0.0000
      6 ****         1.2286  -0.6921  -0.5226 N.pl3          1 S1                 0.0000
      7 ****         1.1598  -0.6699   0.8379 C.2            1 S1                 0.0000
      8 ****         0.5841   0.3901   1.5421 N.pl3          1 S1                 0.0000
      9 ****         0.9774   1.7976   1.4778 C.3            1 S1                 0.0000
     10 ****        -0.2283   2.7088   1.1853 C.3            1 S1                 0.0000
     11 ****        -1.3185   2.5323   2.2567 C.3            1 S1                 0.0000
     12 ****        -2.5730   3.3558   1.9338 C.3            1 S1                 0.0000
     13 ****        -1.6411   1.0361   2.4187 C.3            1 S1                 0.0000
     14 ****        -0.3600   0.2126   2.6434 C.3            1 S1                 0.0000
     15 ****         1.6379  -1.7647   1.4356 N.2            1 S1                 0.0000
     16 ****         2.0705  -2.5416   0.3726 C.2            1 S1                 0.0000
     17 ****         1.8217  -1.9239  -0.8105 C.2            1 S1                 0.0000
     18 ****         2.1349  -2.5505  -2.1034 C.2            1 S1                 0.0000
     19 ****         1.8944  -2.0291  -3.1898 O.2            1 S1                 0.0000
     20 ****         2.7098  -3.7712  -1.9783 N.am           1 S1                 0.0000
     21 ****         2.9950  -4.4420  -0.8212 C.2            1 S1                 0.0000
     22 ****         3.5164  -5.5561  -0.8684 O.2            1 S1                 0.0000
     23 ****         2.6762  -3.8306   0.3641 N.am           1 S1                 0.0000
     24 ****         2.9487  -4.5070   1.6338 C.3            1 S1                 0.0000
     25 ****         2.9487  -4.2428  -2.8383 H              1 S1                 0.0000
     26 ****        -4.0750   2.3709  -3.8438 H              1 S1                 0.0000
     27 ****        -2.4920   2.3007  -4.6160 H              1 S1                 0.0000
     28 ****        -2.7325   3.3050  -3.1864 H              1 S1                 0.0000
     29 ****        -3.1509   1.2447  -1.8086 H              1 S1                 0.0000
     30 ****        -2.9084   0.2379  -3.2344 H              1 S1                 0.0000
     31 ****        -1.3077   0.1788  -0.7540 H              1 S1                 0.0000
     32 ****        -0.9923  -0.8192  -2.1700 H              1 S1                 0.0000
     33 ****         1.2709   0.2174  -2.4150 H              1 S1                 0.0000
     34 ****         0.9558   1.2980  -1.1176 H              1 S1                 0.0000
     35 ****         1.4248   2.0787   2.4322 H              1 S1                 0.0000
     36 ****         1.7633   1.9410   0.7374 H              1 S1                 0.0000
     37 ****         0.0970   3.7489   1.1505 H              1 S1                 0.0000
     38 ****        -0.6366   2.4802   0.2005 H              1 S1                 0.0000
     39 ****        -0.9180   2.8925   3.2055 H              1 S1                 0.0000
     40 ****        -3.0216   3.0417   0.9907 H              1 S1                 0.0000
     41 ****        -2.3349   4.4167   1.8527 H              1 S1                 0.0000
     42 ****        -3.3258   3.2456   2.7147 H              1 S1                 0.0000
     43 ****        -2.3248   0.8896   3.2554 H              1 S1                 0.0000
     44 ****        -2.1567   0.6690   1.5302 H              1 S1                 0.0000
     45 ****        -0.6191  -0.8425   2.7371 H              1 S1                 0.0000
     46 ****         0.1176   0.4987   3.5814 H              1 S1                 0.0000
     47 ****         3.9895  -4.8305   1.6862 H              1 S1                 0.0000
     48 ****         2.3128  -5.3869   1.7379 H              1 S1                 0.0000
     49 ****         2.7690  -3.8658   2.4967 H              1 S1                 0.0000
     50 ****        -0.9788   2.0715  -2.1078 LP             1 S1                 0.0000
     51 ****        -0.7555   1.1290  -3.4225 LP             1 S1                 0.0000
     52 ****         1.6747  -1.9732   2.4129 LP             1 S1                 0.0000
     53 ****         1.4617  -1.1283  -3.2272 LP             1 S1                 0.0000
     54 ****         2.1313  -2.5056  -4.0365 LP             1 S1                 0.0000
     55 ****         3.7313  -5.9705  -1.7527 LP             1 S1                 0.0000
     56 ****         3.7250  -6.0468  -0.0224 LP             1 S1                 0.0000
@<TRIPOS>BOND
    1    1    2 1     
    2    1   26 1     
    3    1   27 1     
    4    1   28 1     
    5    2    3 1     
    6    2   29 1     
    7    2   30 1     
    8    3    4 1     
    9    4    5 1     
   10    4   31 1     
   11    4   32 1     
   12    5    6 1     
   13    5   33 1     
   14    5   34 1     
   15    6   17 1     
   16    6    7 1     
   17    7    8 1     
   18    7   15 2     
   19    8   14 1     
   20    8    9 1     
   21    9   10 1     
   22    9   35 1     
   23    9   36 1     
   24   10   11 1     
   25   10   37 1     
   26   10   38 1     
   27   11   12 1     
   28   11   13 1     
   29   11   39 1     
   30   12   40 1     
   31   12   41 1     
   32   12   42 1     
   33   13   14 1     
   34   13   43 1     
   35   13   44 1     
   36   14   45 1     
   37   14   46 1     
   38   15   16 1     
   39   16   23 1     
   40   16   17 2     
   41   17   18 1     
   42   18   19 2     
   43   18   20 1     
   44   20   25 1     
   45   20   21 1     
   46   21   22 2     
   47   21   23 1     
   48   23   24 1     
   49   24   47 1     
   50   24   48 1     
   51   24   49 1     
   52    3   50 1     
   53    3   51 1     
   54   15   52 1     
   55   19   53 1     
   56   19   54 1     
   57   22   55 1     
   58   22   56 1     
@<TRIPOS>SUBSTRUCTURE
      1 S1             1
@<TRIPOS>SET
LONE_PAIRS      STATIC     ATOMS    <user>   **** ""
7 50 51 52 53 54 55 56
DONOR_HYDROGENS      STATIC     ATOMS    <user>   **** ""
1 25
ATOM$BLUE        STATIC     ATOMS    COLORGROUP SYSTEM
7 50 51 52 53 54 55 56
ATOM$RED        STATIC     ATOMS    COLORGROUP SYSTEM
1 25
