AV-unprocessed.smi:2252|AV-procd|sdf|9113|dock9
  -GOLD-   2272012313D 1   1.00000     0.00000
 Structure written by MMmdl.
 44 46  0  0  0  0  0  0  0  0  1 V2000
  151.6007  145.4359  160.0758 C   0  0  0  0  0  0  0  0  0  0  0  0
  152.1457  144.1830  160.5624 N   0  0  0  0  0  0  0  0  0  0  0  0
  152.4873  143.8979  161.8779 C   0  0  0  0  0  0  0  0  0  0  0  0
  152.9519  142.6050  161.8927 C   0  0  0  0  0  0  0  0  0  0  0  0
  152.9058  142.0830  160.6043 N   0  0  0  0  0  0  0  0  0  0  0  0
  152.4253  143.0710  159.8553 C   0  0  0  0  0  0  0  0  0  0  0  0
  152.1839  142.9562  158.3825 C   0  0  0  0  0  0  0  0  0  0  0  0
  150.7014  142.7254  158.0464 C   0  0  0  0  0  0  0  0  0  0  0  0
  150.5271  142.3154  156.6585 N   0  0  0  0  0  0  0  0  0  0  0  0
  149.5802  141.4701  156.2219 C   0  0  0  0  0  0  0  0  0  0  0  0
  148.7624  140.9307  156.9687 O   0  0  0  0  0  0  0  0  0  0  0  0
  149.5563  141.1803  154.7105 C   0  0  2  0  0  0  0  0  0  0  0  0
  148.1945  141.6146  154.1256 C   0  0  0  0  0  0  0  0  0  0  0  0
  146.8957  141.1928  154.7801 C   0  0  0  0  0  0  0  0  0  0  0  0
  147.2856  140.6061  153.4505 C   0  0  0  0  0  0  0  0  0  0  0  0
  149.8399  139.7587  154.3934 N   0  0  0  0  0  0  0  0  0  0  0  0
  149.0098  138.7888  155.1065 C   0  0  0  0  0  0  0  0  0  0  0  0
  149.7292  137.4560  154.8913 C   0  0  0  0  0  0  0  0  0  0  0  0
  151.1768  137.8372  154.5965 C   0  0  0  0  0  0  0  0  0  0  0  0
  151.2067  139.3604  154.7158 C   0  0  0  0  0  0  0  0  0  0  0  0
  151.3385  146.0822  160.9138 H   0  0  0  0  0  0  0  0  0  0  0  0
  150.7049  145.2482  159.4833 H   0  0  0  0  0  0  0  0  0  0  0  0
  152.3408  145.9430  159.4566 H   0  0  0  0  0  0  0  0  0  0  0  0
  152.3723  144.6182  162.6744 H   0  0  0  0  0  0  0  0  0  0  0  0
  153.3122  142.0154  162.7227 H   0  0  0  0  0  0  0  0  0  0  0  0
  152.5574  143.8519  157.8852 H   0  0  0  0  0  0  0  0  0  0  0  0
  152.7815  142.1283  157.9987 H   0  0  0  0  0  0  0  0  0  0  0  0
  150.2919  141.9445  158.6878 H   0  0  0  0  0  0  0  0  0  0  0  0
  150.1175  143.6264  158.2434 H   0  0  0  0  0  0  0  0  0  0  0  0
  151.1634  142.7092  155.9804 H   0  0  0  0  0  0  0  0  0  0  0  0
  150.3365  141.7931  154.2538 H   0  0  0  0  0  0  0  0  0  0  0  0
  148.2067  142.6015  153.6652 H   0  0  0  0  0  0  0  0  0  0  0  0
  146.9533  140.5433  155.6513 H   0  0  0  0  0  0  0  0  0  0  0  0
  146.0843  141.9175  154.7932 H   0  0  0  0  0  0  0  0  0  0  0  0
  146.7360  140.9377  152.5719 H   0  0  0  0  0  0  0  0  0  0  0  0
  147.5977  139.5635  153.4383 H   0  0  0  0  0  0  0  0  0  0  0  0
  148.9828  139.0305  156.1707 H   0  0  0  0  0  0  0  0  0  0  0  0
  147.9843  138.7606  154.7366 H   0  0  0  0  0  0  0  0  0  0  0  0
  149.6433  136.8116  155.7666 H   0  0  0  0  0  0  0  0  0  0  0  0
  149.3020  136.9215  154.0419 H   0  0  0  0  0  0  0  0  0  0  0  0
  151.8796  137.3644  155.2833 H   0  0  0  0  0  0  0  0  0  0  0  0
  151.4442  137.5311  153.5842 H   0  0  0  0  0  0  0  0  0  0  0  0
  151.9405  139.8088  154.0453 H   0  0  0  0  0  0  0  0  0  0  0  0
  151.4556  139.6508  155.7384 H   0  0  0  0  0  0  0  0  0  0  0  0
  1  2  1  0  0  0  0
  1 21  1  0  0  0  0
  1 22  1  0  0  0  0
  1 23  1  0  0  0  0
  2  6  1  0  0  0  0
  2  3  1  0  0  0  0
  3  4  2  0  0  0  0
  3 24  1  0  0  0  0
  4  5  1  0  0  0  0
  4 25  1  0  0  0  0
  5  6  2  0  0  0  0
  6  7  1  0  0  0  0
  7  8  1  0  0  0  0
  7 26  1  0  0  0  0
  7 27  1  0  0  0  0
  8  9  1  0  0  0  0
  8 28  1  0  0  0  0
  8 29  1  0  0  0  0
  9 10  1  0  0  0  0
  9 30  1  0  0  0  0
 10 11  2  0  0  0  0
 10 12  1  0  0  0  0
 12 13  1  0  0  0  0
 12 16  1  0  0  0  0
 12 31  1  0  0  0  0
 13 15  1  0  0  0  0
 13 14  1  0  0  0  0
 13 32  1  0  0  0  0
 14 15  1  0  0  0  0
 14 33  1  0  0  0  0
 14 34  1  0  0  0  0
 15 35  1  0  0  0  0
 15 36  1  0  0  0  0
 16 20  1  0  0  0  0
 16 17  1  0  0  0  0
 17 18  1  0  0  0  0
 17 37  1  0  0  0  0
 17 38  1  0  0  0  0
 18 19  1  0  0  0  0
 18 39  1  0  0  0  0
 18 40  1  0  0  0  0
 19 20  1  0  0  0  0
 19 41  1  0  0  0  0
 19 42  1  0  0  0  0
 20 43  1  0  0  0  0
 20 44  1  0  0  0  0
M  END
> <s_m_source_file>
AV-unprocessed.smi

> <i_m_source_file_index>
2252

> <i_lp_mmshare_version>
43012

> <i_f3d_flags>
0

> <s_epik_input>
W0NIM11uMVtjSF1bY0hdbmMxW0NIMl1bQ0gyXVtOSF1DKD1PKVtDQEhdKFtDSF0yW0NIMl1bQ0gyXTIpTjNbQ0gyXVtDSDJdW0NIMl1bQ0gyXTM=

> <s_epik_cmdline>
J2VwaWtfcHl0aG9uJywgJy1waCcsICc3LjAnLCAnLXRuJywgJzgnLCAnLW1hJywgJzIwMCcsICctbWV0YWxfYmluZGluZycsICctaW1hZScsICc8aW5maWxlLm1hZT4nLCAnLW9tYWUnLCAnPG91dGZpbGUubWFlPic=

> <r_epik_Ionization_Penalty>
3.7689

> <r_epik_Ionization_Penalty_Charging>
1.29411

> <r_epik_Ionization_Penalty_Neutral>
2.4748

> <r_epik_State_Penalty>
3.85943

> <r_epik_Charging_Adjusted_Penalty>
5.15353

> <i_epik_Tot_Q>
0

> <i_epik_Tot_abs_Q>
0

> <r_epik_Metal_State_Penalty>
2.88358

> <b_epik_Metal_Only>
1

> <s_lp_Force_Field>
OPLS_2005

> <r_lp_Energy>
30.6984

> <b_lp_Chiralities_Consistent>
1

> <s_lp_Variant>
AV-unprocessed.smi:2252-11

> <Gold.Version>
5.8.1

> <Gold.Id.Protein>
6NUR|6NUR_protein|mol2

> <Gold.PLP.Fitness>
45.6774

> <Gold.PLP.PLP>
-47.2924

> <Gold.PLP.part.hbond>
-1.0904

> <Gold.PLP.part.metal>
0.0000

> <Gold.PLP.part.buried>
-5.1044

> <Gold.PLP.part.nonpolar>
-41.0855

> <Gold.PLP.part.repulsive>
0.2383

> <Gold.PLP.ligand.clash>
0.0000

> <Gold.PLP.ligand.torsion>
1.3991

> <Gold.PLP.Chemscore.Hbond>
0.0000

> <Gold.PLP.Chemscore.CHOScore>
0.0000

> <Gold.PLP.Chemscore.Metal>
0.0000

> <Gold.PLP.Chemscore.Internal.Correction>
1.1831

> <Gold.Rescore>
     Score         DG    S(hbond)    S(metal)    S(lipo)     H(rot)  DE(clash)    DE(int)     intcor
      8.43     -13.28       0.00        0.00     107.42       1.86       0.20       4.65       ----

> <Gold.Chemscore.Fitness>
8.4288

> <Gold.Chemscore.DG>
-13.2814

> <Gold.Chemscore.ZeroCoef>
-5.4800

> <Gold.Chemscore.Hbond>
0.0000

> <Gold.Chemscore.Metal>
0.0000

> <Gold.Chemscore.Lipo>
107.4182

> <Gold.Chemscore.Internal_Hbond>
0.0000

> <Gold.Chemscore.DEClash>
0.1984

> <Gold.Chemscore.DEInternal>
4.6542

> <Gold.Chemscore.Rot>
1.8619

> <Gold.Chemscore.Internal.Correction>
   9.000000E+99

> <Gold.Chemscore.Hbond.Weighted>
-0.0000

> <Gold.Chemscore.Metal.Weighted>
-0.0000

> <Gold.Chemscore.Lipo.Weighted>
-12.5679

> <Gold.Chemscore.Internal_Hbond.Weighted>
0.0000

> <Gold.Chemscore.DEClash.Weighted>
0.1984

> <Gold.Chemscore.DEInternal.Weighted>
4.6542

> <Gold.Chemscore.Rot.Weighted>
4.7665

> <Gold.Chemscore.Internal.Correction.Weighted>
   9.000000E+99

> <Gold.Protein.RotatedTorsions>
[ 6907 6896 6895 6894 ] final  -18.77 input  -60.11 | X-H torsion
[ 7974 7965 7964 7962 ] final   71.73 input  175.53 | X-H torsion
[ 8008 7997 7996 7995 ] final  -70.52 input   59.86 | X-H torsion
[ 10167 10162 10161 10158 ] final  176.74 input  -65.29 | X-H torsion
[ 10718 10713 10712 10709 ] final   88.90 input   66.30 | X-H torsion
[ 10763 10752 10751 10750 ] final   -4.36 input  -60.55 | X-H torsion
[ 11005 11000 10999 10996 ] final  135.49 input  -57.11 | X-H torsion

> <Gold.Protein.ActiveResidues>
 VAL166  LYS551  ARG553  GLY616  TRP617  ASP618  TYR619  PRO620  LYS621  CYS622 
 ASP623  PHE694  ASN695  SER759  ASP760  ASP761  ALA762  ILE779  LEU786  VAL792 
 PHE793  MET794  SER795  GLU796  ALA797  LYS798  CYS799  TRP800  GLU811  SER814 

> <Gold.Protein.RotatedAtoms>
  151.2732  135.0691  159.9141 H   0  0  0  0  0  0  0  0  0  0  0  0  # atno 6907 bound_to 6896
  152.5347  134.0108  159.7948 H   0  0  0  0  0  0  0  0  0  0  0  0  # atno 6908 bound_to 6896
  151.0350  133.5706  159.2688 H   0  0  0  0  0  0  0  0  0  0  0  0  # atno 6909 bound_to 6896
  145.7622  139.2806  143.1369 H   0  0  0  0  0  0  0  0  0  0  0  0  # atno 7974 bound_to 7965
  154.5018  140.0833  156.7813 H   0  0  0  0  0  0  0  0  0  0  0  0  # atno 8008 bound_to 7997
  155.3985  140.3436  155.4237 H   0  0  0  0  0  0  0  0  0  0  0  0  # atno 8009 bound_to 7997
  156.1466  140.1545  156.8825 H   0  0  0  0  0  0  0  0  0  0  0  0  # atno 8010 bound_to 7997
  139.5226  144.2879  152.0489 H   0  0  0  0  0  0  0  0  0  0  0  0  # atno 10167 bound_to 10162
  157.6952  131.0312  150.3344 H   0  0  0  0  0  0  0  0  0  0  0  0  # atno 10718 bound_to 10713
  153.3839  135.6999  153.6545 H   0  0  0  0  0  0  0  0  0  0  0  0  # atno 10763 bound_to 10752
  153.5145  135.3625  155.2603 H   0  0  0  0  0  0  0  0  0  0  0  0  # atno 10764 bound_to 10752
  154.8695  135.4143  154.3142 H   0  0  0  0  0  0  0  0  0  0  0  0  # atno 10765 bound_to 10752
  139.9983  134.9488  157.0015 H   0  0  0  0  0  0  0  0  0  0  0  0  # atno 11005 bound_to 11000
  146.0253  140.8310  142.9903 LP  0  0  0  0  0  0  0  0  0  0  0  0  # atno 17320 bound_to 7965
  144.6828  140.2688  143.7309 LP  0  0  0  0  0  0  0  0  0  0  0  0  # atno 17321 bound_to 7965
  140.2332  144.4347  150.6291 LP  0  0  0  0  0  0  0  0  0  0  0  0  # atno 17342 bound_to 10162
  140.6341  143.2192  151.6432 LP  0  0  0  0  0  0  0  0  0  0  0  0  # atno 17343 bound_to 10162
  156.3813  130.3881  149.7099 LP  0  0  0  0  0  0  0  0  0  0  0  0  # atno 17370 bound_to 10713
  156.4480  130.7893  151.2914 LP  0  0  0  0  0  0  0  0  0  0  0  0  # atno 17371 bound_to 10713
  140.4776  134.1322  155.7212 LP  0  0  0  0  0  0  0  0  0  0  0  0  # atno 17394 bound_to 11000
  141.1622  133.8771  157.1816 LP  0  0  0  0  0  0  0  0  0  0  0  0  # atno 17395 bound_to 11000

$$$$
