AV-unprocessed.smi:292|AV-procd|sdf|2250|dock10
  -GOLD-   2262022133D 1   1.00000     0.00000
 Structure written by MMmdl.
 33 34  0  0  0  0  0  0  0  0  1 V2000
  151.3114  133.1892  157.3087 N   0  0  0  0  0  0  0  0  0  0  0  0
  151.0455  134.1852  156.7827 C   0  0  0  0  0  0  0  0  0  0  0  0
  150.7118  135.4357  156.1220 C   0  0  0  0  0  0  0  0  0  0  0  0
  149.4430  135.6988  155.6935 N   0  0  0  0  0  0  0  0  0  0  0  0
  149.6449  136.9072  155.1828 C   0  0  0  0  0  0  0  0  0  0  0  0
  150.9068  137.3378  155.2871 N   0  0  0  0  0  0  0  0  0  0  0  0
  151.5201  138.5789  154.8468 C   0  0  0  0  0  0  0  0  0  0  0  0
  152.1017  139.3597  156.0268 C   0  0  0  0  0  0  0  0  0  0  0  0
  153.0463  138.8965  156.6655 O   0  0  0  0  0  0  0  0  0  0  0  0
  151.5292  140.5426  156.3020 N   0  0  0  0  0  0  0  0  0  0  0  0
  151.8832  141.4323  157.4079 C   0  0  1  0  0  0  0  0  0  0  0  0
  151.0635  142.7387  157.3240 C   0  0  0  0  0  0  0  0  0  0  0  0
  151.7065  143.9262  158.0583 C   0  0  0  0  0  0  0  0  0  0  0  0
  151.8540  143.7437  159.5765 C   0  0  0  0  0  0  0  0  0  0  0  0
  152.8234  142.6166  159.9733 C   0  0  0  0  0  0  0  0  0  0  0  0
  152.2194  141.2940  159.8678 N   0  0  0  0  0  0  0  0  0  0  0  0
  151.7668  140.6953  158.7556 C   0  0  0  0  0  0  0  0  0  0  0  0
  151.2603  139.5748  158.8116 O   0  0  0  0  0  0  0  0  0  0  0  0
  151.6305  136.3757  155.9100 N   0  0  0  0  0  0  0  0  0  0  0  0
  148.8610  137.4870  154.7179 H   0  0  0  0  0  0  0  0  0  0  0  0
  152.3063  138.3428  154.1283 H   0  0  0  0  0  0  0  0  0  0  0  0
  150.7806  139.1909  154.3281 H   0  0  0  0  0  0  0  0  0  0  0  0
  150.7566  140.8377  155.7217 H   0  0  0  0  0  0  0  0  0  0  0  0
  152.9397  141.6799  157.2880 H   0  0  0  0  0  0  0  0  0  0  0  0
  150.9476  143.0299  156.2792 H   0  0  0  0  0  0  0  0  0  0  0  0
  150.0516  142.5714  157.6959 H   0  0  0  0  0  0  0  0  0  0  0  0
  152.6830  144.1375  157.6204 H   0  0  0  0  0  0  0  0  0  0  0  0
  151.1016  144.8146  157.8732 H   0  0  0  0  0  0  0  0  0  0  0  0
  152.2306  144.6791  159.9913 H   0  0  0  0  0  0  0  0  0  0  0  0
  150.8779  143.5854  160.0370 H   0  0  0  0  0  0  0  0  0  0  0  0
  153.7433  142.6633  159.3890 H   0  0  0  0  0  0  0  0  0  0  0  0
  153.1170  142.7490  161.0150 H   0  0  0  0  0  0  0  0  0  0  0  0
  152.1272  140.7790  160.7316 H   0  0  0  0  0  0  0  0  0  0  0  0
  1  2  3  0  0  0  0
  2  3  1  0  0  0  0
  3 19  2  0  0  0  0
  3  4  1  0  0  0  0
  4  5  2  0  0  0  0
  5  6  1  0  0  0  0
  5 20  1  0  0  0  0
  6  7  1  0  0  0  0
  6 19  1  0  0  0  0
  7  8  1  0  0  0  0
  7 21  1  0  0  0  0
  7 22  1  0  0  0  0
  8  9  2  0  0  0  0
  8 10  1  0  0  0  0
 10 11  1  0  0  0  0
 10 23  1  0  0  0  0
 11 17  1  0  0  0  0
 11 12  1  0  0  0  0
 11 24  1  0  0  0  0
 12 13  1  0  0  0  0
 12 25  1  0  0  0  0
 12 26  1  0  0  0  0
 13 14  1  0  0  0  0
 13 27  1  0  0  0  0
 13 28  1  0  0  0  0
 14 15  1  0  0  0  0
 14 29  1  0  0  0  0
 14 30  1  0  0  0  0
 15 16  1  0  0  0  0
 15 31  1  0  0  0  0
 15 32  1  0  0  0  0
 16 17  1  0  0  0  0
 16 33  1  0  0  0  0
 17 18  2  0  0  0  0
M  END
> <s_m_source_file>
AV-unprocessed.smi

> <i_m_source_file_index>
292

> <i_lp_mmshare_version>
43012

> <i_f3d_flags>
0

> <s_epik_input>
TiNDYzFuW2NIXW4objEpW0NIMl1DKD1PKVtOSF1bQ0BASF0yW0NIMl1bQ0gyXVtDSDJdW0NIMl1bTkhdQzI9Tw==

> <s_epik_cmdline>
J2VwaWtfcHl0aG9uJywgJy1waCcsICc3LjAnLCAnLXRuJywgJzgnLCAnLW1hJywgJzIwMCcsICctbWV0YWxfYmluZGluZycsICctaW1hZScsICc8aW5maWxlLm1hZT4nLCAnLW9tYWUnLCAnPG91dGZpbGUubWFlPic=

> <r_lp_tautomer_probability>
1

> <r_epik_Ionization_Penalty>
1.99744e-07

> <r_epik_Ionization_Penalty_Charging>
0

> <r_epik_Ionization_Penalty_Neutral>
1.99744e-07

> <r_epik_State_Penalty>
-0

> <r_epik_Charging_Adjusted_Penalty>
0

> <i_epik_Tot_Q>
0

> <i_epik_Tot_abs_Q>
0

> <r_epik_Metal_State_Penalty>
-0

> <b_epik_Metal_Only>
0

> <s_lp_Force_Field>
OPLS_2005

> <r_lp_Energy>
14.2569

> <b_lp_Chiralities_Consistent>
1

> <s_lp_Variant>
AV-unprocessed.smi:292-2

> <Gold.Version>
5.8.1

> <Gold.Id.Protein>
6NUR|6NUR_protein|mol2

> <Gold.PLP.Fitness>
40.4658

> <Gold.PLP.PLP>
-32.6135

> <Gold.PLP.part.hbond>
-3.0000

> <Gold.PLP.part.metal>
0.0000

> <Gold.PLP.part.buried>
-5.9095

> <Gold.PLP.part.nonpolar>
-24.8409

> <Gold.PLP.part.repulsive>
0.4405

> <Gold.PLP.ligand.clash>
0.0000

> <Gold.PLP.ligand.torsion>
0.0437

> <Gold.PLP.Chemscore.Hbond>
2.6370

> <Gold.PLP.Chemscore.CHOScore>
0.0000

> <Gold.PLP.Chemscore.Metal>
0.0000

> <Gold.Chemscore.Hbonds>
donor molecule, donor type, donor heavy atom, donor atom, acceptor molecule, acceptor atom, score
      P1  H  6896  6908       L1     1  0.80
      P1  H  7997  8010       L1     9  0.98
      P1  H 10752 10764       L1    19  1.00

> <Gold.PLP.Chemscore.Internal.Correction>
0.0286

> <Gold.Rescore>
     Score         DG    S(hbond)    S(metal)    S(lipo)     H(rot)  DE(clash)    DE(int)     intcor
     12.98     -13.51       1.91        0.00      61.08       2.14       0.04       0.49       ----

> <Gold.Chemscore.Fitness>
12.9783

> <Gold.Chemscore.DG>
-13.5114

> <Gold.Chemscore.ZeroCoef>
-5.4800

> <Gold.Chemscore.Hbond>
1.9085

> <Gold.Chemscore.Metal>
0.0000

> <Gold.Chemscore.Lipo>
61.0819

> <Gold.Chemscore.Internal_Hbond>
0.0000

> <Gold.Chemscore.DEClash>
0.0402

> <Gold.Chemscore.DEInternal>
0.4929

> <Gold.Chemscore.Rot>
2.1444

> <Gold.Chemscore.Internal.Correction>
   9.000000E+99

> <Gold.Chemscore.Hbonds>
donor molecule, donor type, donor heavy atom, donor atom, acceptor molecule, acceptor atom, score
      P1  H  6896  6908       L1     1  0.56
      P1  H  7997  8010       L1     9  0.28
      P1  H 10752 10764       L1    19  0.54

> <Gold.Chemscore.Hbond.Weighted>
-6.3745

> <Gold.Chemscore.Metal.Weighted>
-0.0000

> <Gold.Chemscore.Lipo.Weighted>
-7.1466

> <Gold.Chemscore.Internal_Hbond.Weighted>
0.0000

> <Gold.Chemscore.DEClash.Weighted>
0.0402

> <Gold.Chemscore.DEInternal.Weighted>
0.4929

> <Gold.Chemscore.Rot.Weighted>
5.4896

> <Gold.Chemscore.Internal.Correction.Weighted>
   9.000000E+99

> <Gold.Protein.RotatedTorsions>
[ 6907 6896 6895 6894 ] final   86.80 input  -60.11 | X-H torsion
[ 7974 7965 7964 7962 ] final  152.54 input  175.53 | X-H torsion
[ 8008 7997 7996 7995 ] final   83.62 input   59.86 | X-H torsion
[ 10167 10162 10161 10158 ] final   29.38 input  -65.29 | X-H torsion
[ 10718 10713 10712 10709 ] final   58.57 input   66.30 | X-H torsion
[ 10763 10752 10751 10750 ] final  -35.87 input  -60.55 | X-H torsion
[ 11005 11000 10999 10996 ] final  109.99 input  -57.11 | X-H torsion

> <Gold.Protein.ActiveResidues>
 VAL166  LYS551  ARG553  GLY616  TRP617  ASP618  TYR619  PRO620  LYS621  CYS622 
 ASP623  PHE694  ASN695  SER759  ASP760  ASP761  ALA762  ILE779  LEU786  VAL792 
 PHE793  MET794  SER795  GLU796  ALA797  LYS798  CYS799  TRP800  GLU811  SER814 

> <Gold.Protein.RotatedAtoms>
  152.5401  134.2374  159.8848 H   0  0  0  0  0  0  0  0  0  0  0  0  # atno 6907 bound_to 6896
  151.2343  133.4426  159.2612 H   0  0  0  0  0  0  0  0  0  0  0  0  # atno 6908 bound_to 6896
  151.0686  134.9797  159.8353 H   0  0  0  0  0  0  0  0  0  0  0  0  # atno 6909 bound_to 6896
  144.8215  139.6682  143.6098 H   0  0  0  0  0  0  0  0  0  0  0  0  # atno 7974 bound_to 7965
  155.9264  140.3418  155.6213 H   0  0  0  0  0  0  0  0  0  0  0  0  # atno 8008 bound_to 7997
  155.7211  140.0783  157.2349 H   0  0  0  0  0  0  0  0  0  0  0  0  # atno 8009 bound_to 7997
  154.4078  140.1605  156.2390 H   0  0  0  0  0  0  0  0  0  0  0  0  # atno 8010 bound_to 7997
  140.4771  144.0673  150.6254 H   0  0  0  0  0  0  0  0  0  0  0  0  # atno 10167 bound_to 10162
  157.5607  130.8833  149.9106 H   0  0  0  0  0  0  0  0  0  0  0  0  # atno 10718 bound_to 10713
  153.8704  135.6831  153.4775 H   0  0  0  0  0  0  0  0  0  0  0  0  # atno 10763 bound_to 10752
  153.1291  135.4706  154.9317 H   0  0  0  0  0  0  0  0  0  0  0  0  # atno 10764 bound_to 10752
  154.7717  135.3240  154.8126 H   0  0  0  0  0  0  0  0  0  0  0  0  # atno 10765 bound_to 10752
  139.8873  134.9472  156.6210 H   0  0  0  0  0  0  0  0  0  0  0  0  # atno 11005 bound_to 11000
  146.2521  139.6222  142.9420 LP  0  0  0  0  0  0  0  0  0  0  0  0  # atno 17320 bound_to 7965
  145.5094  141.0436  143.2496 LP  0  0  0  0  0  0  0  0  0  0  0  0  # atno 17321 bound_to 7965
  140.3905  143.2755  152.0066 LP  0  0  0  0  0  0  0  0  0  0  0  0  # atno 17342 bound_to 10162
  139.4827  144.6081  151.7484 LP  0  0  0  0  0  0  0  0  0  0  0  0  # atno 17343 bound_to 10162
  156.0660  130.3692  150.0878 LP  0  0  0  0  0  0  0  0  0  0  0  0  # atno 17370 bound_to 10713
  156.9042  130.9630  151.3572 LP  0  0  0  0  0  0  0  0  0  0  0  0  # atno 17371 bound_to 10713
  140.7739  133.8715  155.8513 LP  0  0  0  0  0  0  0  0  0  0  0  0  # atno 17394 bound_to 11000
  140.9818  134.1395  157.4487 LP  0  0  0  0  0  0  0  0  0  0  0  0  # atno 17395 bound_to 11000

$$$$
