AV-unprocessed.smi:3061|AV-procd|sdf|11682|dock2
  -GOLD-   2272017 83D 1   1.00000     0.00000
 Structure written by MMmdl.
 35 36  0  0  0  0  0  0  0  0  1 V2000
  147.4010  142.0212  155.5921 C   0  0  0  0  0  0  0  0  0  0  0  0
  148.6691  141.1668  155.7348 C   0  0  1  0  0  0  0  0  0  0  0  0
  149.0713  140.5142  154.3985 C   0  0  0  0  0  0  0  0  0  0  0  0
  150.1791  139.5885  154.5545 N   0  0  0  0  0  0  0  0  0  0  0  0
  150.2384  138.2686  154.3713 C   0  0  0  0  0  0  0  0  0  0  0  0
  151.4288  137.7456  154.6301 N   0  0  0  0  0  0  0  0  0  0  0  0
  152.1023  138.8783  154.9909 C   0  0  0  0  0  0  0  0  0  0  0  0
  151.3992  140.0104  154.9627 N   0  0  0  0  0  0  0  0  0  0  0  0
  149.7660  141.9903  156.2386 N   0  0  0  0  0  0  0  0  0  0  0  0
  150.4761  141.7501  157.3510 C   0  0  0  0  0  0  0  0  0  0  0  0
  150.2466  140.8089  158.1112 O   0  0  0  0  0  0  0  0  0  0  0  0
  151.6318  142.7192  157.6441 C   0  0  1  0  0  0  0  0  0  0  0  0
  151.1256  144.1613  157.8513 C   0  0  0  0  0  0  0  0  0  0  0  0
  151.4038  144.4420  159.3186 C   0  0  0  0  0  0  0  0  0  0  0  0
  151.0482  145.4769  159.8799 O   0  0  0  0  0  0  0  0  0  0  0  0
  152.0628  143.4265  159.8832 N   0  0  0  0  0  0  0  0  0  0  0  0
  152.4882  143.3571  161.2744 C   0  0  0  0  0  0  0  0  0  0  0  0
  152.3790  142.3612  158.9476 C   0  0  0  0  0  0  0  0  0  0  0  0
  146.5636  141.4219  155.2342 H   0  0  0  0  0  0  0  0  0  0  0  0
  147.5500  142.8397  154.8870 H   0  0  0  0  0  0  0  0  0  0  0  0
  147.1086  142.4545  156.5491 H   0  0  0  0  0  0  0  0  0  0  0  0
  148.4560  140.3657  156.4454 H   0  0  0  0  0  0  0  0  0  0  0  0
  148.2289  139.9603  153.9825 H   0  0  0  0  0  0  0  0  0  0  0  0
  149.3395  141.2735  153.6618 H   0  0  0  0  0  0  0  0  0  0  0  0
  149.3931  137.6786  154.0488 H   0  0  0  0  0  0  0  0  0  0  0  0
  153.1418  138.8682  155.2839 H   0  0  0  0  0  0  0  0  0  0  0  0
  150.0300  142.7855  155.6747 H   0  0  0  0  0  0  0  0  0  0  0  0
  152.3342  142.6964  156.8089 H   0  0  0  0  0  0  0  0  0  0  0  0
  151.6847  144.8660  157.2349 H   0  0  0  0  0  0  0  0  0  0  0  0
  150.0643  144.2915  157.6325 H   0  0  0  0  0  0  0  0  0  0  0  0
  153.1744  144.1725  161.5051 H   0  0  0  0  0  0  0  0  0  0  0  0
  152.9984  142.4164  161.4831 H   0  0  0  0  0  0  0  0  0  0  0  0
  151.6288  143.4314  161.9413 H   0  0  0  0  0  0  0  0  0  0  0  0
  152.0848  141.3930  159.3573 H   0  0  0  0  0  0  0  0  0  0  0  0
  153.4568  142.3337  158.7817 H   0  0  0  0  0  0  0  0  0  0  0  0
  1  2  1  0  0  0  0
  1 19  1  0  0  0  0
  1 20  1  0  0  0  0
  1 21  1  0  0  0  0
  2  3  1  0  0  0  0
  2  9  1  0  0  0  0
  2 22  1  0  0  0  0
  3  4  1  0  0  0  0
  3 23  1  0  0  0  0
  3 24  1  0  0  0  0
  4  8  1  0  0  0  0
  4  5  1  0  0  0  0
  5  6  2  0  0  0  0
  5 25  1  0  0  0  0
  6  7  1  0  0  0  0
  7  8  2  0  0  0  0
  7 26  1  0  0  0  0
  9 10  1  0  0  0  0
  9 27  1  0  0  0  0
 10 11  2  0  0  0  0
 10 12  1  0  0  0  0
 12 18  1  0  0  0  0
 12 13  1  0  0  0  0
 12 28  1  0  0  0  0
 13 14  1  0  0  0  0
 13 29  1  0  0  0  0
 13 30  1  0  0  0  0
 14 15  2  0  0  0  0
 14 16  1  0  0  0  0
 16 17  1  0  0  0  0
 16 18  1  0  0  0  0
 17 31  1  0  0  0  0
 17 32  1  0  0  0  0
 17 33  1  0  0  0  0
 18 34  1  0  0  0  0
 18 35  1  0  0  0  0
M  END
> <s_m_source_file>
AV-unprocessed.smi

> <i_m_source_file_index>
3061

> <i_lp_mmshare_version>
43012

> <i_f3d_flags>
0

> <s_epik_input>
bjFbY0hdbltjSF1uMVtDSDJdW0NAQEhdKFtDSDNdKVtOSF1DKD1PKVtDQEBIXTJbQ0gyXUMoPU8pTihbQ0gzXSlbQ0gyXTI=

> <s_epik_cmdline>
J2VwaWtfcHl0aG9uJywgJy1waCcsICc3LjAnLCAnLXRuJywgJzgnLCAnLW1hJywgJzIwMCcsICctbWV0YWxfYmluZGluZycsICctaW1hZScsICc8aW5maWxlLm1hZT4nLCAnLW9tYWUnLCAnPG91dGZpbGUubWFlPic=

> <r_lp_tautomer_probability>
1

> <r_epik_Ionization_Penalty>
4.97611e-05

> <r_epik_Ionization_Penalty_Charging>
0

> <r_epik_Ionization_Penalty_Neutral>
4.97611e-05

> <r_epik_State_Penalty>
-0

> <r_epik_Charging_Adjusted_Penalty>
0

> <i_epik_Tot_Q>
0

> <i_epik_Tot_abs_Q>
0

> <r_epik_Metal_State_Penalty>
-0

> <b_epik_Metal_Only>
0

> <s_lp_Force_Field>
OPLS_2005

> <r_lp_Energy>
11.8838

> <b_lp_Chiralities_Consistent>
1

> <s_lp_Variant>
AV-unprocessed.smi:3061-4

> <Gold.Version>
5.8.1

> <Gold.Id.Protein>
6NUR|6NUR_protein|mol2

> <Gold.PLP.Fitness>
44.1079

> <Gold.PLP.PLP>
-37.4049

> <Gold.PLP.part.hbond>
-2.0000

> <Gold.PLP.part.metal>
0.0000

> <Gold.PLP.part.buried>
-4.0774

> <Gold.PLP.part.nonpolar>
-31.4431

> <Gold.PLP.part.repulsive>
0.5032

> <Gold.PLP.ligand.clash>
0.0000

> <Gold.PLP.ligand.torsion>
0.0589

> <Gold.PLP.Chemscore.Hbond>
1.3150

> <Gold.PLP.Chemscore.CHOScore>
0.9419

> <Gold.PLP.Chemscore.Metal>
0.0000

> <Gold.Chemscore.Hbonds>
donor molecule, donor type, donor heavy atom, donor atom, acceptor molecule, acceptor atom, score
      L1  H     9    27       P1  8028  0.23
      P1  H  7989  7998       L1     8  0.60
      L1  C     5    25       P1  7948  0.74

> <Gold.PLP.Chemscore.Internal.Correction>
0.0499

> <Gold.Rescore>
     Score         DG    S(hbond)    S(metal)    S(lipo)     H(rot)  DE(clash)    DE(int)     intcor
     10.32     -10.57       1.56        0.00      51.88       2.42       0.05       0.20       ----

> <Gold.Chemscore.Fitness>
10.3202

> <Gold.Chemscore.DG>
-10.5724

> <Gold.Chemscore.ZeroCoef>
-5.4800

> <Gold.Chemscore.Hbond>
1.5620

> <Gold.Chemscore.Metal>
0.0000

> <Gold.Chemscore.Lipo>
51.8796

> <Gold.Chemscore.Internal_Hbond>
0.0000

> <Gold.Chemscore.DEClash>
0.0545

> <Gold.Chemscore.DEInternal>
0.1977

> <Gold.Chemscore.Rot>
2.4197

> <Gold.Chemscore.Internal.Correction>
   9.000000E+99

> <Gold.Chemscore.Hbonds>
donor molecule, donor type, donor heavy atom, donor atom, acceptor molecule, acceptor atom, score
      L1  H     9    27       P1  8028  0.22
      P1  H  7989  7998       L1     8  0.03

> <Gold.Chemscore.Hbond.Weighted>
-5.2170

> <Gold.Chemscore.Metal.Weighted>
-0.0000

> <Gold.Chemscore.Lipo.Weighted>
-6.0699

> <Gold.Chemscore.Internal_Hbond.Weighted>
0.0000

> <Gold.Chemscore.DEClash.Weighted>
0.0545

> <Gold.Chemscore.DEInternal.Weighted>
0.1977

> <Gold.Chemscore.Rot.Weighted>
6.1945

> <Gold.Chemscore.Internal.Correction.Weighted>
   9.000000E+99

> <Gold.Protein.RotatedTorsions>
[ 6907 6896 6895 6894 ] final   39.00 input  -60.11 | X-H torsion
[ 7974 7965 7964 7962 ] final -128.24 input  175.53 | X-H torsion
[ 8008 7997 7996 7995 ] final  145.88 input   59.86 | X-H torsion
[ 10167 10162 10161 10158 ] final  133.92 input  -65.29 | X-H torsion
[ 10718 10713 10712 10709 ] final  100.02 input   66.30 | X-H torsion
[ 10763 10752 10751 10750 ] final   36.77 input  -60.55 | X-H torsion
[ 11005 11000 10999 10996 ] final -101.76 input  -57.11 | X-H torsion

> <Gold.Protein.ActiveResidues>
 VAL166  LYS551  ARG553  GLY616  TRP617  ASP618  TYR619  PRO620  LYS621  CYS622 
 ASP623  PHE694  ASN695  SER759  ASP760  ASP761  ALA762  ILE779  LEU786  VAL792 
 PHE793  MET794  SER795  GLU796  ALA797  LYS798  CYS799  TRP800  GLU811  SER814 

> <Gold.Protein.RotatedAtoms>
  152.1638  134.8890  160.0539 H   0  0  0  0  0  0  0  0  0  0  0  0  # atno 6907 bound_to 6896
  151.9876  133.3774  159.4140 H   0  0  0  0  0  0  0  0  0  0  0  0  # atno 6908 bound_to 6896
  150.6891  134.3894  159.5113 H   0  0  0  0  0  0  0  0  0  0  0  0  # atno 6909 bound_to 6896
  144.9690  140.7526  143.4682 H   0  0  0  0  0  0  0  0  0  0  0  0  # atno 7974 bound_to 7965
  156.2871  140.2197  156.5286 H   0  0  0  0  0  0  0  0  0  0  0  0  # atno 8008 bound_to 7997
  154.7468  140.0483  157.0881 H   0  0  0  0  0  0  0  0  0  0  0  0  # atno 8009 bound_to 7997
  155.0161  140.3118  155.4814 H   0  0  0  0  0  0  0  0  0  0  0  0  # atno 8010 bound_to 7997
  139.5277  144.6593  151.5065 H   0  0  0  0  0  0  0  0  0  0  0  0  # atno 10167 bound_to 10162
  157.6863  131.0686  150.5037 H   0  0  0  0  0  0  0  0  0  0  0  0  # atno 10718 bound_to 10713
  153.0064  135.6296  154.2038 H   0  0  0  0  0  0  0  0  0  0  0  0  # atno 10763 bound_to 10752
  154.1781  135.2815  155.3062 H   0  0  0  0  0  0  0  0  0  0  0  0  # atno 10764 bound_to 10752
  154.5856  135.5634  153.7287 H   0  0  0  0  0  0  0  0  0  0  0  0  # atno 10765 bound_to 10752
  141.1217  133.8504  157.1274 H   0  0  0  0  0  0  0  0  0  0  0  0  # atno 11005 bound_to 11000
  145.2587  139.2001  143.4904 LP  0  0  0  0  0  0  0  0  0  0  0  0  # atno 17320 bound_to 7965
  146.3376  140.2513  142.8598 LP  0  0  0  0  0  0  0  0  0  0  0  0  # atno 17321 bound_to 7965
  140.6433  143.8845  150.6712 LP  0  0  0  0  0  0  0  0  0  0  0  0  # atno 17342 bound_to 10162
  140.2187  143.3826  152.1660 LP  0  0  0  0  0  0  0  0  0  0  0  0  # atno 17343 bound_to 10162
  156.5357  130.4196  149.6179 LP  0  0  0  0  0  0  0  0  0  0  0  0  # atno 17370 bound_to 10713
  156.3029  130.7187  151.2063 LP  0  0  0  0  0  0  0  0  0  0  0  0  # atno 17371 bound_to 10713
  140.0180  134.9958  157.0534 LP  0  0  0  0  0  0  0  0  0  0  0  0  # atno 17394 bound_to 11000
  140.4487  134.1605  155.7179 LP  0  0  0  0  0  0  0  0  0  0  0  0  # atno 17395 bound_to 11000

$$$$
