AV-unprocessed.smi:158|AV-procd|sdf|1323|dock4
  -GOLD-   2262019 13D 1   1.00000     0.00000
 Structure written by MMmdl.
 31 33  0  0  0  0  0  0  0  0  1 V2000
  155.8744  139.9209  160.5189 N   0  0  0  0  0  0  0  0  0  0  0  0
  154.6934  140.5550  160.5322 C   0  0  0  0  0  0  0  0  0  0  0  0
  154.4300  141.4062  161.5509 N   0  0  0  0  0  0  0  0  0  0  0  0
  153.2626  142.0592  161.6004 C   0  0  0  0  0  0  0  0  0  0  0  0
  153.0293  143.1191  162.9401 Cl  0  0  0  0  0  0  0  0  0  0  0  0
  152.2537  141.9827  160.7267 N   0  0  0  0  0  0  0  0  0  0  0  0
  152.5139  141.1255  159.6978 C   0  0  0  0  0  0  0  0  0  0  0  0
  153.7090  140.3761  159.5298 C   0  0  0  0  0  0  0  0  0  0  0  0
  153.6306  139.6117  158.3738 N   0  0  0  0  0  0  0  0  0  0  0  0
  152.4521  139.8978  157.8885 C   0  0  0  0  0  0  0  0  0  0  0  0
  151.7112  140.7983  158.6229 N   0  0  0  0  0  0  0  0  0  0  0  0
  150.3363  141.3090  158.3179 C   0  0  2  0  0  0  0  0  0  0  0  0
  149.5332  140.2130  157.9994 O   0  0  0  0  0  0  0  0  0  0  0  0
  148.8079  140.4683  156.8012 C   0  0  2  0  0  0  0  0  0  0  0  0
  148.4975  139.1379  156.0962 C   0  0  0  0  0  0  0  0  0  0  0  0
  147.6389  138.3449  156.8889 O   0  0  0  0  0  0  0  0  0  0  0  0
  149.7107  141.4197  156.0098 C   0  0  1  0  0  0  0  0  0  0  0  0
  148.9647  142.2278  155.1221 O   0  0  0  0  0  0  0  0  0  0  0  0
  150.3285  142.2632  157.1106 C   0  0  2  0  0  0  0  0  0  0  0  0
  151.5551  142.6894  156.7989 F   0  0  0  0  0  0  0  0  0  0  0  0
  150.0058  141.7836  159.2425 H   0  0  0  0  0  0  0  0  0  0  0  0
  147.8839  140.9740  157.0890 H   0  0  0  0  0  0  0  0  0  0  0  0
  150.4795  140.8697  155.4666 H   0  0  0  0  0  0  0  0  0  0  0  0
  149.7112  143.1285  157.3566 H   0  0  0  0  0  0  0  0  0  0  0  0
  156.0918  139.2817  159.7679 H   0  0  0  0  0  0  0  0  0  0  0  0
  156.5434  140.0821  161.2580 H   0  0  0  0  0  0  0  0  0  0  0  0
  152.0859  139.4530  156.9746 H   0  0  0  0  0  0  0  0  0  0  0  0
  148.0442  139.3057  155.1191 H   0  0  0  0  0  0  0  0  0  0  0  0
  149.4194  138.5799  155.9314 H   0  0  0  0  0  0  0  0  0  0  0  0
  147.8451  138.4972  157.7986 H   0  0  0  0  0  0  0  0  0  0  0  0
  149.0742  143.1310  155.3798 H   0  0  0  0  0  0  0  0  0  0  0  0
  1  2  1  0  0  0  0
  1 25  1  0  0  0  0
  1 26  1  0  0  0  0
  2  8  1  0  0  0  0
  2  3  2  0  0  0  0
  3  4  1  0  0  0  0
  4  5  1  0  0  0  0
  4  6  2  0  0  0  0
  6  7  1  0  0  0  0
  7 11  1  0  0  0  0
  7  8  2  0  0  0  0
  8  9  1  0  0  0  0
  9 10  2  0  0  0  0
 10 11  1  0  0  0  0
 10 27  1  0  0  0  0
 11 12  1  0  0  0  0
 12 21  1  0  0  0  0
 12 19  1  0  0  0  0
 12 13  1  0  0  0  0
 13 14  1  0  0  0  0
 14 22  1  0  0  0  0
 14 15  1  0  0  0  0
 14 17  1  0  0  0  0
 15 16  1  0  0  0  0
 15 28  1  0  0  0  0
 15 29  1  0  0  0  0
 16 30  1  0  0  0  0
 17 23  1  0  0  0  0
 17 18  1  0  0  0  0
 17 19  1  0  0  0  0
 18 31  1  0  0  0  0
 19 24  1  0  0  0  0
 19 20  1  0  0  0  0
M  END
> <s_m_source_file>
AV-unprocessed.smi

> <i_m_source_file_index>
158

> <i_lp_mmshare_version>
43012

> <i_f3d_flags>
0

> <s_epik_input>
Q2xjKG4xKW5jKFtOSDJdKWMoYzEyKW5bY0hdbjJbQ0BASF0zT1tDQEhdKFtDSDJdW09IXSlbQ0BASF0oW09IXSlbQ0BASF0zRg==

> <s_epik_cmdline>
J2VwaWtfcHl0aG9uJywgJy1waCcsICc3LjAnLCAnLXRuJywgJzgnLCAnLW1hJywgJzIwMCcsICctbWV0YWxfYmluZGluZycsICctaW1hZScsICc8aW5maWxlLm1hZT4nLCAnLW9tYWUnLCAnPG91dGZpbGUubWFlPic=

> <r_lp_tautomer_probability>
1

> <r_epik_Ionization_Penalty>
6.51543e-05

> <r_epik_Ionization_Penalty_Charging>
0

> <r_epik_Ionization_Penalty_Neutral>
6.51543e-05

> <r_epik_State_Penalty>
-0

> <r_epik_Charging_Adjusted_Penalty>
0

> <i_epik_Tot_Q>
0

> <i_epik_Tot_abs_Q>
0

> <r_epik_Metal_State_Penalty>
-0

> <b_epik_Metal_Only>
0

> <s_epik_Chemistry_Notes>
This compound contains an acetal/aminal-like group ( X-CH(R)-Y where X, Y are N, S, or O) that may be acid/base labile, releasing an aldehyde.

> <s_lp_Force_Field>
OPLS_2005

> <r_lp_Energy>
34.2201

> <b_lp_Chiralities_Consistent>
1

> <s_lp_Variant>
AV-unprocessed.smi:158-1

> <Gold.Version>
5.8.1

> <Gold.Id.Protein>
6NUR|6NUR_protein|mol2

> <Gold.PLP.Fitness>
35.6440

> <Gold.PLP.PLP>
-30.1288

> <Gold.PLP.part.hbond>
-3.0000

> <Gold.PLP.part.metal>
0.0000

> <Gold.PLP.part.buried>
-4.7155

> <Gold.PLP.part.nonpolar>
-20.8713

> <Gold.PLP.part.repulsive>
0.0705

> <Gold.PLP.ligand.clash>
0.0000

> <Gold.PLP.ligand.torsion>
0.2577

> <Gold.PLP.Chemscore.Hbond>
2.0000

> <Gold.PLP.Chemscore.CHOScore>
0.0000

> <Gold.PLP.Chemscore.Metal>
0.0000

> <Gold.Chemscore.Hbonds>
donor molecule, donor type, donor heavy atom, donor atom, acceptor molecule, acceptor atom, score
      L1  H    18    31       P1  8028  1.00
      P1  H  7997  8008       L1     9  1.00

> <Gold.PLP.Chemscore.Internal.Correction>
0.0306

> <Gold.Rescore>
     Score         DG    S(hbond)    S(metal)    S(lipo)     H(rot)  DE(clash)    DE(int)     intcor
      6.49      -7.63       1.70        0.00      38.12       3.12       0.89       0.24       ----

> <Gold.Chemscore.Fitness>
6.4928

> <Gold.Chemscore.DG>
-7.6275

> <Gold.Chemscore.ZeroCoef>
-5.4800

> <Gold.Chemscore.Hbond>
1.7012

> <Gold.Chemscore.Metal>
0.0000

> <Gold.Chemscore.Lipo>
38.1240

> <Gold.Chemscore.Internal_Hbond>
0.0000

> <Gold.Chemscore.DEClash>
0.8936

> <Gold.Chemscore.DEInternal>
0.2411

> <Gold.Chemscore.Rot>
3.1230

> <Gold.Chemscore.Internal.Correction>
   9.000000E+99

> <Gold.Chemscore.Hbonds>
donor molecule, donor type, donor heavy atom, donor atom, acceptor molecule, acceptor atom, score
      L1  H    18    31       P1  8028  0.99
      P1  H  7997  8008       L1     9  0.63

> <Gold.Chemscore.Hbond.Weighted>
-5.6820

> <Gold.Chemscore.Metal.Weighted>
-0.0000

> <Gold.Chemscore.Lipo.Weighted>
-4.4605

> <Gold.Chemscore.Internal_Hbond.Weighted>
0.0000

> <Gold.Chemscore.DEClash.Weighted>
0.8936

> <Gold.Chemscore.DEInternal.Weighted>
0.2411

> <Gold.Chemscore.Rot.Weighted>
7.9950

> <Gold.Chemscore.Internal.Correction.Weighted>
   9.000000E+99

> <Gold.Protein.RotatedTorsions>
[ 6907 6896 6895 6894 ] final -154.64 input  -60.11 | X-H torsion
[ 7974 7965 7964 7962 ] final   99.79 input  175.53 | X-H torsion
[ 8008 7997 7996 7995 ] final -107.07 input   59.86 | X-H torsion
[ 10167 10162 10161 10158 ] final -129.99 input  -65.29 | X-H torsion
[ 10718 10713 10712 10709 ] final  -83.87 input   66.30 | X-H torsion
[ 10763 10752 10751 10750 ] final   11.30 input  -60.55 | X-H torsion
[ 11005 11000 10999 10996 ] final  107.88 input  -57.11 | X-H torsion

> <Gold.Protein.ActiveResidues>
 VAL166  LYS551  ARG553  GLY616  TRP617  ASP618  TYR619  PRO620  LYS621  CYS622 
 ASP623  PHE694  ASN695  SER759  ASP760  ASP761  ALA762  ILE779  LEU786  VAL792 
 PHE793  MET794  SER795  GLU796  ALA797  LYS798  CYS799  TRP800  GLU811  SER814 

> <Gold.Protein.RotatedAtoms>
  151.2605  133.4304  159.2615 H   0  0  0  0  0  0  0  0  0  0  0  0  # atno 6907 bound_to 6896
  151.0535  134.9689  159.8234 H   0  0  0  0  0  0  0  0  0  0  0  0  # atno 6908 bound_to 6896
  152.5386  134.2558  159.8969 H   0  0  0  0  0  0  0  0  0  0  0  0  # atno 6909 bound_to 6896
  145.3942  139.2358  143.3335 H   0  0  0  0  0  0  0  0  0  0  0  0  # atno 7974 bound_to 7965
  154.9239  140.0406  157.2012 H   0  0  0  0  0  0  0  0  0  0  0  0  # atno 8008 bound_to 7997
  154.8226  140.2886  155.5754 H   0  0  0  0  0  0  0  0  0  0  0  0  # atno 8009 bound_to 7997
  156.2981  140.2516  156.3137 H   0  0  0  0  0  0  0  0  0  0  0  0  # atno 8010 bound_to 7997
  139.9340  143.6239  152.2522 H   0  0  0  0  0  0  0  0  0  0  0  0  # atno 10167 bound_to 10162
  156.0013  130.4679  150.4323 H   0  0  0  0  0  0  0  0  0  0  0  0  # atno 10718 bound_to 10713
  153.1940  135.6846  153.8315 H   0  0  0  0  0  0  0  0  0  0  0  0  # atno 10763 bound_to 10752
  153.7605  135.3210  155.3337 H   0  0  0  0  0  0  0  0  0  0  0  0  # atno 10764 bound_to 10752
  154.8134  135.4702  154.0676 H   0  0  0  0  0  0  0  0  0  0  0  0  # atno 10765 bound_to 10752
  139.8835  134.9414  156.5887 H   0  0  0  0  0  0  0  0  0  0  0  0  # atno 11005 bound_to 11000
  146.2783  140.4630  142.8786 LP  0  0  0  0  0  0  0  0  0  0  0  0  # atno 17320 bound_to 7965
  144.8419  140.6869  143.6224 LP  0  0  0  0  0  0  0  0  0  0  0  0  # atno 17321 bound_to 7965
  139.6759  144.7658  151.1698 LP  0  0  0  0  0  0  0  0  0  0  0  0  # atno 17342 bound_to 10162
  140.7629  143.5796  150.8909 LP  0  0  0  0  0  0  0  0  0  0  0  0  # atno 17343 bound_to 10162
  157.2371  131.0517  151.2458 LP  0  0  0  0  0  0  0  0  0  0  0  0  # atno 17370 bound_to 10713
  157.3656  130.7154  149.6530 LP  0  0  0  0  0  0  0  0  0  0  0  0  # atno 17371 bound_to 10713
  140.7972  133.8535  155.8695 LP  0  0  0  0  0  0  0  0  0  0  0  0  # atno 17394 bound_to 11000
  140.9625  134.1637  157.4642 LP  0  0  0  0  0  0  0  0  0  0  0  0  # atno 17395 bound_to 11000

$$$$
