AV-unprocessed.smi:1778|AV-procd|sdf|7179|dock6
  -GOLD-   22720 8413D 1   1.00000     0.00000
 Structure written by MMmdl.
 34 35  0  0  0  0  0  0  0  0  1 V2000
  148.0030  132.5931  161.6323 C   0  0  0  0  0  0  0  0  0  0  0  0
  147.2547  133.8926  161.7194 C   0  0  0  0  0  0  0  0  0  0  0  0
  146.5379  134.1526  162.7997 N   0  0  0  0  0  0  0  0  0  0  0  0
  145.9804  135.4183  162.5956 O   0  0  0  0  0  0  0  0  0  0  0  0
  146.3904  135.8773  161.3860 C   0  0  0  0  0  0  0  0  0  0  0  0
  145.9076  137.2289  160.9804 C   0  0  0  0  0  0  0  0  0  0  0  0
  147.2007  134.9600  160.7759 C   0  0  0  0  0  0  0  0  0  0  0  0
  147.8787  135.0601  159.4333 C   0  0  0  0  0  0  0  0  0  0  0  0
  148.7969  136.2817  159.4100 C   0  0  0  0  0  0  0  0  0  0  0  0
  148.9192  136.9806  160.4155 O   0  0  0  0  0  0  0  0  0  0  0  0
  149.4379  136.5243  158.2565 N   0  0  0  0  0  0  0  0  0  0  0  0
  150.3744  137.6190  158.0298 C   0  0  2  0  0  0  0  0  0  0  0  0
  149.7077  138.9987  158.2039 C   0  0  0  0  0  0  0  0  0  0  0  0
  150.6211  140.0665  157.5898 C   0  0  0  0  0  0  0  0  0  0  0  0
  151.5073  139.2468  156.2100 S   0  0  0  0  0  0  0  0  0  0  0  0
  150.9118  139.6550  154.9287 O   0  0  0  0  0  0  0  0  0  0  0  0
  152.9555  139.3573  156.4415 O   0  0  0  0  0  0  0  0  0  0  0  0
  150.9537  137.5468  156.6103 C   0  0  0  0  0  0  0  0  0  0  0  0
  148.9309  132.6404  162.2026 H   0  0  0  0  0  0  0  0  0  0  0  0
  148.2600  132.3485  160.6022 H   0  0  0  0  0  0  0  0  0  0  0  0
  147.4106  131.7671  162.0268 H   0  0  0  0  0  0  0  0  0  0  0  0
  146.7459  137.9150  160.8578 H   0  0  0  0  0  0  0  0  0  0  0  0
  145.2339  137.6481  161.7279 H   0  0  0  0  0  0  0  0  0  0  0  0
  145.3711  137.1788  160.0329 H   0  0  0  0  0  0  0  0  0  0  0  0
  148.4628  134.1673  159.2085 H   0  0  0  0  0  0  0  0  0  0  0  0
  147.1490  135.1504  158.6276 H   0  0  0  0  0  0  0  0  0  0  0  0
  149.2750  135.8948  157.4843 H   0  0  0  0  0  0  0  0  0  0  0  0
  151.2042  137.5439  158.7353 H   0  0  0  0  0  0  0  0  0  0  0  0
  148.7556  139.0070  157.6712 H   0  0  0  0  0  0  0  0  0  0  0  0
  149.4884  139.2159  159.2500 H   0  0  0  0  0  0  0  0  0  0  0  0
  150.0743  140.9362  157.2249 H   0  0  0  0  0  0  0  0  0  0  0  0
  151.3645  140.4010  158.3139 H   0  0  0  0  0  0  0  0  0  0  0  0
  151.7874  136.8495  156.5246 H   0  0  0  0  0  0  0  0  0  0  0  0
  150.1904  137.2682  155.8829 H   0  0  0  0  0  0  0  0  0  0  0  0
  1  2  1  0  0  0  0
  1 19  1  0  0  0  0
  1 20  1  0  0  0  0
  1 21  1  0  0  0  0
  2  7  1  0  0  0  0
  2  3  2  0  0  0  0
  3  4  1  0  0  0  0
  4  5  1  0  0  0  0
  5  6  1  0  0  0  0
  5  7  2  0  0  0  0
  6 22  1  0  0  0  0
  6 23  1  0  0  0  0
  6 24  1  0  0  0  0
  7  8  1  0  0  0  0
  8  9  1  0  0  0  0
  8 25  1  0  0  0  0
  8 26  1  0  0  0  0
  9 10  2  0  0  0  0
  9 11  1  0  0  0  0
 11 12  1  0  0  0  0
 11 27  1  0  0  0  0
 12 18  1  0  0  0  0
 12 13  1  0  0  0  0
 12 28  1  0  0  0  0
 13 14  1  0  0  0  0
 13 29  1  0  0  0  0
 13 30  1  0  0  0  0
 14 15  1  0  0  0  0
 14 31  1  0  0  0  0
 14 32  1  0  0  0  0
 15 16  2  0  0  0  0
 15 17  2  0  0  0  0
 15 18  1  0  0  0  0
 18 33  1  0  0  0  0
 18 34  1  0  0  0  0
M  END
> <s_m_source_file>
AV-unprocessed.smi

> <i_m_source_file_index>
1778

> <i_lp_mmshare_version>
43012

> <i_f3d_flags>
0

> <s_epik_input>
W0NIM11jMW5vYyhbQ0gzXSljMVtDSDJdQyg9TylbTkhdW0NAQEhdKFtDSDJdMilbQ0gyXVtDSDJdUzIoPU8pPU8=

> <s_epik_cmdline>
J2VwaWtfcHl0aG9uJywgJy1waCcsICc3LjAnLCAnLXRuJywgJzgnLCAnLW1hJywgJzIwMCcsICctbWV0YWxfYmluZGluZycsICctaW1hZScsICc8aW5maWxlLm1hZT4nLCAnLW9tYWUnLCAnPG91dGZpbGUubWFlPic=

> <r_lp_tautomer_probability>
1

> <r_epik_Ionization_Penalty>
1.26334e-07

> <r_epik_Ionization_Penalty_Charging>
0

> <r_epik_Ionization_Penalty_Neutral>
1.26334e-07

> <r_epik_State_Penalty>
-0

> <r_epik_Charging_Adjusted_Penalty>
0

> <i_epik_Tot_Q>
0

> <i_epik_Tot_abs_Q>
0

> <r_epik_Metal_State_Penalty>
-0

> <b_epik_Metal_Only>
0

> <s_lp_Force_Field>
OPLS_2005

> <r_lp_Energy>
-2.84912

> <b_lp_Chiralities_Consistent>
1

> <s_lp_Variant>
AV-unprocessed.smi:1778-1

> <Gold.Version>
5.8.1

> <Gold.Id.Protein>
6NUR|6NUR_protein|mol2

> <Gold.PLP.Fitness>
32.0905

> <Gold.PLP.PLP>
-24.0449

> <Gold.PLP.part.hbond>
-3.4470

> <Gold.PLP.part.metal>
0.0000

> <Gold.PLP.part.buried>
-5.5654

> <Gold.PLP.part.nonpolar>
-14.6673

> <Gold.PLP.part.repulsive>
0.1558

> <Gold.PLP.ligand.clash>
0.0000

> <Gold.PLP.ligand.torsion>
0.0104

> <Gold.PLP.Chemscore.Hbond>
2.6880

> <Gold.PLP.Chemscore.CHOScore>
0.0000

> <Gold.PLP.Chemscore.Metal>
0.0000

> <Gold.Chemscore.Hbonds>
donor molecule, donor type, donor heavy atom, donor atom, acceptor molecule, acceptor atom, score
      P1  H  6931  6943       L1    10  0.69
      P1  H  7989  7998       L1    16  1.00
      P1  H  7997  8010       L1    17  1.00

> <Gold.PLP.Chemscore.Internal.Correction>
0.0023

> <Gold.Rescore>
     Score         DG    S(hbond)    S(metal)    S(lipo)     H(rot)  DE(clash)    DE(int)     intcor
     14.67     -15.86       2.62        0.00      46.87       1.51       0.00       1.19       ----

> <Gold.Chemscore.Fitness>
14.6708

> <Gold.Chemscore.DG>
-15.8607

> <Gold.Chemscore.ZeroCoef>
-5.4800

> <Gold.Chemscore.Hbond>
2.6196

> <Gold.Chemscore.Metal>
0.0000

> <Gold.Chemscore.Lipo>
46.8749

> <Gold.Chemscore.Internal_Hbond>
0.0000

> <Gold.Chemscore.DEClash>
0.0038

> <Gold.Chemscore.DEInternal>
1.1861

> <Gold.Chemscore.Rot>
1.5051

> <Gold.Chemscore.Internal.Correction>
   9.000000E+99

> <Gold.Chemscore.Hbonds>
donor molecule, donor type, donor heavy atom, donor atom, acceptor molecule, acceptor atom, score
      P1  H  6931  6943       L1    10  0.69
      P1  H  7989  7998       L1    16  0.95
      P1  H  7997  8010       L1    17  0.98

> <Gold.Chemscore.Hbond.Weighted>
-8.7494

> <Gold.Chemscore.Metal.Weighted>
-0.0000

> <Gold.Chemscore.Lipo.Weighted>
-5.4844

> <Gold.Chemscore.Internal_Hbond.Weighted>
0.0000

> <Gold.Chemscore.DEClash.Weighted>
0.0038

> <Gold.Chemscore.DEInternal.Weighted>
1.1861

> <Gold.Chemscore.Rot.Weighted>
3.8531

> <Gold.Chemscore.Internal.Correction.Weighted>
   9.000000E+99

> <Gold.Protein.RotatedTorsions>
[ 6907 6896 6895 6894 ] final -117.76 input  -60.11 | X-H torsion
[ 7974 7965 7964 7962 ] final  -27.83 input  175.53 | X-H torsion
[ 8008 7997 7996 7995 ] final   81.08 input   59.86 | X-H torsion
[ 10167 10162 10161 10158 ] final -100.78 input  -65.29 | X-H torsion
[ 10718 10713 10712 10709 ] final   81.42 input   66.30 | X-H torsion
[ 10763 10752 10751 10750 ] final   53.20 input  -60.55 | X-H torsion
[ 11005 11000 10999 10996 ] final -108.63 input  -57.11 | X-H torsion

> <Gold.Protein.ActiveResidues>
 VAL166  LYS551  ARG553  GLY616  TRP617  ASP618  TYR619  PRO620  LYS621  CYS622 
 ASP623  PHE694  ASN695  SER759  ASP760  ASP761  ALA762  ILE779  LEU786  VAL792 
 PHE793  MET794  SER795  GLU796  ALA797  LYS798  CYS799  TRP800  GLU811  SER814 

> <Gold.Protein.RotatedAtoms>
  150.8163  133.8331  159.3158 H   0  0  0  0  0  0  0  0  0  0  0  0  # atno 6907 bound_to 6896
  151.6102  135.1039  160.0089 H   0  0  0  0  0  0  0  0  0  0  0  0  # atno 6908 bound_to 6896
  152.4254  133.7146  159.6555 H   0  0  0  0  0  0  0  0  0  0  0  0  # atno 6909 bound_to 6896
  146.1331  140.5203  142.8685 H   0  0  0  0  0  0  0  0  0  0  0  0  # atno 7974 bound_to 7965
  155.8923  140.3438  155.5965 H   0  0  0  0  0  0  0  0  0  0  0  0  # atno 8008 bound_to 7997
  155.7596  140.0831  157.2180 H   0  0  0  0  0  0  0  0  0  0  0  0  # atno 8009 bound_to 7997
  154.4034  140.1538  156.2805 H   0  0  0  0  0  0  0  0  0  0  0  0  # atno 8010 bound_to 7997
  140.2483  143.3490  152.0738 H   0  0  0  0  0  0  0  0  0  0  0  0  # atno 10167 bound_to 10162
  157.6832  131.0003  150.2224 H   0  0  0  0  0  0  0  0  0  0  0  0  # atno 10718 bound_to 10713
  152.9793  135.5787  154.4703 H   0  0  0  0  0  0  0  0  0  0  0  0  # atno 10763 bound_to 10752
  154.4266  135.2772  155.1942 H   0  0  0  0  0  0  0  0  0  0  0  0  # atno 10764 bound_to 10752
  154.3668  135.6176  153.5773 H   0  0  0  0  0  0  0  0  0  0  0  0  # atno 10765 bound_to 10752
  141.0891  133.9086  157.2117 H   0  0  0  0  0  0  0  0  0  0  0  0  # atno 11005 bound_to 11000
  144.7711  140.5639  143.6670 LP  0  0  0  0  0  0  0  0  0  0  0  0  # atno 17320 bound_to 7965
  145.5217  139.1476  143.3548 LP  0  0  0  0  0  0  0  0  0  0  0  0  # atno 17321 bound_to 7965
  139.5054  144.6795  151.6045 LP  0  0  0  0  0  0  0  0  0  0  0  0  # atno 17342 bound_to 10162
  140.6060  143.9523  150.6419 LP  0  0  0  0  0  0  0  0  0  0  0  0  # atno 17343 bound_to 10162
  156.2873  130.3741  149.7876 LP  0  0  0  0  0  0  0  0  0  0  0  0  # atno 17370 bound_to 10713
  156.5546  130.8357  151.3310 LP  0  0  0  0  0  0  0  0  0  0  0  0  # atno 17371 bound_to 10713
  139.9714  135.0127  156.9521 LP  0  0  0  0  0  0  0  0  0  0  0  0  # atno 17394 bound_to 11000
  140.5294  134.0829  155.7312 LP  0  0  0  0  0  0  0  0  0  0  0  0  # atno 17395 bound_to 11000

$$$$
