AV-unprocessed.smi:46|AV-procd|sdf|420|dock1
  -GOLD-   2262016293D 1   1.00000     0.00000
 Structure written by MMmdl.
 35 36  0  0  0  0  0  0  0  0  2 V2000
  153.2642  142.3489  160.3172 C   0  0  0  0  0  0  0  0  0  0  0  0
  152.9089  142.7855  158.8881 C   0  0  0  0  0  0  0  0  0  0  0  0
  152.2085  144.1527  158.8585 C   0  0  0  0  0  0  0  0  0  0  0  0
  152.1009  141.7718  158.2270 N   0  0  0  0  0  0  0  0  0  0  0  0
  150.8035  141.8655  157.7673 C   0  0  0  0  0  0  0  0  0  0  0  0
  150.4599  140.6531  157.2337 C   0  0  0  0  0  0  0  0  0  0  0  0
  149.1643  140.2031  156.5905 C   0  0  1  0  0  0  0  0  0  0  0  0
  148.0931  141.3005  156.5526 C   0  0  0  0  0  0  0  0  0  0  0  0
  148.3220  142.0616  155.3109 N   0  3  0  0  0  0  0  0  0  0  0  0
  149.1287  141.2251  154.4006 C   0  0  0  0  0  0  0  0  0  0  0  0
  149.3172  139.8663  155.0965 C   0  0  1  0  0  0  0  0  0  0  0  0
  150.6114  139.1323  154.6926 C   0  0  0  0  0  0  0  0  0  0  0  0
  150.3883  138.3697  153.5262 O   0  0  0  0  0  0  0  0  0  0  0  0
  151.6353  139.8718  157.4263 C   0  0  0  0  0  0  0  0  0  0  0  0
  152.6104  140.5400  158.0181 N   0  0  0  0  0  0  0  0  0  0  0  0
  148.7770  139.3350  157.1259 H   0  0  0  0  0  0  0  0  0  0  0  0
  148.4648  139.2400  154.8249 H   0  0  0  0  0  0  0  0  0  0  0  0
  153.9183  143.0774  160.7973 H   0  0  0  0  0  0  0  0  0  0  0  0
  153.7848  141.3907  160.3160 H   0  0  0  0  0  0  0  0  0  0  0  0
  152.3734  142.2433  160.9370 H   0  0  0  0  0  0  0  0  0  0  0  0
  153.8429  142.8841  158.3316 H   0  0  0  0  0  0  0  0  0  0  0  0
  152.8394  144.9236  159.3021 H   0  0  0  0  0  0  0  0  0  0  0  0
  151.2692  144.1356  159.4120 H   0  0  0  0  0  0  0  0  0  0  0  0
  151.9876  144.4574  157.8350 H   0  0  0  0  0  0  0  0  0  0  0  0
  150.2392  142.7815  157.8591 H   0  0  0  0  0  0  0  0  0  0  0  0
  147.1062  140.8425  156.4737 H   0  0  0  0  0  0  0  0  0  0  0  0
  148.0882  141.9375  157.4378 H   0  0  0  0  0  0  0  0  0  0  0  0
  147.4387  142.3045  154.8853 H   0  0  0  0  0  0  0  0  0  0  0  0
  148.6452  141.1218  153.4288 H   0  0  0  0  0  0  0  0  0  0  0  0
  150.0878  141.7204  154.2449 H   0  0  0  0  0  0  0  0  0  0  0  0
  151.4295  139.8294  154.5084 H   0  0  0  0  0  0  0  0  0  0  0  0
  150.9293  138.4596  155.4898 H   0  0  0  0  0  0  0  0  0  0  0  0
  149.9860  138.9250  152.8751 H   0  0  0  0  0  0  0  0  0  0  0  0
  151.8078  138.8417  157.1505 H   0  0  0  0  0  0  0  0  0  0  0  0
  148.8401  142.9024  155.5220 H   0  0  0  0  0  0  0  0  0  0  0  0
  1  2  1  0  0  0  0
  1 18  1  0  0  0  0
  1 19  1  0  0  0  0
  1 20  1  0  0  0  0
  2  3  1  0  0  0  0
  2  4  1  0  0  0  0
  2 21  1  0  0  0  0
  3 22  1  0  0  0  0
  3 23  1  0  0  0  0
  3 24  1  0  0  0  0
  4 15  1  0  0  0  0
  4  5  1  0  0  0  0
  5  6  2  0  0  0  0
  5 25  1  0  0  0  0
  6  7  1  0  0  0  0
  6 14  1  0  0  0  0
  7 16  1  0  0  0  0
  7 11  1  0  0  0  0
  7  8  1  0  0  0  0
  8  9  1  0  0  0  0
  8 26  1  0  0  0  0
  8 27  1  0  0  0  0
  9 10  1  0  0  0  0
  9 28  1  0  0  0  0
  9 35  1  0  0  0  0
 10 11  1  0  0  0  0
 10 29  1  0  0  0  0
 10 30  1  0  0  0  0
 11 17  1  0  0  0  0
 11 12  1  0  0  0  0
 12 13  1  0  0  0  0
 12 31  1  0  0  0  0
 12 32  1  0  0  0  0
 13 33  1  0  0  0  0
 14 15  2  0  0  0  0
 14 34  1  0  0  0  0
M  CHG  1   9   1
M  END
> <s_m_source_file>
AV-unprocessed.smi

> <i_m_source_file_index>
46

> <i_lp_mmshare_version>
43012

> <i_f3d_flags>
0

> <s_epik_input>
W0NIM11bQ0hdKFtDSDNdKW4xW2NIXWMoW2NIXW4xKVtDQEBIXTJbQ0gyXVtOSF1bQ0gyXVtDQEhdMltDSDJdW09IXQ==

> <s_epik_cmdline>
J2VwaWtfcHl0aG9uJywgJy1waCcsICc3LjAnLCAnLXRuJywgJzgnLCAnLW1hJywgJzIwMCcsICctbWV0YWxfYmluZGluZycsICctaW1hZScsICc8aW5maWxlLm1hZT4nLCAnLW9tYWUnLCAnPG91dGZpbGUubWFlPic=

> <r_lp_tautomer_probability>
1

> <r_epik_Ionization_Penalty>
0.000236226

> <r_epik_Ionization_Penalty_Charging>
0.00021985

> <r_epik_Ionization_Penalty_Neutral>
1.63752e-05

> <r_epik_State_Penalty>
-0

> <r_epik_Charging_Adjusted_Penalty>
0.00021985

> <i_epik_Tot_Q>
1

> <i_epik_Tot_abs_Q>
1

> <r_epik_Metal_State_Penalty>
-0

> <b_epik_Metal_Only>
0

> <s_lp_Force_Field>
OPLS_2005

> <r_lp_Energy>
33.3547

> <b_lp_Chiralities_Consistent>
1

> <s_lp_Variant>
AV-unprocessed.smi:46-2

> <Gold.Version>
5.8.1

> <Gold.Id.Protein>
6NUR|6NUR_protein|mol2

> <Gold.PLP.Fitness>
41.0259

> <Gold.PLP.PLP>
-31.5135

> <Gold.PLP.part.hbond>
-4.2094

> <Gold.PLP.part.metal>
0.0000

> <Gold.PLP.part.buried>
-2.3896

> <Gold.PLP.part.nonpolar>
-24.2001

> <Gold.PLP.part.repulsive>
0.1215

> <Gold.PLP.ligand.clash>
0.0000

> <Gold.PLP.ligand.torsion>
0.4038

> <Gold.PLP.Chemscore.Hbond>
3.4214

> <Gold.PLP.Chemscore.CHOScore>
0.0000

> <Gold.PLP.Chemscore.Metal>
0.0000

> <Gold.Chemscore.Hbonds>
donor molecule, donor type, donor heavy atom, donor atom, acceptor molecule, acceptor atom, score
      L1  H     9    35       P1  8028  1.92
      L1  H    13    33       P1  7957  0.91
      P1  H  7997  8008       L1    15  0.41

> <Gold.PLP.Chemscore.Internal.Correction>
0.0558

> <Gold.Rescore>
     Score         DG    S(hbond)    S(metal)    S(lipo)     H(rot)  DE(clash)    DE(int)     intcor
     16.30     -17.56       2.38        0.00      76.86       1.90       0.05       1.22       ----

> <Gold.Chemscore.Fitness>
16.2995

> <Gold.Chemscore.DG>
-17.5644

> <Gold.Chemscore.ZeroCoef>
-5.4800

> <Gold.Chemscore.Hbond>
2.3802

> <Gold.Chemscore.Metal>
0.0000

> <Gold.Chemscore.Lipo>
76.8576

> <Gold.Chemscore.Internal_Hbond>
0.0000

> <Gold.Chemscore.DEClash>
0.0464

> <Gold.Chemscore.DEInternal>
1.2185

> <Gold.Chemscore.Rot>
1.8976

> <Gold.Chemscore.Internal.Correction>
   9.000000E+99

> <Gold.Chemscore.Hbonds>
donor molecule, donor type, donor heavy atom, donor atom, acceptor molecule, acceptor atom, score
      L1  H     9    35       P1  8028  0.92
      L1  H    13    33       P1  7957  0.69
      P1  H  7997  8008       L1    15  0.23

> <Gold.Chemscore.Hbond.Weighted>
-7.9499

> <Gold.Chemscore.Metal.Weighted>
-0.0000

> <Gold.Chemscore.Lipo.Weighted>
-8.9923

> <Gold.Chemscore.Internal_Hbond.Weighted>
0.0000

> <Gold.Chemscore.DEClash.Weighted>
0.0464

> <Gold.Chemscore.DEInternal.Weighted>
1.2185

> <Gold.Chemscore.Rot.Weighted>
4.8579

> <Gold.Chemscore.Internal.Correction.Weighted>
   9.000000E+99

> <Gold.Protein.RotatedTorsions>
[ 6907 6896 6895 6894 ] final  101.60 input  -60.11 | X-H torsion
[ 7974 7965 7964 7962 ] final  -46.24 input  175.53 | X-H torsion
[ 8008 7997 7996 7995 ] final  -72.83 input   59.86 | X-H torsion
[ 10167 10162 10161 10158 ] final   17.35 input  -65.29 | X-H torsion
[ 10718 10713 10712 10709 ] final  125.60 input   66.30 | X-H torsion
[ 10763 10752 10751 10750 ] final -126.74 input  -60.55 | X-H torsion
[ 11005 11000 10999 10996 ] final -103.77 input  -57.11 | X-H torsion

> <Gold.Protein.ActiveResidues>
 VAL166  LYS551  ARG553  GLY616  TRP617  ASP618  TYR619  PRO620  LYS621  CYS622 
 ASP623  PHE694  ASN695  SER759  ASP760  ASP761  ALA762  ILE779  LEU786  VAL792 
 PHE793  MET794  SER795  GLU796  ALA797  LYS798  CYS799  TRP800  GLU811  SER814 

> <Gold.Protein.RotatedAtoms>
  152.5345  134.0102  159.7934 H   0  0  0  0  0  0  0  0  0  0  0  0  # atno 6907 bound_to 6896
  151.0305  133.5786  159.2668 H   0  0  0  0  0  0  0  0  0  0  0  0  # atno 6908 bound_to 6896
  151.2793  135.0716  159.9217 H   0  0  0  0  0  0  0  0  0  0  0  0  # atno 6909 bound_to 6896
  145.9739  140.7355  142.9397 H   0  0  0  0  0  0  0  0  0  0  0  0  # atno 7974 bound_to 7965
  154.5198  140.0790  156.8150 H   0  0  0  0  0  0  0  0  0  0  0  0  # atno 8008 bound_to 7997
  155.3601  140.3417  155.4222 H   0  0  0  0  0  0  0  0  0  0  0  0  # atno 8009 bound_to 7997
  156.1668  140.1606  156.8504 H   0  0  0  0  0  0  0  0  0  0  0  0  # atno 8010 bound_to 7997
  140.5732  143.9121  150.6729 H   0  0  0  0  0  0  0  0  0  0  0  0  # atno 10167 bound_to 10162
  157.5490  131.1094  150.8734 H   0  0  0  0  0  0  0  0  0  0  0  0  # atno 10718 bound_to 10713
  154.8748  135.3985  154.3480 H   0  0  0  0  0  0  0  0  0  0  0  0  # atno 10763 bound_to 10752
  153.4270  135.7024  153.6261 H   0  0  0  0  0  0  0  0  0  0  0  0  # atno 10764 bound_to 10752
  153.4899  135.3750  155.2456 H   0  0  0  0  0  0  0  0  0  0  0  0  # atno 10765 bound_to 10752
  141.1131  133.8668  157.1528 H   0  0  0  0  0  0  0  0  0  0  0  0  # atno 11005 bound_to 11000
  144.6844  140.2794  143.7294 LP  0  0  0  0  0  0  0  0  0  0  0  0  # atno 17320 bound_to 7965
  145.7867  139.1911  143.2126 LP  0  0  0  0  0  0  0  0  0  0  0  0  # atno 17321 bound_to 7965
  140.2602  143.3529  152.1329 LP  0  0  0  0  0  0  0  0  0  0  0  0  # atno 17342 bound_to 10162
  139.5129  144.6923  151.5725 LP  0  0  0  0  0  0  0  0  0  0  0  0  # atno 17343 bound_to 10162
  156.9264  130.5334  149.5279 LP  0  0  0  0  0  0  0  0  0  0  0  0  # atno 17370 bound_to 10713
  156.0560  130.5621  150.9092 LP  0  0  0  0  0  0  0  0  0  0  0  0  # atno 17371 bound_to 10713
  140.0036  135.0018  157.0243 LP  0  0  0  0  0  0  0  0  0  0  0  0  # atno 17394 bound_to 11000
  140.4722  134.1375  155.7204 LP  0  0  0  0  0  0  0  0  0  0  0  0  # atno 17395 bound_to 11000

$$$$
