AV-unprocessed.smi:1000|AV-procd|sdf|4355|dock1
  -GOLD-   22720 2253D 1   1.00000     0.00000
 Structure written by MMmdl.
 40 41  0  0  0  0  0  0  0  0  1 V2000
  152.8364  138.9730  157.7203 C   0  0  0  0  0  0  0  0  0  0  0  0
  152.0129  137.4112  157.1530 S   0  0  2  0  0  0  0  0  0  0  0  0
  153.1005  136.5190  156.5518 O   0  0  0  0  0  0  0  0  0  0  0  0
  151.2074  138.1792  155.7036 C   0  0  0  0  0  0  0  0  0  0  0  0
  151.2417  139.4887  155.4401 N   0  0  0  0  0  0  0  0  0  0  0  0
  150.5191  139.6359  154.2712 N   0  0  0  0  0  0  0  0  0  0  0  0
  150.1273  138.3996  153.9567 C   0  0  0  0  0  0  0  0  0  0  0  0
  150.5247  137.4408  154.8082 N   0  0  0  0  0  0  0  0  0  0  0  0
  150.2730  136.0100  154.7509 C   0  0  0  0  0  0  0  0  0  0  0  0
  148.8092  135.6845  155.0543 C   0  0  0  0  0  0  0  0  0  0  0  0
  148.5034  135.2016  156.1440 O   0  0  0  0  0  0  0  0  0  0  0  0
  147.9194  135.9390  154.0821 N   0  0  0  0  0  0  0  0  0  0  0  0
  146.4983  135.6228  154.1463 C   0  0  0  0  0  0  0  0  0  0  0  0
  145.8263  135.8093  152.7746 C   0  0  0  0  0  0  0  0  0  0  0  0
  145.4346  134.4924  152.1260 C   0  0  0  0  0  0  0  0  0  0  0  0
  144.1545  134.2002  151.8236 C   0  0  0  0  0  0  0  0  0  0  0  0
  143.7070  132.9081  151.1628 C   0  0  0  0  0  0  0  0  0  0  0  0
  144.8825  132.1171  150.5648 C   0  0  0  0  0  0  0  0  0  0  0  0
  146.0803  132.0960  151.5226 C   0  0  0  0  0  0  0  0  0  0  0  0
  146.5728  133.5204  151.8358 C   0  0  0  0  0  0  0  0  0  0  0  0
  152.2375  139.8477  157.4657 H   0  0  0  0  0  0  0  0  0  0  0  0
  153.8157  139.0738  157.2526 H   0  0  0  0  0  0  0  0  0  0  0  0
  152.9696  138.9522  158.8017 H   0  0  0  0  0  0  0  0  0  0  0  0
  149.5363  138.1884  153.0776 H   0  0  0  0  0  0  0  0  0  0  0  0
  150.5467  135.6435  153.7606 H   0  0  0  0  0  0  0  0  0  0  0  0
  150.9167  135.5036  155.4713 H   0  0  0  0  0  0  0  0  0  0  0  0
  148.2583  136.3412  153.2201 H   0  0  0  0  0  0  0  0  0  0  0  0
  146.3541  134.6036  154.5090 H   0  0  0  0  0  0  0  0  0  0  0  0
  146.0436  136.2835  154.8845 H   0  0  0  0  0  0  0  0  0  0  0  0
  144.9342  136.4290  152.8739 H   0  0  0  0  0  0  0  0  0  0  0  0
  146.4993  136.3497  152.1070 H   0  0  0  0  0  0  0  0  0  0  0  0
  143.3720  134.9060  152.0608 H   0  0  0  0  0  0  0  0  0  0  0  0
  143.1917  132.3080  151.9132 H   0  0  0  0  0  0  0  0  0  0  0  0
  142.9792  133.1360  150.3839 H   0  0  0  0  0  0  0  0  0  0  0  0
  144.5659  131.1010  150.3276 H   0  0  0  0  0  0  0  0  0  0  0  0
  145.1875  132.5737  149.6223 H   0  0  0  0  0  0  0  0  0  0  0  0
  145.7888  131.5999  152.4493 H   0  0  0  0  0  0  0  0  0  0  0  0
  146.8941  131.5059  151.1000 H   0  0  0  0  0  0  0  0  0  0  0  0
  147.1412  133.9055  150.9888 H   0  0  0  0  0  0  0  0  0  0  0  0
  147.2543  133.4905  152.6868 H   0  0  0  0  0  0  0  0  0  0  0  0
  1  2  1  0  0  0  0
  1 21  1  0  0  0  0
  1 22  1  0  0  0  0
  1 23  1  0  0  0  0
  2  3  2  0  0  0  0
  2  4  1  0  0  0  0
  4  8  1  0  0  0  0
  4  5  2  0  0  0  0
  5  6  1  0  0  0  0
  6  7  2  0  0  0  0
  7  8  1  0  0  0  0
  7 24  1  0  0  0  0
  8  9  1  0  0  0  0
  9 10  1  0  0  0  0
  9 25  1  0  0  0  0
  9 26  1  0  0  0  0
 10 11  2  0  0  0  0
 10 12  1  0  0  0  0
 12 13  1  0  0  0  0
 12 27  1  0  0  0  0
 13 14  1  0  0  0  0
 13 28  1  0  0  0  0
 13 29  1  0  0  0  0
 14 15  1  0  0  0  0
 14 30  1  0  0  0  0
 14 31  1  0  0  0  0
 15 20  1  0  0  0  0
 15 16  2  0  0  0  0
 16 17  1  0  0  0  0
 16 32  1  0  0  0  0
 17 18  1  0  0  0  0
 17 33  1  0  0  0  0
 17 34  1  0  0  0  0
 18 19  1  0  0  0  0
 18 35  1  0  0  0  0
 18 36  1  0  0  0  0
 19 20  1  0  0  0  0
 19 37  1  0  0  0  0
 19 38  1  0  0  0  0
 20 39  1  0  0  0  0
 20 40  1  0  0  0  0
M  END
> <s_m_source_file>
AV-unprocessed.smi

> <i_m_source_file_index>
1000

> <i_lp_mmshare_version>
43012

> <i_f3d_flags>
0

> <s_epik_input>
W0NIM11bU0BdKD1PKWMxbm5bY0hdbjFbQ0gyXUMoPU8pW05IXVtDSDJdW0NIMl1DMj1bQ0hdW0NIMl1bQ0gyXVtDSDJdW0NIMl0y

> <s_epik_cmdline>
J2VwaWtfcHl0aG9uJywgJy1waCcsICc3LjAnLCAnLXRuJywgJzgnLCAnLW1hJywgJzIwMCcsICctbWV0YWxfYmluZGluZycsICctaW1hZScsICc8aW5maWxlLm1hZT4nLCAnLW9tYWUnLCAnPG91dGZpbGUubWFlPic=

> <r_lp_tautomer_probability>
1

> <r_epik_Ionization_Penalty>
9.22166e-08

> <r_epik_Ionization_Penalty_Charging>
0

> <r_epik_Ionization_Penalty_Neutral>
9.22166e-08

> <r_epik_State_Penalty>
-0

> <r_epik_Charging_Adjusted_Penalty>
0

> <i_epik_Tot_Q>
0

> <i_epik_Tot_abs_Q>
0

> <r_epik_Metal_State_Penalty>
-0

> <b_epik_Metal_Only>
0

> <s_lp_Force_Field>
OPLS_2005

> <r_lp_Energy>
5.87902

> <b_lp_Chiralities_Consistent>
1

> <s_lp_Variant>
AV-unprocessed.smi:1000-1

> <Gold.Version>
5.8.1

> <Gold.Id.Protein>
6NUR|6NUR_protein|mol2

> <Gold.PLP.Fitness>
39.7552

> <Gold.PLP.PLP>
-27.6342

> <Gold.PLP.part.hbond>
-2.7257

> <Gold.PLP.part.metal>
0.0000

> <Gold.PLP.part.buried>
-4.1772

> <Gold.PLP.part.nonpolar>
-21.3361

> <Gold.PLP.part.repulsive>
0.1601

> <Gold.PLP.ligand.clash>
0.0000

> <Gold.PLP.ligand.torsion>
1.3229

> <Gold.PLP.Chemscore.Hbond>
2.9833

> <Gold.PLP.Chemscore.CHOScore>
1.5154

> <Gold.PLP.Chemscore.Metal>
0.0000

> <Gold.Chemscore.Hbonds>
donor molecule, donor type, donor heavy atom, donor atom, acceptor molecule, acceptor atom, score
      L1  H    12    27       P1  7948  0.99
      P1  H  7989  7998       L1     6  0.85
      P1  H 10752 10764       L1     3  0.94
      L1  C     7    24       P1  7948  1.00
      L1  C     7    24       P1  7957  0.51

> <Gold.PLP.Chemscore.Internal.Correction>
1.2707

> <Gold.Rescore>
     Score         DG    S(hbond)    S(metal)    S(lipo)     H(rot)  DE(clash)    DE(int)     intcor
     13.69     -15.13       2.78        0.00      52.60       2.26       0.05       1.39       ----

> <Gold.Chemscore.Fitness>
13.6943

> <Gold.Chemscore.DG>
-15.1341

> <Gold.Chemscore.ZeroCoef>
-5.4800

> <Gold.Chemscore.Hbond>
2.7832

> <Gold.Chemscore.Metal>
0.0000

> <Gold.Chemscore.Lipo>
52.5986

> <Gold.Chemscore.Internal_Hbond>
0.0000

> <Gold.Chemscore.DEClash>
0.0529

> <Gold.Chemscore.DEInternal>
1.3869

> <Gold.Chemscore.Rot>
2.2640

> <Gold.Chemscore.Internal.Correction>
   9.000000E+99

> <Gold.Chemscore.Hbonds>
donor molecule, donor type, donor heavy atom, donor atom, acceptor molecule, acceptor atom, score
      L1  H    12    27       P1  7948  0.88
      P1  H  7989  7998       L1     6  0.15
      P1  H 10752 10764       L1     3  0.91

> <Gold.Chemscore.Hbond.Weighted>
-9.2958

> <Gold.Chemscore.Metal.Weighted>
-0.0000

> <Gold.Chemscore.Lipo.Weighted>
-6.1540

> <Gold.Chemscore.Internal_Hbond.Weighted>
0.0000

> <Gold.Chemscore.DEClash.Weighted>
0.0529

> <Gold.Chemscore.DEInternal.Weighted>
1.3869

> <Gold.Chemscore.Rot.Weighted>
5.7957

> <Gold.Chemscore.Internal.Correction.Weighted>
   9.000000E+99

> <Gold.Protein.RotatedTorsions>
[ 6907 6896 6895 6894 ] final  -75.14 input  -60.11 | X-H torsion
[ 7974 7965 7964 7962 ] final   62.06 input  175.53 | X-H torsion
[ 8008 7997 7996 7995 ] final  -69.14 input   59.86 | X-H torsion
[ 10167 10162 10161 10158 ] final  -33.26 input  -65.29 | X-H torsion
[ 10718 10713 10712 10709 ] final -101.39 input   66.30 | X-H torsion
[ 10763 10752 10751 10750 ] final  -16.58 input  -60.55 | X-H torsion
[ 11005 11000 10999 10996 ] final   82.60 input  -57.11 | X-H torsion

> <Gold.Protein.ActiveResidues>
 VAL166  LYS551  ARG553  GLY616  TRP617  ASP618  TYR619  PRO620  LYS621  CYS622 
 ASP623  PHE694  ASN695  SER759  ASP760  ASP761  ALA762  ILE779  LEU786  VAL792 
 PHE793  MET794  SER795  GLU796  ALA797  LYS798  CYS799  TRP800  GLU811  SER814 

> <Gold.Protein.RotatedAtoms>
  150.7069  134.4765  159.5449 H   0  0  0  0  0  0  0  0  0  0  0  0  # atno 6907 bound_to 6896
  152.2411  134.8225  160.0469 H   0  0  0  0  0  0  0  0  0  0  0  0  # atno 6908 bound_to 6896
  151.9006  133.3502  159.3866 H   0  0  0  0  0  0  0  0  0  0  0  0  # atno 6909 bound_to 6896
  145.8777  139.3421  143.0725 H   0  0  0  0  0  0  0  0  0  0  0  0  # atno 7974 bound_to 7965
  154.4917  140.0859  156.7609 H   0  0  0  0  0  0  0  0  0  0  0  0  # atno 8008 bound_to 7997
  155.4214  140.3446  155.4253 H   0  0  0  0  0  0  0  0  0  0  0  0  # atno 8009 bound_to 7997
  156.1339  140.1509  156.9011 H   0  0  0  0  0  0  0  0  0  0  0  0  # atno 8010 bound_to 7997
  140.7207  143.3633  151.1920 H   0  0  0  0  0  0  0  0  0  0  0  0  # atno 10167 bound_to 10162
  156.0193  130.5371  150.6956 H   0  0  0  0  0  0  0  0  0  0  0  0  # atno 10718 bound_to 10713
  153.5607  135.7010  153.5549 H   0  0  0  0  0  0  0  0  0  0  0  0  # atno 10763 bound_to 10752
  153.3432  135.4015  155.1588 H   0  0  0  0  0  0  0  0  0  0  0  0  # atno 10764 bound_to 10752
  154.8648  135.3747  154.5124 H   0  0  0  0  0  0  0  0  0  0  0  0  # atno 10765 bound_to 10752
  139.9058  134.8083  156.2196 H   0  0  0  0  0  0  0  0  0  0  0  0  # atno 11005 bound_to 11000
  145.9061  140.9211  143.0478 LP  0  0  0  0  0  0  0  0  0  0  0  0  # atno 17320 bound_to 7965
  144.6726  140.1098  143.7456 LP  0  0  0  0  0  0  0  0  0  0  0  0  # atno 17321 bound_to 7965
  139.7190  143.9254  152.2978 LP  0  0  0  0  0  0  0  0  0  0  0  0  # atno 17342 bound_to 10162
  139.9005  144.6914  150.8671 LP  0  0  0  0  0  0  0  0  0  0  0  0  # atno 17343 bound_to 10162
  157.4628  131.0885  151.0727 LP  0  0  0  0  0  0  0  0  0  0  0  0  # atno 17370 bound_to 10713
  157.1210  130.6061  149.5505 LP  0  0  0  0  0  0  0  0  0  0  0  0  # atno 17371 bound_to 10713
  141.0414  133.6936  156.1605 LP  0  0  0  0  0  0  0  0  0  0  0  0  # atno 17394 bound_to 11000
  140.6949  134.4626  157.5588 LP  0  0  0  0  0  0  0  0  0  0  0  0  # atno 17395 bound_to 11000

$$$$
