#       Name:                AV-unprocessed.smi:230
#       Creating user name   scv26
#       Creation time:       Thu Mar 26 20:29:52 2020


#       File generated by GOLD software.
#

@<TRIPOS>MOLECULE
AV-unprocessed.smi:230
    66    69     1
SMALL
NO_CHARGES


@<TRIPOS>ATOM
      1 ****        -2.1883  -1.4177  -3.1850 C.3            1 S1                 0.0000
      2 ****        -1.8758  -0.7587  -1.8343 C.3            1 S1                 0.0000
      3 ****        -2.5649   0.6157  -1.6211 C.3            1 S1                 0.0000
      4 ****        -4.1037   0.4703  -1.6302 C.3            1 S1                 0.0000
      5 ****        -4.7459   1.7183  -1.3792 O.3            1 S1                 0.0000
      6 ****        -4.3788   2.3600  -0.1565 C.3            1 S1                 0.0000
      7 ****        -5.0656   3.7340  -0.1913 C.3            1 S1                 0.0000
      8 ****        -4.8820   1.5683   1.0696 C.3            1 S1                 0.0000
      9 ****        -2.8479   2.5396  -0.1425 C.3            1 S1                 0.0000
     10 ****        -2.1632   1.2705  -0.3703 N.3            1 S1                 0.0000
     11 ****        -0.8297   1.3629  -0.1635 C.ar           1 S1                 0.0000
     12 ****        -0.0852   2.2456  -0.8807 N.ar           1 S1                 0.0000
     13 ****         1.2370   2.3075  -0.6937 C.ar           1 S1                 0.0000
     14 ****         1.9986   1.5864   0.1329 N.ar           1 S1                 0.0000
     15 ****         1.2506   0.6974   0.8483 C.ar           1 S1                 0.0000
     16 ****        -0.1589   0.5274   0.7668 C.ar           1 S1                 0.0000
     17 ****        -0.5735  -0.4686   1.6410 N.2            1 S1                 0.0000
     18 ****         0.5330  -0.8731   2.2033 C.2            1 S1                 0.0000
     19 ****         1.6769  -0.2356   1.7771 N.pl3          1 S1                 0.0000
     20 ****         3.0374  -0.5011   2.2184 C.3            1 S1                 0.0000
     21 ****         3.7254  -1.6594   1.4537 C.3            1 S1                 0.0000
     22 ****         3.0117  -2.8492   1.7445 O.3            1 S1                 0.0000
     23 ****         3.7220  -1.4494  -0.0768 C.3            1 S1                 0.0000
     24 ****         4.5816  -2.4960  -0.8080 C.3            1 S1                 0.0000
     25 ****         5.9037  -2.4989  -0.2832 O.3            1 S1                 0.0000
     26 ****         5.9495  -2.8654   1.0905 C.3            1 S1                 0.0000
     27 ****         5.1794  -1.8349   1.9354 C.3            1 S1                 0.0000
     28 ****        -1.5984  -2.3254  -3.3136 H              1 S1                 0.0000
     29 ****        -1.9495  -0.7491  -4.0125 H              1 S1                 0.0000
     30 ****        -3.2372  -1.7007  -3.2682 H              1 S1                 0.0000
     31 ****        -2.1472  -1.4384  -1.0256 H              1 S1                 0.0000
     32 ****        -0.7923  -0.6497  -1.7860 H              1 S1                 0.0000
     33 ****        -2.2789   1.2756  -2.4417 H              1 S1                 0.0000
     34 ****        -4.4481   0.1246  -2.6040 H              1 S1                 0.0000
     35 ****        -4.4306  -0.2780  -0.9081 H              1 S1                 0.0000
     36 ****        -4.8230   4.3224   0.6942 H              1 S1                 0.0000
     37 ****        -6.1504   3.6320  -0.2349 H              1 S1                 0.0000
     38 ****        -4.7559   4.3083  -1.0652 H              1 S1                 0.0000
     39 ****        -4.6928   2.1187   1.9915 H              1 S1                 0.0000
     40 ****        -4.3903   0.6016   1.1731 H              1 S1                 0.0000
     41 ****        -5.9555   1.3881   1.0078 H              1 S1                 0.0000
     42 ****        -2.5574   3.2448  -0.9231 H              1 S1                 0.0000
     43 ****        -2.5301   2.9704   0.8086 H              1 S1                 0.0000
     44 ****         1.7605   3.0345  -1.2971 H              1 S1                 0.0000
     45 ****         0.5481  -1.6621   2.9412 H              1 S1                 0.0000
     46 ****         3.6146   0.4173   2.1046 H              1 S1                 0.0000
     47 ****         3.0137  -0.7130   3.2885 H              1 S1                 0.0000
     48 ****         3.4264  -3.5663   1.2894 H              1 S1                 0.0000
     49 ****         2.7057  -1.4717  -0.4723 H              1 S1                 0.0000
     50 ****         4.1173  -0.4581  -0.3033 H              1 S1                 0.0000
     51 ****         4.1432  -3.4918  -0.7263 H              1 S1                 0.0000
     52 ****         4.6281  -2.2597  -1.8713 H              1 S1                 0.0000
     53 ****         5.5440  -3.8694   1.2254 H              1 S1                 0.0000
     54 ****         6.9915  -2.9021   1.4086 H              1 S1                 0.0000
     55 ****         5.6988  -0.8780   1.8667 H              1 S1                 0.0000
     56 ****         5.2034  -2.1196   2.9881 H              1 S1                 0.0000
     57 ****        -5.7330   1.5593  -1.3602 LP             1 S1                 0.0000
     58 ****        -4.5225   2.3374  -2.1320 LP             1 S1                 0.0000
     59 ****        -2.4783   0.6337   0.3334 LP             1 S1                 0.0000
     60 ****        -0.5257   2.8474  -1.5468 LP             1 S1                 0.0000
     61 ****         2.9901   1.6853   0.2168 LP             1 S1                 0.0000
     62 ****        -1.5034  -0.7992   1.8023 LP             1 S1                 0.0000
     63 ****         2.0643  -2.7578   1.4378 LP             1 S1                 0.0000
     64 ****         3.0281  -3.0203   2.7296 LP             1 S1                 0.0000
     65 ****         6.2890  -1.5815  -0.3823 LP             1 S1                 0.0000
     66 ****         6.4539  -3.1498  -0.8063 LP             1 S1                 0.0000
@<TRIPOS>BOND
    1    1    2 1     
    2    1   28 1     
    3    1   29 1     
    4    1   30 1     
    5    2    3 1     
    6    2   31 1     
    7    2   32 1     
    8    3   10 1     
    9    3    4 1     
   10    3   33 1     
   11    4    5 1     
   12    4   34 1     
   13    4   35 1     
   14    5    6 1     
   15    6    7 1     
   16    6    8 1     
   17    6    9 1     
   18    7   36 1     
   19    7   37 1     
   20    7   38 1     
   21    8   39 1     
   22    8   40 1     
   23    8   41 1     
   24    9   10 1     
   25    9   42 1     
   26    9   43 1     
   27   10   11 1     
   28   11   16 ar    
   29   11   12 ar    
   30   12   13 ar    
   31   13   14 ar    
   32   13   44 1     
   33   14   15 ar    
   34   15   19 1     
   35   15   16 ar    
   36   16   17 1     
   37   17   18 2     
   38   18   19 1     
   39   18   45 1     
   40   19   20 1     
   41   20   21 1     
   42   20   46 1     
   43   20   47 1     
   44   21   27 1     
   45   21   22 1     
   46   21   23 1     
   47   22   48 1     
   48   23   24 1     
   49   23   49 1     
   50   23   50 1     
   51   24   25 1     
   52   24   51 1     
   53   24   52 1     
   54   25   26 1     
   55   26   27 1     
   56   26   53 1     
   57   26   54 1     
   58   27   55 1     
   59   27   56 1     
   60    5   57 1     
   61    5   58 1     
   62   10   59 1     
   63   12   60 1     
   64   14   61 1     
   65   17   62 1     
   66   22   63 1     
   67   22   64 1     
   68   25   65 1     
   69   25   66 1     
@<TRIPOS>SUBSTRUCTURE
      1 S1             1
@<TRIPOS>SET
LONE_PAIRS      STATIC     ATOMS    <user>   **** ""
10 57 58 59 60 61 62 63 64 65 66
DONOR_HYDROGENS      STATIC     ATOMS    <user>   **** ""
1 48
ATOM$BLUE        STATIC     ATOMS    COLORGROUP SYSTEM
10 57 58 59 60 61 62 63 64 65 66
ATOM$RED        STATIC     ATOMS    COLORGROUP SYSTEM
1 48
