AV-unprocessed.smi:156|AV-procd|sdf|1289|dock8
  -GOLD-   2262018573D 1   1.00000     0.00000
 Structure written by MMmdl.
 51 53  0  0  0  0  0  0  0  0  1 V2000
  147.0133  139.7052  155.7813 C   0  0  0  0  0  0  0  0  0  0  0  0
  147.9658  139.4395  154.5977 C   0  0  2  0  0  0  0  0  0  0  0  0
  149.0391  140.5491  154.3998 C   0  0  1  0  0  0  0  0  0  0  0  0
  148.4374  141.9673  154.3866 C   0  0  0  0  0  0  0  0  0  0  0  0
  150.3961  140.4709  155.6825 S   0  0  0  0  0  0  0  0  0  0  0  0
  149.8388  139.1276  156.8147 C   0  0  0  0  0  0  0  0  0  0  0  0
  151.6480  140.0301  155.0494 O   0  0  0  0  0  0  0  0  0  0  0  0
  150.3825  141.7256  156.4503 O   0  0  0  0  0  0  0  0  0  0  0  0
  147.1928  139.1978  153.3724 N   0  0  0  0  0  0  0  0  0  0  0  0
  147.1048  140.2162  152.3294 C   0  0  0  0  0  0  0  0  0  0  0  0
  146.3522  138.1318  153.2881 C   0  0  0  0  0  0  0  0  0  0  0  0
  145.7641  137.6596  154.4195 N   0  0  0  0  0  0  0  0  0  0  0  0
  144.9343  136.6143  154.3691 C   0  0  0  0  0  0  0  0  0  0  0  0
  144.5641  135.8948  153.3096 N   0  0  0  0  0  0  0  0  0  0  0  0
  145.1565  136.3524  152.1697 C   0  0  0  0  0  0  0  0  0  0  0  0
  146.0462  137.4604  152.0679 C   0  0  0  0  0  0  0  0  0  0  0  0
  146.4367  137.6243  150.7437 N   0  0  0  0  0  0  0  0  0  0  0  0
  145.8140  136.6739  150.1033 C   0  0  0  0  0  0  0  0  0  0  0  0
  145.0380  135.8485  150.8852 N   0  0  0  0  0  0  0  0  0  0  0  0
  144.2442  134.7108  150.4396 C   0  0  0  0  0  0  0  0  0  0  0  0
  144.9826  133.3496  150.4646 C   0  0  0  0  0  0  0  0  0  0  0  0
  146.4377  133.6034  150.8827 C   0  0  0  0  0  0  0  0  0  0  0  0
  147.0318  132.4367  151.4154 O   0  0  0  0  0  0  0  0  0  0  0  0
  144.2758  132.2127  151.2225 C   0  0  0  0  0  0  0  0  0  0  0  0
  143.8163  131.6074  149.9960 O   0  0  0  0  0  0  0  0  0  0  0  0
  144.7770  132.4023  149.2694 C   0  0  0  0  0  0  0  0  0  0  0  0
  147.5407  139.6793  156.7344 H   0  0  0  0  0  0  0  0  0  0  0  0
  146.2348  138.9435  155.8345 H   0  0  0  0  0  0  0  0  0  0  0  0
  146.5230  140.6751  155.6990 H   0  0  0  0  0  0  0  0  0  0  0  0
  148.5164  138.5355  154.8544 H   0  0  0  0  0  0  0  0  0  0  0  0
  149.5316  140.4002  153.4385 H   0  0  0  0  0  0  0  0  0  0  0  0
  147.7567  142.1074  153.5476 H   0  0  0  0  0  0  0  0  0  0  0  0
  149.2116  142.7272  154.2823 H   0  0  0  0  0  0  0  0  0  0  0  0
  147.8860  142.1775  155.3028 H   0  0  0  0  0  0  0  0  0  0  0  0
  150.5277  139.0645  157.6565 H   0  0  0  0  0  0  0  0  0  0  0  0
  149.8402  138.1723  156.2913 H   0  0  0  0  0  0  0  0  0  0  0  0
  148.8385  139.3434  157.1876 H   0  0  0  0  0  0  0  0  0  0  0  0
  146.0760  140.3429  151.9906 H   0  0  0  0  0  0  0  0  0  0  0  0
  147.7185  139.9391  151.4725 H   0  0  0  0  0  0  0  0  0  0  0  0
  147.4554  141.1839  152.6860 H   0  0  0  0  0  0  0  0  0  0  0  0
  144.5079  136.3095  155.3134 H   0  0  0  0  0  0  0  0  0  0  0  0
  145.9109  136.5473  149.0352 H   0  0  0  0  0  0  0  0  0  0  0  0
  143.3481  134.6771  151.0600 H   0  0  0  0  0  0  0  0  0  0  0  0
  143.8939  134.9294  149.4300 H   0  0  0  0  0  0  0  0  0  0  0  0
  147.0343  133.9522  150.0391 H   0  0  0  0  0  0  0  0  0  0  0  0
  146.4938  134.3818  151.6446 H   0  0  0  0  0  0  0  0  0  0  0  0
  147.7567  132.1882  150.8623 H   0  0  0  0  0  0  0  0  0  0  0  0
  144.9542  131.5518  151.7648 H   0  0  0  0  0  0  0  0  0  0  0  0
  143.4618  132.5323  151.8715 H   0  0  0  0  0  0  0  0  0  0  0  0
  144.3583  132.8682  148.3792 H   0  0  0  0  0  0  0  0  0  0  0  0
  145.6645  131.8217  149.0116 H   0  0  0  0  0  0  0  0  0  0  0  0
  1  2  1  0  0  0  0
  1 27  1  0  0  0  0
  1 28  1  0  0  0  0
  1 29  1  0  0  0  0
  2  3  1  0  0  0  0
  2  9  1  0  0  0  0
  2 30  1  0  0  0  0
  3  4  1  0  0  0  0
  3  5  1  0  0  0  0
  3 31  1  0  0  0  0
  4 32  1  0  0  0  0
  4 33  1  0  0  0  0
  4 34  1  0  0  0  0
  5  6  1  0  0  0  0
  5  7  2  0  0  0  0
  5  8  2  0  0  0  0
  6 35  1  0  0  0  0
  6 36  1  0  0  0  0
  6 37  1  0  0  0  0
  9 10  1  0  0  0  0
  9 11  1  0  0  0  0
 10 38  1  0  0  0  0
 10 39  1  0  0  0  0
 10 40  1  0  0  0  0
 11 16  1  0  0  0  0
 11 12  2  0  0  0  0
 12 13  1  0  0  0  0
 13 14  2  0  0  0  0
 13 41  1  0  0  0  0
 14 15  1  0  0  0  0
 15 19  1  0  0  0  0
 15 16  2  0  0  0  0
 16 17  1  0  0  0  0
 17 18  2  0  0  0  0
 18 19  1  0  0  0  0
 18 42  1  0  0  0  0
 19 20  1  0  0  0  0
 20 21  1  0  0  0  0
 20 43  1  0  0  0  0
 20 44  1  0  0  0  0
 21 26  1  0  0  0  0
 21 22  1  0  0  0  0
 21 24  1  0  0  0  0
 22 23  1  0  0  0  0
 22 45  1  0  0  0  0
 22 46  1  0  0  0  0
 23 47  1  0  0  0  0
 24 25  1  0  0  0  0
 24 48  1  0  0  0  0
 24 49  1  0  0  0  0
 25 26  1  0  0  0  0
 26 50  1  0  0  0  0
 26 51  1  0  0  0  0
M  END
> <s_m_source_file>
AV-unprocessed.smi

> <i_m_source_file_index>
156

> <i_lp_mmshare_version>
43012

> <i_f3d_flags>
0

> <s_epik_input>
W0NIM11TKD1PKSg9TylbQ0BASF0oW0NIM10pW0NAQEhdKFtDSDNdKU4oW0NIM10pYyhuW2NIXW4xKWMoYzEyKW5bY0hdbjJbQ0gyXUMzKFtDSDJdW09IXSlbQ0gyXU9bQ0gyXTM=

> <s_epik_cmdline>
J2VwaWtfcHl0aG9uJywgJy1waCcsICc3LjAnLCAnLXRuJywgJzgnLCAnLW1hJywgJzIwMCcsICctbWV0YWxfYmluZGluZycsICctaW1hZScsICc8aW5maWxlLm1hZT4nLCAnLW9tYWUnLCAnPG91dGZpbGUubWFlPic=

> <r_lp_tautomer_probability>
1

> <r_epik_Ionization_Penalty>
0.00107697

> <r_epik_Ionization_Penalty_Charging>
0

> <r_epik_Ionization_Penalty_Neutral>
0.00107697

> <r_epik_State_Penalty>
0.000614712

> <r_epik_Charging_Adjusted_Penalty>
0.000614712

> <i_epik_Tot_Q>
0

> <i_epik_Tot_abs_Q>
0

> <r_epik_Metal_State_Penalty>
-0

> <b_epik_Metal_Only>
0

> <s_lp_Force_Field>
OPLS_2005

> <r_lp_Energy>
28.6083

> <b_lp_Chiralities_Consistent>
1

> <s_lp_Variant>
AV-unprocessed.smi:156-3

> <Gold.Version>
5.8.1

> <Gold.Id.Protein>
6NUR|6NUR_protein|mol2

> <Gold.PLP.Fitness>
45.4381

> <Gold.PLP.PLP>
-35.8458

> <Gold.PLP.part.hbond>
-4.0000

> <Gold.PLP.part.metal>
0.0000

> <Gold.PLP.part.buried>
2.0424

> <Gold.PLP.part.nonpolar>
-36.7236

> <Gold.PLP.part.repulsive>
2.8851

> <Gold.PLP.ligand.clash>
0.0000

> <Gold.PLP.ligand.torsion>
2.8967

> <Gold.PLP.Chemscore.Hbond>
3.8089

> <Gold.PLP.Chemscore.CHOScore>
1.0000

> <Gold.PLP.Chemscore.Metal>
0.0000

> <Gold.Chemscore.Hbonds>
donor molecule, donor type, donor heavy atom, donor atom, acceptor molecule, acceptor atom, score
      L1  H    23    47       P1 10747  0.99
      P1  H  7954  7966       L1    17  1.00
      P1  H  7989  7998       L1     7  1.00
      P1  H 10785 10796       L1    25  0.82
      L1  C    18    42       P1  7921  1.00

> <Gold.PLP.Chemscore.Internal.Correction>
0.9592

> <Gold.Rescore>
     Score         DG    S(hbond)    S(metal)    S(lipo)     H(rot)  DE(clash)    DE(int)     intcor
      8.11     -17.33       3.20        0.00      80.17       3.21       4.47       4.75       ----

> <Gold.Chemscore.Fitness>
8.1125

> <Gold.Chemscore.DG>
-17.3350

> <Gold.Chemscore.ZeroCoef>
-5.4800

> <Gold.Chemscore.Hbond>
3.2026

> <Gold.Chemscore.Metal>
0.0000

> <Gold.Chemscore.Lipo>
80.1685

> <Gold.Chemscore.Internal_Hbond>
0.0000

> <Gold.Chemscore.DEClash>
4.4691

> <Gold.Chemscore.DEInternal>
4.7534

> <Gold.Chemscore.Rot>
3.2115

> <Gold.Chemscore.Internal.Correction>
   9.000000E+99

> <Gold.Chemscore.Hbonds>
donor molecule, donor type, donor heavy atom, donor atom, acceptor molecule, acceptor atom, score
      L1  H    23    47       P1 10747  0.94
      P1  H  7954  7966       L1    17  0.58
      P1  H  7989  7998       L1     7  0.43
      P1  H 10785 10796       L1    25  0.46

> <Gold.Chemscore.Hbond.Weighted>
-10.6968

> <Gold.Chemscore.Metal.Weighted>
-0.0000

> <Gold.Chemscore.Lipo.Weighted>
-9.3797

> <Gold.Chemscore.Internal_Hbond.Weighted>
0.0000

> <Gold.Chemscore.DEClash.Weighted>
4.4691

> <Gold.Chemscore.DEInternal.Weighted>
4.7534

> <Gold.Chemscore.Rot.Weighted>
8.2215

> <Gold.Chemscore.Internal.Correction.Weighted>
   9.000000E+99

> <Gold.Protein.RotatedTorsions>
[ 6907 6896 6895 6894 ] final  -38.30 input  -60.11 | X-H torsion
[ 7974 7965 7964 7962 ] final -127.76 input  175.53 | X-H torsion
[ 8008 7997 7996 7995 ] final  -37.76 input   59.86 | X-H torsion
[ 10167 10162 10161 10158 ] final  -29.49 input  -65.29 | X-H torsion
[ 10718 10713 10712 10709 ] final  175.80 input   66.30 | X-H torsion
[ 10763 10752 10751 10750 ] final -171.39 input  -60.55 | X-H torsion
[ 11005 11000 10999 10996 ] final   86.43 input  -57.11 | X-H torsion

> <Gold.Protein.ActiveResidues>
 VAL166  LYS551  ARG553  GLY616  TRP617  ASP618  TYR619  PRO620  LYS621  CYS622 
 ASP623  PHE694  ASN695  SER759  ASP760  ASP761  ALA762  ILE779  LEU786  VAL792 
 PHE793  MET794  SER795  GLU796  ALA797  LYS798  CYS799  TRP800  GLU811  SER814 

> <Gold.Protein.RotatedAtoms>
  151.0041  134.9345  159.7969 H   0  0  0  0  0  0  0  0  0  0  0  0  # atno 6907 bound_to 6896
  152.5285  134.3115  159.9125 H   0  0  0  0  0  0  0  0  0  0  0  0  # atno 6908 bound_to 6896
  151.3121  133.4034  159.2682 H   0  0  0  0  0  0  0  0  0  0  0  0  # atno 6909 bound_to 6896
  144.9739  140.7573  143.4654 H   0  0  0  0  0  0  0  0  0  0  0  0  # atno 7974 bound_to 7965
  154.4048  140.1595  156.2590 H   0  0  0  0  0  0  0  0  0  0  0  0  # atno 8008 bound_to 7997
  155.9053  140.3430  155.6035 H   0  0  0  0  0  0  0  0  0  0  0  0  # atno 8009 bound_to 7997
  155.7400  140.0791  157.2241 H   0  0  0  0  0  0  0  0  0  0  0  0  # atno 8010 bound_to 7997
  140.7260  143.3924  151.1406 H   0  0  0  0  0  0  0  0  0  0  0  0  # atno 10167 bound_to 10162
  156.9295  130.9966  151.2990 H   0  0  0  0  0  0  0  0  0  0  0  0  # atno 10718 bound_to 10713
  154.6310  135.2886  155.0216 H   0  0  0  0  0  0  0  0  0  0  0  0  # atno 10763 bound_to 10752
  154.1377  135.6523  153.4939 H   0  0  0  0  0  0  0  0  0  0  0  0  # atno 10764 bound_to 10752
  153.0280  135.5325  154.7137 H   0  0  0  0  0  0  0  0  0  0  0  0  # atno 10765 bound_to 10752
  139.8945  134.8354  156.2719 H   0  0  0  0  0  0  0  0  0  0  0  0  # atno 11005 bound_to 11000
  145.2519  139.2028  143.4938 LP  0  0  0  0  0  0  0  0  0  0  0  0  # atno 17320 bound_to 7965
  146.3390  140.2434  142.8596 LP  0  0  0  0  0  0  0  0  0  0  0  0  # atno 17321 bound_to 7965
  139.7531  143.8748  152.3082 LP  0  0  0  0  0  0  0  0  0  0  0  0  # atno 17342 bound_to 10162
  139.8608  144.7118  150.9102 LP  0  0  0  0  0  0  0  0  0  0  0  0  # atno 17343 bound_to 10162
  157.5856  130.8407  149.8584 LP  0  0  0  0  0  0  0  0  0  0  0  0  # atno 17370 bound_to 10713
  156.0453  130.3729  150.1332 LP  0  0  0  0  0  0  0  0  0  0  0  0  # atno 17371 bound_to 10713
  141.0095  133.7104  156.1089 LP  0  0  0  0  0  0  0  0  0  0  0  0  # atno 17394 bound_to 11000
  140.7387  134.4174  157.5557 LP  0  0  0  0  0  0  0  0  0  0  0  0  # atno 17395 bound_to 11000

$$$$
