AV-unprocessed.smi:148|AV-procd|sdf|1213|dock1
  -GOLD-   2262018393D 1   1.00000     0.00000
 Structure written by MMmdl.
 63 67  0  0  0  0  0  0  0  0  1 V2000
  144.8299  136.6108  153.2421 O   0  0  0  0  0  0  0  0  0  0  0  0
  145.1388  135.4502  153.9850 C   0  0  0  0  0  0  0  0  0  0  0  0
  146.0605  134.5026  153.1813 C   0  0  1  0  0  0  0  0  0  0  0  0
  146.4608  133.2390  153.9923 C   0  0  0  0  0  0  0  0  0  0  0  0
  146.7197  133.4869  155.4036 N   0  0  0  0  0  0  0  0  0  0  0  0
  146.0422  132.9504  156.4766 C   0  0  0  0  0  0  0  0  0  0  0  0
  146.4621  133.3330  157.6511 N   0  0  0  0  0  0  0  0  0  0  0  0
  147.5230  134.1837  157.3688 C   0  0  0  0  0  0  0  0  0  0  0  0
  148.4295  134.9406  158.1638 C   0  0  0  0  0  0  0  0  0  0  0  0
  148.4117  134.9889  159.5137 N   0  0  0  0  0  0  0  0  0  0  0  0
  147.2363  135.7523  159.9407 C   0  0  0  0  0  0  0  0  0  0  0  0
  147.2842  136.0732  161.4368 C   0  0  0  0  0  0  0  0  0  0  0  0
  147.4317  134.7782  162.2349 C   0  0  0  0  0  0  0  0  0  0  0  0
  148.6801  134.0222  161.7649 C   0  0  0  0  0  0  0  0  0  0  0  0
  148.6664  133.7253  160.2396 C   0  0  2  0  0  0  0  0  0  0  0  0
  149.9975  133.0088  159.8199 C   0  0  2  0  0  0  0  0  0  0  0  0
  150.0725  132.4390  158.3862 C   0  0  0  0  0  0  0  0  0  0  0  0
  151.1262  131.3222  158.3990 C   0  0  0  0  0  0  0  0  0  0  0  0
  151.5113  131.1148  159.8660 C   0  0  0  0  0  0  0  0  0  0  0  0
  150.3995  131.7863  160.6728 C   0  0  2  0  0  0  0  0  0  0  0  0
  149.3250  130.8722  160.8064 O   0  0  0  0  0  0  0  0  0  0  0  0
  149.3638  135.6899  157.5281 N   0  0  0  0  0  0  0  0  0  0  0  0
  149.4280  135.6821  156.1932 C   0  0  0  0  0  0  0  0  0  0  0  0
  148.6617  135.0188  155.3241 N   0  0  0  0  0  0  0  0  0  0  0  0
  147.7069  134.2820  155.9615 C   0  0  0  0  0  0  0  0  0  0  0  0
  145.4370  134.1527  151.8042 C   0  0  2  0  0  0  0  0  0  0  0  0
  144.1620  133.3288  151.8764 C   0  0  0  0  0  0  0  0  0  0  0  0
  144.0588  132.7653  150.4637 C   0  0  0  0  0  0  0  0  0  0  0  0
  145.4001  132.5903  150.0233 O   0  0  0  0  0  0  0  0  0  0  0  0
  146.2951  133.2397  150.9205 C   0  0  0  0  0  0  0  0  0  0  0  0
  145.6002  136.8708  152.7593 H   0  0  0  0  0  0  0  0  0  0  0  0
  145.5881  135.7326  154.9371 H   0  0  0  0  0  0  0  0  0  0  0  0
  144.1912  134.9658  154.2178 H   0  0  0  0  0  0  0  0  0  0  0  0
  146.9823  135.0515  152.9815 H   0  0  0  0  0  0  0  0  0  0  0  0
  145.6850  132.4770  153.9183 H   0  0  0  0  0  0  0  0  0  0  0  0
  147.3517  132.7834  153.5593 H   0  0  0  0  0  0  0  0  0  0  0  0
  145.2150  132.2657  156.3647 H   0  0  0  0  0  0  0  0  0  0  0  0
  147.1686  136.6838  159.3757 H   0  0  0  0  0  0  0  0  0  0  0  0
  146.3314  135.1833  159.7227 H   0  0  0  0  0  0  0  0  0  0  0  0
  148.1217  136.7395  161.6478 H   0  0  0  0  0  0  0  0  0  0  0  0
  146.3789  136.6014  161.7374 H   0  0  0  0  0  0  0  0  0  0  0  0
  147.5012  134.9984  163.3005 H   0  0  0  0  0  0  0  0  0  0  0  0
  146.5478  134.1535  162.0987 H   0  0  0  0  0  0  0  0  0  0  0  0
  149.5671  134.6064  162.0146 H   0  0  0  0  0  0  0  0  0  0  0  0
  148.7462  133.1024  162.3441 H   0  0  0  0  0  0  0  0  0  0  0  0
  147.8321  133.0514  160.0420 H   0  0  0  0  0  0  0  0  0  0  0  0
  150.8058  133.7355  159.9216 H   0  0  0  0  0  0  0  0  0  0  0  0
  149.1086  132.0172  158.0992 H   0  0  0  0  0  0  0  0  0  0  0  0
  150.3341  133.1954  157.6480 H   0  0  0  0  0  0  0  0  0  0  0  0
  150.7069  130.4081  157.9768 H   0  0  0  0  0  0  0  0  0  0  0  0
  151.9998  131.5867  157.8022 H   0  0  0  0  0  0  0  0  0  0  0  0
  151.6545  130.0640  160.1219 H   0  0  0  0  0  0  0  0  0  0  0  0
  152.4544  131.6265  160.0634 H   0  0  0  0  0  0  0  0  0  0  0  0
  150.7540  132.0692  161.6645 H   0  0  0  0  0  0  0  0  0  0  0  0
  148.7982  131.1341  161.5460 H   0  0  0  0  0  0  0  0  0  0  0  0
  150.2042  136.2948  155.7590 H   0  0  0  0  0  0  0  0  0  0  0  0
  145.2339  135.0675  151.2455 H   0  0  0  0  0  0  0  0  0  0  0  0
  144.2745  132.5149  152.5942 H   0  0  0  0  0  0  0  0  0  0  0  0
  143.2817  133.9060  152.1565 H   0  0  0  0  0  0  0  0  0  0  0  0
  143.5006  131.8295  150.4271 H   0  0  0  0  0  0  0  0  0  0  0  0
  143.5670  133.4807  149.8032 H   0  0  0  0  0  0  0  0  0  0  0  0
  147.0608  133.7889  150.3720 H   0  0  0  0  0  0  0  0  0  0  0  0
  146.7919  132.4752  151.5195 H   0  0  0  0  0  0  0  0  0  0  0  0
  1  2  1  0  0  0  0
  1 31  1  0  0  0  0
  2  3  1  0  0  0  0
  2 32  1  0  0  0  0
  2 33  1  0  0  0  0
  3  4  1  0  0  0  0
  3 26  1  0  0  0  0
  3 34  1  0  0  0  0
  4  5  1  0  0  0  0
  4 35  1  0  0  0  0
  4 36  1  0  0  0  0
  5 25  1  0  0  0  0
  5  6  1  0  0  0  0
  6  7  2  0  0  0  0
  6 37  1  0  0  0  0
  7  8  1  0  0  0  0
  8 25  2  0  0  0  0
  8  9  1  0  0  0  0
  9 10  1  0  0  0  0
  9 22  2  0  0  0  0
 10 15  1  0  0  0  0
 10 11  1  0  0  0  0
 11 12  1  0  0  0  0
 11 38  1  0  0  0  0
 11 39  1  0  0  0  0
 12 13  1  0  0  0  0
 12 40  1  0  0  0  0
 12 41  1  0  0  0  0
 13 14  1  0  0  0  0
 13 42  1  0  0  0  0
 13 43  1  0  0  0  0
 14 15  1  0  0  0  0
 14 44  1  0  0  0  0
 14 45  1  0  0  0  0
 15 16  1  0  0  0  0
 15 46  1  0  0  0  0
 16 20  1  0  0  0  0
 16 17  1  0  0  0  0
 16 47  1  0  0  0  0
 17 18  1  0  0  0  0
 17 48  1  0  0  0  0
 17 49  1  0  0  0  0
 18 19  1  0  0  0  0
 18 50  1  0  0  0  0
 18 51  1  0  0  0  0
 19 20  1  0  0  0  0
 19 52  1  0  0  0  0
 19 53  1  0  0  0  0
 20 21  1  0  0  0  0
 20 54  1  0  0  0  0
 21 55  1  0  0  0  0
 22 23  1  0  0  0  0
 23 24  2  0  0  0  0
 23 56  1  0  0  0  0
 24 25  1  0  0  0  0
 26 30  1  0  0  0  0
 26 27  1  0  0  0  0
 26 57  1  0  0  0  0
 27 28  1  0  0  0  0
 27 58  1  0  0  0  0
 27 59  1  0  0  0  0
 28 29  1  0  0  0  0
 28 60  1  0  0  0  0
 28 61  1  0  0  0  0
 29 30  1  0  0  0  0
 30 62  1  0  0  0  0
 30 63  1  0  0  0  0
M  END
> <s_m_source_file>
AV-unprocessed.smi

> <i_m_source_file_index>
148

> <i_lp_mmshare_version>
43012

> <i_f3d_flags>
0

> <s_epik_input>
W0NIMl0xT1tDSDJdW0NIMl1bQ0BIXTFbQ0BIXShbQ0gyXVtPSF0pW0NIMl1uKFtjSF1uMiljKGMyMyluW2NIXW5jM040W0NIMl1bQ0gyXVtDSDJdW0NIMl1bQ0BIXTRbQ0BASF01W0NIMl1bQ0gyXVtDSDJdW0NASF01W09IXQ==

> <s_epik_cmdline>
J2VwaWtfcHl0aG9uJywgJy1waCcsICc3LjAnLCAnLXRuJywgJzgnLCAnLW1hJywgJzIwMCcsICctbWV0YWxfYmluZGluZycsICctaW1hZScsICc8aW5maWxlLm1hZT4nLCAnLW9tYWUnLCAnPG91dGZpbGUubWFlPic=

> <r_lp_tautomer_probability>
1

> <r_epik_Ionization_Penalty>
0.00556303

> <r_epik_Ionization_Penalty_Charging>
0

> <r_epik_Ionization_Penalty_Neutral>
0.00556303

> <r_epik_State_Penalty>
0.00401767

> <r_epik_Charging_Adjusted_Penalty>
0.00401767

> <i_epik_Tot_Q>
0

> <i_epik_Tot_abs_Q>
0

> <r_epik_Metal_State_Penalty>
-0

> <b_epik_Metal_Only>
0

> <s_lp_Force_Field>
OPLS_2005

> <r_lp_Energy>
69.1671

> <b_lp_Chiralities_Consistent>
1

> <s_lp_Variant>
AV-unprocessed.smi:148-12

> <Gold.Version>
5.8.1

> <Gold.Id.Protein>
6NUR|6NUR_protein|mol2

> <Gold.PLP.Fitness>
43.5835

> <Gold.PLP.PLP>
-34.6947

> <Gold.PLP.part.hbond>
-2.0000

> <Gold.PLP.part.metal>
0.0000

> <Gold.PLP.part.buried>
-6.1625

> <Gold.PLP.part.nonpolar>
-27.3112

> <Gold.PLP.part.repulsive>
0.1679

> <Gold.PLP.ligand.clash>
0.0000

> <Gold.PLP.ligand.torsion>
0.4008

> <Gold.PLP.Chemscore.Hbond>
2.0000

> <Gold.PLP.Chemscore.CHOScore>
1.0000

> <Gold.PLP.Chemscore.Metal>
0.0000

> <Gold.PLP.Chemscore.Internal.Correction>
0.6904

> <Gold.Rescore>
     Score         DG    S(hbond)    S(metal)    S(lipo)     H(rot)  DE(clash)    DE(int)     intcor
     12.53     -13.30       1.92        0.00      84.78       3.32       0.01       0.76       ----

> <Gold.Chemscore.Fitness>
12.5304

> <Gold.Chemscore.DG>
-13.3032

> <Gold.Chemscore.ZeroCoef>
-5.4800

> <Gold.Chemscore.Hbond>
1.9173

> <Gold.Chemscore.Metal>
0.0000

> <Gold.Chemscore.Lipo>
84.7810

> <Gold.Chemscore.Internal_Hbond>
0.0000

> <Gold.Chemscore.DEClash>
0.0089

> <Gold.Chemscore.DEInternal>
0.7639

> <Gold.Chemscore.Rot>
3.3203

> <Gold.Chemscore.Internal.Correction>
   9.000000E+99

> <Gold.Chemscore.Hbond.Weighted>
-6.4038

> <Gold.Chemscore.Metal.Weighted>
-0.0000

> <Gold.Chemscore.Lipo.Weighted>
-9.9194

> <Gold.Chemscore.Internal_Hbond.Weighted>
0.0000

> <Gold.Chemscore.DEClash.Weighted>
0.0089

> <Gold.Chemscore.DEInternal.Weighted>
0.7639

> <Gold.Chemscore.Rot.Weighted>
8.5000

> <Gold.Chemscore.Internal.Correction.Weighted>
   9.000000E+99

> <Gold.Protein.RotatedTorsions>
[ 6907 6896 6895 6894 ] final    9.33 input  -60.11 | X-H torsion
[ 7974 7965 7964 7962 ] final   64.73 input  175.53 | X-H torsion
[ 8008 7997 7996 7995 ] final   31.06 input   59.86 | X-H torsion
[ 10167 10162 10161 10158 ] final -171.73 input  -65.29 | X-H torsion
[ 10718 10713 10712 10709 ] final   80.27 input   66.30 | X-H torsion
[ 10763 10752 10751 10750 ] final  -73.13 input  -60.55 | X-H torsion
[ 11005 11000 10999 10996 ] final   79.89 input  -57.11 | X-H torsion

> <Gold.Protein.ActiveResidues>
 VAL166  LYS551  ARG553  GLY616  TRP617  ASP618  TYR619  PRO620  LYS621  CYS622 
 ASP623  PHE694  ASN695  SER759  ASP760  ASP761  ALA762  ILE779  LEU786  VAL792 
 PHE793  MET794  SER795  GLU796  ALA797  LYS798  CYS799  TRP800  GLU811  SER814 

> <Gold.Protein.RotatedAtoms>
  151.7204  135.0895  160.0282 H   0  0  0  0  0  0  0  0  0  0  0  0  # atno 6907 bound_to 6896
  152.3605  133.6287  159.6020 H   0  0  0  0  0  0  0  0  0  0  0  0  # atno 6908 bound_to 6896
  150.7601  133.9347  159.3479 H   0  0  0  0  0  0  0  0  0  0  0  0  # atno 6909 bound_to 6896
  145.8468  139.3229  143.0899 H   0  0  0  0  0  0  0  0  0  0  0  0  # atno 7974 bound_to 7965
  155.1004  140.3229  155.4548 H   0  0  0  0  0  0  0  0  0  0  0  0  # atno 8008 bound_to 7997
  156.2718  140.2062  156.6077 H   0  0  0  0  0  0  0  0  0  0  0  0  # atno 8009 bound_to 7997
  154.6833  140.0524  157.0276 H   0  0  0  0  0  0  0  0  0  0  0  0  # atno 8010 bound_to 7997
  139.5785  144.1477  152.1483 H   0  0  0  0  0  0  0  0  0  0  0  0  # atno 10167 bound_to 10162
  157.6801  130.9952  150.2055 H   0  0  0  0  0  0  0  0  0  0  0  0  # atno 10718 bound_to 10713
  154.4552  135.5907  153.6218 H   0  0  0  0  0  0  0  0  0  0  0  0  # atno 10763 bound_to 10752
  152.9817  135.6030  154.3555 H   0  0  0  0  0  0  0  0  0  0  0  0  # atno 10764 bound_to 10752
  154.3421  135.2841  155.2396 H   0  0  0  0  0  0  0  0  0  0  0  0  # atno 10765 bound_to 10752
  139.9155  134.7878  156.1837 H   0  0  0  0  0  0  0  0  0  0  0  0  # atno 11005 bound_to 11000
  145.9403  140.8984  143.0311 LP  0  0  0  0  0  0  0  0  0  0  0  0  # atno 17320 bound_to 7965
  144.6731  140.1540  143.7428 LP  0  0  0  0  0  0  0  0  0  0  0  0  # atno 17321 bound_to 7965
  140.1025  144.5527  150.6979 LP  0  0  0  0  0  0  0  0  0  0  0  0  # atno 17342 bound_to 10162
  140.7066  143.2472  151.4708 LP  0  0  0  0  0  0  0  0  0  0  0  0  # atno 17343 bound_to 10162
  156.2737  130.3725  149.8006 LP  0  0  0  0  0  0  0  0  0  0  0  0  # atno 17370 bound_to 10713
  156.5715  130.8427  151.3358 LP  0  0  0  0  0  0  0  0  0  0  0  0  # atno 17371 bound_to 10713
  141.0626  133.6834  156.1982 LP  0  0  0  0  0  0  0  0  0  0  0  0  # atno 17394 bound_to 11000
  140.6636  134.4941  157.5584 LP  0  0  0  0  0  0  0  0  0  0  0  0  # atno 17395 bound_to 11000

$$$$
