AV-unprocessed.smi:1385|AV-procd|sdf|5633|dock7
  -GOLD-   22720 5253D 1   1.00000     0.00000
 Structure written by MMmdl.
 38 39  0  0  0  0  0  0  0  0  3 V2000
  152.9783  140.9537  159.4879 C   0  0  0  0  0  0  0  0  0  0  0  0
  152.5101  140.5795  158.1235 C   0  0  0  0  0  0  0  0  0  0  0  0
  153.0802  139.6108  157.4028 N   0  0  0  0  0  0  0  0  0  0  0  0
  152.4668  139.4471  156.1695 N   0  0  0  0  0  0  0  0  0  0  0  0
  151.4373  140.2843  155.9791 C   0  0  0  0  0  0  0  0  0  0  0  0
  150.7133  140.2872  154.8475 N   0  5  0  0  0  0  0  0  0  0  0  0
  149.4482  140.7638  154.8564 C   0  0  0  0  0  0  0  0  0  0  0  0
  148.8545  141.2492  155.8219 O   0  0  0  0  0  0  0  0  0  0  0  0
  148.8317  140.6658  153.6702 N   0  0  0  0  0  0  0  0  0  0  0  0
  147.4604  141.0758  153.3699 C   0  0  2  0  0  0  0  0  0  0  0  0
  146.4913  140.7043  154.5101 C   0  0  0  0  0  0  0  0  0  0  0  0
  146.2908  139.1827  154.6172 C   0  0  0  0  0  0  0  0  0  0  0  0
  145.8210  138.6128  153.3261 N   0  3  2  0  0  0  0  0  0  0  0  0
  145.4843  137.1684  153.4154 C   0  0  0  0  0  0  0  0  0  0  0  0
  144.2189  136.7979  152.6346 C   0  0  0  0  0  0  0  0  0  0  0  0
  143.3957  137.7981  152.3116 N   0  0  0  0  0  0  0  0  0  0  0  0
  143.9758  135.6287  152.3416 O   0  0  0  0  0  0  0  0  0  0  0  0
  146.7672  138.9070  152.2197 C   0  0  0  0  0  0  0  0  0  0  0  0
  146.9860  140.4231  152.0604 C   0  0  0  0  0  0  0  0  0  0  0  0
  151.1582  141.3755  157.3360 S   0  0  0  0  0  0  0  0  0  0  0  0
  152.4428  140.3706  160.2369 H   0  0  0  0  0  0  0  0  0  0  0  0
  152.7963  142.0128  159.6708 H   0  0  0  0  0  0  0  0  0  0  0  0
  154.0467  140.7614  159.5900 H   0  0  0  0  0  0  0  0  0  0  0  0
  149.3664  140.2690  152.9115 H   0  0  0  0  0  0  0  0  0  0  0  0
  147.4526  142.1586  153.2338 H   0  0  0  0  0  0  0  0  0  0  0  0
  146.8456  141.1016  155.4620 H   0  0  0  0  0  0  0  0  0  0  0  0
  145.5260  141.1786  154.3282 H   0  0  0  0  0  0  0  0  0  0  0  0
  147.2226  138.6989  154.9149 H   0  0  0  0  0  0  0  0  0  0  0  0
  145.5657  138.9750  155.4043 H   0  0  0  0  0  0  0  0  0  0  0  0
  146.2949  136.5754  152.9899 H   0  0  0  0  0  0  0  0  0  0  0  0
  145.3933  136.8689  154.4609 H   0  0  0  0  0  0  0  0  0  0  0  0
  142.5479  137.6119  151.7951 H   0  0  0  0  0  0  0  0  0  0  0  0
  143.6253  138.7434  152.5842 H   0  0  0  0  0  0  0  0  0  0  0  0
  147.7158  138.4013  152.4068 H   0  0  0  0  0  0  0  0  0  0  0  0
  146.3752  138.5057  151.2845 H   0  0  0  0  0  0  0  0  0  0  0  0
  146.0500  140.8875  151.7472 H   0  0  0  0  0  0  0  0  0  0  0  0
  147.7017  140.6167  151.2603 H   0  0  0  0  0  0  0  0  0  0  0  0
  144.9594  139.0863  153.0938 H   0  0  0  0  0  0  0  0  0  0  0  0
  1  2  1  0  0  0  0
  1 21  1  0  0  0  0
  1 22  1  0  0  0  0
  1 23  1  0  0  0  0
  2 20  1  0  0  0  0
  2  3  2  0  0  0  0
  3  4  1  0  0  0  0
  4  5  2  0  0  0  0
  5  6  1  0  0  0  0
  5 20  1  0  0  0  0
  6  7  1  0  0  0  0
  7  8  2  0  0  0  0
  7  9  1  0  0  0  0
  9 10  1  0  0  0  0
  9 24  1  0  0  0  0
 10 19  1  0  0  0  0
 10 11  1  0  0  0  0
 10 25  1  0  0  0  0
 11 12  1  0  0  0  0
 11 26  1  0  0  0  0
 11 27  1  0  0  0  0
 12 13  1  0  0  0  0
 12 28  1  0  0  0  0
 12 29  1  0  0  0  0
 13 14  1  0  0  0  0
 13 18  1  0  0  0  0
 13 38  1  0  0  0  0
 14 15  1  0  0  0  0
 14 30  1  0  0  0  0
 14 31  1  0  0  0  0
 15 16  1  0  0  0  0
 15 17  2  0  0  0  0
 16 32  1  0  0  0  0
 16 33  1  0  0  0  0
 18 19  1  0  0  0  0
 18 34  1  0  0  0  0
 18 35  1  0  0  0  0
 19 36  1  0  0  0  0
 19 37  1  0  0  0  0
M  CHG  1   6  -1
M  CHG  1  13   1
M  END
> <s_m_source_file>
AV-unprocessed.smi

> <i_m_source_file_index>
1385

> <i_lp_mmshare_version>
43012

> <i_f3d_flags>
0

> <s_epik_input>
W0NIM11jMW5uYyhzMSlbTkhdQyg9TylbTkhdW0NIXTJbQ0gyXVtDSDJdTihbQ0gyXVtDSDJdMilbQ0gyXUMoPU8pW05IMl0=

> <s_epik_cmdline>
J2VwaWtfcHl0aG9uJywgJy1waCcsICc3LjAnLCAnLXRuJywgJzgnLCAnLW1hJywgJzIwMCcsICctbWV0YWxfYmluZGluZycsICctaW1hZScsICc8aW5maWxlLm1hZT4nLCAnLW9tYWUnLCAnPG91dGZpbGUubWFlPic=

> <r_lp_tautomer_probability>
1

> <r_epik_Ionization_Penalty>
3.90109

> <r_epik_Ionization_Penalty_Charging>
3.79141

> <r_epik_Ionization_Penalty_Neutral>
0.109679

> <r_epik_State_Penalty>
3.87237

> <r_epik_Charging_Adjusted_Penalty>
7.66378

> <i_epik_Tot_Q>
0

> <i_epik_Tot_abs_Q>
2

> <r_epik_Metal_State_Penalty>
1.33354

> <b_epik_Metal_Only>
1

> <s_lp_Force_Field>
OPLS_2005

> <r_lp_Energy>
6.54798

> <b_lp_Chiralities_Consistent>
1

> <s_lp_Variant>
AV-unprocessed.smi:1385-6

> <Gold.Version>
5.8.1

> <Gold.Id.Protein>
6NUR|6NUR_protein|mol2

> <Gold.PLP.Fitness>
47.3340

> <Gold.PLP.PLP>
-31.5779

> <Gold.PLP.part.hbond>
-7.0000

> <Gold.PLP.part.metal>
0.0000

> <Gold.PLP.part.buried>
-2.2217

> <Gold.PLP.part.nonpolar>
-22.0672

> <Gold.PLP.part.repulsive>
0.4922

> <Gold.PLP.ligand.clash>
0.0000

> <Gold.PLP.ligand.torsion>
1.1216

> <Gold.PLP.Chemscore.Hbond>
5.9920

> <Gold.PLP.Chemscore.CHOScore>
0.0000

> <Gold.PLP.Chemscore.Metal>
0.0000

> <Gold.Chemscore.Hbonds>
donor molecule, donor type, donor heavy atom, donor atom, acceptor molecule, acceptor atom, score
      L1  H     9    24       P1  7957  0.99
      L1  H    13    38       P1 10175  2.00
      L1  H    16    33       P1 10175  1.00
      P1  H  7989  7998       L1     6  1.00
      P1  H  7997  8010       L1     3  1.00

> <Gold.PLP.Chemscore.Internal.Correction>
0.0234

> <Gold.Rescore>
     Score         DG    S(hbond)    S(metal)    S(lipo)     H(rot)  DE(clash)    DE(int)     intcor
     15.47     -20.72       4.04        0.00      59.62       2.04       1.37       3.88       ----

> <Gold.Chemscore.Fitness>
15.4704

> <Gold.Chemscore.DG>
-20.7203

> <Gold.Chemscore.ZeroCoef>
-5.4800

> <Gold.Chemscore.Hbond>
4.0392

> <Gold.Chemscore.Metal>
0.0000

> <Gold.Chemscore.Lipo>
59.6207

> <Gold.Chemscore.Internal_Hbond>
0.0000

> <Gold.Chemscore.DEClash>
1.3663

> <Gold.Chemscore.DEInternal>
3.8837

> <Gold.Chemscore.Rot>
2.0415

> <Gold.Chemscore.Internal.Correction>
   9.000000E+99

> <Gold.Chemscore.Hbonds>
donor molecule, donor type, donor heavy atom, donor atom, acceptor molecule, acceptor atom, score
      L1  H     9    24       P1  7957  0.93
      L1  H    13    38       P1 10175  0.97
      L1  H    16    33       P1 10175  0.98
      P1  H  7989  7998       L1     6  0.67
      P1  H  7997  8010       L1     3  0.32

> <Gold.Chemscore.Hbond.Weighted>
-13.4909

> <Gold.Chemscore.Metal.Weighted>
-0.0000

> <Gold.Chemscore.Lipo.Weighted>
-6.9756

> <Gold.Chemscore.Internal_Hbond.Weighted>
0.0000

> <Gold.Chemscore.DEClash.Weighted>
1.3663

> <Gold.Chemscore.DEInternal.Weighted>
3.8837

> <Gold.Chemscore.Rot.Weighted>
5.2262

> <Gold.Chemscore.Internal.Correction.Weighted>
   9.000000E+99

> <Gold.Protein.RotatedTorsions>
[ 6907 6896 6895 6894 ] final -124.77 input  -60.11 | X-H torsion
[ 7974 7965 7964 7962 ] final -146.79 input  175.53 | X-H torsion
[ 8008 7997 7996 7995 ] final   32.24 input   59.86 | X-H torsion
[ 10167 10162 10161 10158 ] final   13.27 input  -65.29 | X-H torsion
[ 10718 10713 10712 10709 ] final   -2.99 input   66.30 | X-H torsion
[ 10763 10752 10751 10750 ] final  121.95 input  -60.55 | X-H torsion
[ 11005 11000 10999 10996 ] final   65.55 input  -57.11 | X-H torsion

> <Gold.Protein.ActiveResidues>
 VAL166  LYS551  ARG553  GLY616  TRP617  ASP618  TYR619  PRO620  LYS621  CYS622 
 ASP623  PHE694  ASN695  SER759  ASP760  ASP761  ALA762  ILE779  LEU786  VAL792 
 PHE793  MET794  SER795  GLU796  ALA797  LYS798  CYS799  TRP800  GLU811  SER814 

> <Gold.Protein.RotatedAtoms>
  150.8801  133.7384  159.2934 H   0  0  0  0  0  0  0  0  0  0  0  0  # atno 6907 bound_to 6896
  151.4968  135.1058  159.9828 H   0  0  0  0  0  0  0  0  0  0  0  0  # atno 6908 bound_to 6896
  152.4754  133.8080  159.7044 H   0  0  0  0  0  0  0  0  0  0  0  0  # atno 6909 bound_to 6896
  144.8136  140.5410  143.5626 H   0  0  0  0  0  0  0  0  0  0  0  0  # atno 7974 bound_to 7965
  155.1193  140.3246  155.4501 H   0  0  0  0  0  0  0  0  0  0  0  0  # atno 8008 bound_to 7997
  156.2668  140.2030  156.6263 H   0  0  0  0  0  0  0  0  0  0  0  0  # atno 8009 bound_to 7997
  154.6696  140.0538  157.0138 H   0  0  0  0  0  0  0  0  0  0  0  0  # atno 8010 bound_to 7997
  140.6013  143.8598  150.6968 H   0  0  0  0  0  0  0  0  0  0  0  0  # atno 10167 bound_to 10162
  156.7827  130.5336  149.5748 H   0  0  0  0  0  0  0  0  0  0  0  0  # atno 10718 bound_to 10713
  153.6221  135.3411  155.3014 H   0  0  0  0  0  0  0  0  0  0  0  0  # atno 10763 bound_to 10752
  154.8598  135.4275  154.2196 H   0  0  0  0  0  0  0  0  0  0  0  0  # atno 10764 bound_to 10752
  153.3071  135.7029  153.7222 H   0  0  0  0  0  0  0  0  0  0  0  0  # atno 10765 bound_to 10752
  139.9887  134.6626  156.0129 H   0  0  0  0  0  0  0  0  0  0  0  0  # atno 11005 bound_to 11000
  145.5267  139.1476  143.3522 LP  0  0  0  0  0  0  0  0  0  0  0  0  # atno 17320 bound_to 7965
  146.2437  140.5408  142.8923 LP  0  0  0  0  0  0  0  0  0  0  0  0  # atno 17321 bound_to 7965
  140.2144  143.3858  152.1692 LP  0  0  0  0  0  0  0  0  0  0  0  0  # atno 17342 bound_to 10162
  139.5293  144.7140  151.5113 LP  0  0  0  0  0  0  0  0  0  0  0  0  # atno 17343 bound_to 10162
  156.1208  130.6108  151.0190 LP  0  0  0  0  0  0  0  0  0  0  0  0  # atno 17370 bound_to 10713
  157.6639  131.0875  150.7775 LP  0  0  0  0  0  0  0  0  0  0  0  0  # atno 17371 bound_to 10713
  141.1547  133.6544  156.4124 LP  0  0  0  0  0  0  0  0  0  0  0  0  # atno 17394 bound_to 11000
  140.4951  134.6539  157.5226 LP  0  0  0  0  0  0  0  0  0  0  0  0  # atno 17395 bound_to 11000

$$$$
