AV-unprocessed.smi:1248|AV-procd|sdf|5250|dock1
  -GOLD-   22720 4363D 1   1.00000     0.00000
 Structure written by MMmdl.
 44 46  0  0  0  0  0  0  0  0  2 V2000
  150.7652  141.2343  155.9118 C   0  0  0  0  0  0  0  0  0  0  0  0
  151.9471  140.2618  155.8229 C   0  0  0  0  0  0  0  0  0  0  0  0
  151.5040  138.8849  155.7258 N   0  0  0  0  0  0  0  0  0  0  0  0
  150.7127  138.3092  154.7521 C   0  0  0  0  0  0  0  0  0  0  0  0
  150.5805  137.0005  155.1068 C   0  0  0  0  0  0  0  0  0  0  0  0
  149.8393  136.0365  154.3793 N   0  0  0  0  0  0  0  0  0  0  0  0
  149.4993  134.8017  154.7818 C   0  0  0  0  0  0  0  0  0  0  0  0
  149.7995  134.3014  155.8656 O   0  0  0  0  0  0  0  0  0  0  0  0
  148.7770  134.1659  153.8482 N   0  0  0  0  0  0  0  0  0  0  0  0
  148.2462  132.8119  153.9752 C   0  0  2  0  0  0  0  0  0  0  0  0
  149.4028  131.7982  153.9879 C   0  0  0  0  0  0  0  0  0  0  0  0
  148.8764  130.3537  154.0215 C   0  0  0  0  0  0  0  0  0  0  0  0
  147.9640  130.0935  152.8806 N   0  3  1  0  0  0  0  0  0  0  0  0
  147.5390  128.6784  152.8173 C   0  0  0  0  0  0  0  0  0  0  0  0
  148.3663  127.8387  151.8722 C   0  0  0  0  0  0  0  0  0  0  0  0
  146.9726  128.2733  151.4764 C   0  0  0  0  0  0  0  0  0  0  0  0
  146.8104  131.0265  152.8772 C   0  0  0  0  0  0  0  0  0  0  0  0
  147.2848  132.4878  152.8154 C   0  0  0  0  0  0  0  0  0  0  0  0
  151.3227  136.8475  156.3121 C   0  0  0  0  0  0  0  0  0  0  0  0
  151.8762  137.9939  156.6776 N   0  0  0  0  0  0  0  0  0  0  0  0
  151.1158  142.2637  155.9868 H   0  0  0  0  0  0  0  0  0  0  0  0
  150.1503  141.0265  156.7877 H   0  0  0  0  0  0  0  0  0  0  0  0
  150.1280  141.1641  155.0297 H   0  0  0  0  0  0  0  0  0  0  0  0
  152.5658  140.4933  154.9550 H   0  0  0  0  0  0  0  0  0  0  0  0
  152.5841  140.3625  156.7022 H   0  0  0  0  0  0  0  0  0  0  0  0
  150.3233  138.8682  153.9140 H   0  0  0  0  0  0  0  0  0  0  0  0
  149.5278  136.3210  153.4623 H   0  0  0  0  0  0  0  0  0  0  0  0
  148.5797  134.6551  152.9872 H   0  0  0  0  0  0  0  0  0  0  0  0
  147.7060  132.7276  154.9206 H   0  0  0  0  0  0  0  0  0  0  0  0
  150.0273  131.9340  153.1034 H   0  0  0  0  0  0  0  0  0  0  0  0
  150.0460  131.9754  154.8507 H   0  0  0  0  0  0  0  0  0  0  0  0
  149.7169  129.6597  153.9838 H   0  0  0  0  0  0  0  0  0  0  0  0
  148.3520  130.1651  154.9598 H   0  0  0  0  0  0  0  0  0  0  0  0
  147.1425  128.2502  153.7364 H   0  0  0  0  0  0  0  0  0  0  0  0
  149.2029  128.3106  151.3597 H   0  0  0  0  0  0  0  0  0  0  0  0
  148.5078  126.7897  152.1240 H   0  0  0  0  0  0  0  0  0  0  0  0
  146.1961  127.5111  151.4691 H   0  0  0  0  0  0  0  0  0  0  0  0
  146.8845  129.0339  150.7026 H   0  0  0  0  0  0  0  0  0  0  0  0
  146.1704  130.8154  152.0197 H   0  0  0  0  0  0  0  0  0  0  0  0
  146.2055  130.8645  153.7708 H   0  0  0  0  0  0  0  0  0  0  0  0
  146.4208  133.1531  152.8423 H   0  0  0  0  0  0  0  0  0  0  0  0
  147.7821  132.6665  151.8608 H   0  0  0  0  0  0  0  0  0  0  0  0
  151.4806  135.9728  156.9249 H   0  0  0  0  0  0  0  0  0  0  0  0
  148.4891  130.2756  152.0373 H   0  0  0  0  0  0  0  0  0  0  0  0
  1  2  1  0  0  0  0
  1 21  1  0  0  0  0
  1 22  1  0  0  0  0
  1 23  1  0  0  0  0
  2  3  1  0  0  0  0
  2 24  1  0  0  0  0
  2 25  1  0  0  0  0
  3 20  1  0  0  0  0
  3  4  1  0  0  0  0
  4  5  2  0  0  0  0
  4 26  1  0  0  0  0
  5  6  1  0  0  0  0
  5 19  1  0  0  0  0
  6  7  1  0  0  0  0
  6 27  1  0  0  0  0
  7  8  2  0  0  0  0
  7  9  1  0  0  0  0
  9 10  1  0  0  0  0
  9 28  1  0  0  0  0
 10 18  1  0  0  0  0
 10 11  1  0  0  0  0
 10 29  1  0  0  0  0
 11 12  1  0  0  0  0
 11 30  1  0  0  0  0
 11 31  1  0  0  0  0
 12 13  1  0  0  0  0
 12 32  1  0  0  0  0
 12 33  1  0  0  0  0
 13 14  1  0  0  0  0
 13 17  1  0  0  0  0
 13 44  1  0  0  0  0
 14 16  1  0  0  0  0
 14 15  1  0  0  0  0
 14 34  1  0  0  0  0
 15 16  1  0  0  0  0
 15 35  1  0  0  0  0
 15 36  1  0  0  0  0
 16 37  1  0  0  0  0
 16 38  1  0  0  0  0
 17 18  1  0  0  0  0
 17 39  1  0  0  0  0
 17 40  1  0  0  0  0
 18 41  1  0  0  0  0
 18 42  1  0  0  0  0
 19 20  2  0  0  0  0
 19 43  1  0  0  0  0
M  CHG  1  13   1
M  END
> <s_m_source_file>
AV-unprocessed.smi

> <i_m_source_file_index>
1248

> <i_lp_mmshare_version>
43012

> <i_f3d_flags>
0

> <s_epik_input>
W0NIM11bQ0gyXW4xW2NIXWMoW2NIXW4xKVtOSF1DKD1PKVtOSF1bQ0hdMltDSDJdW0NIMl1OKFtDSDJdW0NIMl0yKVtDSF0zW0NIMl1bQ0gyXTM=

> <s_epik_cmdline>
J2VwaWtfcHl0aG9uJywgJy1waCcsICc3LjAnLCAnLXRuJywgJzgnLCAnLW1hJywgJzIwMCcsICctbWV0YWxfYmluZGluZycsICctaW1hZScsICc8aW5maWxlLm1hZT4nLCAnLW9tYWUnLCAnPG91dGZpbGUubWFlPic=

> <r_lp_tautomer_probability>
1

> <r_epik_Ionization_Penalty>
0.115699

> <r_epik_Ionization_Penalty_Charging>
0.115549

> <r_epik_Ionization_Penalty_Neutral>
0.00014958

> <r_epik_State_Penalty>
0.105184

> <r_epik_Charging_Adjusted_Penalty>
0.220733

> <i_epik_Tot_Q>
1

> <i_epik_Tot_abs_Q>
1

> <r_epik_Metal_State_Penalty>
0.105189

> <b_epik_Metal_Only>
0

> <s_lp_Force_Field>
OPLS_2005

> <r_lp_Energy>
30.1422

> <b_lp_Chiralities_Consistent>
1

> <s_lp_Variant>
AV-unprocessed.smi:1248-1

> <Gold.Version>
5.8.1

> <Gold.Id.Protein>
6NUR|6NUR_protein|mol2

> <Gold.PLP.Fitness>
46.4945

> <Gold.PLP.PLP>
-37.8963

> <Gold.PLP.part.hbond>
-3.6029

> <Gold.PLP.part.metal>
0.0000

> <Gold.PLP.part.buried>
-3.8500

> <Gold.PLP.part.nonpolar>
-30.4168

> <Gold.PLP.part.repulsive>
0.1014

> <Gold.PLP.ligand.clash>
0.0000

> <Gold.PLP.ligand.torsion>
0.7498

> <Gold.PLP.Chemscore.Hbond>
2.9440

> <Gold.PLP.Chemscore.CHOScore>
0.0000

> <Gold.PLP.Chemscore.Metal>
0.0000

> <Gold.Chemscore.Hbonds>
donor molecule, donor type, donor heavy atom, donor atom, acceptor molecule, acceptor atom, score
      L1  H     6    27       P1  7948  1.00
      L1  H     9    28       P1  7948  0.94
      L1  H    13    44       P1 10747  1.00

> <Gold.PLP.Chemscore.Internal.Correction>
1.2658

> <Gold.Rescore>
     Score         DG    S(hbond)    S(metal)    S(lipo)     H(rot)  DE(clash)    DE(int)     intcor
     18.35     -20.35       2.55        0.00      83.72       1.34       0.07       1.94       ----

> <Gold.Chemscore.Fitness>
18.3501

> <Gold.Chemscore.DG>
-20.3533

> <Gold.Chemscore.ZeroCoef>
-5.4800

> <Gold.Chemscore.Hbond>
2.5503

> <Gold.Chemscore.Metal>
0.0000

> <Gold.Chemscore.Lipo>
83.7224

> <Gold.Chemscore.Internal_Hbond>
0.0000

> <Gold.Chemscore.DEClash>
0.0671

> <Gold.Chemscore.DEInternal>
1.9361

> <Gold.Chemscore.Rot>
1.3438

> <Gold.Chemscore.Internal.Correction>
   9.000000E+99

> <Gold.Chemscore.Hbonds>
donor molecule, donor type, donor heavy atom, donor atom, acceptor molecule, acceptor atom, score
      L1  H     6    27       P1  7948  0.55
      L1  H     9    28       P1  7948  0.27
      L1  H    13    44       P1 10747  0.74

> <Gold.Chemscore.Hbond.Weighted>
-8.5179

> <Gold.Chemscore.Metal.Weighted>
-0.0000

> <Gold.Chemscore.Lipo.Weighted>
-9.7955

> <Gold.Chemscore.Internal_Hbond.Weighted>
0.0000

> <Gold.Chemscore.DEClash.Weighted>
0.0671

> <Gold.Chemscore.DEInternal.Weighted>
1.9361

> <Gold.Chemscore.Rot.Weighted>
3.4401

> <Gold.Chemscore.Internal.Correction.Weighted>
   9.000000E+99

> <Gold.Protein.RotatedTorsions>
[ 6907 6896 6895 6894 ] final    1.86 input  -60.11 | X-H torsion
[ 7974 7965 7964 7962 ] final -128.28 input  175.53 | X-H torsion
[ 8008 7997 7996 7995 ] final -105.07 input   59.86 | X-H torsion
[ 10167 10162 10161 10158 ] final  -60.50 input  -65.29 | X-H torsion
[ 10718 10713 10712 10709 ] final   43.64 input   66.30 | X-H torsion
[ 10763 10752 10751 10750 ] final   98.34 input  -60.55 | X-H torsion
[ 11005 11000 10999 10996 ] final  -29.39 input  -57.11 | X-H torsion

> <Gold.Protein.ActiveResidues>
 VAL166  LYS551  ARG553  GLY616  TRP617  ASP618  TYR619  PRO620  LYS621  CYS622 
 ASP623  PHE694  ASN695  SER759  ASP760  ASP761  ALA762  ILE779  LEU786  VAL792 
 PHE793  MET794  SER795  GLU796  ALA797  LYS798  CYS799  TRP800  GLU811  SER814 

> <Gold.Protein.RotatedAtoms>
  151.5995  135.1048  160.0056 H   0  0  0  0  0  0  0  0  0  0  0  0  # atno 6907 bound_to 6896
  152.4265  133.7200  159.6538 H   0  0  0  0  0  0  0  0  0  0  0  0  # atno 6908 bound_to 6896
  150.8154  133.8274  159.3185 H   0  0  0  0  0  0  0  0  0  0  0  0  # atno 6909 bound_to 6896
  144.9686  140.7522  143.4684 H   0  0  0  0  0  0  0  0  0  0  0  0  # atno 7974 bound_to 7965
  154.8944  140.0415  157.1857 H   0  0  0  0  0  0  0  0  0  0  0  0  # atno 8008 bound_to 7997
  154.8507  140.2929  155.5579 H   0  0  0  0  0  0  0  0  0  0  0  0  # atno 8009 bound_to 7997
  156.2996  140.2465  156.3466 H   0  0  0  0  0  0  0  0  0  0  0  0  # atno 8010 bound_to 7997
  140.6067  143.2375  151.5805 H   0  0  0  0  0  0  0  0  0  0  0  0  # atno 10167 bound_to 10162
  157.4181  130.7953  149.7490 H   0  0  0  0  0  0  0  0  0  0  0  0  # atno 10718 bound_to 10713
  153.2878  135.4152  155.1139 H   0  0  0  0  0  0  0  0  0  0  0  0  # atno 10763 bound_to 10752
  154.8511  135.3511  154.6022 H   0  0  0  0  0  0  0  0  0  0  0  0  # atno 10764 bound_to 10752
  153.6444  135.7055  153.5288 H   0  0  0  0  0  0  0  0  0  0  0  0  # atno 10765 bound_to 10752
  140.9292  133.7349  156.0912 H   0  0  0  0  0  0  0  0  0  0  0  0  # atno 11005 bound_to 11000
  145.2592  139.1999  143.4901 LP  0  0  0  0  0  0  0  0  0  0  0  0  # atno 17320 bound_to 7965
  146.3375  140.2519  142.8599 LP  0  0  0  0  0  0  0  0  0  0  0  0  # atno 17321 bound_to 7965
  139.5330  144.2861  152.1190 LP  0  0  0  0  0  0  0  0  0  0  0  0  # atno 17342 bound_to 10162
  140.2052  144.4618  150.6412 LP  0  0  0  0  0  0  0  0  0  0  0  0  # atno 17343 bound_to 10162
  155.9871  130.3969  150.3178 LP  0  0  0  0  0  0  0  0  0  0  0  0  # atno 17370 bound_to 10713
  157.1323  131.0275  151.2964 LP  0  0  0  0  0  0  0  0  0  0  0  0  # atno 17371 bound_to 10713
  140.7885  134.3644  157.5470 LP  0  0  0  0  0  0  0  0  0  0  0  0  # atno 17394 bound_to 11000
  139.8792  134.9126  156.3063 LP  0  0  0  0  0  0  0  0  0  0  0  0  # atno 17395 bound_to 11000

$$$$
