AV-unprocessed.smi:72|AV-procd|sdf|714|dock3
  -GOLD-   2262017 33D 1   1.00000     0.00000
 Structure written by MMmdl.
 28 29  0  0  0  0  0  0  0  0  2 V2000
  154.4208  138.1956  154.6411 N   0  0  0  0  0  0  0  0  0  0  0  0
  153.1830  138.4088  154.7478 C   0  0  0  0  0  0  0  0  0  0  0  0
  152.2354  137.5273  154.1012 N   0  0  0  0  0  0  0  0  0  0  0  0
  150.9730  137.7956  154.2342 C   0  0  0  0  0  0  0  0  0  0  0  0
  150.5066  138.9420  155.0020 N   0  0  0  0  0  0  0  0  0  0  0  0
  149.0247  139.2327  155.1479 C   0  0  1  0  0  0  0  0  0  0  0  0
  148.7578  139.5772  156.4758 O   0  0  0  0  0  0  0  0  0  0  0  0
  147.8387  140.6637  156.5149 C   0  0  1  0  0  0  0  0  0  0  0  0
  147.9229  141.4156  157.8552 C   0  0  0  0  0  0  0  0  0  0  0  0
  149.2205  141.9408  158.0388 O   0  0  0  0  0  0  0  0  0  0  0  0
  148.2071  141.4845  155.2711 C   0  0  1  0  0  0  0  0  0  0  0  0
  149.3058  142.3425  155.5334 O   0  0  0  0  0  0  0  0  0  0  0  0
  148.5434  140.3974  154.2556 C   0  0  1  0  0  0  0  0  0  0  0  0
  149.4486  140.8294  153.2536 O   0  0  0  0  0  0  0  0  0  0  0  0
  151.4586  139.7801  155.6419 C   0  0  0  0  0  0  0  0  0  0  0  0
  151.0457  140.7254  156.3139 O   0  0  0  0  0  0  0  0  0  0  0  0
  152.7831  139.4954  155.4941 N   0  5  0  0  0  0  0  0  0  0  0  0
  148.5019  138.2988  154.9380 H   0  0  0  0  0  0  0  0  0  0  0  0
  146.8321  140.2658  156.3703 H   0  0  0  0  0  0  0  0  0  0  0  0
  147.3726  142.1008  154.9352 H   0  0  0  0  0  0  0  0  0  0  0  0
  147.6232  140.0702  153.7700 H   0  0  0  0  0  0  0  0  0  0  0  0
  154.6224  137.3815  154.0787 H   0  0  0  0  0  0  0  0  0  0  0  0
  150.1884  137.1843  153.7871 H   0  0  0  0  0  0  0  0  0  0  0  0
  147.1801  142.2121  157.9112 H   0  0  0  0  0  0  0  0  0  0  0  0
  147.7302  140.7313  158.6821 H   0  0  0  0  0  0  0  0  0  0  0  0
  149.7519  141.2861  158.4652 H   0  0  0  0  0  0  0  0  0  0  0  0
  148.9702  143.2099  155.7022 H   0  0  0  0  0  0  0  0  0  0  0  0
  149.2563  140.3583  152.4570 H   0  0  0  0  0  0  0  0  0  0  0  0
  1  2  2  0  0  0  0
  1 22  1  0  0  0  0
  2 17  1  0  0  0  0
  2  3  1  0  0  0  0
  3  4  2  0  0  0  0
  4  5  1  0  0  0  0
  4 23  1  0  0  0  0
  5  6  1  0  0  0  0
  5 15  1  0  0  0  0
  6 18  1  0  0  0  0
  6 13  1  0  0  0  0
  6  7  1  0  0  0  0
  7  8  1  0  0  0  0
  8 19  1  0  0  0  0
  8  9  1  0  0  0  0
  8 11  1  0  0  0  0
  9 10  1  0  0  0  0
  9 24  1  0  0  0  0
  9 25  1  0  0  0  0
 10 26  1  0  0  0  0
 11 20  1  0  0  0  0
 11 12  1  0  0  0  0
 11 13  1  0  0  0  0
 12 27  1  0  0  0  0
 13 21  1  0  0  0  0
 13 14  1  0  0  0  0
 14 28  1  0  0  0  0
 15 16  2  0  0  0  0
 15 17  1  0  0  0  0
M  CHG  1  17  -1
M  END
> <s_m_source_file>
AV-unprocessed.smi

> <i_m_source_file_index>
72

> <i_lp_mmshare_version>
43012

> <i_f3d_flags>
0

> <s_epik_input>
W05IMl1jMW5bY0hdbihjKD1PKW4xKVtDQEBIXTJPW0NASF0oW0NIMl1bT0hdKVtDQEBIXShbT0hdKVtDQEhdMltPSF0=

> <s_epik_cmdline>
J2VwaWtfcHl0aG9uJywgJy1waCcsICc3LjAnLCAnLXRuJywgJzgnLCAnLW1hJywgJzIwMCcsICctbWV0YWxfYmluZGluZycsICctaW1hZScsICc8aW5maWxlLm1hZT4nLCAnLW9tYWUnLCAnPG91dGZpbGUubWFlPic=

> <r_lp_tautomer_probability>
7.17554e-07

> <r_epik_Ionization_Penalty>
12.8705

> <r_epik_Ionization_Penalty_Charging>
5.64144

> <r_epik_Ionization_Penalty_Neutral>
7.22905

> <r_epik_State_Penalty>
3.30104

> <r_epik_Charging_Adjusted_Penalty>
8.94249

> <i_epik_Tot_Q>
-1

> <i_epik_Tot_abs_Q>
1

> <r_epik_Metal_State_Penalty>
0.529074

> <b_epik_Metal_Only>
1

> <s_epik_Chemistry_Notes>
This compound contains an acetal/aminal-like group ( X-CH(R)-Y where X, Y are N, S, or O) that may be acid/base labile, releasing an aldehyde.

> <s_lp_Force_Field>
OPLS_2005

> <r_lp_Energy>
43.693

> <b_lp_Chiralities_Consistent>
1

> <s_lp_Variant>
AV-unprocessed.smi:72-52

> <Gold.Version>
5.8.1

> <Gold.Id.Protein>
6NUR|6NUR_protein|mol2

> <Gold.PLP.Fitness>
45.3668

> <Gold.PLP.PLP>
-27.4099

> <Gold.PLP.part.hbond>
-6.7743

> <Gold.PLP.part.metal>
0.0000

> <Gold.PLP.part.buried>
-6.7446

> <Gold.PLP.part.nonpolar>
-17.2842

> <Gold.PLP.part.repulsive>
0.1554

> <Gold.PLP.ligand.clash>
0.0000

> <Gold.PLP.ligand.torsion>
0.4575

> <Gold.PLP.Chemscore.Hbond>
5.2493

> <Gold.PLP.Chemscore.CHOScore>
1.0401

> <Gold.PLP.Chemscore.Metal>
0.0000

> <Gold.Chemscore.Hbonds>
donor molecule, donor type, donor heavy atom, donor atom, acceptor molecule, acceptor atom, score
      L1  H    12    27       P1  8028  0.94
      L1  H    14    28       P1  7957  0.60
      P1  H  7989  7998       L1    14  0.16
      P1  H  7997  8010       L1    17  2.00
      P1  H  8011  8017       L1    14  0.60
      P1  H 10752 10765       L1     3  0.82
      L1  C     4    23       P1  7948  1.00
      L1  C     4    23       P1  7949  0.06

> <Gold.PLP.Chemscore.Internal.Correction>
0.0039

> <Gold.Rescore>
     Score         DG    S(hbond)    S(metal)    S(lipo)     H(rot)  DE(clash)    DE(int)     intcor
      3.44      -8.84       3.61        0.00      14.11       4.04       0.10       5.30       ----

> <Gold.Chemscore.Fitness>
3.4401

> <Gold.Chemscore.DG>
-8.8371

> <Gold.Chemscore.ZeroCoef>
-5.4800

> <Gold.Chemscore.Hbond>
3.6076

> <Gold.Chemscore.Metal>
0.0000

> <Gold.Chemscore.Lipo>
14.1090

> <Gold.Chemscore.Internal_Hbond>
0.0000

> <Gold.Chemscore.DEClash>
0.0990

> <Gold.Chemscore.DEInternal>
5.2981

> <Gold.Chemscore.Rot>
4.0403

> <Gold.Chemscore.Internal.Correction>
   9.000000E+99

> <Gold.Chemscore.Hbonds>
donor molecule, donor type, donor heavy atom, donor atom, acceptor molecule, acceptor atom, score
      L1  H    12    27       P1  8028  0.89
      L1  H    14    28       P1  7957  0.58
      P1  H  7989  7998       L1    14  0.10
      P1  H  7997  8010       L1    17  0.45
      P1  H  8011  8017       L1    14  0.04
      P1  H 10752 10765       L1     3  0.48

> <Gold.Chemscore.Hbond.Weighted>
-12.0495

> <Gold.Chemscore.Metal.Weighted>
-0.0000

> <Gold.Chemscore.Lipo.Weighted>
-1.6507

> <Gold.Chemscore.Internal_Hbond.Weighted>
0.0000

> <Gold.Chemscore.DEClash.Weighted>
0.0990

> <Gold.Chemscore.DEInternal.Weighted>
5.2981

> <Gold.Chemscore.Rot.Weighted>
10.3431

> <Gold.Chemscore.Internal.Correction.Weighted>
   9.000000E+99

> <Gold.Protein.RotatedTorsions>
[ 6907 6896 6895 6894 ] final  110.56 input  -60.11 | X-H torsion
[ 7974 7965 7964 7962 ] final   25.89 input  175.53 | X-H torsion
[ 8008 7997 7996 7995 ] final   84.95 input   59.86 | X-H torsion
[ 10167 10162 10161 10158 ] final  109.42 input  -65.29 | X-H torsion
[ 10718 10713 10712 10709 ] final  119.75 input   66.30 | X-H torsion
[ 10763 10752 10751 10750 ] final  153.75 input  -60.55 | X-H torsion
[ 11005 11000 10999 10996 ] final  155.36 input  -57.11 | X-H torsion

> <Gold.Protein.ActiveResidues>
 VAL166  LYS551  ARG553  GLY616  TRP617  ASP618  TYR619  PRO620  LYS621  CYS622 
 ASP623  PHE694  ASN695  SER759  ASP760  ASP761  ALA762  ILE779  LEU786  VAL792 
 PHE793  MET794  SER795  GLU796  ALA797  LYS798  CYS799  TRP800  GLU811  SER814 

> <Gold.Protein.RotatedAtoms>
  152.5013  133.8783  159.7333 H   0  0  0  0  0  0  0  0  0  0  0  0  # atno 6907 bound_to 6896
  150.9252  133.6824  159.2830 H   0  0  0  0  0  0  0  0  0  0  0  0  # atno 6908 bound_to 6896
  151.4187  135.0999  159.9660 H   0  0  0  0  0  0  0  0  0  0  0  0  # atno 6909 bound_to 6896
  146.1865  139.7403  142.8862 H   0  0  0  0  0  0  0  0  0  0  0  0  # atno 7974 bound_to 7965
  155.9437  140.3406  155.6349 H   0  0  0  0  0  0  0  0  0  0  0  0  # atno 8008 bound_to 7997
  155.7007  140.0760  157.2430 H   0  0  0  0  0  0  0  0  0  0  0  0  # atno 8009 bound_to 7997
  154.4108  140.1640  156.2175 H   0  0  0  0  0  0  0  0  0  0  0  0  # atno 8010 bound_to 7997
  139.6768  144.7121  151.1588 H   0  0  0  0  0  0  0  0  0  0  0  0  # atno 10167 bound_to 10162
  157.5939  131.1060  150.7940 H   0  0  0  0  0  0  0  0  0  0  0  0  # atno 10718 bound_to 10713
  154.1412  135.2820  155.3160 H   0  0  0  0  0  0  0  0  0  0  0  0  # atno 10763 bound_to 10752
  154.6285  135.5443  153.7658 H   0  0  0  0  0  0  0  0  0  0  0  0  # atno 10764 bound_to 10752
  153.0250  135.6457  154.1559 H   0  0  0  0  0  0  0  0  0  0  0  0  # atno 10765 bound_to 10752
  140.1574  134.8633  157.2531 H   0  0  0  0  0  0  0  0  0  0  0  0  # atno 11005 bound_to 11000
  145.3921  141.0374  143.3118 LP  0  0  0  0  0  0  0  0  0  0  0  0  # atno 17320 bound_to 7965
  144.8408  139.5476  143.6901 LP  0  0  0  0  0  0  0  0  0  0  0  0  # atno 17321 bound_to 7965
  140.7638  143.5760  150.8945 LP  0  0  0  0  0  0  0  0  0  0  0  0  # atno 17342 bound_to 10162
  139.9429  143.6361  152.3049 LP  0  0  0  0  0  0  0  0  0  0  0  0  # atno 17343 bound_to 10162
  156.8355  130.5030  149.5327 LP  0  0  0  0  0  0  0  0  0  0  0  0  # atno 17370 bound_to 10713
  156.0999  130.5961  150.9876 LP  0  0  0  0  0  0  0  0  0  0  0  0  # atno 17371 bound_to 10713
  140.2531  134.3660  155.7434 LP  0  0  0  0  0  0  0  0  0  0  0  0  # atno 17394 bound_to 11000
  141.2206  133.7327  156.8966 LP  0  0  0  0  0  0  0  0  0  0  0  0  # atno 17395 bound_to 11000

$$$$
