AV-unprocessed.smi:1898|AV-procd|sdf|7702|dock1
  -GOLD-   22720 9443D 1   1.00000     0.00000
 Structure written by MMmdl.
 47 48  0  0  0  0  0  0  0  0  2 V2000
  142.8362  132.5487  158.3865 C   0  0  0  0  0  0  0  0  0  0  0  0
  143.6950  132.3828  157.2236 N   0  0  0  0  0  0  0  0  0  0  0  0
  145.0248  132.5506  157.2392 C   0  0  0  0  0  0  0  0  0  0  0  0
  145.6526  132.8709  158.2491 O   0  0  0  0  0  0  0  0  0  0  0  0
  145.7499  132.3415  155.9056 C   0  0  0  0  0  0  0  0  0  0  0  0
  145.2425  133.2237  154.8233 N   0  3  2  0  0  0  0  0  0  0  0  0
  146.1144  133.2051  153.6214 C   0  0  0  0  0  0  0  0  0  0  0  0
  145.4878  134.0064  152.4655 C   0  0  0  0  0  0  0  0  0  0  0  0
  145.1544  135.4512  152.8757 C   0  0  2  0  0  0  0  0  0  0  0  0
  146.3798  136.2356  153.0268 N   0  0  0  0  0  0  0  0  0  0  0  0
  146.4404  137.4994  153.4704 C   0  0  0  0  0  0  0  0  0  0  0  0
  145.4527  138.1397  153.8293 O   0  0  0  0  0  0  0  0  0  0  0  0
  147.7071  137.9472  153.4872 N   0  0  0  0  0  0  0  0  0  0  0  0
  148.1896  139.2291  153.8708 C   0  0  0  0  0  0  0  0  0  0  0  0
  147.3922  140.3995  153.8719 C   0  0  0  0  0  0  0  0  0  0  0  0
  147.9762  141.6233  154.2475 C   0  0  0  0  0  0  0  0  0  0  0  0
  149.3378  141.6358  154.6008 C   0  0  0  0  0  0  0  0  0  0  0  0
  150.1132  140.5322  154.5913 N   0  0  0  0  0  0  0  0  0  0  0  0
  149.5527  139.3509  154.2289 C   0  0  0  0  0  0  0  0  0  0  0  0
  150.3503  138.2223  154.2137 O   0  0  0  0  0  0  0  0  0  0  0  0
  151.7292  138.3605  154.5392 C   0  0  0  0  0  0  0  0  0  0  0  0
  144.3125  135.4447  154.1671 C   0  0  0  0  0  0  0  0  0  0  0  0
  144.9719  134.6130  155.2809 C   0  0  0  0  0  0  0  0  0  0  0  0
  141.7993  132.3500  158.1149 H   0  0  0  0  0  0  0  0  0  0  0  0
  142.8977  133.5670  158.7727 H   0  0  0  0  0  0  0  0  0  0  0  0
  143.1189  131.8571  159.1813 H   0  0  0  0  0  0  0  0  0  0  0  0
  143.2489  132.1273  156.3542 H   0  0  0  0  0  0  0  0  0  0  0  0
  146.8258  132.4784  156.0274 H   0  0  0  0  0  0  0  0  0  0  0  0
  145.5966  131.2971  155.6306 H   0  0  0  0  0  0  0  0  0  0  0  0
  147.0966  133.6063  153.8759 H   0  0  0  0  0  0  0  0  0  0  0  0
  146.2692  132.1760  153.2952 H   0  0  0  0  0  0  0  0  0  0  0  0
  146.1532  134.0018  151.6012 H   0  0  0  0  0  0  0  0  0  0  0  0
  144.5724  133.5073  152.1443 H   0  0  0  0  0  0  0  0  0  0  0  0
  144.5655  135.9015  152.0744 H   0  0  0  0  0  0  0  0  0  0  0  0
  147.2436  135.7910  152.7530 H   0  0  0  0  0  0  0  0  0  0  0  0
  148.4216  137.2746  153.2503 H   0  0  0  0  0  0  0  0  0  0  0  0
  146.3541  140.3873  153.5785 H   0  0  0  0  0  0  0  0  0  0  0  0
  147.3941  142.5331  154.2579 H   0  0  0  0  0  0  0  0  0  0  0  0
  149.8192  142.5575  154.8918 H   0  0  0  0  0  0  0  0  0  0  0  0
  152.2121  137.3852  154.4824 H   0  0  0  0  0  0  0  0  0  0  0  0
  151.8640  138.7368  155.5543 H   0  0  0  0  0  0  0  0  0  0  0  0
  152.2403  139.0238  153.8399 H   0  0  0  0  0  0  0  0  0  0  0  0
  144.1334  136.4622  154.5161 H   0  0  0  0  0  0  0  0  0  0  0  0
  143.3289  135.0268  153.9484 H   0  0  0  0  0  0  0  0  0  0  0  0
  144.3148  134.6008  156.1508 H   0  0  0  0  0  0  0  0  0  0  0  0
  145.9039  135.0819  155.6003 H   0  0  0  0  0  0  0  0  0  0  0  0
  144.3565  132.8307  154.5372 H   0  0  0  0  0  0  0  0  0  0  0  0
  1  2  1  0  0  0  0
  1 24  1  0  0  0  0
  1 25  1  0  0  0  0
  1 26  1  0  0  0  0
  2  3  1  0  0  0  0
  2 27  1  0  0  0  0
  3  4  2  0  0  0  0
  3  5  1  0  0  0  0
  5  6  1  0  0  0  0
  5 28  1  0  0  0  0
  5 29  1  0  0  0  0
  6 23  1  0  0  0  0
  6  7  1  0  0  0  0
  6 47  1  0  0  0  0
  7  8  1  0  0  0  0
  7 30  1  0  0  0  0
  7 31  1  0  0  0  0
  8  9  1  0  0  0  0
  8 32  1  0  0  0  0
  8 33  1  0  0  0  0
  9 10  1  0  0  0  0
  9 22  1  0  0  0  0
  9 34  1  0  0  0  0
 10 11  1  0  0  0  0
 10 35  1  0  0  0  0
 11 12  2  0  0  0  0
 11 13  1  0  0  0  0
 13 14  1  0  0  0  0
 13 36  1  0  0  0  0
 14 19  1  0  0  0  0
 14 15  2  0  0  0  0
 15 16  1  0  0  0  0
 15 37  1  0  0  0  0
 16 17  2  0  0  0  0
 16 38  1  0  0  0  0
 17 18  1  0  0  0  0
 17 39  1  0  0  0  0
 18 19  2  0  0  0  0
 19 20  1  0  0  0  0
 20 21  1  0  0  0  0
 21 40  1  0  0  0  0
 21 41  1  0  0  0  0
 21 42  1  0  0  0  0
 22 23  1  0  0  0  0
 22 43  1  0  0  0  0
 22 44  1  0  0  0  0
 23 45  1  0  0  0  0
 23 46  1  0  0  0  0
M  CHG  1   6   1
M  END
> <s_m_source_file>
AV-unprocessed.smi

> <i_m_source_file_index>
1898

> <i_lp_mmshare_version>
43012

> <i_f3d_flags>
0

> <s_epik_input>
W0NIM11bTkhdQyg9TylbQ0gyXU4xW0NIMl1bQ0gyXVtDSF0oW0NIMl1bQ0gyXTEpW05IXUMoPU8pW05IXWMyW2NIXVtjSF1bY0hdbmMyT1tDSDNd

> <s_epik_cmdline>
J2VwaWtfcHl0aG9uJywgJy1waCcsICc3LjAnLCAnLXRuJywgJzgnLCAnLW1hJywgJzIwMCcsICctbWV0YWxfYmluZGluZycsICctaW1hZScsICc8aW5maWxlLm1hZT4nLCAnLW9tYWUnLCAnPG91dGZpbGUubWFlPic=

> <r_lp_tautomer_probability>
1

> <r_epik_Ionization_Penalty>
0.838943

> <r_epik_Ionization_Penalty_Charging>
0.838844

> <r_epik_Ionization_Penalty_Neutral>
9.87395e-05

> <r_epik_State_Penalty>
0.8734

> <r_epik_Charging_Adjusted_Penalty>
1.71224

> <i_epik_Tot_Q>
1

> <i_epik_Tot_abs_Q>
1

> <r_epik_Metal_State_Penalty>
0.877926

> <b_epik_Metal_Only>
0

> <s_lp_Force_Field>
OPLS_2005

> <r_lp_Energy>
16.0451

> <b_lp_Chiralities_Consistent>
1

> <s_lp_Variant>
AV-unprocessed.smi:1898-3

> <Gold.Version>
5.8.1

> <Gold.Id.Protein>
6NUR|6NUR_protein|mol2

> <Gold.PLP.Fitness>
46.8276

> <Gold.PLP.PLP>
-27.2725

> <Gold.PLP.part.hbond>
-5.0000

> <Gold.PLP.part.metal>
0.0000

> <Gold.PLP.part.buried>
-3.7871

> <Gold.PLP.part.nonpolar>
-18.8558

> <Gold.PLP.part.repulsive>
0.5248

> <Gold.PLP.ligand.clash>
0.0000

> <Gold.PLP.ligand.torsion>
0.2654

> <Gold.PLP.Chemscore.Hbond>
5.6880

> <Gold.PLP.Chemscore.CHOScore>
0.9965

> <Gold.PLP.Chemscore.Metal>
0.0000

> <Gold.Chemscore.Hbonds>
donor molecule, donor type, donor heavy atom, donor atom, acceptor molecule, acceptor atom, score
      L1  H     2    27       P1 10957  1.00
      L1  H     6    47       P1 10957  2.00
      L1  H    10    35       P1  7948  0.82
      L1  H    13    36       P1  7948  0.82
      P1  H  7989  7998       L1    18  0.90
      L1  C    17    39       P1  8028  1.00

> <Gold.PLP.Chemscore.Internal.Correction>
0.0324

> <Gold.Rescore>
     Score         DG    S(hbond)    S(metal)    S(lipo)     H(rot)  DE(clash)    DE(int)     intcor
     17.46     -20.40       4.19        0.00      51.61       2.00       0.16       2.77       ----

> <Gold.Chemscore.Fitness>
17.4609

> <Gold.Chemscore.DG>
-20.3973

> <Gold.Chemscore.ZeroCoef>
-5.4800

> <Gold.Chemscore.Hbond>
4.1886

> <Gold.Chemscore.Metal>
0.0000

> <Gold.Chemscore.Lipo>
51.6054

> <Gold.Chemscore.Internal_Hbond>
0.0000

> <Gold.Chemscore.DEClash>
0.1620

> <Gold.Chemscore.DEInternal>
2.7745

> <Gold.Chemscore.Rot>
1.9963

> <Gold.Chemscore.Internal.Correction>
   9.000000E+99

> <Gold.Chemscore.Hbonds>
donor molecule, donor type, donor heavy atom, donor atom, acceptor molecule, acceptor atom, score
      L1  H     2    27       P1 10957  0.99
      L1  H     6    47       P1 10957  0.93
      L1  H    10    35       P1  7948  0.78
      L1  H    13    36       P1  7948  0.81
      P1  H  7989  7998       L1    18  0.43

> <Gold.Chemscore.Hbond.Weighted>
-13.9900

> <Gold.Chemscore.Metal.Weighted>
-0.0000

> <Gold.Chemscore.Lipo.Weighted>
-6.0378

> <Gold.Chemscore.Internal_Hbond.Weighted>
0.0000

> <Gold.Chemscore.DEClash.Weighted>
0.1620

> <Gold.Chemscore.DEInternal.Weighted>
2.7745

> <Gold.Chemscore.Rot.Weighted>
5.1105

> <Gold.Chemscore.Internal.Correction.Weighted>
   9.000000E+99

> <Gold.Protein.RotatedTorsions>
[ 6907 6896 6895 6894 ] final   32.37 input  -60.11 | X-H torsion
[ 7974 7965 7964 7962 ] final -112.07 input  175.53 | X-H torsion
[ 8008 7997 7996 7995 ] final -120.73 input   59.86 | X-H torsion
[ 10167 10162 10161 10158 ] final  -66.67 input  -65.29 | X-H torsion
[ 10718 10713 10712 10709 ] final   25.40 input   66.30 | X-H torsion
[ 10763 10752 10751 10750 ] final -178.03 input  -60.55 | X-H torsion
[ 11005 11000 10999 10996 ] final  -72.11 input  -57.11 | X-H torsion

> <Gold.Protein.ActiveResidues>
 VAL166  LYS551  ARG553  GLY616  TRP617  ASP618  TYR619  PRO620  LYS621  CYS622 
 ASP623  PHE694  ASN695  SER759  ASP760  ASP761  ALA762  ILE779  LEU786  VAL792 
 PHE793  MET794  SER795  GLU796  ALA797  LYS798  CYS799  TRP800  GLU811  SER814 

> <Gold.Protein.RotatedAtoms>
  152.0735  134.9518  160.0574 H   0  0  0  0  0  0  0  0  0  0  0  0  # atno 6907 bound_to 6896
  152.0834  133.4159  159.4519 H   0  0  0  0  0  0  0  0  0  0  0  0  # atno 6908 bound_to 6896
  150.6836  134.2875  159.4696 H   0  0  0  0  0  0  0  0  0  0  0  0  # atno 6909 bound_to 6896
  145.1484  140.8816  143.3661 H   0  0  0  0  0  0  0  0  0  0  0  0  # atno 7974 bound_to 7965
  155.1366  140.0401  157.2788 H   0  0  0  0  0  0  0  0  0  0  0  0  # atno 8008 bound_to 7997
  154.6503  140.2568  155.7194 H   0  0  0  0  0  0  0  0  0  0  0  0  # atno 8009 bound_to 7997
  156.2574  140.2837  156.0935 H   0  0  0  0  0  0  0  0  0  0  0  0  # atno 8010 bound_to 7997
  140.5640  143.2314  151.6672 H   0  0  0  0  0  0  0  0  0  0  0  0  # atno 10167 bound_to 10162
  157.1929  130.6854  149.6157 H   0  0  0  0  0  0  0  0  0  0  0  0  # atno 10718 bound_to 10713
  154.5527  135.2814  155.0993 H   0  0  0  0  0  0  0  0  0  0  0  0  # atno 10763 bound_to 10752
  154.2432  135.6353  153.5218 H   0  0  0  0  0  0  0  0  0  0  0  0  # atno 10764 bound_to 10752
  153.0007  135.5565  154.6098 H   0  0  0  0  0  0  0  0  0  0  0  0  # atno 10765 bound_to 10752
  141.1603  133.6837  156.7008 H   0  0  0  0  0  0  0  0  0  0  0  0  # atno 11005 bound_to 11000
  145.0457  139.3223  143.5954 LP  0  0  0  0  0  0  0  0  0  0  0  0  # atno 17320 bound_to 7965
  146.3497  139.9846  142.8692 LP  0  0  0  0  0  0  0  0  0  0  0  0  # atno 17321 bound_to 7965
  139.5084  144.3614  152.0559 LP  0  0  0  0  0  0  0  0  0  0  0  0  # atno 17342 bound_to 10162
  140.2743  144.3929  150.6140 LP  0  0  0  0  0  0  0  0  0  0  0  0  # atno 17343 bound_to 10162
  155.9709  130.4608  150.6088 LP  0  0  0  0  0  0  0  0  0  0  0  0  # atno 17370 bound_to 10713
  157.3843  131.0786  151.1450 LP  0  0  0  0  0  0  0  0  0  0  0  0  # atno 17371 bound_to 10713
  140.2960  134.8202  157.4057 LP  0  0  0  0  0  0  0  0  0  0  0  0  # atno 17394 bound_to 11000
  140.1304  134.5102  155.8110 LP  0  0  0  0  0  0  0  0  0  0  0  0  # atno 17395 bound_to 11000

$$$$
