#       Name:                AV-unprocessed.smi:34
#       Creating user name   scv26
#       Creation time:       Thu Mar 26 15:59:23 2020


#       File generated by GOLD software.
#

@<TRIPOS>MOLECULE
AV-unprocessed.smi:34
    66    70     1
SMALL
NO_CHARGES


@<TRIPOS>ATOM
      1 ****        -4.6890   3.2003   1.9469 O.2            1 S1                 0.0000
      2 ****        -5.0208   2.6637   0.8877 C.2            1 S1                 0.0000
      3 ****        -4.2721   2.4973  -0.2320 N.pl3          1 S1                -1.0000
      4 ****        -2.9930   2.9024  -0.2436 C.ar           1 S1                 0.0000
      5 ****        -2.6610   4.1154  -0.7553 N.ar           1 S1                 0.0000
      6 ****        -1.3858   4.5222  -0.7593 C.ar           1 S1                 0.0000
      7 ****        -0.2984   3.8842  -0.3145 N.ar           1 S1                 0.0000
      8 ****        -0.6192   2.6573   0.1892 C.ar           1 S1                 0.0000
      9 ****        -1.9294   2.1018   0.2559 C.ar           1 S1                 0.0000
     10 ****        -1.8986   0.8404   0.8313 N.2            1 S1                 0.0000
     11 ****        -0.6005   0.6938   1.0886 C.2            1 S1                 0.0000
     12 ****         0.2227   1.7040   0.7348 N.pl3          1 S1                 0.0000
     13 ****         1.7044   1.8351   0.9181 C.3            1 S1                 0.0000
     14 ****         2.1724   0.6946   1.5749 O.3            1 S1                 0.0000
     15 ****         2.6024  -0.2516   0.6059 C.3            1 S1                 0.0000
     16 ****         3.5096  -1.3003   1.2581 C.3            1 S1                 0.0000
     17 ****         3.8739  -2.2764   0.2962 O.3            1 S1                 0.0000
     18 ****         4.7215  -3.2686   0.6310 C.2            1 S1                 0.0000
     19 ****         5.2122  -3.3957   1.7546 O.2            1 S1                 0.0000
     20 ****         5.0020  -4.1997  -0.4996 C.ar           1 S1                 0.0000
     21 ****         5.8433  -5.3166  -0.2848 C.ar           1 S1                 0.0000
     22 ****         6.1243  -6.2152  -1.3322 C.ar           1 S1                 0.0000
     23 ****         5.5691  -6.0071  -2.6081 C.ar           1 S1                 0.0000
     24 ****         4.7327  -4.8985  -2.8353 C.ar           1 S1                 0.0000
     25 ****         4.4496  -3.9990  -1.7888 C.ar           1 S1                 0.0000
     26 ****         3.2981   0.6429  -0.4163 C.3            1 S1                 0.0000
     27 ****         3.3790   0.0610  -1.6135 F              1 S1                 0.0000
     28 ****         2.4095   1.8799  -0.4529 C.3            1 S1                 0.0000
     29 ****         3.1915   3.0449  -0.6180 O.3            1 S1                 0.0000
     30 ****        -6.4348   2.1706   0.7381 C.ar           1 S1                 0.0000
     31 ****        -7.4933   2.8871   1.3418 C.ar           1 S1                 0.0000
     32 ****        -8.8205   2.4272   1.2379 C.ar           1 S1                 0.0000
     33 ****        -9.1022   1.2397   0.5371 C.ar           1 S1                 0.0000
     34 ****        -8.0551   0.5106  -0.0570 C.ar           1 S1                 0.0000
     35 ****        -6.7275   0.9702   0.0456 C.ar           1 S1                 0.0000
     36 ****        -1.2117   5.5018  -1.1789 H              1 S1                 0.0000
     37 ****        -0.2325  -0.2028   1.5650 H              1 S1                 0.0000
     38 ****         1.8245   2.7310   1.5291 H              1 S1                 0.0000
     39 ****         1.7284  -0.7298   0.1604 H              1 S1                 0.0000
     40 ****         4.4001  -0.8262   1.6733 H              1 S1                 0.0000
     41 ****         2.9824  -1.7857   2.0805 H              1 S1                 0.0000
     42 ****         6.2812  -5.4975   0.6865 H              1 S1                 0.0000
     43 ****         6.7665  -7.0655  -1.1555 H              1 S1                 0.0000
     44 ****         5.7845  -6.6963  -3.4112 H              1 S1                 0.0000
     45 ****         4.3065  -4.7375  -3.8146 H              1 S1                 0.0000
     46 ****         3.8047  -3.1579  -1.9977 H              1 S1                 0.0000
     47 ****         4.3095   0.8852  -0.0860 H              1 S1                 0.0000
     48 ****         1.6766   1.8071  -1.2583 H              1 S1                 0.0000
     49 ****         3.8022   3.1013   0.1008 H              1 S1                 0.0000
     50 ****        -7.2933   3.7994   1.8852 H              1 S1                 0.0000
     51 ****        -9.6218   2.9855   1.6986 H              1 S1                 0.0000
     52 ****       -10.1196   0.8862   0.4589 H              1 S1                 0.0000
     53 ****        -8.2686  -0.4048  -0.5889 H              1 S1                 0.0000
     54 ****        -5.9369   0.3896  -0.4077 H              1 S1                 0.0000
     55 ****        -3.7682   3.5764   2.0498 LP             1 S1                 0.0000
     56 ****        -5.3407   3.2594   2.7030 LP             1 S1                 0.0000
     57 ****        -4.6721   2.0744  -1.0452 LP             1 S1                 0.0000
     58 ****        -3.3732   4.7082  -1.1313 LP             1 S1                 0.0000
     59 ****         0.6288   4.2573  -0.3468 LP             1 S1                 0.0000
     60 ****        -2.6527   0.2075   1.0067 LP             1 S1                 0.0000
     61 ****         1.4376   0.2997   2.1264 LP             1 S1                 0.0000
     62 ****         2.9394   0.9398   2.1678 LP             1 S1                 0.0000
     63 ****         4.9861  -2.7411   2.4759 LP             1 S1                 0.0000
     64 ****         5.8364  -4.1535   1.9448 LP             1 S1                 0.0000
     65 ****         2.5994   3.8507  -0.6214 LP             1 S1                 0.0000
     66 ****         3.6919   2.9954  -1.4824 LP             1 S1                 0.0000
@<TRIPOS>BOND
    1    1    2 2     
    2    2    3 1     
    3    2   30 1     
    4    3    4 1     
    5    4    9 ar    
    6    4    5 ar    
    7    5    6 ar    
    8    6    7 ar    
    9    6   36 1     
   10    7    8 ar    
   11    8   12 1     
   12    8    9 ar    
   13    9   10 1     
   14   10   11 2     
   15   11   12 1     
   16   11   37 1     
   17   12   13 1     
   18   13   28 1     
   19   13   14 1     
   20   13   38 1     
   21   14   15 1     
   22   15   16 1     
   23   15   26 1     
   24   15   39 1     
   25   16   17 1     
   26   16   40 1     
   27   16   41 1     
   28   17   18 1     
   29   18   19 2     
   30   18   20 1     
   31   20   25 ar    
   32   20   21 ar    
   33   21   22 ar    
   34   21   42 1     
   35   22   23 ar    
   36   22   43 1     
   37   23   24 ar    
   38   23   44 1     
   39   24   25 ar    
   40   24   45 1     
   41   25   46 1     
   42   26   27 1     
   43   26   28 1     
   44   26   47 1     
   45   28   29 1     
   46   28   48 1     
   47   29   49 1     
   48   30   35 ar    
   49   30   31 ar    
   50   31   32 ar    
   51   31   50 1     
   52   32   33 ar    
   53   32   51 1     
   54   33   34 ar    
   55   33   52 1     
   56   34   35 ar    
   57   34   53 1     
   58   35   54 1     
   59    1   55 1     
   60    1   56 1     
   61    3   57 1     
   62    5   58 1     
   63    7   59 1     
   64   10   60 1     
   65   14   61 1     
   66   14   62 1     
   67   19   63 1     
   68   19   64 1     
   69   29   65 1     
   70   29   66 1     
@<TRIPOS>SUBSTRUCTURE
      1 S1             1
@<TRIPOS>SET
LONE_PAIRS      STATIC     ATOMS    <user>   **** ""
12 55 56 57 58 59 60 61 62 63 64 65 66
DONOR_HYDROGENS      STATIC     ATOMS    <user>   **** ""
1 49
ATOM$BLUE        STATIC     ATOMS    COLORGROUP SYSTEM
12 55 56 57 58 59 60 61 62 63 64 65 66
ATOM$RED        STATIC     ATOMS    COLORGROUP SYSTEM
1 49
