AV-unprocessed.smi:1032|AV-procd|sdf|4482|dock2
  -GOLD-   22720 2463D 1   1.00000     0.00000
 Structure written by MMmdl.
 46 47  0  0  0  0  0  0  0  0  2 V2000
  143.5346  144.1603  156.2726 C   0  0  0  0  0  0  0  0  0  0  0  0
  144.8039  143.4952  155.7218 C   0  0  2  0  0  0  0  0  0  0  0  0
  145.0307  143.8446  154.2412 C   0  0  0  0  0  0  0  0  0  0  0  0
  146.2817  143.1444  153.6844 C   0  0  0  0  0  0  0  0  0  0  0  0
  146.1927  141.6706  153.8612 N   0  3  1  0  0  0  0  0  0  0  0  0
  147.3097  140.9311  153.2187 C   0  0  0  0  0  0  0  0  0  0  0  0
  147.1097  139.4024  153.2645 C   0  0  2  0  0  0  0  0  0  0  0  0
  148.3887  138.8014  153.2130 O   0  0  0  0  0  0  0  0  0  0  0  0
  146.2957  138.9013  152.0534 C   0  0  0  0  0  0  0  0  0  0  0  0
  146.5817  137.5051  151.7360 N   0  0  0  0  0  0  0  0  0  0  0  0
  145.6548  136.5612  151.5141 C   0  0  0  0  0  0  0  0  0  0  0  0
  144.4447  136.7767  151.5838 O   0  0  0  0  0  0  0  0  0  0  0  0
  146.2243  135.3760  151.2336 N   0  0  0  0  0  0  0  0  0  0  0  0
  145.6006  134.1341  150.9319 C   0  0  0  0  0  0  0  0  0  0  0  0
  144.1926  134.1122  150.8518 C   0  0  0  0  0  0  0  0  0  0  0  0
  143.5462  132.8920  150.5700 C   0  0  0  0  0  0  0  0  0  0  0  0
  144.2057  131.7303  150.3787 N   0  0  0  0  0  0  0  0  0  0  0  0
  145.5523  131.7495  150.4688 C   0  0  0  0  0  0  0  0  0  0  0  0
  146.2960  132.9146  150.7450 C   0  0  0  0  0  0  0  0  0  0  0  0
  146.0188  141.3059  155.2906 C   0  0  0  0  0  0  0  0  0  0  0  0
  144.7614  141.9659  155.8815 C   0  0  0  0  0  0  0  0  0  0  0  0
  142.6447  143.8187  155.7430 H   0  0  0  0  0  0  0  0  0  0  0  0
  143.5849  145.2450  156.1722 H   0  0  0  0  0  0  0  0  0  0  0  0
  143.3993  143.9340  157.3307 H   0  0  0  0  0  0  0  0  0  0  0  0
  145.6520  143.8738  156.2944 H   0  0  0  0  0  0  0  0  0  0  0  0
  144.1592  143.5522  153.6536 H   0  0  0  0  0  0  0  0  0  0  0  0
  145.1334  144.9240  154.1245 H   0  0  0  0  0  0  0  0  0  0  0  0
  146.3859  143.3975  152.6301 H   0  0  0  0  0  0  0  0  0  0  0  0
  147.1752  143.5194  154.1861 H   0  0  0  0  0  0  0  0  0  0  0  0
  147.4172  141.2747  152.1888 H   0  0  0  0  0  0  0  0  0  0  0  0
  148.2509  141.1715  153.7162 H   0  0  0  0  0  0  0  0  0  0  0  0
  146.6167  139.1134  154.1918 H   0  0  0  0  0  0  0  0  0  0  0  0
  148.3187  137.9889  152.7345 H   0  0  0  0  0  0  0  0  0  0  0  0
  145.2275  138.9908  152.2587 H   0  0  0  0  0  0  0  0  0  0  0  0
  146.4839  139.5185  151.1739 H   0  0  0  0  0  0  0  0  0  0  0  0
  147.5545  137.2446  151.6624 H   0  0  0  0  0  0  0  0  0  0  0  0
  147.2319  135.3475  151.2846 H   0  0  0  0  0  0  0  0  0  0  0  0
  143.6130  135.0120  150.9983 H   0  0  0  0  0  0  0  0  0  0  0  0
  142.4694  132.8486  150.4992 H   0  0  0  0  0  0  0  0  0  0  0  0
  146.0540  130.8043  150.3223 H   0  0  0  0  0  0  0  0  0  0  0  0
  147.3697  132.8431  150.8194 H   0  0  0  0  0  0  0  0  0  0  0  0
  145.9302  140.2231  155.3878 H   0  0  0  0  0  0  0  0  0  0  0  0
  146.9038  141.6039  155.8553 H   0  0  0  0  0  0  0  0  0  0  0  0
  144.6701  141.7028  156.9359 H   0  0  0  0  0  0  0  0  0  0  0  0
  143.8751  141.5663  155.3861 H   0  0  0  0  0  0  0  0  0  0  0  0
  145.3519  141.3656  153.3911 H   0  0  0  0  0  0  0  0  0  0  0  0
  1  2  1  0  0  0  0
  1 22  1  0  0  0  0
  1 23  1  0  0  0  0
  1 24  1  0  0  0  0
  2 21  1  0  0  0  0
  2  3  1  0  0  0  0
  2 25  1  0  0  0  0
  3  4  1  0  0  0  0
  3 26  1  0  0  0  0
  3 27  1  0  0  0  0
  4  5  1  0  0  0  0
  4 28  1  0  0  0  0
  4 29  1  0  0  0  0
  5  6  1  0  0  0  0
  5 20  1  0  0  0  0
  5 46  1  0  0  0  0
  6  7  1  0  0  0  0
  6 30  1  0  0  0  0
  6 31  1  0  0  0  0
  7  8  1  0  0  0  0
  7  9  1  0  0  0  0
  7 32  1  0  0  0  0
  8 33  1  0  0  0  0
  9 10  1  0  0  0  0
  9 34  1  0  0  0  0
  9 35  1  0  0  0  0
 10 11  1  0  0  0  0
 10 36  1  0  0  0  0
 11 12  2  0  0  0  0
 11 13  1  0  0  0  0
 13 14  1  0  0  0  0
 13 37  1  0  0  0  0
 14 19  1  0  0  0  0
 14 15  2  0  0  0  0
 15 16  1  0  0  0  0
 15 38  1  0  0  0  0
 16 17  2  0  0  0  0
 16 39  1  0  0  0  0
 17 18  1  0  0  0  0
 18 19  2  0  0  0  0
 18 40  1  0  0  0  0
 19 41  1  0  0  0  0
 20 21  1  0  0  0  0
 20 42  1  0  0  0  0
 20 43  1  0  0  0  0
 21 44  1  0  0  0  0
 21 45  1  0  0  0  0
M  CHG  1   5   1
M  END
> <s_m_source_file>
AV-unprocessed.smi

> <i_m_source_file_index>
1032

> <i_lp_mmshare_version>
43012

> <i_f3d_flags>
0

> <s_epik_input>
W0NIM11bQ0hdMVtDSDJdW0NIMl1OKFtDSDJdW0NIMl0xKVtDSDJdW0NASF0oW09IXSlbQ0gyXVtOSF1DKD1PKVtOSF1jMltjSF1bY0hdbltjSF1bY0hdMg==

> <s_epik_cmdline>
J2VwaWtfcHl0aG9uJywgJy1waCcsICc3LjAnLCAnLXRuJywgJzgnLCAnLW1hJywgJzIwMCcsICctbWV0YWxfYmluZGluZycsICctaW1hZScsICc8aW5maWxlLm1hZT4nLCAnLW9tYWUnLCAnPG91dGZpbGUubWFlPic=

> <r_epik_Ionization_Penalty>
0.11743

> <r_epik_Ionization_Penalty_Charging>
0.00147689

> <r_epik_Ionization_Penalty_Neutral>
0.115954

> <r_epik_State_Penalty>
0.105552

> <r_epik_Charging_Adjusted_Penalty>
0.107029

> <i_epik_Tot_Q>
1

> <i_epik_Tot_abs_Q>
1

> <r_epik_Metal_State_Penalty>
0.0881315

> <b_epik_Metal_Only>
0

> <s_lp_Force_Field>
OPLS_2005

> <r_lp_Energy>
24.9442

> <b_lp_Chiralities_Consistent>
1

> <s_lp_Variant>
AV-unprocessed.smi:1032-1

> <Gold.Version>
5.8.1

> <Gold.Id.Protein>
6NUR|6NUR_protein|mol2

> <Gold.PLP.Fitness>
55.3375

> <Gold.PLP.PLP>
-36.8750

> <Gold.PLP.part.hbond>
-5.3786

> <Gold.PLP.part.metal>
0.0000

> <Gold.PLP.part.buried>
-3.2108

> <Gold.PLP.part.nonpolar>
-32.0837

> <Gold.PLP.part.repulsive>
3.6899

> <Gold.PLP.ligand.clash>
0.0000

> <Gold.PLP.ligand.torsion>
0.6631

> <Gold.PLP.Chemscore.Hbond>
4.9170

> <Gold.PLP.Chemscore.CHOScore>
1.6689

> <Gold.PLP.Chemscore.Metal>
0.0000

> <Gold.Chemscore.Hbonds>
donor molecule, donor type, donor heavy atom, donor atom, acceptor molecule, acceptor atom, score
      L1  H     5    46       P1 10175  1.58
      L1  H     8    33       P1  7948  0.98
      L1  H    10    36       P1  7948  1.00
      L1  H    13    37       P1  7948  1.00
      L1  C    16    39       P1 10186  0.98
      L1  C    18    40       P1 10747  0.04

> <Gold.PLP.Chemscore.Internal.Correction>
0.0309

> <Gold.Rescore>
     Score         DG    S(hbond)    S(metal)    S(lipo)     H(rot)  DE(clash)    DE(int)     intcor
     17.32     -19.83       3.23        0.00      80.47       2.29       0.50       2.01       ----

> <Gold.Chemscore.Fitness>
17.3214

> <Gold.Chemscore.DG>
-19.8329

> <Gold.Chemscore.ZeroCoef>
-5.4800

> <Gold.Chemscore.Hbond>
3.2311

> <Gold.Chemscore.Metal>
0.0000

> <Gold.Chemscore.Lipo>
80.4666

> <Gold.Chemscore.Internal_Hbond>
0.0000

> <Gold.Chemscore.DEClash>
0.5012

> <Gold.Chemscore.DEInternal>
2.0103

> <Gold.Chemscore.Rot>
2.2865

> <Gold.Chemscore.Internal.Correction>
   9.000000E+99

> <Gold.Chemscore.Hbonds>
donor molecule, donor type, donor heavy atom, donor atom, acceptor molecule, acceptor atom, score
      L1  H     5    46       P1 10175  0.15
      L1  H     8    33       P1  7948  0.90
      L1  H    10    36       P1  7948  0.99
      L1  H    13    37       P1  7948  0.76
      P1  H 10785 10796       L1    17  0.01

> <Gold.Chemscore.Hbond.Weighted>
-10.7919

> <Gold.Chemscore.Metal.Weighted>
-0.0000

> <Gold.Chemscore.Lipo.Weighted>
-9.4146

> <Gold.Chemscore.Internal_Hbond.Weighted>
0.0000

> <Gold.Chemscore.DEClash.Weighted>
0.5012

> <Gold.Chemscore.DEInternal.Weighted>
2.0103

> <Gold.Chemscore.Rot.Weighted>
5.8536

> <Gold.Chemscore.Internal.Correction.Weighted>
   9.000000E+99

> <Gold.Protein.RotatedTorsions>
[ 6907 6896 6895 6894 ] final   36.79 input  -60.11 | X-H torsion
[ 7974 7965 7964 7962 ] final  159.78 input  175.53 | X-H torsion
[ 8008 7997 7996 7995 ] final -161.19 input   59.86 | X-H torsion
[ 10167 10162 10161 10158 ] final   -3.36 input  -65.29 | X-H torsion
[ 10718 10713 10712 10709 ] final   17.48 input   66.30 | X-H torsion
[ 10763 10752 10751 10750 ] final  -73.04 input  -60.55 | X-H torsion
[ 11005 11000 10999 10996 ] final   78.09 input  -57.11 | X-H torsion

> <Gold.Protein.ActiveResidues>
 VAL166  LYS551  ARG553  GLY616  TRP617  ASP618  TYR619  PRO620  LYS621  CYS622 
 ASP623  PHE694  ASN695  SER759  ASP760  ASP761  ALA762  ILE779  LEU786  VAL792 
 PHE793  MET794  SER795  GLU796  ALA797  LYS798  CYS799  TRP800  GLU811  SER814 

> <Gold.Protein.RotatedAtoms>
  152.1344  134.9110  160.0556 H   0  0  0  0  0  0  0  0  0  0  0  0  # atno 6907 bound_to 6896
  152.0202  133.3891  159.4263 H   0  0  0  0  0  0  0  0  0  0  0  0  # atno 6908 bound_to 6896
  150.6859  134.3556  159.4971 H   0  0  0  0  0  0  0  0  0  0  0  0  # atno 6909 bound_to 6896
  144.7772  139.7664  143.6274 H   0  0  0  0  0  0  0  0  0  0  0  0  # atno 7974 bound_to 7965
  155.7886  140.0875  157.2021 H   0  0  0  0  0  0  0  0  0  0  0  0  # atno 8008 bound_to 7997
  154.3986  140.1494  156.3194 H   0  0  0  0  0  0  0  0  0  0  0  0  # atno 8009 bound_to 7997
  155.8582  140.3431  155.5741 H   0  0  0  0  0  0  0  0  0  0  0  0  # atno 8010 bound_to 7997
  140.6887  143.6549  150.8318 H   0  0  0  0  0  0  0  0  0  0  0  0  # atno 10167 bound_to 10162
  157.0827  130.6394  149.5830 H   0  0  0  0  0  0  0  0  0  0  0  0  # atno 10718 bound_to 10713
  154.4540  135.5910  153.6210 H   0  0  0  0  0  0  0  0  0  0  0  0  # atno 10763 bound_to 10752
  152.9816  135.6028  154.3569 H   0  0  0  0  0  0  0  0  0  0  0  0  # atno 10764 bound_to 10752
  154.3434  135.2841  155.2389 H   0  0  0  0  0  0  0  0  0  0  0  0  # atno 10765 bound_to 10752
  139.9227  134.7736  156.1605 H   0  0  0  0  0  0  0  0  0  0  0  0  # atno 11005 bound_to 11000
  146.1959  139.5225  142.9775 LP  0  0  0  0  0  0  0  0  0  0  0  0  # atno 17320 bound_to 7965
  145.6152  141.0332  143.1944 LP  0  0  0  0  0  0  0  0  0  0  0  0  # atno 17321 bound_to 7965
  140.0259  143.5494  152.2781 LP  0  0  0  0  0  0  0  0  0  0  0  0  # atno 17342 bound_to 10162
  139.6269  144.7638  151.2619 LP  0  0  0  0  0  0  0  0  0  0  0  0  # atno 17343 bound_to 10162
  155.9919  130.4975  150.7319 LP  0  0  0  0  0  0  0  0  0  0  0  0  # atno 17370 bound_to 10713
  157.4787  131.0900  151.0561 LP  0  0  0  0  0  0  0  0  0  0  0  0  # atno 17371 bound_to 10713
  141.0761  133.6775  156.2238 LP  0  0  0  0  0  0  0  0  0  0  0  0  # atno 17394 bound_to 11000
  140.6427  134.5149  157.5571 LP  0  0  0  0  0  0  0  0  0  0  0  0  # atno 17395 bound_to 11000

$$$$
