AV-unprocessed.smi:109|AV-procd|sdf|1046|dock10
  -GOLD-   2262018 93D 1   1.00000     0.00000
 Structure written by MMmdl.
 58 61  0  0  0  0  0  0  0  0  1 V2000
  149.1967  141.3706  153.6557 O   0  0  0  0  0  0  0  0  0  0  0  0
  149.2797  140.8314  154.9570 C   0  0  0  0  0  0  0  0  0  0  0  0
  150.3863  141.5448  155.7502 C   0  0  0  0  0  0  0  0  0  0  0  0
  150.7358  140.8248  157.0714 C   0  0  1  0  0  0  0  0  0  0  0  0
  151.1539  139.4520  156.7892 N   0  0  0  0  0  0  0  0  0  0  0  0
  150.5445  138.3909  157.3623 C   0  0  0  0  0  0  0  0  0  0  0  0
  150.4253  138.2856  158.7115 N   0  0  0  0  0  0  0  0  0  0  0  0
  149.8056  137.2303  159.2474 C   0  0  0  0  0  0  0  0  0  0  0  0
  149.2419  136.1917  158.6276 N   0  0  0  0  0  0  0  0  0  0  0  0
  149.3609  136.2902  157.2713 C   0  0  0  0  0  0  0  0  0  0  0  0
  149.9951  137.3519  156.5681 C   0  0  0  0  0  0  0  0  0  0  0  0
  149.9234  137.1215  155.2007 N   0  0  0  0  0  0  0  0  0  0  0  0
  149.2783  135.9901  155.1048 C   0  0  0  0  0  0  0  0  0  0  0  0
  148.8962  135.4241  156.3006 N   0  0  0  0  0  0  0  0  0  0  0  0
  148.1317  134.1520  156.4986 C   0  0  1  0  0  0  0  0  0  0  0  0
  148.0136  133.4858  155.2814 O   0  0  0  0  0  0  0  0  0  0  0  0
  148.1021  132.0734  155.4671 C   0  0  1  0  0  0  0  0  0  0  0  0
  149.2528  131.5572  154.5869 C   0  0  0  0  0  0  0  0  0  0  0  0
  149.3416  130.1503  154.6684 O   0  0  0  0  0  0  0  0  0  0  0  0
  148.3325  131.8451  156.9729 C   0  0  2  0  0  0  0  0  0  0  0  0
  147.1055  131.4975  157.5855 O   0  0  0  0  0  0  0  0  0  0  0  0
  148.8105  133.1935  157.4848 C   0  0  1  0  0  0  0  0  0  0  0  0
  150.2247  133.2721  157.4718 O   0  0  0  0  0  0  0  0  0  0  0  0
  151.8003  141.5568  157.9341 C   0  0  0  0  0  0  0  0  0  0  0  0
  152.0482  140.8663  159.2927 C   0  0  0  0  0  0  0  0  0  0  0  0
  153.1800  141.5545  160.0734 C   0  0  0  0  0  0  0  0  0  0  0  0
  152.8876  143.0498  160.2721 C   0  0  0  0  0  0  0  0  0  0  0  0
  152.6363  143.7485  158.9269 C   0  0  0  0  0  0  0  0  0  0  0  0
  151.5069  143.0600  158.1430 C   0  0  0  0  0  0  0  0  0  0  0  0
  147.1409  134.4632  156.8324 H   0  0  0  0  0  0  0  0  0  0  0  0
  147.1663  131.6218  155.1332 H   0  0  0  0  0  0  0  0  0  0  0  0
  149.0451  131.0449  157.1781 H   0  0  0  0  0  0  0  0  0  0  0  0
  148.4710  133.4077  158.4991 H   0  0  0  0  0  0  0  0  0  0  0  0
  149.1278  140.6572  153.0396 H   0  0  0  0  0  0  0  0  0  0  0  0
  148.3151  140.9495  155.4514 H   0  0  0  0  0  0  0  0  0  0  0  0
  149.4789  139.7621  154.8811 H   0  0  0  0  0  0  0  0  0  0  0  0
  151.2770  141.6399  155.1278 H   0  0  0  0  0  0  0  0  0  0  0  0
  150.0494  142.5598  155.9568 H   0  0  0  0  0  0  0  0  0  0  0  0
  149.8137  140.7896  157.6525 H   0  0  0  0  0  0  0  0  0  0  0  0
  151.9486  139.3568  156.1733 H   0  0  0  0  0  0  0  0  0  0  0  0
  149.7508  137.2176  160.3259 H   0  0  0  0  0  0  0  0  0  0  0  0
  149.0534  135.5372  154.1500 H   0  0  0  0  0  0  0  0  0  0  0  0
  149.0773  131.8259  153.5448 H   0  0  0  0  0  0  0  0  0  0  0  0
  150.2040  132.0034  154.8778 H   0  0  0  0  0  0  0  0  0  0  0  0
  148.5095  129.8141  154.9646 H   0  0  0  0  0  0  0  0  0  0  0  0
  147.2671  130.7985  158.2008 H   0  0  0  0  0  0  0  0  0  0  0  0
  150.4968  133.6098  156.6321 H   0  0  0  0  0  0  0  0  0  0  0  0
  152.7451  141.4922  157.3921 H   0  0  0  0  0  0  0  0  0  0  0  0
  151.1443  140.8808  159.9012 H   0  0  0  0  0  0  0  0  0  0  0  0
  152.2993  139.8165  159.1376 H   0  0  0  0  0  0  0  0  0  0  0  0
  153.3117  141.0699  161.0412 H   0  0  0  0  0  0  0  0  0  0  0  0
  154.1219  141.4336  159.5367 H   0  0  0  0  0  0  0  0  0  0  0  0
  152.0143  143.1687  160.9147 H   0  0  0  0  0  0  0  0  0  0  0  0
  153.7202  143.5266  160.7900 H   0  0  0  0  0  0  0  0  0  0  0  0
  152.3871  144.7969  159.0935 H   0  0  0  0  0  0  0  0  0  0  0  0
  153.5512  143.7389  158.3331 H   0  0  0  0  0  0  0  0  0  0  0  0
  151.3809  143.5590  157.1818 H   0  0  0  0  0  0  0  0  0  0  0  0
  150.5698  143.1895  158.6847 H   0  0  0  0  0  0  0  0  0  0  0  0
  1  2  1  0  0  0  0
  1 34  1  0  0  0  0
  2  3  1  0  0  0  0
  2 35  1  0  0  0  0
  2 36  1  0  0  0  0
  3  4  1  0  0  0  0
  3 37  1  0  0  0  0
  3 38  1  0  0  0  0
  4  5  1  0  0  0  0
  4 24  1  0  0  0  0
  4 39  1  0  0  0  0
  5  6  1  0  0  0  0
  5 40  1  0  0  0  0
  6 11  1  0  0  0  0
  6  7  2  0  0  0  0
  7  8  1  0  0  0  0
  8  9  2  0  0  0  0
  8 41  1  0  0  0  0
  9 10  1  0  0  0  0
 10 14  1  0  0  0  0
 10 11  2  0  0  0  0
 11 12  1  0  0  0  0
 12 13  2  0  0  0  0
 13 14  1  0  0  0  0
 13 42  1  0  0  0  0
 14 15  1  0  0  0  0
 15 30  1  0  0  0  0
 15 22  1  0  0  0  0
 15 16  1  0  0  0  0
 16 17  1  0  0  0  0
 17 31  1  0  0  0  0
 17 18  1  0  0  0  0
 17 20  1  0  0  0  0
 18 19  1  0  0  0  0
 18 43  1  0  0  0  0
 18 44  1  0  0  0  0
 19 45  1  0  0  0  0
 20 32  1  0  0  0  0
 20 21  1  0  0  0  0
 20 22  1  0  0  0  0
 21 46  1  0  0  0  0
 22 33  1  0  0  0  0
 22 23  1  0  0  0  0
 23 47  1  0  0  0  0
 24 29  1  0  0  0  0
 24 25  1  0  0  0  0
 24 48  1  0  0  0  0
 25 26  1  0  0  0  0
 25 49  1  0  0  0  0
 25 50  1  0  0  0  0
 26 27  1  0  0  0  0
 26 51  1  0  0  0  0
 26 52  1  0  0  0  0
 27 28  1  0  0  0  0
 27 53  1  0  0  0  0
 27 54  1  0  0  0  0
 28 29  1  0  0  0  0
 28 55  1  0  0  0  0
 28 56  1  0  0  0  0
 29 57  1  0  0  0  0
 29 58  1  0  0  0  0
M  END
> <s_m_source_file>
AV-unprocessed.smi

> <i_m_source_file_index>
109

> <i_lp_mmshare_version>
43012

> <i_f3d_flags>
0

> <s_epik_input>
W0NIMl0xW0NIMl1bQ0gyXVtDSDJdW0NIMl1bQ0hdMVtDQEhdKFtDSDJdW0NIMl1bT0hdKVtOSF1jKG5bY0hdbjIpYyhjMjMpbltjSF1uM1tDQEBIXTRPW0NASF0oW0NIMl1bT0hdKVtDQEBIXShbT0hdKVtDQEhdNFtPSF0=

> <s_epik_cmdline>
J2VwaWtfcHl0aG9uJywgJy1waCcsICc3LjAnLCAnLXRuJywgJzgnLCAnLW1hJywgJzIwMCcsICctbWV0YWxfYmluZGluZycsICctaW1hZScsICc8aW5maWxlLm1hZT4nLCAnLW9tYWUnLCAnPG91dGZpbGUubWFlPic=

> <r_lp_tautomer_probability>
1

> <r_epik_Ionization_Penalty>
0.000793976

> <r_epik_Ionization_Penalty_Charging>
0

> <r_epik_Ionization_Penalty_Neutral>
0.000793976

> <r_epik_State_Penalty>
-0

> <r_epik_Charging_Adjusted_Penalty>
0

> <i_epik_Tot_Q>
0

> <i_epik_Tot_abs_Q>
0

> <r_epik_Metal_State_Penalty>
-0

> <b_epik_Metal_Only>
0

> <s_epik_Chemistry_Notes>
This compound contains an acetal/aminal-like group ( X-CH(R)-Y where X, Y are N, S, or O) that may be acid/base labile, releasing an aldehyde.

> <s_lp_Force_Field>
OPLS_2005

> <r_lp_Energy>
52.4563

> <b_lp_Chiralities_Consistent>
1

> <s_lp_Variant>
AV-unprocessed.smi:109-16

> <Gold.Version>
5.8.1

> <Gold.Id.Protein>
6NUR|6NUR_protein|mol2

> <Gold.PLP.Fitness>
50.6452

> <Gold.PLP.PLP>
-40.8194

> <Gold.PLP.part.hbond>
-4.7872

> <Gold.PLP.part.metal>
0.0000

> <Gold.PLP.part.buried>
-6.6322

> <Gold.PLP.part.nonpolar>
-29.8574

> <Gold.PLP.part.repulsive>
0.2190

> <Gold.PLP.ligand.clash>
0.0000

> <Gold.PLP.ligand.torsion>
0.7942

> <Gold.PLP.Chemscore.Hbond>
2.7952

> <Gold.PLP.Chemscore.CHOScore>
0.9565

> <Gold.PLP.Chemscore.Metal>
0.0000

> <Gold.Chemscore.Hbonds>
donor molecule, donor type, donor heavy atom, donor atom, acceptor molecule, acceptor atom, score
      L1  H     1    34       P1  7957  0.87
      P1  H  6896  6907       L1    23  1.00
      P1  H  8011  8017       L1     1  0.39
      L1  C    13    42       P1  7948  1.00

> <Gold.PLP.Chemscore.Internal.Correction>
0.1591

> <Gold.Rescore>
     Score         DG    S(hbond)    S(metal)    S(lipo)     H(rot)  DE(clash)    DE(int)     intcor
      8.37     -10.01       2.22        0.00      94.99       5.47       0.07       1.57       ----

> <Gold.Chemscore.Fitness>
8.3716

> <Gold.Chemscore.DG>
-10.0079

> <Gold.Chemscore.ZeroCoef>
-5.4800

> <Gold.Chemscore.Hbond>
2.2180

> <Gold.Chemscore.Metal>
0.0000

> <Gold.Chemscore.Lipo>
94.9865

> <Gold.Chemscore.Internal_Hbond>
0.0000

> <Gold.Chemscore.DEClash>
0.0699

> <Gold.Chemscore.DEInternal>
1.5665

> <Gold.Chemscore.Rot>
5.4662

> <Gold.Chemscore.Internal.Correction>
   9.000000E+99

> <Gold.Chemscore.Hbonds>
donor molecule, donor type, donor heavy atom, donor atom, acceptor molecule, acceptor atom, score
      L1  H     1    34       P1  7957  0.80
      P1  H  6896  6907       L1    23  0.88
      P1  H  8011  8017       L1     1  0.01

> <Gold.Chemscore.Hbond.Weighted>
-7.4080

> <Gold.Chemscore.Metal.Weighted>
-0.0000

> <Gold.Chemscore.Lipo.Weighted>
-11.1134

> <Gold.Chemscore.Internal_Hbond.Weighted>
0.0000

> <Gold.Chemscore.DEClash.Weighted>
0.0699

> <Gold.Chemscore.DEInternal.Weighted>
1.5665

> <Gold.Chemscore.Rot.Weighted>
13.9935

> <Gold.Chemscore.Internal.Correction.Weighted>
   9.000000E+99

> <Gold.Protein.RotatedTorsions>
[ 6907 6896 6895 6894 ] final -140.72 input  -60.11 | X-H torsion
[ 7974 7965 7964 7962 ] final  116.82 input  175.53 | X-H torsion
[ 8008 7997 7996 7995 ] final  -31.28 input   59.86 | X-H torsion
[ 10167 10162 10161 10158 ] final  151.60 input  -65.29 | X-H torsion
[ 10718 10713 10712 10709 ] final  -70.56 input   66.30 | X-H torsion
[ 10763 10752 10751 10750 ] final   57.58 input  -60.55 | X-H torsion
[ 11005 11000 10999 10996 ] final   77.17 input  -57.11 | X-H torsion

> <Gold.Protein.ActiveResidues>
 VAL166  LYS551  ARG553  GLY616  TRP617  ASP618  TYR619  PRO620  LYS621  CYS622 
 ASP623  PHE694  ASN695  SER759  ASP760  ASP761  ALA762  ILE779  LEU786  VAL792 
 PHE793  MET794  SER795  GLU796  ALA797  LYS798  CYS799  TRP800  GLU811  SER814 

> <Gold.Protein.RotatedAtoms>
  151.0643  133.5518  159.2631 H   0  0  0  0  0  0  0  0  0  0  0  0  # atno 6907 bound_to 6896
  151.2481  135.0612  159.9061 H   0  0  0  0  0  0  0  0  0  0  0  0  # atno 6908 bound_to 6896
  152.5402  134.0408  159.8120 H   0  0  0  0  0  0  0  0  0  0  0  0  # atno 6909 bound_to 6896
  145.1749  139.3081  143.4448 H   0  0  0  0  0  0  0  0  0  0  0  0  # atno 7974 bound_to 7965
  154.4219  140.1768  156.1541 H   0  0  0  0  0  0  0  0  0  0  0  0  # atno 8008 bound_to 7997
  155.9891  140.3370  155.6711 H   0  0  0  0  0  0  0  0  0  0  0  0  # atno 8009 bound_to 7997
  155.6397  140.0678  157.2613 H   0  0  0  0  0  0  0  0  0  0  0  0  # atno 8010 bound_to 7997
  139.4839  144.5427  151.7537 H   0  0  0  0  0  0  0  0  0  0  0  0  # atno 10167 bound_to 10162
  156.0402  130.4334  150.2313 H   0  0  0  0  0  0  0  0  0  0  0  0  # atno 10718 bound_to 10713
  152.9853  135.5636  154.5414 H   0  0  0  0  0  0  0  0  0  0  0  0  # atno 10763 bound_to 10752
  154.4868  135.2791  155.1530 H   0  0  0  0  0  0  0  0  0  0  0  0  # atno 10764 bound_to 10752
  154.3016  135.6306  153.5480 H   0  0  0  0  0  0  0  0  0  0  0  0  # atno 10765 bound_to 10752
  139.9266  134.7661  156.1488 H   0  0  0  0  0  0  0  0  0  0  0  0  # atno 11005 bound_to 11000
  146.3462  140.1908  142.8589 LP  0  0  0  0  0  0  0  0  0  0  0  0  # atno 17320 bound_to 7965
  145.0195  140.8782  143.5175 LP  0  0  0  0  0  0  0  0  0  0  0  0  # atno 17321 bound_to 7965
  140.4969  144.1227  150.5962 LP  0  0  0  0  0  0  0  0  0  0  0  0  # atno 17342 bound_to 10162
  140.4107  143.2658  151.9836 LP  0  0  0  0  0  0  0  0  0  0  0  0  # atno 17343 bound_to 10162
  157.0409  131.0035  151.3284 LP  0  0  0  0  0  0  0  0  0  0  0  0  # atno 17370 bound_to 10713
  157.5210  130.7998  149.7809 LP  0  0  0  0  0  0  0  0  0  0  0  0  # atno 17371 bound_to 10713
  141.0827  133.6747  156.2371 LP  0  0  0  0  0  0  0  0  0  0  0  0  # atno 17394 bound_to 11000
  140.6319  134.5255  157.5560 LP  0  0  0  0  0  0  0  0  0  0  0  0  # atno 17395 bound_to 11000

$$$$
