AV-unprocessed.smi:726|AV-procd|sdf|3515|dock1
  -GOLD-   22720 0513D 1   1.00000     0.00000
 Structure written by MMmdl.
 24 24  0  0  0  0  0  0  0  0  2 V2000
  153.0557  140.4386  159.7335 C   0  0  0  0  0  0  0  0  0  0  0  0
  152.4520  141.5988  158.9529 C   0  0  0  0  0  0  0  0  0  0  0  0
  152.7804  142.8640  159.3031 C   0  0  0  0  0  0  0  0  0  0  0  0
  152.1550  144.0181  158.6375 C   0  0  0  0  0  0  0  0  0  0  0  0
  152.4898  145.1757  158.8822 O   0  0  0  0  0  0  0  0  0  0  0  0
  151.0902  143.6986  157.6783 C   0  0  0  0  0  0  0  0  0  0  0  0
  150.8343  142.4080  157.3899 C   0  0  0  0  0  0  0  0  0  0  0  0
  149.8313  142.0729  156.5657 O   0  0  0  0  0  0  0  0  0  0  0  0
  151.5360  141.3005  157.9167 N   0  0  0  0  0  0  0  0  0  0  0  0
  151.4704  139.9439  157.3235 C   0  0  1  0  0  0  0  0  0  0  0  0
  150.1767  139.1913  157.6998 C   0  0  0  0  0  0  0  0  0  0  0  0
  151.8166  139.9121  155.8219 C   0  0  0  0  0  0  0  0  0  0  0  0
  151.0148  140.4373  155.0173 O   0  0  0  0  0  0  0  0  0  0  0  0
  152.8896  139.3526  155.5055 O   0  5  0  0  0  0  0  0  0  0  0  0
  153.3913  140.7678  160.7175 H   0  0  0  0  0  0  0  0  0  0  0  0
  153.9189  140.0321  159.2056 H   0  0  0  0  0  0  0  0  0  0  0  0
  152.3308  139.6416  159.9008 H   0  0  0  0  0  0  0  0  0  0  0  0
  153.4812  143.0575  160.1024 H   0  0  0  0  0  0  0  0  0  0  0  0
  150.5166  144.5045  157.2442 H   0  0  0  0  0  0  0  0  0  0  0  0
  152.2731  139.3356  157.7320 H   0  0  0  0  0  0  0  0  0  0  0  0
  150.1934  138.1694  157.3195 H   0  0  0  0  0  0  0  0  0  0  0  0
  149.2831  139.6721  157.3035 H   0  0  0  0  0  0  0  0  0  0  0  0
  150.0651  139.1316  158.7824 H   0  0  0  0  0  0  0  0  0  0  0  0
  149.5694  142.8539  156.1035 H   0  0  0  0  0  0  0  0  0  0  0  0
  1  2  1  0  0  0  0
  1 15  1  0  0  0  0
  1 16  1  0  0  0  0
  1 17  1  0  0  0  0
  2  9  1  0  0  0  0
  2  3  2  0  0  0  0
  3  4  1  0  0  0  0
  3 18  1  0  0  0  0
  4  5  2  0  0  0  0
  4  6  1  0  0  0  0
  6  7  2  0  0  0  0
  6 19  1  0  0  0  0
  7  8  1  0  0  0  0
  7  9  1  0  0  0  0
  8 24  1  0  0  0  0
  9 10  1  0  0  0  0
 10 11  1  0  0  0  0
 10 12  1  0  0  0  0
 10 20  1  0  0  0  0
 11 21  1  0  0  0  0
 11 22  1  0  0  0  0
 11 23  1  0  0  0  0
 12 13  2  0  0  0  0
 12 14  1  0  0  0  0
M  CHG  1  14  -1
M  END
> <s_m_source_file>
AV-unprocessed.smi

> <i_m_source_file_index>
726

> <i_lp_mmshare_version>
43012

> <i_f3d_flags>
0

> <s_epik_input>
W0NIM11jMVtjSF1jKFtPSF0pW2NIXWMoPU8pbjFbQ0BIXShbQ0gzXSlDKD1PKVtPSF0=

> <s_epik_cmdline>
J2VwaWtfcHl0aG9uJywgJy1waCcsICc3LjAnLCAnLXRuJywgJzgnLCAnLW1hJywgJzIwMCcsICctbWV0YWxfYmluZGluZycsICctaW1hZScsICc8aW5maWxlLm1hZT4nLCAnLW9tYWUnLCAnPG91dGZpbGUubWFlPic=

> <r_epik_Ionization_Penalty>
0.000857085

> <r_epik_Ionization_Penalty_Charging>
0.000857085

> <r_epik_Ionization_Penalty_Neutral>
0

> <r_epik_State_Penalty>
1.45659

> <r_epik_Charging_Adjusted_Penalty>
1.45745

> <i_epik_Tot_Q>
-1

> <i_epik_Tot_abs_Q>
1

> <r_epik_Metal_State_Penalty>
1.45659

> <b_epik_Metal_Only>
0

> <s_lp_Force_Field>
OPLS_2005

> <r_lp_Energy>
4.31766

> <b_lp_Chiralities_Consistent>
1

> <s_lp_Variant>
AV-unprocessed.smi:726-6

> <Gold.Version>
5.8.1

> <Gold.Id.Protein>
6NUR|6NUR_protein|mol2

> <Gold.PLP.Fitness>
40.8640

> <Gold.PLP.PLP>
-29.0925

> <Gold.PLP.part.hbond>
-3.0000

> <Gold.PLP.part.metal>
0.0000

> <Gold.PLP.part.buried>
-1.9205

> <Gold.PLP.part.nonpolar>
-23.7655

> <Gold.PLP.part.repulsive>
0.0806

> <Gold.PLP.ligand.clash>
0.0000

> <Gold.PLP.ligand.torsion>
0.2835

> <Gold.PLP.Chemscore.Hbond>
4.0000

> <Gold.PLP.Chemscore.CHOScore>
0.0000

> <Gold.PLP.Chemscore.Metal>
0.0000

> <Gold.Chemscore.Hbonds>
donor molecule, donor type, donor heavy atom, donor atom, acceptor molecule, acceptor atom, score
      L1  H     8    24       P1  8028  0.99
      P1  H  7989  7998       L1    13  1.00
      P1  H  7997  8009       L1    14  2.00

> <Gold.PLP.Chemscore.Internal.Correction>
0.3385

> <Gold.Rescore>
     Score         DG    S(hbond)    S(metal)    S(lipo)     H(rot)  DE(clash)    DE(int)     intcor
     12.43     -15.37       2.90        0.00      48.00       2.11       0.07       2.87       ----

> <Gold.Chemscore.Fitness>
12.4329

> <Gold.Chemscore.DG>
-15.3660

> <Gold.Chemscore.ZeroCoef>
-5.4800

> <Gold.Chemscore.Hbond>
2.8974

> <Gold.Chemscore.Metal>
0.0000

> <Gold.Chemscore.Lipo>
48.0040

> <Gold.Chemscore.Internal_Hbond>
0.0000

> <Gold.Chemscore.DEClash>
0.0665

> <Gold.Chemscore.DEInternal>
2.8665

> <Gold.Chemscore.Rot>
2.1124

> <Gold.Chemscore.Internal.Correction>
   9.000000E+99

> <Gold.Chemscore.Hbonds>
donor molecule, donor type, donor heavy atom, donor atom, acceptor molecule, acceptor atom, score
      L1  H     8    24       P1  8028  0.92
      P1  H  7989  7998       L1    13  0.91
      P1  H  7997  8009       L1    14  0.93

> <Gold.Chemscore.Hbond.Weighted>
-9.6773

> <Gold.Chemscore.Metal.Weighted>
-0.0000

> <Gold.Chemscore.Lipo.Weighted>
-5.6165

> <Gold.Chemscore.Internal_Hbond.Weighted>
0.0000

> <Gold.Chemscore.DEClash.Weighted>
0.0665

> <Gold.Chemscore.DEInternal.Weighted>
2.8665

> <Gold.Chemscore.Rot.Weighted>
5.4078

> <Gold.Chemscore.Internal.Correction.Weighted>
   9.000000E+99

> <Gold.Protein.RotatedTorsions>
[ 6907 6896 6895 6894 ] final   -1.60 input  -60.11 | X-H torsion
[ 7974 7965 7964 7962 ] final  -29.23 input  175.53 | X-H torsion
[ 8008 7997 7996 7995 ] final -147.41 input   59.86 | X-H torsion
[ 10167 10162 10161 10158 ] final  137.80 input  -65.29 | X-H torsion
[ 10718 10713 10712 10709 ] final -110.10 input   66.30 | X-H torsion
[ 10763 10752 10751 10750 ] final   48.37 input  -60.55 | X-H torsion
[ 11005 11000 10999 10996 ] final   61.71 input  -57.11 | X-H torsion

> <Gold.Protein.ActiveResidues>
 VAL166  LYS551  ARG553  GLY616  TRP617  ASP618  TYR619  PRO620  LYS621  CYS622 
 ASP623  PHE694  ASN695  SER759  ASP760  ASP761  ALA762  ILE779  LEU786  VAL792 
 PHE793  MET794  SER795  GLU796  ALA797  LYS798  CYS799  TRP800  GLU811  SER814 

> <Gold.Protein.RotatedAtoms>
  151.5434  135.1068  159.9931 H   0  0  0  0  0  0  0  0  0  0  0  0  # atno 6907 bound_to 6896
  152.4525  133.7653  159.6780 H   0  0  0  0  0  0  0  0  0  0  0  0  # atno 6908 bound_to 6896
  150.8458  133.7798  159.3068 H   0  0  0  0  0  0  0  0  0  0  0  0  # atno 6909 bound_to 6896
  146.1232  140.5385  142.8726 H   0  0  0  0  0  0  0  0  0  0  0  0  # atno 7974 bound_to 7965
  155.5751  140.0638  157.2797 H   0  0  0  0  0  0  0  0  0  0  0  0  # atno 8008 bound_to 7997
  154.4349  140.1862  156.0965 H   0  0  0  0  0  0  0  0  0  0  0  0  # atno 8009 bound_to 7997
  156.0347  140.3302  155.7181 H   0  0  0  0  0  0  0  0  0  0  0  0  # atno 8010 bound_to 7997
  139.5132  144.6390  151.5621 H   0  0  0  0  0  0  0  0  0  0  0  0  # atno 10167 bound_to 10162
  156.0572  130.5798  150.8190 H   0  0  0  0  0  0  0  0  0  0  0  0  # atno 10718 bound_to 10713
  152.9792  135.5946  154.3915 H   0  0  0  0  0  0  0  0  0  0  0  0  # atno 10763 bound_to 10752
  154.3570  135.2767  155.2343 H   0  0  0  0  0  0  0  0  0  0  0  0  # atno 10764 bound_to 10752
  154.4357  135.6025  153.6152 H   0  0  0  0  0  0  0  0  0  0  0  0  # atno 10765 bound_to 10752
  140.0142  134.6250  155.9735 H   0  0  0  0  0  0  0  0  0  0  0  0  # atno 11005 bound_to 11000
  144.7617  140.5436  143.6731 LP  0  0  0  0  0  0  0  0  0  0  0  0  # atno 17320 bound_to 7965
  145.5422  139.1475  143.3440 LP  0  0  0  0  0  0  0  0  0  0  0  0  # atno 17321 bound_to 7965
  140.6149  143.9367  150.6481 LP  0  0  0  0  0  0  0  0  0  0  0  0  # atno 17342 bound_to 10162
  140.2622  143.3516  152.1313 LP  0  0  0  0  0  0  0  0  0  0  0  0  # atno 17343 bound_to 10162
  157.5552  131.0945  150.9639 LP  0  0  0  0  0  0  0  0  0  0  0  0  # atno 17370 bound_to 10713
  156.9889  130.5555  149.5302 LP  0  0  0  0  0  0  0  0  0  0  0  0  # atno 17371 bound_to 10713
  141.1731  133.6538  156.4727 LP  0  0  0  0  0  0  0  0  0  0  0  0  # atno 17394 bound_to 11000
  140.4501  134.6937  157.5035 LP  0  0  0  0  0  0  0  0  0  0  0  0  # atno 17395 bound_to 11000

$$$$
