AV-unprocessed.smi:2484|AV-procd|sdf|9787|dock7
  -GOLD-   2272013423D 1   1.00000     0.00000
 Structure written by MMmdl.
 45 46  0  0  0  0  0  0  0  0  1 V2000
  146.2633  142.3193  154.0833 C   0  0  0  0  0  0  0  0  0  0  0  0
  146.7847  140.8807  154.3087 C   0  0  0  0  0  0  0  0  0  0  0  0
  145.9614  139.9310  153.5473 N   0  0  0  0  0  0  0  0  0  0  0  0
  146.1880  138.6251  153.3228 C   0  0  0  0  0  0  0  0  0  0  0  0
  147.1617  138.0108  153.7584 O   0  0  0  0  0  0  0  0  0  0  0  0
  145.2117  138.0897  152.5694 N   0  0  0  0  0  0  0  0  0  0  0  0
  145.1319  136.7699  152.0516 C   0  0  0  0  0  0  0  0  0  0  0  0
  143.8461  136.1930  152.0595 C   0  0  0  0  0  0  0  0  0  0  0  0
  143.6910  134.8940  151.5468 C   0  0  0  0  0  0  0  0  0  0  0  0
  144.8414  134.2414  151.0490 C   0  0  0  0  0  0  0  0  0  0  0  0
  144.8129  132.8259  150.4449 C   0  0  0  0  0  0  0  0  0  0  0  0
  143.8140  132.7043  149.2719 C   0  0  0  0  0  0  0  0  0  0  0  0
  144.3880  131.8061  151.5222 C   0  0  0  0  0  0  0  0  0  0  0  0
  146.2117  132.4649  149.9032 C   0  0  0  0  0  0  0  0  0  0  0  0
  146.0533  134.8482  151.0708 N   0  0  0  0  0  0  0  0  0  0  0  0
  146.1942  136.0828  151.5618 N   0  0  0  0  0  0  0  0  0  0  0  0
  148.2267  140.7356  153.7692 C   0  0  0  0  0  0  0  0  0  0  0  0
  149.2770  141.4099  154.6695 C   0  0  0  0  0  0  0  0  0  0  0  0
  149.1814  140.9016  155.9928 O   0  0  0  0  0  0  0  0  0  0  0  0
  147.9261  141.1867  156.5945 C   0  0  0  0  0  0  0  0  0  0  0  0
  146.7939  140.4992  155.8116 C   0  0  0  0  0  0  0  0  0  0  0  0
  146.8990  143.0640  154.5610 H   0  0  0  0  0  0  0  0  0  0  0  0
  145.2604  142.4562  154.4878 H   0  0  0  0  0  0  0  0  0  0  0  0
  146.2238  142.5620  153.0207 H   0  0  0  0  0  0  0  0  0  0  0  0
  145.1253  140.3200  153.1368 H   0  0  0  0  0  0  0  0  0  0  0  0
  144.4533  138.7037  152.3122 H   0  0  0  0  0  0  0  0  0  0  0  0
  142.9936  136.7322  152.4461 H   0  0  0  0  0  0  0  0  0  0  0  0
  142.7127  134.4393  151.5436 H   0  0  0  0  0  0  0  0  0  0  0  0
  143.8095  131.6942  148.8604 H   0  0  0  0  0  0  0  0  0  0  0  0
  144.0678  133.3793  148.4536 H   0  0  0  0  0  0  0  0  0  0  0  0
  142.7934  132.9243  149.5872 H   0  0  0  0  0  0  0  0  0  0  0  0
  143.4037  132.0447  151.9263 H   0  0  0  0  0  0  0  0  0  0  0  0
  145.0889  131.7824  152.3571 H   0  0  0  0  0  0  0  0  0  0  0  0
  144.3402  130.7950  151.1161 H   0  0  0  0  0  0  0  0  0  0  0  0
  146.2201  131.4715  149.4534 H   0  0  0  0  0  0  0  0  0  0  0  0
  146.9648  132.4659  150.6921 H   0  0  0  0  0  0  0  0  0  0  0  0
  146.5352  133.1741  149.1404 H   0  0  0  0  0  0  0  0  0  0  0  0
  148.4824  139.6768  153.6979 H   0  0  0  0  0  0  0  0  0  0  0  0
  148.2976  141.1309  152.7550 H   0  0  0  0  0  0  0  0  0  0  0  0
  150.2774  141.2019  154.2897 H   0  0  0  0  0  0  0  0  0  0  0  0
  149.1639  142.4946  154.6721 H   0  0  0  0  0  0  0  0  0  0  0  0
  147.9412  140.8203  157.6212 H   0  0  0  0  0  0  0  0  0  0  0  0
  147.7707  142.2649  156.6500 H   0  0  0  0  0  0  0  0  0  0  0  0
  145.8387  140.7361  156.2803 H   0  0  0  0  0  0  0  0  0  0  0  0
  146.9217  139.4201  155.9108 H   0  0  0  0  0  0  0  0  0  0  0  0
  1  2  1  0  0  0  0
  1 22  1  0  0  0  0
  1 23  1  0  0  0  0
  1 24  1  0  0  0  0
  2 21  1  0  0  0  0
  2  3  1  0  0  0  0
  2 17  1  0  0  0  0
  3  4  1  0  0  0  0
  3 25  1  0  0  0  0
  4  5  2  0  0  0  0
  4  6  1  0  0  0  0
  6  7  1  0  0  0  0
  6 26  1  0  0  0  0
  7 16  1  0  0  0  0
  7  8  2  0  0  0  0
  8  9  1  0  0  0  0
  8 27  1  0  0  0  0
  9 10  2  0  0  0  0
  9 28  1  0  0  0  0
 10 11  1  0  0  0  0
 10 15  1  0  0  0  0
 11 12  1  0  0  0  0
 11 13  1  0  0  0  0
 11 14  1  0  0  0  0
 12 29  1  0  0  0  0
 12 30  1  0  0  0  0
 12 31  1  0  0  0  0
 13 32  1  0  0  0  0
 13 33  1  0  0  0  0
 13 34  1  0  0  0  0
 14 35  1  0  0  0  0
 14 36  1  0  0  0  0
 14 37  1  0  0  0  0
 15 16  2  0  0  0  0
 17 18  1  0  0  0  0
 17 38  1  0  0  0  0
 17 39  1  0  0  0  0
 18 19  1  0  0  0  0
 18 40  1  0  0  0  0
 18 41  1  0  0  0  0
 19 20  1  0  0  0  0
 20 21  1  0  0  0  0
 20 42  1  0  0  0  0
 20 43  1  0  0  0  0
 21 44  1  0  0  0  0
 21 45  1  0  0  0  0
M  END
> <s_m_source_file>
AV-unprocessed.smi

> <i_m_source_file_index>
2484

> <i_lp_mmshare_version>
43012

> <i_f3d_flags>
0

> <s_epik_input>
W0NIMl0xW0NIMl1PW0NIMl1bQ0gyXUMxKFtDSDNdKVtOSF1DKD1PKVtOSF1jMltjSF1bY0hdYyhubjIpQyhbQ0gzXSkoW0NIM10pW0NIM10=

> <s_epik_cmdline>
J2VwaWtfcHl0aG9uJywgJy1waCcsICc3LjAnLCAnLXRuJywgJzgnLCAnLW1hJywgJzIwMCcsICctbWV0YWxfYmluZGluZycsICctaW1hZScsICc8aW5maWxlLm1hZT4nLCAnLW9tYWUnLCAnPG91dGZpbGUubWFlPic=

> <r_lp_tautomer_probability>
1

> <r_epik_Ionization_Penalty>
0.0115026

> <r_epik_Ionization_Penalty_Charging>
0

> <r_epik_Ionization_Penalty_Neutral>
0.0115026

> <r_epik_State_Penalty>
0.00473796

> <r_epik_Charging_Adjusted_Penalty>
0.00473796

> <i_epik_Tot_Q>
0

> <i_epik_Tot_abs_Q>
0

> <r_epik_Metal_State_Penalty>
-0

> <b_epik_Metal_Only>
0

> <s_lp_Force_Field>
OPLS_2005

> <r_lp_Energy>
18.8992

> <b_lp_Chiralities_Consistent>
1

> <s_lp_Variant>
AV-unprocessed.smi:2484-1

> <Gold.Version>
5.8.1

> <Gold.Id.Protein>
6NUR|6NUR_protein|mol2

> <Gold.PLP.Fitness>
37.5001

> <Gold.PLP.PLP>
-32.4623

> <Gold.PLP.part.hbond>
-2.7030

> <Gold.PLP.part.metal>
0.0000

> <Gold.PLP.part.buried>
-3.4852

> <Gold.PLP.part.nonpolar>
-29.7757

> <Gold.PLP.part.repulsive>
3.0850

> <Gold.PLP.ligand.clash>
0.0000

> <Gold.PLP.ligand.torsion>
0.4500

> <Gold.PLP.Chemscore.Hbond>
1.9760

> <Gold.PLP.Chemscore.CHOScore>
0.0000

> <Gold.PLP.Chemscore.Metal>
0.0000

> <Gold.Chemscore.Hbonds>
donor molecule, donor type, donor heavy atom, donor atom, acceptor molecule, acceptor atom, score
      L1  H     3    25       P1 10175  1.00
      L1  H     6    26       P1 10175  0.96

> <Gold.PLP.Chemscore.Internal.Correction>
0.0097

> <Gold.Rescore>
     Score         DG    S(hbond)    S(metal)    S(lipo)     H(rot)  DE(clash)    DE(int)     intcor
     15.05     -18.71       1.96        0.00      82.92       1.18       1.44       2.22       ----

> <Gold.Chemscore.Fitness>
15.0534

> <Gold.Chemscore.DG>
-18.7136

> <Gold.Chemscore.ZeroCoef>
-5.4800

> <Gold.Chemscore.Hbond>
1.9583

> <Gold.Chemscore.Metal>
0.0000

> <Gold.Chemscore.Lipo>
82.9195

> <Gold.Chemscore.Internal_Hbond>
0.0000

> <Gold.Chemscore.DEClash>
1.4416

> <Gold.Chemscore.DEInternal>
2.2186

> <Gold.Chemscore.Rot>
1.1753

> <Gold.Chemscore.Internal.Correction>
   9.000000E+99

> <Gold.Chemscore.Hbonds>
donor molecule, donor type, donor heavy atom, donor atom, acceptor molecule, acceptor atom, score
      L1  H     3    25       P1 10175  0.97
      L1  H     6    26       P1 10175  0.92

> <Gold.Chemscore.Hbond.Weighted>
-6.5409

> <Gold.Chemscore.Metal.Weighted>
-0.0000

> <Gold.Chemscore.Lipo.Weighted>
-9.7016

> <Gold.Chemscore.Internal_Hbond.Weighted>
0.0000

> <Gold.Chemscore.DEClash.Weighted>
1.4416

> <Gold.Chemscore.DEInternal.Weighted>
2.2186

> <Gold.Chemscore.Rot.Weighted>
3.0089

> <Gold.Chemscore.Internal.Correction.Weighted>
   9.000000E+99

> <Gold.Protein.RotatedTorsions>
[ 6907 6896 6895 6894 ] final  170.91 input  -60.11 | X-H torsion
[ 7974 7965 7964 7962 ] final  131.50 input  175.53 | X-H torsion
[ 8008 7997 7996 7995 ] final   -9.81 input   59.86 | X-H torsion
[ 10167 10162 10161 10158 ] final  138.05 input  -65.29 | X-H torsion
[ 10718 10713 10712 10709 ] final   18.03 input   66.30 | X-H torsion
[ 10763 10752 10751 10750 ] final  -29.62 input  -60.55 | X-H torsion
[ 11005 11000 10999 10996 ] final   70.13 input  -57.11 | X-H torsion

> <Gold.Protein.ActiveResidues>
 VAL166  LYS551  ARG553  GLY616  TRP617  ASP618  TYR619  PRO620  LYS621  CYS622 
 ASP623  PHE694  ASN695  SER759  ASP760  ASP761  ALA762  ILE779  LEU786  VAL792 
 PHE793  MET794  SER795  GLU796  ALA797  LYS798  CYS799  TRP800  GLU811  SER814 

> <Gold.Protein.RotatedAtoms>
  151.8086  133.3379  159.3548 H   0  0  0  0  0  0  0  0  0  0  0  0  # atno 6907 bound_to 6896
  150.7333  134.5685  159.5887 H   0  0  0  0  0  0  0  0  0  0  0  0  # atno 6908 bound_to 6896
  152.3091  134.7520  160.0392 H   0  0  0  0  0  0  0  0  0  0  0  0  # atno 6909 bound_to 6896
  145.0067  139.4260  143.5265 H   0  0  0  0  0  0  0  0  0  0  0  0  # atno 7974 bound_to 7965
  154.5612  140.2345  155.8333 H   0  0  0  0  0  0  0  0  0  0  0  0  # atno 8008 bound_to 7997
  156.2031  140.3047  155.9527 H   0  0  0  0  0  0  0  0  0  0  0  0  # atno 8009 bound_to 7997
  155.2885  140.0425  157.3012 H   0  0  0  0  0  0  0  0  0  0  0  0  # atno 8010 bound_to 7997
  139.5124  144.6375  151.5656 H   0  0  0  0  0  0  0  0  0  0  0  0  # atno 10167 bound_to 10162
  157.0906  130.6426  149.5848 H   0  0  0  0  0  0  0  0  0  0  0  0  # atno 10718 bound_to 10713
  153.7677  135.6914  153.4913 H   0  0  0  0  0  0  0  0  0  0  0  0  # atno 10763 bound_to 10752
  153.1896  135.4476  155.0131 H   0  0  0  0  0  0  0  0  0  0  0  0  # atno 10764 bound_to 10752
  154.8130  135.3386  154.7188 H   0  0  0  0  0  0  0  0  0  0  0  0  # atno 10765 bound_to 10752
  139.9615  134.7053  156.0636 H   0  0  0  0  0  0  0  0  0  0  0  0  # atno 11005 bound_to 11000
  146.3462  139.9486  142.8731 LP  0  0  0  0  0  0  0  0  0  0  0  0  # atno 17320 bound_to 7965
  145.2079  140.9883  143.4117 LP  0  0  0  0  0  0  0  0  0  0  0  0  # atno 17321 bound_to 7965
  140.6130  143.9401  150.6467 LP  0  0  0  0  0  0  0  0  0  0  0  0  # atno 17342 bound_to 10162
  140.2650  143.3497  152.1289 LP  0  0  0  0  0  0  0  0  0  0  0  0  # atno 17343 bound_to 10162
  155.9899  130.4948  150.7234 LP  0  0  0  0  0  0  0  0  0  0  0  0  # atno 17370 bound_to 10713
  157.4725  131.0894  151.0627 LP  0  0  0  0  0  0  0  0  0  0  0  0  # atno 17371 bound_to 10713
  141.1292  133.6591  156.3419 LP  0  0  0  0  0  0  0  0  0  0  0  0  # atno 17394 bound_to 11000
  140.5490  134.6046  157.5402 LP  0  0  0  0  0  0  0  0  0  0  0  0  # atno 17395 bound_to 11000

$$$$
