AV-unprocessed.smi:1220|AV-procd|sdf|5117|dock7
  -GOLD-   22720 4173D 1   1.00000     0.00000
 Structure written by MMmdl.
 35 36  0  0  0  0  0  0  0  0  1 V2000
  150.0003  144.9138  159.8306 C   0  0  0  0  0  0  0  0  0  0  0  0
  150.8229  144.0882  158.8323 C   0  0  1  0  0  0  0  0  0  0  0  0
  152.3383  144.2821  159.0568 C   0  0  0  0  0  0  0  0  0  0  0  0
  152.8432  143.5154  160.1825 N   0  0  0  0  0  0  0  0  0  0  0  0
  152.5888  143.6966  161.5259 C   0  0  0  0  0  0  0  0  0  0  0  0
  153.2658  142.7230  162.2023 C   0  0  0  0  0  0  0  0  0  0  0  0
  153.9183  141.9883  161.1731 C   0  0  0  0  0  0  0  0  0  0  0  0
  153.6668  142.4675  159.9655 N   0  0  0  0  0  0  0  0  0  0  0  0
  150.4558  142.6785  158.9653 N   0  0  0  0  0  0  0  0  0  0  0  0
  150.7374  141.7082  158.0808 C   0  0  0  0  0  0  0  0  0  0  0  0
  151.3174  141.9105  157.0138 O   0  0  0  0  0  0  0  0  0  0  0  0
  150.3189  140.2870  158.4747 C   0  0  1  0  0  0  0  0  0  0  0  0
  149.3359  139.6613  157.4616 C   0  0  0  0  0  0  0  0  0  0  0  0
  149.2369  138.1595  157.7472 C   0  0  0  0  0  0  0  0  0  0  0  0
  150.9029  137.6543  158.3151 S   0  0  0  0  0  0  0  0  0  0  0  0
  150.7788  136.9580  159.6045 O   0  0  0  0  0  0  0  0  0  0  0  0
  151.6395  137.0488  157.1955 O   0  0  0  0  0  0  0  0  0  0  0  0
  151.5358  139.3514  158.5931 C   0  0  0  0  0  0  0  0  0  0  0  0
  150.2249  145.9768  159.7384 H   0  0  0  0  0  0  0  0  0  0  0  0
  150.2085  144.6178  160.8594 H   0  0  0  0  0  0  0  0  0  0  0  0
  148.9309  144.7889  159.6569 H   0  0  0  0  0  0  0  0  0  0  0  0
  150.5674  144.4461  157.8332 H   0  0  0  0  0  0  0  0  0  0  0  0
  152.8921  143.9783  158.1671 H   0  0  0  0  0  0  0  0  0  0  0  0
  152.5692  145.3356  159.2204 H   0  0  0  0  0  0  0  0  0  0  0  0
  151.9478  144.4889  161.8832 H   0  0  0  0  0  0  0  0  0  0  0  0
  153.2900  142.5588  163.2692 H   0  0  0  0  0  0  0  0  0  0  0  0
  154.5628  141.1269  161.2669 H   0  0  0  0  0  0  0  0  0  0  0  0
  149.9740  142.4156  159.8129 H   0  0  0  0  0  0  0  0  0  0  0  0
  149.8199  140.3134  159.4451 H   0  0  0  0  0  0  0  0  0  0  0  0
  148.3547  140.1348  157.5072 H   0  0  0  0  0  0  0  0  0  0  0  0
  149.7075  139.7984  156.4448 H   0  0  0  0  0  0  0  0  0  0  0  0
  148.5320  137.9647  158.5555 H   0  0  0  0  0  0  0  0  0  0  0  0
  148.9404  137.5756  156.8756 H   0  0  0  0  0  0  0  0  0  0  0  0
  152.2894  139.5566  157.8313 H   0  0  0  0  0  0  0  0  0  0  0  0
  152.0127  139.4080  159.5716 H   0  0  0  0  0  0  0  0  0  0  0  0
  1  2  1  0  0  0  0
  1 19  1  0  0  0  0
  1 20  1  0  0  0  0
  1 21  1  0  0  0  0
  2  3  1  0  0  0  0
  2  9  1  0  0  0  0
  2 22  1  0  0  0  0
  3  4  1  0  0  0  0
  3 23  1  0  0  0  0
  3 24  1  0  0  0  0
  4  8  1  0  0  0  0
  4  5  1  0  0  0  0
  5  6  2  0  0  0  0
  5 25  1  0  0  0  0
  6  7  1  0  0  0  0
  6 26  1  0  0  0  0
  7  8  2  0  0  0  0
  7 27  1  0  0  0  0
  9 10  1  0  0  0  0
  9 28  1  0  0  0  0
 10 11  2  0  0  0  0
 10 12  1  0  0  0  0
 12 18  1  0  0  0  0
 12 13  1  0  0  0  0
 12 29  1  0  0  0  0
 13 14  1  0  0  0  0
 13 30  1  0  0  0  0
 13 31  1  0  0  0  0
 14 15  1  0  0  0  0
 14 32  1  0  0  0  0
 14 33  1  0  0  0  0
 15 16  2  0  0  0  0
 15 17  2  0  0  0  0
 15 18  1  0  0  0  0
 18 34  1  0  0  0  0
 18 35  1  0  0  0  0
M  END
> <s_m_source_file>
AV-unprocessed.smi

> <i_m_source_file_index>
1220

> <i_lp_mmshare_version>
43012

> <i_f3d_flags>
0

> <s_epik_input>
bjFbY0hdW2NIXVtjSF1uMVtDSDJdW0NAQEhdKFtDSDNdKVtOSF1DKD1PKVtDQEBIXShbQ0gyXTIpW0NIMl1bQ0gyXVMyKD1PKT1P

> <s_epik_cmdline>
J2VwaWtfcHl0aG9uJywgJy1waCcsICc3LjAnLCAnLXRuJywgJzgnLCAnLW1hJywgJzIwMCcsICctbWV0YWxfYmluZGluZycsICctaW1hZScsICc8aW5maWxlLm1hZT4nLCAnLW9tYWUnLCAnPG91dGZpbGUubWFlPic=

> <r_lp_tautomer_probability>
1

> <r_epik_Ionization_Penalty>
0.000293905

> <r_epik_Ionization_Penalty_Charging>
0

> <r_epik_Ionization_Penalty_Neutral>
0.000293905

> <r_epik_State_Penalty>
-0

> <r_epik_Charging_Adjusted_Penalty>
0

> <i_epik_Tot_Q>
0

> <i_epik_Tot_abs_Q>
0

> <r_epik_Metal_State_Penalty>
-0

> <b_epik_Metal_Only>
0

> <s_lp_Force_Field>
OPLS_2005

> <r_lp_Energy>
3.0384

> <b_lp_Chiralities_Consistent>
1

> <s_lp_Variant>
AV-unprocessed.smi:1220-4

> <Gold.Version>
5.8.1

> <Gold.Id.Protein>
6NUR|6NUR_protein|mol2

> <Gold.PLP.Fitness>
37.5439

> <Gold.PLP.PLP>
-35.3112

> <Gold.PLP.part.hbond>
-1.0000

> <Gold.PLP.part.metal>
0.0000

> <Gold.PLP.part.buried>
-5.9154

> <Gold.PLP.part.nonpolar>
-28.2933

> <Gold.PLP.part.repulsive>
0.1884

> <Gold.PLP.ligand.clash>
0.0000

> <Gold.PLP.ligand.torsion>
0.3928

> <Gold.PLP.Chemscore.Hbond>
1.0000

> <Gold.PLP.Chemscore.CHOScore>
0.0000

> <Gold.PLP.Chemscore.Metal>
0.0000

> <Gold.Chemscore.Hbonds>
donor molecule, donor type, donor heavy atom, donor atom, acceptor molecule, acceptor atom, score
      P1  H  6896  6907       L1    16  1.00

> <Gold.PLP.Chemscore.Internal.Correction>
0.0183

> <Gold.Rescore>
     Score         DG    S(hbond)    S(metal)    S(lipo)     H(rot)  DE(clash)    DE(int)     intcor
     12.78     -13.35       0.97        0.00      77.85       1.75       0.13       0.43       ----

> <Gold.Chemscore.Fitness>
12.7815

> <Gold.Chemscore.DG>
-13.3464

> <Gold.Chemscore.ZeroCoef>
-5.4800

> <Gold.Chemscore.Hbond>
0.9665

> <Gold.Chemscore.Metal>
0.0000

> <Gold.Chemscore.Lipo>
77.8469

> <Gold.Chemscore.Internal_Hbond>
0.0000

> <Gold.Chemscore.DEClash>
0.1345

> <Gold.Chemscore.DEInternal>
0.4304

> <Gold.Chemscore.Rot>
1.7460

> <Gold.Chemscore.Internal.Correction>
   9.000000E+99

> <Gold.Chemscore.Hbonds>
donor molecule, donor type, donor heavy atom, donor atom, acceptor molecule, acceptor atom, score
      P1  H  6896  6907       L1    16  0.99

> <Gold.Chemscore.Hbond.Weighted>
-3.2280

> <Gold.Chemscore.Metal.Weighted>
-0.0000

> <Gold.Chemscore.Lipo.Weighted>
-9.1081

> <Gold.Chemscore.Internal_Hbond.Weighted>
0.0000

> <Gold.Chemscore.DEClash.Weighted>
0.1345

> <Gold.Chemscore.DEInternal.Weighted>
0.4304

> <Gold.Chemscore.Rot.Weighted>
4.4697

> <Gold.Chemscore.Internal.Correction.Weighted>
   9.000000E+99

> <Gold.Protein.RotatedTorsions>
[ 6907 6896 6895 6894 ] final  -32.00 input  -60.11 | X-H torsion
[ 7974 7965 7964 7962 ] final -169.82 input  175.53 | X-H torsion
[ 8008 7997 7996 7995 ] final  179.62 input   59.86 | X-H torsion
[ 10167 10162 10161 10158 ] final  163.39 input  -65.29 | X-H torsion
[ 10718 10713 10712 10709 ] final -177.81 input   66.30 | X-H torsion
[ 10763 10752 10751 10750 ] final  102.15 input  -60.55 | X-H torsion
[ 11005 11000 10999 10996 ] final -160.23 input  -57.11 | X-H torsion

> <Gold.Protein.ActiveResidues>
 VAL166  LYS551  ARG553  GLY616  TRP617  ASP618  TYR619  PRO620  LYS621  CYS622 
 ASP623  PHE694  ASN695  SER759  ASP760  ASP761  ALA762  ILE779  LEU786  VAL792 
 PHE793  MET794  SER795  GLU796  ALA797  LYS798  CYS799  TRP800  GLU811  SER814 

> <Gold.Protein.RotatedAtoms>
  151.0846  134.9879  159.8372 H   0  0  0  0  0  0  0  0  0  0  0  0  # atno 6907 bound_to 6896
  152.5423  134.2140  159.8771 H   0  0  0  0  0  0  0  0  0  0  0  0  # atno 6908 bound_to 6896
  151.2172  133.4479  159.2633 H   0  0  0  0  0  0  0  0  0  0  0  0  # atno 6909 bound_to 6896
  144.7179  140.2163  143.6321 H   0  0  0  0  0  0  0  0  0  0  0  0  # atno 7974 bound_to 7965
  156.0413  140.1304  157.0153 H   0  0  0  0  0  0  0  0  0  0  0  0  # atno 8008 bound_to 7997
  154.4392  140.1030  156.6311 H   0  0  0  0  0  0  0  0  0  0  0  0  # atno 8009 bound_to 7997
  155.5663  140.3465  155.4506 H   0  0  0  0  0  0  0  0  0  0  0  0  # atno 8010 bound_to 7997
  139.4873  144.4341  151.9034 H   0  0  0  0  0  0  0  0  0  0  0  0  # atno 10167 bound_to 10162
  156.8349  130.9666  151.3104 H   0  0  0  0  0  0  0  0  0  0  0  0  # atno 10718 bound_to 10713
  153.3358  135.4020  155.1532 H   0  0  0  0  0  0  0  0  0  0  0  0  # atno 10763 bound_to 10752
  154.8633  135.3621  154.5410 H   0  0  0  0  0  0  0  0  0  0  0  0  # atno 10764 bound_to 10752
  153.5851  135.7075  153.5506 H   0  0  0  0  0  0  0  0  0  0  0  0  # atno 10765 bound_to 10752
  140.6338  134.4623  157.5231 H   0  0  0  0  0  0  0  0  0  0  0  0  # atno 11005 bound_to 11000
  145.8543  139.2191  143.1754 LP  0  0  0  0  0  0  0  0  0  0  0  0  # atno 17320 bound_to 7965
  146.0232  140.8328  142.9913 LP  0  0  0  0  0  0  0  0  0  0  0  0  # atno 17321 bound_to 7965
  140.3790  144.2760  150.5911 LP  0  0  0  0  0  0  0  0  0  0  0  0  # atno 17342 bound_to 10162
  140.5250  143.2256  151.8329 LP  0  0  0  0  0  0  0  0  0  0  0  0  # atno 17343 bound_to 10162
  157.6387  130.8787  149.9407 LP  0  0  0  0  0  0  0  0  0  0  0  0  # atno 17370 bound_to 10713
  156.0913  130.3663  150.0390 LP  0  0  0  0  0  0  0  0  0  0  0  0  # atno 17371 bound_to 10713
  139.9106  134.8354  156.1544 LP  0  0  0  0  0  0  0  0  0  0  0  0  # atno 17394 bound_to 11000
  141.0656  133.6821  156.2038 LP  0  0  0  0  0  0  0  0  0  0  0  0  # atno 17395 bound_to 11000

$$$$
