AV-unprocessed.smi:1401|AV-procd|sdf|5694|dock2
  -GOLD-   22720 5323D 1   1.00000     0.00000
 Structure written by MMmdl.
 48 50  0  0  0  0  0  0  0  0  1 V2000
  152.1342  144.2203  161.7423 C   0  0  0  0  0  0  0  0  0  0  0  0
  152.6713  142.9681  161.1040 C   0  0  0  0  0  0  0  0  0  0  0  0
  152.2688  142.7108  159.9035 N   0  0  0  0  0  0  0  0  0  0  0  0
  152.7188  141.6005  159.2137 N   0  0  0  0  0  0  0  0  0  0  0  0
  152.2371  141.5354  157.8229 C   0  0  0  0  0  0  0  0  0  0  0  0
  150.7044  141.5889  157.6928 C   0  0  0  0  0  0  0  0  0  0  0  0
  150.0277  141.9468  158.6558 O   0  0  0  0  0  0  0  0  0  0  0  0
  150.1718  141.2782  156.4995 N   0  0  0  0  0  0  0  0  0  0  0  0
  148.7809  141.4473  156.0981 C   0  0  2  0  0  0  0  0  0  0  0  0
  147.8533  140.6494  157.0303 C   0  0  0  0  0  0  0  0  0  0  0  0
  148.6288  141.0147  154.6202 C   0  0  1  0  0  0  0  0  0  0  0  0
  148.6443  139.4877  154.3874 C   0  0  0  0  0  0  0  0  0  0  0  0
  147.3957  139.2595  153.5137 C   0  0  1  0  0  0  0  0  0  0  0  0
  146.1350  139.4088  154.3857 C   0  0  0  0  0  0  0  0  0  0  0  0
  146.0711  140.9273  154.6316 C   0  0  0  0  0  0  0  0  0  0  0  0
  147.3251  141.4431  153.8971 C   0  0  2  0  0  0  0  0  0  0  0  0
  147.3500  140.5316  152.6752 C   0  0  0  0  0  0  0  0  0  0  0  0
  153.5894  140.6773  159.7147 C   0  0  0  0  0  0  0  0  0  0  0  0
  153.9794  139.7099  159.0599 O   0  0  0  0  0  0  0  0  0  0  0  0
  154.0290  140.9668  161.0816 C   0  0  0  0  0  0  0  0  0  0  0  0
  154.9450  140.0268  161.6428 C   0  0  0  0  0  0  0  0  0  0  0  0
  155.6775  139.2649  162.1151 N   0  0  0  0  0  0  0  0  0  0  0  0
  153.6055  142.0613  161.7621 C   0  0  0  0  0  0  0  0  0  0  0  0
  154.0452  142.4160  163.1757 C   0  0  0  0  0  0  0  0  0  0  0  0
  151.5837  143.9857  162.6535 H   0  0  0  0  0  0  0  0  0  0  0  0
  151.4565  144.7576  161.0769 H   0  0  0  0  0  0  0  0  0  0  0  0
  152.9463  144.9004  162.0007 H   0  0  0  0  0  0  0  0  0  0  0  0
  152.6658  142.3334  157.2146 H   0  0  0  0  0  0  0  0  0  0  0  0
  152.5869  140.6077  157.3661 H   0  0  0  0  0  0  0  0  0  0  0  0
  150.8087  140.9790  155.7754 H   0  0  0  0  0  0  0  0  0  0  0  0
  148.5239  142.5044  156.1838 H   0  0  0  0  0  0  0  0  0  0  0  0
  146.8084  140.7711  156.7446 H   0  0  0  0  0  0  0  0  0  0  0  0
  147.9477  140.9823  158.0643 H   0  0  0  0  0  0  0  0  0  0  0  0
  148.0830  139.5837  157.0026 H   0  0  0  0  0  0  0  0  0  0  0  0
  149.4586  141.4515  154.0610 H   0  0  0  0  0  0  0  0  0  0  0  0
  149.5515  139.1915  153.8595 H   0  0  0  0  0  0  0  0  0  0  0  0
  148.5990  138.9128  155.3132 H   0  0  0  0  0  0  0  0  0  0  0  0
  147.4246  138.3307  152.9436 H   0  0  0  0  0  0  0  0  0  0  0  0
  145.2476  139.0698  153.8499 H   0  0  0  0  0  0  0  0  0  0  0  0
  146.2037  138.8395  155.3134 H   0  0  0  0  0  0  0  0  0  0  0  0
  145.1693  141.3464  154.1832 H   0  0  0  0  0  0  0  0  0  0  0  0
  146.0540  141.1840  155.6902 H   0  0  0  0  0  0  0  0  0  0  0  0
  147.2846  142.5066  153.6607 H   0  0  0  0  0  0  0  0  0  0  0  0
  148.2324  140.6693  152.0476 H   0  0  0  0  0  0  0  0  0  0  0  0
  146.4546  140.6114  152.0560 H   0  0  0  0  0  0  0  0  0  0  0  0
  154.7322  141.6794  163.5915 H   0  0  0  0  0  0  0  0  0  0  0  0
  153.1841  142.4732  163.8425 H   0  0  0  0  0  0  0  0  0  0  0  0
  154.5537  143.3810  163.1865 H   0  0  0  0  0  0  0  0  0  0  0  0
  1  2  1  0  0  0  0
  1 25  1  0  0  0  0
  1 26  1  0  0  0  0
  1 27  1  0  0  0  0
  2 23  1  0  0  0  0
  2  3  2  0  0  0  0
  3  4  1  0  0  0  0
  4  5  1  0  0  0  0
  4 18  1  0  0  0  0
  5  6  1  0  0  0  0
  5 28  1  0  0  0  0
  5 29  1  0  0  0  0
  6  7  2  0  0  0  0
  6  8  1  0  0  0  0
  8  9  1  0  0  0  0
  8 30  1  0  0  0  0
  9 10  1  0  0  0  0
  9 11  1  0  0  0  0
  9 31  1  0  0  0  0
 10 32  1  0  0  0  0
 10 33  1  0  0  0  0
 10 34  1  0  0  0  0
 11 16  1  0  0  0  0
 11 12  1  0  0  0  0
 11 35  1  0  0  0  0
 12 13  1  0  0  0  0
 12 36  1  0  0  0  0
 12 37  1  0  0  0  0
 13 17  1  0  0  0  0
 13 14  1  0  0  0  0
 13 38  1  0  0  0  0
 14 15  1  0  0  0  0
 14 39  1  0  0  0  0
 14 40  1  0  0  0  0
 15 16  1  0  0  0  0
 15 41  1  0  0  0  0
 15 42  1  0  0  0  0
 16 17  1  0  0  0  0
 16 43  1  0  0  0  0
 17 44  1  0  0  0  0
 17 45  1  0  0  0  0
 18 19  2  0  0  0  0
 18 20  1  0  0  0  0
 20 21  1  0  0  0  0
 20 23  2  0  0  0  0
 21 22  3  0  0  0  0
 23 24  1  0  0  0  0
 24 46  1  0  0  0  0
 24 47  1  0  0  0  0
 24 48  1  0  0  0  0
M  END
> <s_m_source_file>
AV-unprocessed.smi

> <i_m_source_file_index>
1401

> <i_lp_mmshare_version>
43012

> <i_f3d_flags>
0

> <s_epik_input>
TiNDYyhjMVtDSDNdKWMoPU8pbihuYzFbQ0gzXSlbQ0gyXUMoPU8pW05IXVtDQEhdKFtDSDNdKVtDQEhdKFtDSDJdW0NASF0yMylbQ0BIXShbQ0gyXTMpW0NIMl1bQ0gyXTI=

> <s_epik_cmdline>
J2VwaWtfcHl0aG9uJywgJy1waCcsICc3LjAnLCAnLXRuJywgJzgnLCAnLW1hJywgJzIwMCcsICctbWV0YWxfYmluZGluZycsICctaW1hZScsICc8aW5maWxlLm1hZT4nLCAnLW9tYWUnLCAnPG91dGZpbGUubWFlPic=

> <r_lp_tautomer_probability>
1

> <r_epik_Ionization_Penalty>
2.16501e-08

> <r_epik_Ionization_Penalty_Charging>
2.29436e-11

> <r_epik_Ionization_Penalty_Neutral>
2.16271e-08

> <r_epik_State_Penalty>
-0

> <r_epik_Charging_Adjusted_Penalty>
2.29436e-11

> <i_epik_Tot_Q>
0

> <i_epik_Tot_abs_Q>
0

> <r_epik_Metal_State_Penalty>
-0

> <b_epik_Metal_Only>
0

> <s_lp_Force_Field>
OPLS_2005

> <r_lp_Energy>
65.485

> <b_lp_Chiralities_Consistent>
1

> <s_lp_Variant>
AV-unprocessed.smi:1401-7

> <Gold.Version>
5.8.1

> <Gold.Id.Protein>
6NUR|6NUR_protein|mol2

> <Gold.PLP.Fitness>
42.6958

> <Gold.PLP.PLP>
-40.4430

> <Gold.PLP.part.hbond>
-1.4341

> <Gold.PLP.part.metal>
0.0000

> <Gold.PLP.part.buried>
-1.4589

> <Gold.PLP.part.nonpolar>
-37.2658

> <Gold.PLP.part.repulsive>
0.0935

> <Gold.PLP.ligand.clash>
0.0000

> <Gold.PLP.ligand.torsion>
0.3928

> <Gold.PLP.Chemscore.Hbond>
1.0000

> <Gold.PLP.Chemscore.CHOScore>
0.0000

> <Gold.PLP.Chemscore.Metal>
0.0000

> <Gold.Chemscore.Hbonds>
donor molecule, donor type, donor heavy atom, donor atom, acceptor molecule, acceptor atom, score
      P1  H  7997  8008       L1    19  0.98

> <Gold.PLP.Chemscore.Internal.Correction>
0.0383

> <Gold.Rescore>
     Score         DG    S(hbond)    S(metal)    S(lipo)     H(rot)  DE(clash)    DE(int)     intcor
     12.17     -17.69       0.96        0.00     112.53       1.63       1.61       3.90       ----

> <Gold.Chemscore.Fitness>
12.1730

> <Gold.Chemscore.DG>
-17.6856

> <Gold.Chemscore.ZeroCoef>
-5.4800

> <Gold.Chemscore.Hbond>
0.9603

> <Gold.Chemscore.Metal>
0.0000

> <Gold.Chemscore.Lipo>
112.5307

> <Gold.Chemscore.Internal_Hbond>
0.0000

> <Gold.Chemscore.DEClash>
1.6082

> <Gold.Chemscore.DEInternal>
3.9044

> <Gold.Chemscore.Rot>
1.6281

> <Gold.Chemscore.Internal.Correction>
   9.000000E+99

> <Gold.Chemscore.Hbonds>
donor molecule, donor type, donor heavy atom, donor atom, acceptor molecule, acceptor atom, score
      P1  H  7997  8008       L1    19  0.88

> <Gold.Chemscore.Hbond.Weighted>
-3.2074

> <Gold.Chemscore.Metal.Weighted>
-0.0000

> <Gold.Chemscore.Lipo.Weighted>
-13.1661

> <Gold.Chemscore.Internal_Hbond.Weighted>
0.0000

> <Gold.Chemscore.DEClash.Weighted>
1.6082

> <Gold.Chemscore.DEInternal.Weighted>
3.9044

> <Gold.Chemscore.Rot.Weighted>
4.1678

> <Gold.Chemscore.Internal.Correction.Weighted>
   9.000000E+99

> <Gold.Protein.RotatedTorsions>
[ 6907 6896 6895 6894 ] final  107.11 input  -60.11 | X-H torsion
[ 7974 7965 7964 7962 ] final   63.74 input  175.53 | X-H torsion
[ 8008 7997 7996 7995 ] final -109.27 input   59.86 | X-H torsion
[ 10167 10162 10161 10158 ] final   55.65 input  -65.29 | X-H torsion
[ 10718 10713 10712 10709 ] final -157.67 input   66.30 | X-H torsion
[ 10763 10752 10751 10750 ] final   66.90 input  -60.55 | X-H torsion
[ 11005 11000 10999 10996 ] final   50.89 input  -57.11 | X-H torsion

> <Gold.Protein.ActiveResidues>
 VAL166  LYS551  ARG553  GLY616  TRP617  ASP618  TYR619  PRO620  LYS621  CYS622 
 ASP623  PHE694  ASN695  SER759  ASP760  ASP761  ALA762  ILE779  LEU786  VAL792 
 PHE793  MET794  SER795  GLU796  ALA797  LYS798  CYS799  TRP800  GLU811  SER814 

> <Gold.Protein.RotatedAtoms>
  152.5167  133.9283  159.7567 H   0  0  0  0  0  0  0  0  0  0  0  0  # atno 6907 bound_to 6896
  150.9639  133.6407  159.2756 H   0  0  0  0  0  0  0  0  0  0  0  0  # atno 6908 bound_to 6896
  151.3643  135.0915  159.9497 H   0  0  0  0  0  0  0  0  0  0  0  0  # atno 6909 bound_to 6896
  145.8583  139.3298  143.0834 H   0  0  0  0  0  0  0  0  0  0  0  0  # atno 7974 bound_to 7965
  154.9569  140.0400  157.2171 H   0  0  0  0  0  0  0  0  0  0  0  0  # atno 8008 bound_to 7997
  154.7926  140.2838  155.5958 H   0  0  0  0  0  0  0  0  0  0  0  0  # atno 8009 bound_to 7997
  156.2951  140.2570  156.2776 H   0  0  0  0  0  0  0  0  0  0  0  0  # atno 8010 bound_to 7997
  140.2171  144.3827  150.6465 H   0  0  0  0  0  0  0  0  0  0  0  0  # atno 10167 bound_to 10162
  156.5436  130.8574  151.2757 H   0  0  0  0  0  0  0  0  0  0  0  0  # atno 10718 bound_to 10713
  153.0161  135.5304  154.6895 H   0  0  0  0  0  0  0  0  0  0  0  0  # atno 10763 bound_to 10752
  154.6034  135.2870  155.0513 H   0  0  0  0  0  0  0  0  0  0  0  0  # atno 10764 bound_to 10752
  154.1562  135.6555  153.5027 H   0  0  0  0  0  0  0  0  0  0  0  0  # atno 10765 bound_to 10752
  140.0979  134.5120  155.8790 H   0  0  0  0  0  0  0  0  0  0  0  0  # atno 11005 bound_to 11000
  145.9278  140.9070  143.0372 LP  0  0  0  0  0  0  0  0  0  0  0  0  # atno 17320 bound_to 7965
  144.6727  140.1376  143.7439 LP  0  0  0  0  0  0  0  0  0  0  0  0  # atno 17321 bound_to 7965
  140.6282  143.2184  151.6553 LP  0  0  0  0  0  0  0  0  0  0  0  0  # atno 17342 bound_to 10162
  139.5158  144.3368  152.0777 LP  0  0  0  0  0  0  0  0  0  0  0  0  # atno 17343 bound_to 10162
  157.7401  130.9843  150.2354 LP  0  0  0  0  0  0  0  0  0  0  0  0  # atno 17370 bound_to 10713
  156.2949  130.3750  149.7805 LP  0  0  0  0  0  0  0  0  0  0  0  0  # atno 17371 bound_to 10713
  141.2097  133.6687  156.6459 LP  0  0  0  0  0  0  0  0  0  0  0  0  # atno 17394 bound_to 11000
  140.3260  134.7968  157.4290 LP  0  0  0  0  0  0  0  0  0  0  0  0  # atno 17395 bound_to 11000

$$$$
