AV-unprocessed.smi:1106|AV-procd|sdf|4777|dock6
  -GOLD-   22720 3313D 1   1.00000     0.00000
 Structure written by MMmdl.
 48 49  0  0  0  0  0  0  0  0  2 V2000
  150.8308  142.3937  158.1591 C   0  0  0  0  0  0  0  0  0  0  0  0
  150.5928  141.6812  156.8193 C   0  0  0  0  0  0  0  0  0  0  0  0
  149.1985  141.4435  156.5491 N   0  0  0  0  0  0  0  0  0  0  0  0
  148.2265  141.6615  157.5061 C   0  0  0  0  0  0  0  0  0  0  0  0
  146.9134  141.4421  157.2798 C   0  0  0  0  0  0  0  0  0  0  0  0
  145.9286  141.6794  158.2828 C   0  0  0  0  0  0  0  0  0  0  0  0
  145.1429  141.8879  159.1064 N   0  0  0  0  0  0  0  0  0  0  0  0
  146.4418  140.9481  155.9882 C   0  0  0  0  0  0  0  0  0  0  0  0
  145.2543  140.7482  155.7252 O   0  0  0  0  0  0  0  0  0  0  0  0
  147.4660  140.7178  155.0353 N   0  0  0  0  0  0  0  0  0  0  0  0
  147.0612  140.2178  153.7292 C   0  0  0  0  0  0  0  0  0  0  0  0
  147.1757  138.6844  153.5765 C   0  0  2  0  0  0  0  0  0  0  0  0
  148.4944  138.3981  153.1576 O   0  0  0  0  0  0  0  0  0  0  0  0
  146.1941  138.0892  152.5443 C   0  0  0  0  0  0  0  0  0  0  0  0
  146.3337  136.6169  152.4103 N   0  3  2  0  0  0  0  0  0  0  0  0
  145.6634  136.0952  151.1917 C   0  0  0  0  0  0  0  0  0  0  0  0
  145.9408  134.5939  151.0039 C   0  0  0  0  0  0  0  0  0  0  0  0
  145.5099  133.7857  152.2396 C   0  0  1  0  0  0  0  0  0  0  0  0
  145.8106  132.2892  152.0752 C   0  0  0  0  0  0  0  0  0  0  0  0
  146.1919  134.3699  153.4880 C   0  0  0  0  0  0  0  0  0  0  0  0
  145.9071  135.8748  153.6268 C   0  0  0  0  0  0  0  0  0  0  0  0
  148.8425  140.9575  155.2694 C   0  0  0  0  0  0  0  0  0  0  0  0
  149.6948  140.7638  154.3983 O   0  0  0  0  0  0  0  0  0  0  0  0
  151.8925  142.5926  158.3059 H   0  0  0  0  0  0  0  0  0  0  0  0
  150.4891  141.7920  159.0016 H   0  0  0  0  0  0  0  0  0  0  0  0
  150.3063  143.3490  158.1947 H   0  0  0  0  0  0  0  0  0  0  0  0
  150.9594  142.2892  155.9910 H   0  0  0  0  0  0  0  0  0  0  0  0
  151.1098  140.7219  156.7552 H   0  0  0  0  0  0  0  0  0  0  0  0
  148.5284  142.0248  158.4781 H   0  0  0  0  0  0  0  0  0  0  0  0
  146.0505  140.5682  153.5152 H   0  0  0  0  0  0  0  0  0  0  0  0
  147.6857  140.7346  152.9974 H   0  0  0  0  0  0  0  0  0  0  0  0
  147.0354  138.2191  154.5512 H   0  0  0  0  0  0  0  0  0  0  0  0
  148.4930  137.5693  152.7025 H   0  0  0  0  0  0  0  0  0  0  0  0
  145.1609  138.3165  152.8083 H   0  0  0  0  0  0  0  0  0  0  0  0
  146.3740  138.5714  151.5820 H   0  0  0  0  0  0  0  0  0  0  0  0
  144.5892  136.2761  151.2586 H   0  0  0  0  0  0  0  0  0  0  0  0
  146.0224  136.6351  150.3144 H   0  0  0  0  0  0  0  0  0  0  0  0
  145.4153  134.2326  150.1191 H   0  0  0  0  0  0  0  0  0  0  0  0
  147.0046  134.4420  150.8143 H   0  0  0  0  0  0  0  0  0  0  0  0
  144.4308  133.8955  152.3587 H   0  0  0  0  0  0  0  0  0  0  0  0
  146.8791  132.1091  151.9522 H   0  0  0  0  0  0  0  0  0  0  0  0
  145.3014  131.8805  151.2018 H   0  0  0  0  0  0  0  0  0  0  0  0
  145.4758  131.7237  152.9451 H   0  0  0  0  0  0  0  0  0  0  0  0
  145.8458  133.8483  154.3811 H   0  0  0  0  0  0  0  0  0  0  0  0
  147.2695  134.2070  153.4338 H   0  0  0  0  0  0  0  0  0  0  0  0
  146.4278  136.2520  154.5061 H   0  0  0  0  0  0  0  0  0  0  0  0
  144.8420  136.0384  153.7988 H   0  0  0  0  0  0  0  0  0  0  0  0
  147.3206  136.4402  152.2838 H   0  0  0  0  0  0  0  0  0  0  0  0
  1  2  1  0  0  0  0
  1 24  1  0  0  0  0
  1 25  1  0  0  0  0
  1 26  1  0  0  0  0
  2  3  1  0  0  0  0
  2 27  1  0  0  0  0
  2 28  1  0  0  0  0
  3 22  1  0  0  0  0
  3  4  1  0  0  0  0
  4  5  2  0  0  0  0
  4 29  1  0  0  0  0
  5  6  1  0  0  0  0
  5  8  1  0  0  0  0
  6  7  3  0  0  0  0
  8  9  2  0  0  0  0
  8 10  1  0  0  0  0
 10 11  1  0  0  0  0
 10 22  1  0  0  0  0
 11 12  1  0  0  0  0
 11 30  1  0  0  0  0
 11 31  1  0  0  0  0
 12 13  1  0  0  0  0
 12 14  1  0  0  0  0
 12 32  1  0  0  0  0
 13 33  1  0  0  0  0
 14 15  1  0  0  0  0
 14 34  1  0  0  0  0
 14 35  1  0  0  0  0
 15 21  1  0  0  0  0
 15 16  1  0  0  0  0
 15 48  1  0  0  0  0
 16 17  1  0  0  0  0
 16 36  1  0  0  0  0
 16 37  1  0  0  0  0
 17 18  1  0  0  0  0
 17 38  1  0  0  0  0
 17 39  1  0  0  0  0
 18 19  1  0  0  0  0
 18 20  1  0  0  0  0
 18 40  1  0  0  0  0
 19 41  1  0  0  0  0
 19 42  1  0  0  0  0
 19 43  1  0  0  0  0
 20 21  1  0  0  0  0
 20 44  1  0  0  0  0
 20 45  1  0  0  0  0
 21 46  1  0  0  0  0
 21 47  1  0  0  0  0
 22 23  2  0  0  0  0
M  CHG  1  15   1
M  END
> <s_m_source_file>
AV-unprocessed.smi

> <i_m_source_file_index>
1106

> <i_lp_mmshare_version>
43012

> <i_f3d_flags>
0

> <s_epik_input>
W0NIM11bQ0gyXW4xW2NIXWMoQyNOKWMoPU8pbihjMT1PKVtDSDJdW0NASF0oW09IXSlbQ0gyXU4yW0NIMl1bQ0gyXVtDSF0oW0NIM10pW0NIMl1bQ0gyXTI=

> <s_epik_cmdline>
J2VwaWtfcHl0aG9uJywgJy1waCcsICc3LjAnLCAnLXRuJywgJzgnLCAnLW1hJywgJzIwMCcsICctbWV0YWxfYmluZGluZycsICctaW1hZScsICc8aW5maWxlLm1hZT4nLCAnLW9tYWUnLCAnPG91dGZpbGUubWFlPic=

> <r_epik_Ionization_Penalty>
0.00136816

> <r_epik_Ionization_Penalty_Charging>
0.00136813

> <r_epik_Ionization_Penalty_Neutral>
3.19882e-08

> <r_epik_State_Penalty>
0.000910892

> <r_epik_Charging_Adjusted_Penalty>
0.00227902

> <i_epik_Tot_Q>
1

> <i_epik_Tot_abs_Q>
1

> <r_epik_Metal_State_Penalty>
-0

> <b_epik_Metal_Only>
0

> <s_lp_Force_Field>
OPLS_2005

> <r_lp_Energy>
27.8711

> <b_lp_Chiralities_Consistent>
1

> <s_lp_Variant>
AV-unprocessed.smi:1106-1

> <Gold.Version>
5.8.1

> <Gold.Id.Protein>
6NUR|6NUR_protein|mol2

> <Gold.PLP.Fitness>
47.8502

> <Gold.PLP.PLP>
-33.8794

> <Gold.PLP.part.hbond>
-5.4853

> <Gold.PLP.part.metal>
0.0000

> <Gold.PLP.part.buried>
-3.1576

> <Gold.PLP.part.nonpolar>
-26.2161

> <Gold.PLP.part.repulsive>
1.8031

> <Gold.PLP.ligand.clash>
0.0000

> <Gold.PLP.ligand.torsion>
0.7926

> <Gold.PLP.Chemscore.Hbond>
5.1758

> <Gold.PLP.Chemscore.CHOScore>
0.0000

> <Gold.PLP.Chemscore.Metal>
0.0000

> <Gold.Chemscore.Hbonds>
donor molecule, donor type, donor heavy atom, donor atom, acceptor molecule, acceptor atom, score
      L1  H    13    33       P1  7948  1.00
      L1  H    15    48       P1  7948  2.00
      P1  H  7989  7998       L1    23  0.50

> <Gold.PLP.Chemscore.Internal.Correction>
0.0286

> <Gold.Rescore>
     Score         DG    S(hbond)    S(metal)    S(lipo)     H(rot)  DE(clash)    DE(int)     intcor
     15.58     -19.11       3.56        0.00      69.23       2.48       1.51       2.02       ----

> <Gold.Chemscore.Fitness>
15.5797

> <Gold.Chemscore.DG>
-19.1090

> <Gold.Chemscore.ZeroCoef>
-5.4800

> <Gold.Chemscore.Hbond>
3.5592

> <Gold.Chemscore.Metal>
0.0000

> <Gold.Chemscore.Lipo>
69.2296

> <Gold.Chemscore.Internal_Hbond>
0.0000

> <Gold.Chemscore.DEClash>
1.5113

> <Gold.Chemscore.DEInternal>
2.0180

> <Gold.Chemscore.Rot>
2.4838

> <Gold.Chemscore.Internal.Correction>
   9.000000E+99

> <Gold.Chemscore.Hbonds>
donor molecule, donor type, donor heavy atom, donor atom, acceptor molecule, acceptor atom, score
      L1  H    13    33       P1  7948  0.99
      L1  H    15    48       P1  7948  1.00
      P1  H  7989  7998       L1    23  0.51

> <Gold.Chemscore.Hbond.Weighted>
-11.8876

> <Gold.Chemscore.Metal.Weighted>
-0.0000

> <Gold.Chemscore.Lipo.Weighted>
-8.0999

> <Gold.Chemscore.Internal_Hbond.Weighted>
0.0000

> <Gold.Chemscore.DEClash.Weighted>
1.5113

> <Gold.Chemscore.DEInternal.Weighted>
2.0180

> <Gold.Chemscore.Rot.Weighted>
6.3585

> <Gold.Chemscore.Internal.Correction.Weighted>
   9.000000E+99

> <Gold.Protein.RotatedTorsions>
[ 6907 6896 6895 6894 ] final  173.30 input  -60.11 | X-H torsion
[ 7974 7965 7964 7962 ] final  137.85 input  175.53 | X-H torsion
[ 8008 7997 7996 7995 ] final -147.28 input   59.86 | X-H torsion
[ 10167 10162 10161 10158 ] final  120.62 input  -65.29 | X-H torsion
[ 10718 10713 10712 10709 ] final  -11.46 input   66.30 | X-H torsion
[ 10763 10752 10751 10750 ] final -119.07 input  -60.55 | X-H torsion
[ 11005 11000 10999 10996 ] final  -98.70 input  -57.11 | X-H torsion

> <Gold.Protein.ActiveResidues>
 VAL166  LYS551  ARG553  GLY616  TRP617  ASP618  TYR619  PRO620  LYS621  CYS622 
 ASP623  PHE694  ASN695  SER759  ASP760  ASP761  ALA762  ILE779  LEU786  VAL792 
 PHE793  MET794  SER795  GLU796  ALA797  LYS798  CYS799  TRP800  GLU811  SER814 

> <Gold.Protein.RotatedAtoms>
  151.7705  133.3341  159.3442 H   0  0  0  0  0  0  0  0  0  0  0  0  # atno 6907 bound_to 6896
  150.7463  134.6023  159.6052 H   0  0  0  0  0  0  0  0  0  0  0  0  # atno 6908 bound_to 6896
  152.3344  134.7218  160.0332 H   0  0  0  0  0  0  0  0  0  0  0  0  # atno 6909 bound_to 6896
  144.9429  139.4910  143.5563 H   0  0  0  0  0  0  0  0  0  0  0  0  # atno 7974 bound_to 7965
  155.5730  140.0636  157.2802 H   0  0  0  0  0  0  0  0  0  0  0  0  # atno 8008 bound_to 7997
  154.4355  140.1865  156.0944 H   0  0  0  0  0  0  0  0  0  0  0  0  # atno 8009 bound_to 7997
  156.0362  140.3301  155.7197 H   0  0  0  0  0  0  0  0  0  0  0  0  # atno 8010 bound_to 7997
  139.5970  144.7045  151.3152 H   0  0  0  0  0  0  0  0  0  0  0  0  # atno 10167 bound_to 10162
  156.6587  130.4975  149.6038 H   0  0  0  0  0  0  0  0  0  0  0  0  # atno 10718 bound_to 10713
  154.8606  135.4251  154.2241 H   0  0  0  0  0  0  0  0  0  0  0  0  # atno 10763 bound_to 10752
  153.3239  135.6984  153.7012 H   0  0  0  0  0  0  0  0  0  0  0  0  # atno 10764 bound_to 10752
  153.6055  135.3529  155.2934 H   0  0  0  0  0  0  0  0  0  0  0  0  # atno 10765 bound_to 10752
  141.1335  133.8265  157.0874 H   0  0  0  0  0  0  0  0  0  0  0  0  # atno 11005 bound_to 11000
  146.3292  139.8460  142.8881 LP  0  0  0  0  0  0  0  0  0  0  0  0  # atno 17320 bound_to 7965
  145.2963  141.0182  143.3634 LP  0  0  0  0  0  0  0  0  0  0  0  0  # atno 17321 bound_to 7965
  140.7220  143.7109  150.7770 LP  0  0  0  0  0  0  0  0  0  0  0  0  # atno 17342 bound_to 10162
  140.0678  143.5091  152.2595 LP  0  0  0  0  0  0  0  0  0  0  0  0  # atno 17343 bound_to 10162
  156.2028  130.6630  151.1186 LP  0  0  0  0  0  0  0  0  0  0  0  0  # atno 17370 bound_to 10713
  157.7117  131.0731  150.6477 LP  0  0  0  0  0  0  0  0  0  0  0  0  # atno 17371 bound_to 10713
  140.0414  134.9852  157.0968 LP  0  0  0  0  0  0  0  0  0  0  0  0  # atno 17394 bound_to 11000
  140.4130  134.1961  155.7163 LP  0  0  0  0  0  0  0  0  0  0  0  0  # atno 17395 bound_to 11000

$$$$
