AV-unprocessed.smi:257|AV-procd|sdf|1963|dock5
  -GOLD-   2262021113D 1   1.00000     0.00000
 Structure written by MMmdl.
 50 53  0  0  0  0  0  0  0  0  1 V2000
  146.1501  132.0017  152.4266 C   0  0  0  0  0  0  0  0  0  0  0  0
  147.5063  131.4968  152.5732 N   0  0  0  0  0  0  0  0  0  0  0  0
  148.2050  131.5310  153.7168 C   0  0  0  0  0  0  0  0  0  0  0  0
  147.7522  131.9900  154.7668 O   0  0  0  0  0  0  0  0  0  0  0  0
  149.6285  130.9473  153.6575 C   0  0  2  0  0  0  0  0  0  0  0  0
  149.6117  129.4463  153.3187 C   0  0  0  0  0  0  0  0  0  0  0  0
  149.5590  128.7484  154.6765 C   0  0  0  0  0  0  0  0  0  0  0  0
  150.3934  129.6668  155.5681 C   0  0  0  0  0  0  0  0  0  0  0  0
  150.2983  130.9895  154.9580 N   0  0  0  0  0  0  0  0  0  0  0  0
  150.8886  132.0889  155.5047 C   0  0  0  0  0  0  0  0  0  0  0  0
  151.9415  131.8901  156.3420 N   0  0  0  0  0  0  0  0  0  0  0  0
  152.5652  132.9213  156.9160 C   0  0  0  0  0  0  0  0  0  0  0  0
  152.3070  134.2225  156.7932 N   0  0  0  0  0  0  0  0  0  0  0  0
  151.2559  134.4398  155.9534 C   0  0  0  0  0  0  0  0  0  0  0  0
  150.4948  133.4434  155.2731 C   0  0  0  0  0  0  0  0  0  0  0  0
  149.5072  134.0628  154.5134 N   0  0  0  0  0  0  0  0  0  0  0  0
  149.6724  135.3374  154.7324 C   0  0  0  0  0  0  0  0  0  0  0  0
  150.7085  135.6547  155.5787 N   0  0  0  0  0  0  0  0  0  0  0  0
  151.1155  136.9898  155.9929 C   0  0  0  0  0  0  0  0  0  0  0  0
  151.5181  137.9238  154.8187 C   0  0  0  0  0  0  0  0  0  0  0  0
  152.1260  137.1209  153.8232 O   0  0  0  0  0  0  0  0  0  0  0  0
  150.2883  138.5949  154.1750 C   0  0  0  0  0  0  0  0  0  0  0  0
  149.7329  139.7287  155.0564 C   0  0  0  0  0  0  0  0  0  0  0  0
  150.7556  140.6812  155.3267 O   0  0  0  0  0  0  0  0  0  0  0  0
  151.8547  140.1307  156.0441 C   0  0  0  0  0  0  0  0  0  0  0  0
  152.5263  139.0265  155.2083 C   0  0  0  0  0  0  0  0  0  0  0  0
  145.8025  131.8417  151.4063 H   0  0  0  0  0  0  0  0  0  0  0  0
  146.1107  133.0713  152.6370 H   0  0  0  0  0  0  0  0  0  0  0  0
  145.4682  131.4875  153.1052 H   0  0  0  0  0  0  0  0  0  0  0  0
  147.9456  131.1040  151.7532 H   0  0  0  0  0  0  0  0  0  0  0  0
  150.2149  131.4705  152.9017 H   0  0  0  0  0  0  0  0  0  0  0  0
  148.7863  129.1540  152.6678 H   0  0  0  0  0  0  0  0  0  0  0  0
  150.5377  129.1786  152.8079 H   0  0  0  0  0  0  0  0  0  0  0  0
  148.5292  128.7170  155.0352 H   0  0  0  0  0  0  0  0  0  0  0  0
  149.9371  127.7263  154.6477 H   0  0  0  0  0  0  0  0  0  0  0  0
  150.0229  129.6611  156.5939 H   0  0  0  0  0  0  0  0  0  0  0  0
  151.4369  129.3491  155.5757 H   0  0  0  0  0  0  0  0  0  0  0  0
  153.3886  132.6667  157.5668 H   0  0  0  0  0  0  0  0  0  0  0  0
  149.0423  136.0866  154.2754 H   0  0  0  0  0  0  0  0  0  0  0  0
  150.2913  137.4307  156.5554 H   0  0  0  0  0  0  0  0  0  0  0  0
  151.9349  136.8852  156.7034 H   0  0  0  0  0  0  0  0  0  0  0  0
  151.5713  137.1203  153.0579 H   0  0  0  0  0  0  0  0  0  0  0  0
  150.5655  139.0211  153.2094 H   0  0  0  0  0  0  0  0  0  0  0  0
  149.5098  137.8586  153.9712 H   0  0  0  0  0  0  0  0  0  0  0  0
  148.9155  140.2327  154.5406 H   0  0  0  0  0  0  0  0  0  0  0  0
  149.3218  139.3429  155.9897 H   0  0  0  0  0  0  0  0  0  0  0  0
  152.5701  140.9262  156.2523 H   0  0  0  0  0  0  0  0  0  0  0  0
  151.5168  139.7521  157.0088 H   0  0  0  0  0  0  0  0  0  0  0  0
  153.3836  138.6142  155.7404 H   0  0  0  0  0  0  0  0  0  0  0  0
  152.9305  139.4863  154.3051 H   0  0  0  0  0  0  0  0  0  0  0  0
  1  2  1  0  0  0  0
  1 27  1  0  0  0  0
  1 28  1  0  0  0  0
  1 29  1  0  0  0  0
  2  3  1  0  0  0  0
  2 30  1  0  0  0  0
  3  4  2  0  0  0  0
  3  5  1  0  0  0  0
  5  9  1  0  0  0  0
  5  6  1  0  0  0  0
  5 31  1  0  0  0  0
  6  7  1  0  0  0  0
  6 32  1  0  0  0  0
  6 33  1  0  0  0  0
  7  8  1  0  0  0  0
  7 34  1  0  0  0  0
  7 35  1  0  0  0  0
  8  9  1  0  0  0  0
  8 36  1  0  0  0  0
  8 37  1  0  0  0  0
  9 10  1  0  0  0  0
 10 15  1  0  0  0  0
 10 11  2  0  0  0  0
 11 12  1  0  0  0  0
 12 13  2  0  0  0  0
 12 38  1  0  0  0  0
 13 14  1  0  0  0  0
 14 18  1  0  0  0  0
 14 15  2  0  0  0  0
 15 16  1  0  0  0  0
 16 17  2  0  0  0  0
 17 18  1  0  0  0  0
 17 39  1  0  0  0  0
 18 19  1  0  0  0  0
 19 20  1  0  0  0  0
 19 40  1  0  0  0  0
 19 41  1  0  0  0  0
 20 26  1  0  0  0  0
 20 21  1  0  0  0  0
 20 22  1  0  0  0  0
 21 42  1  0  0  0  0
 22 23  1  0  0  0  0
 22 43  1  0  0  0  0
 22 44  1  0  0  0  0
 23 24  1  0  0  0  0
 23 45  1  0  0  0  0
 23 46  1  0  0  0  0
 24 25  1  0  0  0  0
 25 26  1  0  0  0  0
 25 47  1  0  0  0  0
 25 48  1  0  0  0  0
 26 49  1  0  0  0  0
 26 50  1  0  0  0  0
M  END
> <s_m_source_file>
AV-unprocessed.smi

> <i_m_source_file_index>
257

> <i_lp_mmshare_version>
43012

> <i_f3d_flags>
0

> <s_epik_input>
W0NIM11bTkhdQyg9TylbQ0BASF0xW0NIMl1bQ0gyXVtDSDJdTjFjKG5bY0hdbjIpYyhjMjMpbltjSF1uM1tDSDJdQzQoW09IXSlbQ0gyXVtDSDJdT1tDSDJdW0NIMl00

> <s_epik_cmdline>
J2VwaWtfcHl0aG9uJywgJy1waCcsICc3LjAnLCAnLXRuJywgJzgnLCAnLW1hJywgJzIwMCcsICctbWV0YWxfYmluZGluZycsICctaW1hZScsICc8aW5maWxlLm1hZT4nLCAnLW9tYWUnLCAnPG91dGZpbGUubWFlPic=

> <r_lp_tautomer_probability>
1

> <r_epik_Ionization_Penalty>
0.000951012

> <r_epik_Ionization_Penalty_Charging>
0

> <r_epik_Ionization_Penalty_Neutral>
0.000951012

> <r_epik_State_Penalty>
0.000495984

> <r_epik_Charging_Adjusted_Penalty>
0.000495984

> <i_epik_Tot_Q>
0

> <i_epik_Tot_abs_Q>
0

> <r_epik_Metal_State_Penalty>
-0

> <b_epik_Metal_Only>
0

> <s_lp_Force_Field>
OPLS_2005

> <r_lp_Energy>
35.0404

> <b_lp_Chiralities_Consistent>
1

> <s_lp_Variant>
AV-unprocessed.smi:257-1

> <Gold.Version>
5.8.1

> <Gold.Id.Protein>
6NUR|6NUR_protein|mol2

> <Gold.PLP.Fitness>
53.1493

> <Gold.PLP.PLP>
-40.1403

> <Gold.PLP.part.hbond>
-5.1281

> <Gold.PLP.part.metal>
0.0000

> <Gold.PLP.part.buried>
-4.5860

> <Gold.PLP.part.nonpolar>
-30.6367

> <Gold.PLP.part.repulsive>
0.2018

> <Gold.PLP.ligand.clash>
0.0000

> <Gold.PLP.ligand.torsion>
0.7431

> <Gold.PLP.Chemscore.Hbond>
3.9360

> <Gold.PLP.Chemscore.CHOScore>
0.8671

> <Gold.PLP.Chemscore.Metal>
0.0000

> <Gold.Chemscore.Hbonds>
donor molecule, donor type, donor heavy atom, donor atom, acceptor molecule, acceptor atom, score
      L1  H     2    30       P1 10747  1.00
      L1  H    21    42       P1  7949  0.78
      P1  H  7989  7998       L1    24  0.84
      P1  H 10752 10765       L1    21  0.94
      L1  C    17    39       P1  7948  0.76

> <Gold.PLP.Chemscore.Internal.Correction>
0.0857

> <Gold.Rescore>
     Score         DG    S(hbond)    S(metal)    S(lipo)     H(rot)  DE(clash)    DE(int)     intcor
     15.16     -17.61       2.96        0.00      69.42       2.29       0.14       2.31       ----

> <Gold.Chemscore.Fitness>
15.1650

> <Gold.Chemscore.DG>
-17.6138

> <Gold.Chemscore.ZeroCoef>
-5.4800

> <Gold.Chemscore.Hbond>
2.9554

> <Gold.Chemscore.Metal>
0.0000

> <Gold.Chemscore.Lipo>
69.4229

> <Gold.Chemscore.Internal_Hbond>
0.0000

> <Gold.Chemscore.DEClash>
0.1357

> <Gold.Chemscore.DEInternal>
2.3131

> <Gold.Chemscore.Rot>
2.2889

> <Gold.Chemscore.Internal.Correction>
   9.000000E+99

> <Gold.Chemscore.Hbonds>
donor molecule, donor type, donor heavy atom, donor atom, acceptor molecule, acceptor atom, score
      L1  H     2    30       P1 10747  1.00
      L1  H    21    42       P1  7949  0.73
      P1  H  7989  7998       L1    24  0.06
      P1  H 10752 10765       L1    21  0.88

> <Gold.Chemscore.Hbond.Weighted>
-9.8709

> <Gold.Chemscore.Metal.Weighted>
-0.0000

> <Gold.Chemscore.Lipo.Weighted>
-8.1225

> <Gold.Chemscore.Internal_Hbond.Weighted>
0.0000

> <Gold.Chemscore.DEClash.Weighted>
0.1357

> <Gold.Chemscore.DEInternal.Weighted>
2.3131

> <Gold.Chemscore.Rot.Weighted>
5.8596

> <Gold.Chemscore.Internal.Correction.Weighted>
   9.000000E+99

> <Gold.Protein.RotatedTorsions>
[ 6907 6896 6895 6894 ] final   48.86 input  -60.11 | X-H torsion
[ 7974 7965 7964 7962 ] final  -81.25 input  175.53 | X-H torsion
[ 8008 7997 7996 7995 ] final -170.37 input   59.86 | X-H torsion
[ 10167 10162 10161 10158 ] final  -75.83 input  -65.29 | X-H torsion
[ 10718 10713 10712 10709 ] final  -95.67 input   66.30 | X-H torsion
[ 10763 10752 10751 10750 ] final  159.43 input  -60.55 | X-H torsion
[ 11005 11000 10999 10996 ] final  -74.22 input  -57.11 | X-H torsion

> <Gold.Protein.ActiveResidues>
 VAL166  LYS551  ARG553  GLY616  TRP617  ASP618  TYR619  PRO620  LYS621  CYS622 
 ASP623  PHE694  ASN695  SER759  ASP760  ASP761  ALA762  ILE779  LEU786  VAL792 
 PHE793  MET794  SER795  GLU796  ALA797  LYS798  CYS799  TRP800  GLU811  SER814 

> <Gold.Protein.RotatedAtoms>
  152.2842  134.7794  160.0390 H   0  0  0  0  0  0  0  0  0  0  0  0  # atno 6907 bound_to 6896
  151.8362  133.3411  159.3637 H   0  0  0  0  0  0  0  0  0  0  0  0  # atno 6908 bound_to 6896
  150.7202  134.5363  159.5769 H   0  0  0  0  0  0  0  0  0  0  0  0  # atno 6909 bound_to 6896
  145.5492  140.9499  143.1508 H   0  0  0  0  0  0  0  0  0  0  0  0  # atno 7974 bound_to 7965
  155.9174  140.1068  157.1233 H   0  0  0  0  0  0  0  0  0  0  0  0  # atno 8008 bound_to 7997
  154.4049  140.1262  156.4701 H   0  0  0  0  0  0  0  0  0  0  0  0  # atno 8009 bound_to 7997
  155.7237  140.3469  155.5030 H   0  0  0  0  0  0  0  0  0  0  0  0  # atno 8010 bound_to 7997
  140.4909  143.2380  151.7908 H   0  0  0  0  0  0  0  0  0  0  0  0  # atno 10167 bound_to 10162
  156.0047  130.5119  150.6111 H   0  0  0  0  0  0  0  0  0  0  0  0  # atno 10718 bound_to 10713
  154.2316  135.2778  155.2887 H   0  0  0  0  0  0  0  0  0  0  0  0  # atno 10763 bound_to 10752
  154.5619  135.5644  153.7018 H   0  0  0  0  0  0  0  0  0  0  0  0  # atno 10764 bound_to 10752
  153.0019  135.6300  154.2458 H   0  0  0  0  0  0  0  0  0  0  0  0  # atno 10765 bound_to 10752
  141.1632  133.6904  156.7331 H   0  0  0  0  0  0  0  0  0  0  0  0  # atno 11005 bound_to 11000
  144.7538  139.7126  143.7262 LP  0  0  0  0  0  0  0  0  0  0  0  0  # atno 17320 bound_to 7965
  146.1928  139.5178  142.9794 LP  0  0  0  0  0  0  0  0  0  0  0  0  # atno 17321 bound_to 7965
  139.4851  144.4650  151.9495 LP  0  0  0  0  0  0  0  0  0  0  0  0  # atno 17342 bound_to 10162
  140.3737  144.2823  150.5917 LP  0  0  0  0  0  0  0  0  0  0  0  0  # atno 17343 bound_to 10162
  157.3943  131.0800  151.1365 LP  0  0  0  0  0  0  0  0  0  0  0  0  # atno 17370 bound_to 10713
  157.2047  130.6410  149.5751 LP  0  0  0  0  0  0  0  0  0  0  0  0  # atno 17371 bound_to 10713
  140.2730  134.8377  157.3865 LP  0  0  0  0  0  0  0  0  0  0  0  0  # atno 17394 bound_to 11000
  140.1503  134.4858  155.7966 LP  0  0  0  0  0  0  0  0  0  0  0  0  # atno 17395 bound_to 11000

$$$$
