#       Name:                AV-unprocessed.smi:467
#       Creating user name   scv26
#       Creation time:       Thu Mar 26 23:06:00 2020


#       File generated by GOLD software.
#

@<TRIPOS>MOLECULE
AV-unprocessed.smi:467
    50    52     1
SMALL
NO_CHARGES


@<TRIPOS>ATOM
      1 ****        -4.1025   2.9380   1.9389 C.3            1 S1                 0.0000
      2 ****        -3.3988   1.9527   1.0210 C.ar           1 S1                 0.0000
      3 ****        -3.2044   2.3121  -0.3316 C.ar           1 S1                 0.0000
      4 ****        -2.5569   1.3909  -1.1460 C.ar           1 S1                 0.0000
      5 ****        -2.2216   1.4477  -2.5002 N.pl3          1 S1                 1.0000
      6 ****        -1.5886   0.2976  -2.8604 C.2            1 S1                 0.0000
      7 ****        -1.5086  -0.4919  -1.7545 N.pl3          1 S1                 0.0000
      8 ****        -0.9247  -1.8328  -1.6063 C.3            1 S1                 0.0000
      9 ****         0.6092  -1.8080  -1.4511 C.3            1 S1                 0.0000
     10 ****         1.0438  -3.1511  -1.3845 O.3            1 S1                 0.0000
     11 ****         1.0900  -1.0561  -0.1893 C.3            1 S1                 0.0000
     12 ****         2.5696  -0.9717  -0.0870 N.4            1 S1                 1.0000
     13 ****         3.1766   0.0155  -1.0151 C.3            1 S1                 0.0000
     14 ****         4.7082   0.0240  -0.8681 C.3            1 S1                 0.0000
     15 ****         5.0588   0.2966   0.4828 O.3            1 S1                 0.0000
     16 ****         4.5597  -0.6944   1.3718 C.3            1 S1                 0.0000
     17 ****         3.0235  -0.7198   1.3019 C.3            1 S1                 0.0000
     18 ****        -2.1072   0.1471  -0.6604 C.ar           1 S1                 0.0000
     19 ****        -2.2918  -0.2222   0.6708 C.ar           1 S1                 0.0000
     20 ****        -2.9488   0.7013   1.5154 C.ar           1 S1                 0.0000
     21 ****        -3.1665   0.3244   2.9711 C.3            1 S1                 0.0000
     22 ****        -4.3920   3.8435   1.4048 H              1 S1                 0.0000
     23 ****        -3.4477   3.2314   2.7599 H              1 S1                 0.0000
     24 ****        -5.0067   2.4949   2.3568 H              1 S1                 0.0000
     25 ****        -3.5462   3.2626  -0.7151 H              1 S1                 0.0000
     26 ****        -1.2178   0.0557  -3.8462 H              1 S1                 0.0000
     27 ****        -1.3994  -2.3476  -0.7711 H              1 S1                 0.0000
     28 ****        -1.1968  -2.3954  -2.5007 H              1 S1                 0.0000
     29 ****         1.0333  -1.3607  -2.3495 H              1 S1                 0.0000
     30 ****         1.9832  -3.1766  -1.4814 H              1 S1                 0.0000
     31 ****         0.6850  -0.0441  -0.1600 H              1 S1                 0.0000
     32 ****         0.6917  -1.5681   0.6883 H              1 S1                 0.0000
     33 ****         2.9185  -0.2178  -2.0472 H              1 S1                 0.0000
     34 ****         2.7797   1.0098  -0.8036 H              1 S1                 0.0000
     35 ****         5.1357  -0.9294  -1.1828 H              1 S1                 0.0000
     36 ****         5.1418   0.7938  -1.5069 H              1 S1                 0.0000
     37 ****         4.9784  -1.6708   1.1221 H              1 S1                 0.0000
     38 ****         4.8865  -0.4573   2.3846 H              1 S1                 0.0000
     39 ****         2.6179   0.2303   1.6533 H              1 S1                 0.0000
     40 ****         2.6412  -1.4974   1.9646 H              1 S1                 0.0000
     41 ****        -1.9510  -1.1728   1.0530 H              1 S1                 0.0000
     42 ****        -2.7461  -0.6557   3.1982 H              1 S1                 0.0000
     43 ****        -4.2317   0.2912   3.2019 H              1 S1                 0.0000
     44 ****        -2.6916   1.0503   3.6314 H              1 S1                 0.0000
     45 ****         2.9301  -1.8812  -0.3387 H              1 S1                 0.0000
     46 ****        -2.4137   2.2122  -3.1352 H              1 S1                 0.0000
     47 ****         0.6168  -3.6782  -2.1192 LP             1 S1                 0.0000
     48 ****         0.7874  -3.5428  -0.5008 LP             1 S1                 0.0000
     49 ****         4.6787   1.1844   0.7424 LP             1 S1                 0.0000
     50 ****         6.0555   0.3258   0.5583 LP             1 S1                 0.0000
@<TRIPOS>BOND
    1    1    2 1     
    2    1   22 1     
    3    1   23 1     
    4    1   24 1     
    5    2   20 ar    
    6    2    3 ar    
    7    3    4 ar    
    8    3   25 1     
    9    4   18 ar    
   10    4    5 1     
   11    5    6 2     
   12    5   46 1     
   13    6    7 1     
   14    6   26 1     
   15    7    8 1     
   16    7   18 1     
   17    8    9 1     
   18    8   27 1     
   19    8   28 1     
   20    9   10 1     
   21    9   11 1     
   22    9   29 1     
   23   10   30 1     
   24   11   12 1     
   25   11   31 1     
   26   11   32 1     
   27   12   17 1     
   28   12   13 1     
   29   12   45 1     
   30   13   14 1     
   31   13   33 1     
   32   13   34 1     
   33   14   15 1     
   34   14   35 1     
   35   14   36 1     
   36   15   16 1     
   37   16   17 1     
   38   16   37 1     
   39   16   38 1     
   40   17   39 1     
   41   17   40 1     
   42   18   19 ar    
   43   19   20 ar    
   44   19   41 1     
   45   20   21 1     
   46   21   42 1     
   47   21   43 1     
   48   21   44 1     
   49   10   47 1     
   50   10   48 1     
   51   15   49 1     
   52   15   50 1     
@<TRIPOS>SUBSTRUCTURE
      1 S1             1
@<TRIPOS>SET
LONE_PAIRS      STATIC     ATOMS    <user>   **** ""
4 47 48 49 50
DONOR_HYDROGENS      STATIC     ATOMS    <user>   **** ""
3 46 30 45
ATOM$BLUE        STATIC     ATOMS    COLORGROUP SYSTEM
4 47 48 49 50
ATOM$RED        STATIC     ATOMS    COLORGROUP SYSTEM
3 46 30 45
