AV-unprocessed.smi:1047|AV-procd|sdf|4565|dock3
  -GOLD-   22720 3 13D 1   1.00000     0.00000
 Structure written by MMmdl.
 57 59  0  0  0  0  0  0  0  0  3 V2000
  143.8143  132.5310  151.1420 C   0  0  0  0  0  0  0  0  0  0  0  0
  144.8350  132.9770  152.1984 C   0  0  0  0  0  0  0  0  0  0  0  0
  144.2081  133.7401  153.3106 N   0  3  2  0  0  0  0  0  0  0  0  0
  143.2767  134.7986  152.8502 C   0  0  0  0  0  0  0  0  0  0  0  0
  144.0439  136.0412  152.3647 C   0  0  0  0  0  0  0  0  0  0  0  0
  144.8889  136.5122  153.4080 O   0  0  0  0  0  0  0  0  0  0  0  0
  145.8747  135.5576  153.7897 C   0  0  1  0  0  0  0  0  0  0  0  0
  146.7596  136.1957  154.8715 C   0  0  0  0  0  0  0  0  0  0  0  0
  147.4334  137.4100  154.3685 N   0  3  0  0  0  0  0  0  0  0  0  0
  148.3632  138.0261  155.3356 C   0  0  0  0  0  0  0  0  0  0  0  0
  149.3799  138.9433  154.6299 C   0  0  1  0  0  0  0  0  0  0  0  0
  148.8577  139.3011  153.3648 O   0  0  0  0  0  0  0  0  0  0  0  0
  149.7106  140.2261  155.4241 C   0  0  0  0  0  0  0  0  0  0  0  0
  150.4729  139.9798  156.6377 N   0  0  0  0  0  0  0  0  0  0  0  0
  150.9204  138.7918  157.0893 C   0  0  0  0  0  0  0  0  0  0  0  0
  151.6094  138.7922  158.2263 N   0  0  0  0  0  0  0  0  0  0  0  0
  151.6018  140.1361  158.5569 C   0  0  0  0  0  0  0  0  0  0  0  0
  152.1673  140.8118  159.6601 C   0  0  0  0  0  0  0  0  0  0  0  0
  152.0354  142.2119  159.7979 C   0  0  0  0  0  0  0  0  0  0  0  0
  152.6588  142.8973  161.0009 C   0  0  0  0  0  0  0  0  0  0  0  0
  151.3268  142.9582  158.8225 C   0  0  0  0  0  0  0  0  0  0  0  0
  151.1701  144.4631  158.9512 C   0  0  0  0  0  0  0  0  0  0  0  0
  150.7546  142.2989  157.7147 C   0  0  0  0  0  0  0  0  0  0  0  0
  150.8951  140.9054  157.5869 C   0  0  0  0  0  0  0  0  0  0  0  0
  145.1618  134.2886  154.3098 C   0  0  0  0  0  0  0  0  0  0  0  0
  144.3199  132.0672  150.2948 H   0  0  0  0  0  0  0  0  0  0  0  0
  143.2454  133.3792  150.7602 H   0  0  0  0  0  0  0  0  0  0  0  0
  143.1087  131.7993  151.5339 H   0  0  0  0  0  0  0  0  0  0  0  0
  145.3910  132.1190  152.5759 H   0  0  0  0  0  0  0  0  0  0  0  0
  145.5646  133.6163  151.6994 H   0  0  0  0  0  0  0  0  0  0  0  0
  142.6151  134.4206  152.0698 H   0  0  0  0  0  0  0  0  0  0  0  0
  142.6336  135.0772  153.6862 H   0  0  0  0  0  0  0  0  0  0  0  0
  144.6302  135.8229  151.4709 H   0  0  0  0  0  0  0  0  0  0  0  0
  143.3430  136.8320  152.0970 H   0  0  0  0  0  0  0  0  0  0  0  0
  146.4973  135.3097  152.9287 H   0  0  0  0  0  0  0  0  0  0  0  0
  146.1618  136.4445  155.7497 H   0  0  0  0  0  0  0  0  0  0  0  0
  147.5220  135.4851  155.1934 H   0  0  0  0  0  0  0  0  0  0  0  0
  147.9469  137.1793  153.5301 H   0  0  0  0  0  0  0  0  0  0  0  0
  147.7938  138.5823  156.0820 H   0  0  0  0  0  0  0  0  0  0  0  0
  148.8898  137.2294  155.8621 H   0  0  0  0  0  0  0  0  0  0  0  0
  150.3087  138.3957  154.4650 H   0  0  0  0  0  0  0  0  0  0  0  0
  148.5157  138.5240  152.9482 H   0  0  0  0  0  0  0  0  0  0  0  0
  150.2812  140.9115  154.7965 H   0  0  0  0  0  0  0  0  0  0  0  0
  148.7938  140.7535  155.6921 H   0  0  0  0  0  0  0  0  0  0  0  0
  150.7355  137.8748  156.5488 H   0  0  0  0  0  0  0  0  0  0  0  0
  152.7059  140.2428  160.4037 H   0  0  0  0  0  0  0  0  0  0  0  0
  151.8954  143.4095  161.5869 H   0  0  0  0  0  0  0  0  0  0  0  0
  153.4006  143.6296  160.6815 H   0  0  0  0  0  0  0  0  0  0  0  0
  153.1564  142.1804  161.6548 H   0  0  0  0  0  0  0  0  0  0  0  0
  150.6103  144.8783  158.1127 H   0  0  0  0  0  0  0  0  0  0  0  0
  152.1457  144.9492  158.9754 H   0  0  0  0  0  0  0  0  0  0  0  0
  150.6351  144.7138  159.8674 H   0  0  0  0  0  0  0  0  0  0  0  0
  150.2103  142.8566  156.9674 H   0  0  0  0  0  0  0  0  0  0  0  0
  144.5957  134.5371  155.2086 H   0  0  0  0  0  0  0  0  0  0  0  0
  145.8874  133.5347  154.6124 H   0  0  0  0  0  0  0  0  0  0  0  0
  146.7279  138.0957  154.1369 H   0  0  0  0  0  0  0  0  0  0  0  0
  143.6355  133.0656  153.7987 H   0  0  0  0  0  0  0  0  0  0  0  0
  1  2  1  0  0  0  0
  1 26  1  0  0  0  0
  1 27  1  0  0  0  0
  1 28  1  0  0  0  0
  2  3  1  0  0  0  0
  2 29  1  0  0  0  0
  2 30  1  0  0  0  0
  3 25  1  0  0  0  0
  3  4  1  0  0  0  0
  3 57  1  0  0  0  0
  4  5  1  0  0  0  0
  4 31  1  0  0  0  0
  4 32  1  0  0  0  0
  5  6  1  0  0  0  0
  5 33  1  0  0  0  0
  5 34  1  0  0  0  0
  6  7  1  0  0  0  0
  7  8  1  0  0  0  0
  7 25  1  0  0  0  0
  7 35  1  0  0  0  0
  8  9  1  0  0  0  0
  8 36  1  0  0  0  0
  8 37  1  0  0  0  0
  9 10  1  0  0  0  0
  9 38  1  0  0  0  0
  9 56  1  0  0  0  0
 10 11  1  0  0  0  0
 10 39  1  0  0  0  0
 10 40  1  0  0  0  0
 11 12  1  0  0  0  0
 11 13  1  0  0  0  0
 11 41  1  0  0  0  0
 12 42  1  0  0  0  0
 13 14  1  0  0  0  0
 13 43  1  0  0  0  0
 13 44  1  0  0  0  0
 14 24  1  0  0  0  0
 14 15  1  0  0  0  0
 15 16  2  0  0  0  0
 15 45  1  0  0  0  0
 16 17  1  0  0  0  0
 17 24  2  0  0  0  0
 17 18  1  0  0  0  0
 18 19  2  0  0  0  0
 18 46  1  0  0  0  0
 19 20  1  0  0  0  0
 19 21  1  0  0  0  0
 20 47  1  0  0  0  0
 20 48  1  0  0  0  0
 20 49  1  0  0  0  0
 21 22  1  0  0  0  0
 21 23  2  0  0  0  0
 22 50  1  0  0  0  0
 22 51  1  0  0  0  0
 22 52  1  0  0  0  0
 23 24  1  0  0  0  0
 23 53  1  0  0  0  0
 25 54  1  0  0  0  0
 25 55  1  0  0  0  0
M  CHG  1   3   1
M  CHG  1   9   1
M  END
> <s_m_source_file>
AV-unprocessed.smi

> <i_m_source_file_index>
1047

> <i_lp_mmshare_version>
43012

> <i_f3d_flags>
0

> <s_epik_input>
W0NIM11bQ0gyXU4xW0NIMl1bQ0gyXU9bQ0BIXShbQ0gyXTEpW0NIMl1bTkhdW0NIMl1bQ0BIXShbT0hdKVtDSDJdbihbY0hdbjIpYyhjMjMpW2NIXWMoW0NIM10pYyhbY0hdMylbQ0gzXQ==

> <s_epik_cmdline>
J2VwaWtfcHl0aG9uJywgJy1waCcsICc3LjAnLCAnLXRuJywgJzgnLCAnLW1hJywgJzIwMCcsICctbWV0YWxfYmluZGluZycsICctaW1hZScsICc8aW5maWxlLm1hZT4nLCAnLW9tYWUnLCAnPG91dGZpbGUubWFlPic=

> <r_epik_Ionization_Penalty>
0.528991

> <r_epik_Ionization_Penalty_Charging>
0.438567

> <r_epik_Ionization_Penalty_Neutral>
0.0904237

> <r_epik_State_Penalty>
0.533036

> <r_epik_Charging_Adjusted_Penalty>
0.971603

> <i_epik_Tot_Q>
2

> <i_epik_Tot_abs_Q>
2

> <r_epik_Metal_State_Penalty>
0.448985

> <b_epik_Metal_Only>
0

> <s_lp_Force_Field>
OPLS_2005

> <r_lp_Energy>
30.0062

> <b_lp_Chiralities_Consistent>
1

> <s_lp_Variant>
AV-unprocessed.smi:1047-6

> <Gold.Version>
5.8.1

> <Gold.Id.Protein>
6NUR|6NUR_protein|mol2

> <Gold.PLP.Fitness>
56.9856

> <Gold.PLP.PLP>
-43.1830

> <Gold.PLP.part.hbond>
-3.5667

> <Gold.PLP.part.metal>
0.0000

> <Gold.PLP.part.buried>
-5.6620

> <Gold.PLP.part.nonpolar>
-33.7171

> <Gold.PLP.part.repulsive>
0.1216

> <Gold.PLP.ligand.clash>
0.0000

> <Gold.PLP.ligand.torsion>
0.7382

> <Gold.PLP.Chemscore.Hbond>
5.0000

> <Gold.PLP.Chemscore.CHOScore>
0.0000

> <Gold.PLP.Chemscore.Metal>
0.0000

> <Gold.Chemscore.Hbonds>
donor molecule, donor type, donor heavy atom, donor atom, acceptor molecule, acceptor atom, score
      L1  H     3    57       P1 10957  2.00
      L1  H     9    38       P1  7948  1.33

> <Gold.PLP.Chemscore.Internal.Correction>
0.2789

> <Gold.Rescore>
     Score         DG    S(hbond)    S(metal)    S(lipo)     H(rot)  DE(clash)    DE(int)     intcor
     21.20     -22.03       2.95        0.00     116.17       2.70       0.02       0.81       ----

> <Gold.Chemscore.Fitness>
21.1966

> <Gold.Chemscore.DG>
-22.0328

> <Gold.Chemscore.ZeroCoef>
-5.4800

> <Gold.Chemscore.Hbond>
2.9546

> <Gold.Chemscore.Metal>
0.0000

> <Gold.Chemscore.Lipo>
116.1749

> <Gold.Chemscore.Internal_Hbond>
0.0000

> <Gold.Chemscore.DEClash>
0.0225

> <Gold.Chemscore.DEInternal>
0.8138

> <Gold.Chemscore.Rot>
2.6985

> <Gold.Chemscore.Internal.Correction>
   9.000000E+99

> <Gold.Chemscore.Hbonds>
donor molecule, donor type, donor heavy atom, donor atom, acceptor molecule, acceptor atom, score
      L1  H     3    57       P1 10957  0.98
      L1  H     9    38       P1  7948  0.67

> <Gold.Chemscore.Hbond.Weighted>
-9.8685

> <Gold.Chemscore.Metal.Weighted>
-0.0000

> <Gold.Chemscore.Lipo.Weighted>
-13.5925

> <Gold.Chemscore.Internal_Hbond.Weighted>
0.0000

> <Gold.Chemscore.DEClash.Weighted>
0.0225

> <Gold.Chemscore.DEInternal.Weighted>
0.8138

> <Gold.Chemscore.Rot.Weighted>
6.9081

> <Gold.Chemscore.Internal.Correction.Weighted>
   9.000000E+99

> <Gold.Protein.RotatedTorsions>
[ 6907 6896 6895 6894 ] final  -54.40 input  -60.11 | X-H torsion
[ 7974 7965 7964 7962 ] final  140.24 input  175.53 | X-H torsion
[ 8008 7997 7996 7995 ] final   79.99 input   59.86 | X-H torsion
[ 10167 10162 10161 10158 ] final -101.30 input  -65.29 | X-H torsion
[ 10718 10713 10712 10709 ] final -153.16 input   66.30 | X-H torsion
[ 10763 10752 10751 10750 ] final -130.38 input  -60.55 | X-H torsion
[ 11005 11000 10999 10996 ] final  -99.70 input  -57.11 | X-H torsion

> <Gold.Protein.ActiveResidues>
 VAL166  LYS551  ARG553  GLY616  TRP617  ASP618  TYR619  PRO620  LYS621  CYS622 
 ASP623  PHE694  ASN695  SER759  ASP760  ASP761  ALA762  ILE779  LEU786  VAL792 
 PHE793  MET794  SER795  GLU796  ALA797  LYS798  CYS799  TRP800  GLU811  SER814 

> <Gold.Protein.RotatedAtoms>
  150.8341  134.7607  159.6877 H   0  0  0  0  0  0  0  0  0  0  0  0  # atno 6907 bound_to 6896
  152.4441  134.5528  159.9881 H   0  0  0  0  0  0  0  0  0  0  0  0  # atno 6908 bound_to 6896
  151.5682  133.3356  159.3020 H   0  0  0  0  0  0  0  0  0  0  0  0  # atno 6909 bound_to 6896
  144.9205  139.5174  143.5666 H   0  0  0  0  0  0  0  0  0  0  0  0  # atno 7974 bound_to 7965
  155.8773  140.3446  155.5863 H   0  0  0  0  0  0  0  0  0  0  0  0  # atno 8008 bound_to 7997
  155.7760  140.0852  157.2103 H   0  0  0  0  0  0  0  0  0  0  0  0  # atno 8009 bound_to 7997
  154.4022  140.1509  156.2984 H   0  0  0  0  0  0  0  0  0  0  0  0  # atno 8010 bound_to 7997
  140.2428  143.3527  152.0786 H   0  0  0  0  0  0  0  0  0  0  0  0  # atno 10167 bound_to 10162
  156.4821  130.8308  151.2534 H   0  0  0  0  0  0  0  0  0  0  0  0  # atno 10718 bound_to 10713
  154.8755  135.3864  154.4074 H   0  0  0  0  0  0  0  0  0  0  0  0  # atno 10763 bound_to 10752
  153.4791  135.7030  153.5953 H   0  0  0  0  0  0  0  0  0  0  0  0  # atno 10764 bound_to 10752
  153.4377  135.3863  155.2176 H   0  0  0  0  0  0  0  0  0  0  0  0  # atno 10765 bound_to 10752
  141.1299  133.8341  157.1005 H   0  0  0  0  0  0  0  0  0  0  0  0  # atno 11005 bound_to 11000
  146.3202  139.8080  142.8951 LP  0  0  0  0  0  0  0  0  0  0  0  0  # atno 17320 bound_to 7965
  145.3305  141.0265  143.3449 LP  0  0  0  0  0  0  0  0  0  0  0  0  # atno 17321 bound_to 7965
  139.5072  144.6827  151.5967 LP  0  0  0  0  0  0  0  0  0  0  0  0  # atno 17342 bound_to 10162
  140.6101  143.9452  150.6447 LP  0  0  0  0  0  0  0  0  0  0  0  0  # atno 17343 bound_to 10162
  157.7482  131.0041  150.3065 LP  0  0  0  0  0  0  0  0  0  0  0  0  # atno 17370 bound_to 10713
  156.3512  130.3831  149.7328 LP  0  0  0  0  0  0  0  0  0  0  0  0  # atno 17371 bound_to 10713
  140.0336  134.9889  157.0828 LP  0  0  0  0  0  0  0  0  0  0  0  0  # atno 17394 bound_to 11000
  140.4246  134.1845  155.7165 LP  0  0  0  0  0  0  0  0  0  0  0  0  # atno 17395 bound_to 11000

$$$$
