AV-unprocessed.smi:933|AV-procd|sdf|4201|dock7
  -GOLD-   22720 2103D 1   1.00000     0.00000
 Structure written by MMmdl.
 42 43  0  0  0  0  0  0  0  0  1 V2000
  144.0821  145.7649  156.2030 C   0  0  0  0  0  0  0  0  0  0  0  0
  143.7835  144.2892  155.9181 C   0  0  0  0  0  0  0  0  0  0  0  0
  144.8548  143.6327  155.1131 C   0  0  0  0  0  0  0  0  0  0  0  0
  145.5360  142.5613  155.5280 N   0  0  0  0  0  0  0  0  0  0  0  0
  146.4641  142.1131  154.5829 C   0  0  0  0  0  0  0  0  0  0  0  0
  147.3199  140.9200  154.8829 C   0  0  0  0  0  0  0  0  0  0  0  0
  148.8104  141.2038  154.6530 C   0  0  0  0  0  0  0  0  0  0  0  0
  149.3188  142.1336  155.6581 N   0  0  0  0  0  0  0  0  0  0  0  0
  150.4949  142.0666  156.3050 C   0  0  0  0  0  0  0  0  0  0  0  0
  151.2991  141.1592  156.1003 O   0  0  0  0  0  0  0  0  0  0  0  0
  150.7060  143.0615  157.1829 N   0  0  0  0  0  0  0  0  0  0  0  0
  151.9060  143.2233  157.9991 C   0  0  2  0  0  0  0  0  0  0  0  0
  152.4341  141.8659  158.5095 C   0  0  0  0  0  0  0  0  0  0  0  0
  152.2626  141.8829  160.0294 C   0  0  0  0  0  0  0  0  0  0  0  0
  152.3351  143.3603  160.3998 C   0  0  0  0  0  0  0  0  0  0  0  0
  151.6010  144.0654  159.2560 C   0  0  1  0  0  0  0  0  0  0  0  0
  151.9661  145.5492  159.1118 C   0  0  0  0  0  0  0  0  0  0  0  0
  146.4660  142.8592  153.4306 C   0  0  0  0  0  0  0  0  0  0  0  0
  145.2993  144.1516  153.4912 S   0  0  0  0  0  0  0  0  0  0  0  0
  143.2833  146.2157  156.7922 H   0  0  0  0  0  0  0  0  0  0  0  0
  144.1749  146.3331  155.2768 H   0  0  0  0  0  0  0  0  0  0  0  0
  145.0123  145.8773  156.7604 H   0  0  0  0  0  0  0  0  0  0  0  0
  143.6695  143.7456  156.8564 H   0  0  0  0  0  0  0  0  0  0  0  0
  142.8357  144.1964  155.3865 H   0  0  0  0  0  0  0  0  0  0  0  0
  147.1653  140.6039  155.9154 H   0  0  0  0  0  0  0  0  0  0  0  0
  147.0096  140.0777  154.2629 H   0  0  0  0  0  0  0  0  0  0  0  0
  149.3768  140.2721  154.6994 H   0  0  0  0  0  0  0  0  0  0  0  0
  148.9579  141.6267  153.6580 H   0  0  0  0  0  0  0  0  0  0  0  0
  148.7125  142.9055  155.8957 H   0  0  0  0  0  0  0  0  0  0  0  0
  149.9867  143.7621  157.2870 H   0  0  0  0  0  0  0  0  0  0  0  0
  152.6868  143.7078  157.4091 H   0  0  0  0  0  0  0  0  0  0  0  0
  151.9336  141.0075  158.0593 H   0  0  0  0  0  0  0  0  0  0  0  0
  153.4937  141.7797  158.2656 H   0  0  0  0  0  0  0  0  0  0  0  0
  151.2810  141.4869  160.2928 H   0  0  0  0  0  0  0  0  0  0  0  0
  153.0137  141.2824  160.5434 H   0  0  0  0  0  0  0  0  0  0  0  0
  151.8927  143.5695  161.3742 H   0  0  0  0  0  0  0  0  0  0  0  0
  153.3787  143.6773  160.4320 H   0  0  0  0  0  0  0  0  0  0  0  0
  150.5336  143.9977  159.4759 H   0  0  0  0  0  0  0  0  0  0  0  0
  153.0299  145.6798  158.9103 H   0  0  0  0  0  0  0  0  0  0  0  0
  151.7289  146.1000  160.0223 H   0  0  0  0  0  0  0  0  0  0  0  0
  151.4129  146.0083  158.2918 H   0  0  0  0  0  0  0  0  0  0  0  0
  147.0770  142.7239  152.5505 H   0  0  0  0  0  0  0  0  0  0  0  0
  1  2  1  0  0  0  0
  1 20  1  0  0  0  0
  1 21  1  0  0  0  0
  1 22  1  0  0  0  0
  2  3  1  0  0  0  0
  2 23  1  0  0  0  0
  2 24  1  0  0  0  0
  3 19  1  0  0  0  0
  3  4  2  0  0  0  0
  4  5  1  0  0  0  0
  5  6  1  0  0  0  0
  5 18  2  0  0  0  0
  6  7  1  0  0  0  0
  6 25  1  0  0  0  0
  6 26  1  0  0  0  0
  7  8  1  0  0  0  0
  7 27  1  0  0  0  0
  7 28  1  0  0  0  0
  8  9  1  0  0  0  0
  8 29  1  0  0  0  0
  9 10  2  0  0  0  0
  9 11  1  0  0  0  0
 11 12  1  0  0  0  0
 11 30  1  0  0  0  0
 12 16  1  0  0  0  0
 12 13  1  0  0  0  0
 12 31  1  0  0  0  0
 13 14  1  0  0  0  0
 13 32  1  0  0  0  0
 13 33  1  0  0  0  0
 14 15  1  0  0  0  0
 14 34  1  0  0  0  0
 14 35  1  0  0  0  0
 15 16  1  0  0  0  0
 15 36  1  0  0  0  0
 15 37  1  0  0  0  0
 16 17  1  0  0  0  0
 16 38  1  0  0  0  0
 17 39  1  0  0  0  0
 17 40  1  0  0  0  0
 17 41  1  0  0  0  0
 18 19  1  0  0  0  0
 18 42  1  0  0  0  0
M  END
> <s_m_source_file>
AV-unprocessed.smi

> <i_m_source_file_index>
933

> <i_lp_mmshare_version>
43012

> <i_f3d_flags>
0

> <s_epik_input>
W0NIM11bQ0gyXWMxbmMoW2NIXXMxKVtDSDJdW0NIMl1bTkhdQyg9TylbTkhdW0NAQEhdMltDSDJdW0NIMl1bQ0gyXVtDQEhdMltDSDNd

> <s_epik_cmdline>
J2VwaWtfcHl0aG9uJywgJy1waCcsICc3LjAnLCAnLXRuJywgJzgnLCAnLW1hJywgJzIwMCcsICctbWV0YWxfYmluZGluZycsICctaW1hZScsICc8aW5maWxlLm1hZT4nLCAnLW9tYWUnLCAnPG91dGZpbGUubWFlPic=

> <r_epik_Ionization_Penalty>
0.00203408

> <r_epik_Ionization_Penalty_Charging>
0

> <r_epik_Ionization_Penalty_Neutral>
0.00203408

> <r_epik_State_Penalty>
0.0013452

> <r_epik_Charging_Adjusted_Penalty>
0.0013452

> <i_epik_Tot_Q>
0

> <i_epik_Tot_abs_Q>
0

> <r_epik_Metal_State_Penalty>
-0

> <b_epik_Metal_Only>
0

> <s_lp_Force_Field>
OPLS_2005

> <r_lp_Energy>
18.2024

> <b_lp_Chiralities_Consistent>
1

> <s_lp_Variant>
AV-unprocessed.smi:933-1

> <Gold.Version>
5.8.1

> <Gold.Id.Protein>
6NUR|6NUR_protein|mol2

> <Gold.PLP.Fitness>
43.0597

> <Gold.PLP.PLP>
-41.1106

> <Gold.PLP.part.hbond>
-2.0000

> <Gold.PLP.part.metal>
0.0000

> <Gold.PLP.part.buried>
-6.1242

> <Gold.PLP.part.nonpolar>
-32.5104

> <Gold.PLP.part.repulsive>
0.3388

> <Gold.PLP.ligand.clash>
0.0000

> <Gold.PLP.ligand.torsion>
0.5302

> <Gold.PLP.Chemscore.Hbond>
0.9919

> <Gold.PLP.Chemscore.CHOScore>
0.0000

> <Gold.PLP.Chemscore.Metal>
0.0000

> <Gold.Chemscore.Hbonds>
donor molecule, donor type, donor heavy atom, donor atom, acceptor molecule, acceptor atom, score
      L1  H     8    29       P1  8028  0.66
      L1  H    11    30       P1  8028  0.34

> <Gold.PLP.Chemscore.Internal.Correction>
0.0336

> <Gold.Rescore>
     Score         DG    S(hbond)    S(metal)    S(lipo)     H(rot)  DE(clash)    DE(int)     intcor
     15.47     -18.17       1.13        0.00     110.09       1.55       0.65       2.05       ----

> <Gold.Chemscore.Fitness>
15.4667

> <Gold.Chemscore.DG>
-18.1685

> <Gold.Chemscore.ZeroCoef>
-5.4800

> <Gold.Chemscore.Hbond>
1.1291

> <Gold.Chemscore.Metal>
0.0000

> <Gold.Chemscore.Lipo>
110.0917

> <Gold.Chemscore.Internal_Hbond>
0.0000

> <Gold.Chemscore.DEClash>
0.6499

> <Gold.Chemscore.DEInternal>
2.0519

> <Gold.Chemscore.Rot>
1.5482

> <Gold.Chemscore.Internal.Correction>
   9.000000E+99

> <Gold.Chemscore.Hbonds>
donor molecule, donor type, donor heavy atom, donor atom, acceptor molecule, acceptor atom, score
      L1  H     8    29       P1  8028  0.66
      L1  H    11    30       P1  8028  0.32

> <Gold.Chemscore.Hbond.Weighted>
-3.7713

> <Gold.Chemscore.Metal.Weighted>
-0.0000

> <Gold.Chemscore.Lipo.Weighted>
-12.8807

> <Gold.Chemscore.Internal_Hbond.Weighted>
0.0000

> <Gold.Chemscore.DEClash.Weighted>
0.6499

> <Gold.Chemscore.DEInternal.Weighted>
2.0519

> <Gold.Chemscore.Rot.Weighted>
3.9635

> <Gold.Chemscore.Internal.Correction.Weighted>
   9.000000E+99

> <Gold.Protein.RotatedTorsions>
[ 6907 6896 6895 6894 ] final  119.00 input  -60.11 | X-H torsion
[ 7974 7965 7964 7962 ] final -105.30 input  175.53 | X-H torsion
[ 8008 7997 7996 7995 ] final  159.41 input   59.86 | X-H torsion
[ 10167 10162 10161 10158 ] final  171.28 input  -65.29 | X-H torsion
[ 10718 10713 10712 10709 ] final  -72.24 input   66.30 | X-H torsion
[ 10763 10752 10751 10750 ] final  -68.86 input  -60.55 | X-H torsion
[ 11005 11000 10999 10996 ] final   68.62 input  -57.11 | X-H torsion

> <Gold.Protein.ActiveResidues>
 VAL166  LYS551  ARG553  GLY616  TRP617  ASP618  TYR619  PRO620  LYS621  CYS622 
 ASP623  PHE694  ASN695  SER759  ASP760  ASP761  ALA762  ILE779  LEU786  VAL792 
 PHE793  MET794  SER795  GLU796  ALA797  LYS798  CYS799  TRP800  GLU811  SER814 

> <Gold.Protein.RotatedAtoms>
  152.4503  133.7616  159.6749 H   0  0  0  0  0  0  0  0  0  0  0  0  # atno 6907 bound_to 6896
  150.8413  133.7921  159.3066 H   0  0  0  0  0  0  0  0  0  0  0  0  # atno 6908 bound_to 6896
  151.5545  135.1069  160.0009 H   0  0  0  0  0  0  0  0  0  0  0  0  # atno 6909 bound_to 6896
  145.2322  140.9175  143.3198 H   0  0  0  0  0  0  0  0  0  0  0  0  # atno 7974 bound_to 7965
  156.2240  140.1832  156.7407 H   0  0  0  0  0  0  0  0  0  0  0  0  # atno 8008 bound_to 7997
  154.5911  140.0650  156.9269 H   0  0  0  0  0  0  0  0  0  0  0  0  # atno 8009 bound_to 7997
  155.2334  140.3316  155.4303 H   0  0  0  0  0  0  0  0  0  0  0  0  # atno 8010 bound_to 7997
  139.5042  144.3503  151.9929 H   0  0  0  0  0  0  0  0  0  0  0  0  # atno 10167 bound_to 10162
  156.0329  130.4368  150.2563 H   0  0  0  0  0  0  0  0  0  0  0  0  # atno 10718 bound_to 10713
  154.3951  135.6044  153.5865 H   0  0  0  0  0  0  0  0  0  0  0  0  # atno 10763 bound_to 10752
  152.9787  135.5893  154.4251 H   0  0  0  0  0  0  0  0  0  0  0  0  # atno 10764 bound_to 10752
  154.4041  135.2843  155.2056 H   0  0  0  0  0  0  0  0  0  0  0  0  # atno 10765 bound_to 10752
  139.9700  134.6915  156.0465 H   0  0  0  0  0  0  0  0  0  0  0  0  # atno 11005 bound_to 11000
  144.9666  139.3924  143.6330 LP  0  0  0  0  0  0  0  0  0  0  0  0  # atno 17320 bound_to 7965
  146.3350  139.8744  142.8834 LP  0  0  0  0  0  0  0  0  0  0  0  0  # atno 17321 bound_to 7965
  140.2940  144.3722  150.6080 LP  0  0  0  0  0  0  0  0  0  0  0  0  # atno 17342 bound_to 10162
  140.5925  143.2167  151.7227 LP  0  0  0  0  0  0  0  0  0  0  0  0  # atno 17343 bound_to 10162
  157.0664  131.0104  151.3205 LP  0  0  0  0  0  0  0  0  0  0  0  0  # atno 17370 bound_to 10713
  157.5032  130.7893  149.7626 LP  0  0  0  0  0  0  0  0  0  0  0  0  # atno 17371 bound_to 10713
  141.1380  133.6571  156.3649 LP  0  0  0  0  0  0  0  0  0  0  0  0  # atno 17394 bound_to 11000
  140.5313  134.6210  157.5351 LP  0  0  0  0  0  0  0  0  0  0  0  0  # atno 17395 bound_to 11000

$$$$
