#       Name:                AV-unprocessed.smi:2849
#       Creating user name   scv26
#       Creation time:       Fri Mar 27 15:41:18 2020


#       File generated by GOLD software.
#

@<TRIPOS>MOLECULE
AV-unprocessed.smi:2849
    58    61     1
SMALL
NO_CHARGES


@<TRIPOS>ATOM
      1 ****        -5.5148  -4.0427  -1.1727 C.3            1 S1                 0.0000
      2 ****        -4.7471  -2.7792  -1.0636 N.4            1 S1                 1.0000
      3 ****        -3.8800  -2.4752  -2.2269 C.3            1 S1                 0.0000
      4 ****        -2.6710  -3.4412  -2.3002 C.3            1 S1                 0.0000
      5 ****        -1.8714  -3.5470  -0.9895 C.3            1 S1                 0.0000
      6 ****        -2.7777  -3.5953   0.2534 C.3            1 S1                 0.0000
      7 ****        -3.9818  -2.6224   0.1964 C.3            1 S1                 0.0000
      8 ****        -3.6295  -1.1294   0.3914 C.3            1 S1                 0.0000
      9 ****        -3.0346  -0.4080  -0.8492 C.3            1 S1                 0.0000
     10 ****        -1.5781  -0.2961  -0.8003 N.am           1 S1                 0.0000
     11 ****        -0.8841   0.5784  -0.0569 C.2            1 S1                 0.0000
     12 ****        -1.4105   1.3892   0.7047 O.2            1 S1                 0.0000
     13 ****         0.4386   0.4287  -0.2409 N.am           1 S1                 0.0000
     14 ****         1.5007   1.2038   0.2985 C.ar           1 S1                 0.0000
     15 ****         1.3558   2.5196   0.7963 C.ar           1 S1                 0.0000
     16 ****         2.4927   3.1962   1.2783 C.ar           1 S1                 0.0000
     17 ****         3.7497   2.5473   1.2425 C.ar           1 S1                 0.0000
     18 ****         4.9110   3.1913   1.7144 N.pl3          1 S1                 0.0000
     19 ****         6.2316   2.6041   1.5463 C.3            1 S1                 0.0000
     20 ****         7.1994   3.6817   2.0316 C.3            1 S1                 0.0000
     21 ****         6.4859   4.9801   1.6562 C.3            1 S1                 0.0000
     22 ****         4.9967   4.6432   1.7971 C.3            1 S1                 0.0000
     23 ****         3.8861   1.2878   0.7637 N.ar           1 S1                 0.0000
     24 ****         2.7940   0.6444   0.3014 C.ar           1 S1                 0.0000
     25 ****        -3.5206  -0.9709  -2.2097 C.3            1 S1                 0.0000
     26 ****        -4.8685  -4.9198  -1.1936 H              1 S1                 0.0000
     27 ****        -6.1156  -4.0449  -2.0825 H              1 S1                 0.0000
     28 ****        -6.1967  -4.1461  -0.3283 H              1 S1                 0.0000
     29 ****        -4.4695  -2.6364  -3.1308 H              1 S1                 0.0000
     30 ****        -3.0334  -4.4357  -2.5618 H              1 S1                 0.0000
     31 ****        -2.0072  -3.1522  -3.1156 H              1 S1                 0.0000
     32 ****        -1.2458  -4.4396  -1.0174 H              1 S1                 0.0000
     33 ****        -1.1668  -2.7262  -0.9097 H              1 S1                 0.0000
     34 ****        -3.1541  -4.6126   0.3640 H              1 S1                 0.0000
     35 ****        -2.1851  -3.4077   1.1493 H              1 S1                 0.0000
     36 ****        -4.6440  -2.8888   1.0217 H              1 S1                 0.0000
     37 ****        -4.5587  -0.6156   0.6421 H              1 S1                 0.0000
     38 ****        -2.9940  -1.0002   1.2684 H              1 S1                 0.0000
     39 ****        -3.3943   0.6226  -0.8135 H              1 S1                 0.0000
     40 ****        -1.0561  -0.9277  -1.3900 H              1 S1                 0.0000
     41 ****         0.7236  -0.3477  -0.8195 H              1 S1                 0.0000
     42 ****         0.4050   3.0291   0.8049 H              1 S1                 0.0000
     43 ****         2.3845   4.1979   1.6668 H              1 S1                 0.0000
     44 ****         6.3376   1.6805   2.1163 H              1 S1                 0.0000
     45 ****         6.4008   2.3827   0.4916 H              1 S1                 0.0000
     46 ****         7.3082   3.6213   3.1153 H              1 S1                 0.0000
     47 ****         8.1908   3.5933   1.5864 H              1 S1                 0.0000
     48 ****         6.7886   5.8262   2.2735 H              1 S1                 0.0000
     49 ****         6.7071   5.2281   0.6171 H              1 S1                 0.0000
     50 ****         4.4122   5.1371   1.0199 H              1 S1                 0.0000
     51 ****         4.6176   4.9629   2.7683 H              1 S1                 0.0000
     52 ****         2.9606  -0.3533  -0.0776 H              1 S1                 0.0000
     53 ****        -2.8117  -0.7370  -3.0052 H              1 S1                 0.0000
     54 ****        -4.4285  -0.4269  -2.4745 H              1 S1                 0.0000
     55 ****        -5.4503  -2.0544  -1.0491 H              1 S1                 0.0000
     56 ****        -2.4061   1.4189   0.7929 LP             1 S1                 0.0000
     57 ****        -0.8425   2.0184   1.2354 LP             1 S1                 0.0000
     58 ****         4.7813   0.8422   0.7530 LP             1 S1                 0.0000
@<TRIPOS>BOND
    1    1    2 1     
    2    1   26 1     
    3    1   27 1     
    4    1   28 1     
    5    2    7 1     
    6    2    3 1     
    7    2   55 1     
    8    3   25 1     
    9    3    4 1     
   10    3   29 1     
   11    4    5 1     
   12    4   30 1     
   13    4   31 1     
   14    5    6 1     
   15    5   32 1     
   16    5   33 1     
   17    6    7 1     
   18    6   34 1     
   19    6   35 1     
   20    7    8 1     
   21    7   36 1     
   22    8    9 1     
   23    8   37 1     
   24    8   38 1     
   25    9   10 1     
   26    9   25 1     
   27    9   39 1     
   28   10   11 am    
   29   10   40 1     
   30   11   12 2     
   31   11   13 am    
   32   13   14 1     
   33   13   41 1     
   34   14   24 ar    
   35   14   15 ar    
   36   15   16 ar    
   37   15   42 1     
   38   16   17 ar    
   39   16   43 1     
   40   17   18 1     
   41   17   23 ar    
   42   18   22 1     
   43   18   19 1     
   44   19   20 1     
   45   19   44 1     
   46   19   45 1     
   47   20   21 1     
   48   20   46 1     
   49   20   47 1     
   50   21   22 1     
   51   21   48 1     
   52   21   49 1     
   53   22   50 1     
   54   22   51 1     
   55   23   24 ar    
   56   24   52 1     
   57   25   53 1     
   58   25   54 1     
   59   12   56 1     
   60   12   57 1     
   61   23   58 1     
@<TRIPOS>SUBSTRUCTURE
      1 S1             1
@<TRIPOS>SET
LONE_PAIRS      STATIC     ATOMS    <user>   **** ""
3 56 57 58
DONOR_HYDROGENS      STATIC     ATOMS    <user>   **** ""
3 55 40 41
ATOM$BLUE        STATIC     ATOMS    COLORGROUP SYSTEM
3 56 57 58
ATOM$RED        STATIC     ATOMS    COLORGROUP SYSTEM
3 55 40 41
