AV-unprocessed.smi:317|AV-procd|sdf|2329|dock1
  -GOLD-   2262022233D 1   1.00000     0.00000
 Structure written by MMmdl.
 40 41  0  0  0  0  0  0  0  0  2 V2000
  151.8356  137.8739  154.6016 C   0  0  0  0  0  0  0  0  0  0  0  0
  150.3286  137.8126  154.9100 C   0  0  1  0  0  0  0  0  0  0  0  0
  149.5439  139.0271  154.3794 C   0  0  0  0  0  0  0  0  0  0  0  0
  148.9599  138.7604  153.1201 O   0  0  0  0  0  0  0  0  0  0  0  0
  149.7298  136.5771  154.4107 N   0  0  0  0  0  0  0  0  0  0  0  0
  149.8902  135.3596  154.9478 C   0  0  0  0  0  0  0  0  0  0  0  0
  150.5752  135.1387  155.9463 O   0  0  0  0  0  0  0  0  0  0  0  0
  149.2262  134.4285  154.2426 N   0  0  0  0  0  0  0  0  0  0  0  0
  149.1816  133.0212  154.4579 C   0  0  0  0  0  0  0  0  0  0  0  0
  150.1430  132.3639  155.2685 C   0  0  0  0  0  0  0  0  0  0  0  0
  150.0809  130.9683  155.4419 C   0  0  0  0  0  0  0  0  0  0  0  0
  149.0550  130.2488  154.8060 C   0  0  0  0  0  0  0  0  0  0  0  0
  148.1440  130.9043  154.0579 N   0  3  0  0  0  0  0  0  0  0  0  0
  148.1419  132.2472  153.8647 C   0  0  0  0  0  0  0  0  0  0  0  0
  147.1136  132.7981  153.0666 N   0  0  0  0  0  0  0  0  0  0  0  0
  147.3947  133.2469  151.7079 C   0  0  0  0  0  0  0  0  0  0  0  0
  146.0244  133.4344  151.0633 C   0  0  0  0  0  0  0  0  0  0  0  0
  145.2082  132.3114  151.6966 C   0  0  0  0  0  0  0  0  0  0  0  0
  145.7867  132.1916  153.1111 C   0  0  0  0  0  0  0  0  0  0  0  0
  152.2726  138.8005  154.9745 H   0  0  0  0  0  0  0  0  0  0  0  0
  152.0303  137.8213  153.5300 H   0  0  0  0  0  0  0  0  0  0  0  0
  152.3692  137.0485  155.0739 H   0  0  0  0  0  0  0  0  0  0  0  0
  150.2132  137.8215  155.9954 H   0  0  0  0  0  0  0  0  0  0  0  0
  148.7663  139.3258  155.0833 H   0  0  0  0  0  0  0  0  0  0  0  0
  150.2130  139.8808  154.2673 H   0  0  0  0  0  0  0  0  0  0  0  0
  149.4555  139.2160  152.4565 H   0  0  0  0  0  0  0  0  0  0  0  0
  149.1550  136.6629  153.5852 H   0  0  0  0  0  0  0  0  0  0  0  0
  148.7856  134.7519  153.3940 H   0  0  0  0  0  0  0  0  0  0  0  0
  150.9286  132.9095  155.7687 H   0  0  0  0  0  0  0  0  0  0  0  0
  150.8113  130.4586  156.0533 H   0  0  0  0  0  0  0  0  0  0  0  0
  148.9300  129.1782  154.8789 H   0  0  0  0  0  0  0  0  0  0  0  0
  147.9736  134.1708  151.7043 H   0  0  0  0  0  0  0  0  0  0  0  0
  147.9547  132.4866  151.1617 H   0  0  0  0  0  0  0  0  0  0  0  0
  145.6077  134.4026  151.3449 H   0  0  0  0  0  0  0  0  0  0  0  0
  146.0549  133.3806  149.9747 H   0  0  0  0  0  0  0  0  0  0  0  0
  144.1360  132.5100  151.6931 H   0  0  0  0  0  0  0  0  0  0  0  0
  145.3794  131.3832  151.1495 H   0  0  0  0  0  0  0  0  0  0  0  0
  145.8215  131.1512  153.4378 H   0  0  0  0  0  0  0  0  0  0  0  0
  145.1671  132.7492  153.8142 H   0  0  0  0  0  0  0  0  0  0  0  0
  147.4053  130.3555  153.6176 H   0  0  0  0  0  0  0  0  0  0  0  0
  1  2  1  0  0  0  0
  1 20  1  0  0  0  0
  1 21  1  0  0  0  0
  1 22  1  0  0  0  0
  2  3  1  0  0  0  0
  2  5  1  0  0  0  0
  2 23  1  0  0  0  0
  3  4  1  0  0  0  0
  3 24  1  0  0  0  0
  3 25  1  0  0  0  0
  4 26  1  0  0  0  0
  5  6  1  0  0  0  0
  5 27  1  0  0  0  0
  6  7  2  0  0  0  0
  6  8  1  0  0  0  0
  8  9  1  0  0  0  0
  8 28  1  0  0  0  0
  9 14  1  0  0  0  0
  9 10  2  0  0  0  0
 10 11  1  0  0  0  0
 10 29  1  0  0  0  0
 11 12  2  0  0  0  0
 11 30  1  0  0  0  0
 12 13  1  0  0  0  0
 12 31  1  0  0  0  0
 13 14  2  0  0  0  0
 13 40  1  0  0  0  0
 14 15  1  0  0  0  0
 15 19  1  0  0  0  0
 15 16  1  0  0  0  0
 16 17  1  0  0  0  0
 16 32  1  0  0  0  0
 16 33  1  0  0  0  0
 17 18  1  0  0  0  0
 17 34  1  0  0  0  0
 17 35  1  0  0  0  0
 18 19  1  0  0  0  0
 18 36  1  0  0  0  0
 18 37  1  0  0  0  0
 19 38  1  0  0  0  0
 19 39  1  0  0  0  0
M  CHG  1  13   1
M  END
> <s_m_source_file>
AV-unprocessed.smi

> <i_m_source_file_index>
317

> <i_lp_mmshare_version>
43012

> <i_f3d_flags>
0

> <s_epik_input>
W09IXVtDSDJdW0NAQEhdKFtDSDNdKVtOSF1DKD1PKVtOSF1jMVtjSF1bY0hdW2NIXW5jMU4yW0NIMl1bQ0gyXVtDSDJdW0NIMl0y

> <s_epik_cmdline>
J2VwaWtfcHl0aG9uJywgJy1waCcsICc3LjAnLCAnLXRuJywgJzgnLCAnLW1hJywgJzIwMCcsICctbWV0YWxfYmluZGluZycsICctaW1hZScsICc8aW5maWxlLm1hZT4nLCAnLW9tYWUnLCAnPG91dGZpbGUubWFlPic=

> <r_lp_tautomer_probability>
0.999994

> <r_epik_Ionization_Penalty>
1.11558

> <r_epik_Ionization_Penalty_Charging>
1.11556

> <r_epik_Ionization_Penalty_Neutral>
2.02999e-05

> <r_epik_State_Penalty>
1.17393

> <r_epik_Charging_Adjusted_Penalty>
2.28949

> <i_epik_Tot_Q>
1

> <i_epik_Tot_abs_Q>
1

> <r_epik_Metal_State_Penalty>
1.25924

> <b_epik_Metal_Only>
0

> <s_lp_Force_Field>
OPLS_2005

> <r_lp_Energy>
42.0309

> <b_lp_Chiralities_Consistent>
1

> <s_lp_Variant>
AV-unprocessed.smi:317-4

> <Gold.Version>
5.8.1

> <Gold.Id.Protein>
6NUR|6NUR_protein|mol2

> <Gold.PLP.Fitness>
39.6601

> <Gold.PLP.PLP>
-33.8067

> <Gold.PLP.part.hbond>
-4.3201

> <Gold.PLP.part.metal>
0.0000

> <Gold.PLP.part.buried>
-4.2405

> <Gold.PLP.part.nonpolar>
-24.6098

> <Gold.PLP.part.repulsive>
0.2380

> <Gold.PLP.ligand.clash>
0.0000

> <Gold.PLP.ligand.torsion>
1.2573

> <Gold.PLP.Chemscore.Hbond>
2.6480

> <Gold.PLP.Chemscore.CHOScore>
0.0000

> <Gold.PLP.Chemscore.Metal>
0.0000

> <Gold.Chemscore.Hbonds>
donor molecule, donor type, donor heavy atom, donor atom, acceptor molecule, acceptor atom, score
      L1  H     4    26       P1  7957  1.00
      L1  H     5    27       P1  7948  0.90
      L1  H     8    28       P1  7948  0.70

> <Gold.PLP.Chemscore.Internal.Correction>
0.4240

> <Gold.Rescore>
     Score         DG    S(hbond)    S(metal)    S(lipo)     H(rot)  DE(clash)    DE(int)     intcor
     11.78     -14.41       2.00        0.00      65.53       2.11       0.02       2.61       ----

> <Gold.Chemscore.Fitness>
11.7795

> <Gold.Chemscore.DG>
-14.4100

> <Gold.Chemscore.ZeroCoef>
-5.4800

> <Gold.Chemscore.Hbond>
1.9952

> <Gold.Chemscore.Metal>
0.0000

> <Gold.Chemscore.Lipo>
65.5348

> <Gold.Chemscore.Internal_Hbond>
0.0000

> <Gold.Chemscore.DEClash>
0.0189

> <Gold.Chemscore.DEInternal>
2.6117

> <Gold.Chemscore.Rot>
2.1099

> <Gold.Chemscore.Internal.Correction>
   9.000000E+99

> <Gold.Chemscore.Hbonds>
donor molecule, donor type, donor heavy atom, donor atom, acceptor molecule, acceptor atom, score
      L1  H     4    26       P1  7957  0.90
      L1  H     5    27       P1  7948  0.87
      L1  H     8    28       P1  7948  0.24

> <Gold.Chemscore.Hbond.Weighted>
-6.6639

> <Gold.Chemscore.Metal.Weighted>
-0.0000

> <Gold.Chemscore.Lipo.Weighted>
-7.6676

> <Gold.Chemscore.Internal_Hbond.Weighted>
0.0000

> <Gold.Chemscore.DEClash.Weighted>
0.0189

> <Gold.Chemscore.DEInternal.Weighted>
2.6117

> <Gold.Chemscore.Rot.Weighted>
5.4015

> <Gold.Chemscore.Internal.Correction.Weighted>
   9.000000E+99

> <Gold.Protein.RotatedTorsions>
[ 6907 6896 6895 6894 ] final   -6.58 input  -60.11 | X-H torsion
[ 7974 7965 7964 7962 ] final  -46.85 input  175.53 | X-H torsion
[ 8008 7997 7996 7995 ] final -150.82 input   59.86 | X-H torsion
[ 10167 10162 10161 10158 ] final  -13.85 input  -65.29 | X-H torsion
[ 10718 10713 10712 10709 ] final  -43.82 input   66.30 | X-H torsion
[ 10763 10752 10751 10750 ] final  136.39 input  -60.55 | X-H torsion
[ 11005 11000 10999 10996 ] final -142.69 input  -57.11 | X-H torsion

> <Gold.Protein.ActiveResidues>
 VAL166  LYS551  ARG553  GLY616  TRP617  ASP618  TYR619  PRO620  LYS621  CYS622 
 ASP623  PHE694  ASN695  SER759  ASP760  ASP761  ALA762  ILE779  LEU786  VAL792 
 PHE793  MET794  SER795  GLU796  ALA797  LYS798  CYS799  TRP800  GLU811  SER814 

> <Gold.Protein.RotatedAtoms>
  151.4633  135.1040  159.9730 H   0  0  0  0  0  0  0  0  0  0  0  0  # atno 6907 bound_to 6896
  152.4844  133.8332  159.7125 H   0  0  0  0  0  0  0  0  0  0  0  0  # atno 6908 bound_to 6896
  150.8942  133.7142  159.2923 H   0  0  0  0  0  0  0  0  0  0  0  0  # atno 6909 bound_to 6896
  145.9677  140.7415  142.9426 H   0  0  0  0  0  0  0  0  0  0  0  0  # atno 7974 bound_to 7965
  155.6297  140.0690  157.2653 H   0  0  0  0  0  0  0  0  0  0  0  0  # atno 8008 bound_to 7997
  154.4209  140.1769  156.1508 H   0  0  0  0  0  0  0  0  0  0  0  0  # atno 8009 bound_to 7997
  155.9943  140.3342  155.6786 H   0  0  0  0  0  0  0  0  0  0  0  0  # atno 8010 bound_to 7997
  140.7190  143.5383  150.9439 H   0  0  0  0  0  0  0  0  0  0  0  0  # atno 10167 bound_to 10162
  156.2450  130.4183  149.8716 H   0  0  0  0  0  0  0  0  0  0  0  0  # atno 10718 bound_to 10713
  153.8557  135.3073  155.3435 H   0  0  0  0  0  0  0  0  0  0  0  0  # atno 10763 bound_to 10752
  154.7871  135.4803  153.9973 H   0  0  0  0  0  0  0  0  0  0  0  0  # atno 10764 bound_to 10752
  153.1491  135.6839  153.9003 H   0  0  0  0  0  0  0  0  0  0  0  0  # atno 10765 bound_to 10752
  140.8200  134.2643  157.4904 H   0  0  0  0  0  0  0  0  0  0  0  0  # atno 11005 bound_to 11000
  144.6829  140.2696  143.7307 LP  0  0  0  0  0  0  0  0  0  0  0  0  # atno 17320 bound_to 7965
  145.7951  139.1942  143.2080 LP  0  0  0  0  0  0  0  0  0  0  0  0  # atno 17321 bound_to 7965
  139.9105  143.6726  152.3116 LP  0  0  0  0  0  0  0  0  0  0  0  0  # atno 17342 bound_to 10162
  139.7107  144.7620  151.1116 LP  0  0  0  0  0  0  0  0  0  0  0  0  # atno 17343 bound_to 10162
  156.6284  130.8655  151.3490 LP  0  0  0  0  0  0  0  0  0  0  0  0  # atno 17370 bound_to 10713
  157.7191  130.9535  150.1369 LP  0  0  0  0  0  0  0  0  0  0  0  0  # atno 17371 bound_to 10713
  139.8709  134.9530  156.4131 LP  0  0  0  0  0  0  0  0  0  0  0  0  # atno 17394 bound_to 11000
  140.9109  133.7712  155.9791 LP  0  0  0  0  0  0  0  0  0  0  0  0  # atno 17395 bound_to 11000

$$$$
