AV-unprocessed.smi:2618|AV-procd|sdf|10219|dock7
  -GOLD-   2272014223D 1   1.00000     0.00000
 Structure written by MMmdl.
 39 40  0  0  0  0  0  0  0  0  1 V2000
  156.8573  139.9768  152.6937 C   0  0  0  0  0  0  0  0  0  0  0  0
  155.6983  139.3179  153.1721 O   0  0  0  0  0  0  0  0  0  0  0  0
  154.7529  140.2153  153.7339 C   0  0  0  0  0  0  0  0  0  0  0  0
  153.5318  139.4301  154.2494 C   0  0  0  0  0  0  0  0  0  0  0  0
  152.6243  140.2262  155.1562 C   0  0  0  0  0  0  0  0  0  0  0  0
  152.9902  140.7664  156.2600 N   0  0  0  0  0  0  0  0  0  0  0  0
  151.9754  141.4068  156.8396 N   0  0  0  0  0  0  0  0  0  0  0  0
  152.1156  142.1473  158.0194 C   0  0  0  0  0  0  0  0  0  0  0  0
  151.2743  143.1683  158.2267 N   0  0  0  0  0  0  0  0  0  0  0  0
  151.4177  143.8815  159.3641 C   0  0  0  0  0  0  0  0  0  0  0  0
  150.4501  145.0266  159.5737 C   0  0  0  0  0  0  0  0  0  0  0  0
  152.4196  143.5796  160.3079 C   0  0  0  0  0  0  0  0  0  0  0  0
  153.2561  142.4903  159.9922 C   0  0  0  0  0  0  0  0  0  0  0  0
  154.3761  142.0564  160.9134 C   0  0  0  0  0  0  0  0  0  0  0  0
  153.1005  141.7812  158.8536 N   0  0  0  0  0  0  0  0  0  0  0  0
  150.7198  141.2146  156.0985 C   0  0  2  0  0  0  0  0  0  0  0  0
  150.0698  142.4003  155.6700 O   0  0  0  0  0  0  0  0  0  0  0  0
  149.6945  140.3396  156.8744 C   0  0  0  0  0  0  0  0  0  0  0  0
  148.6117  140.1246  156.1249 F   0  0  0  0  0  0  0  0  0  0  0  0
  150.1975  139.1548  157.2174 F   0  0  0  0  0  0  0  0  0  0  0  0
  149.3065  140.9668  157.9862 F   0  0  0  0  0  0  0  0  0  0  0  0
  151.2006  140.4980  154.8294 C   0  0  0  0  0  0  0  0  0  0  0  0
  157.5429  139.2459  152.2652 H   0  0  0  0  0  0  0  0  0  0  0  0
  157.3780  140.4928  153.5016 H   0  0  0  0  0  0  0  0  0  0  0  0
  156.6079  140.7013  151.9175 H   0  0  0  0  0  0  0  0  0  0  0  0
  155.2024  140.8039  154.5358 H   0  0  0  0  0  0  0  0  0  0  0  0
  154.4313  140.9202  152.9656 H   0  0  0  0  0  0  0  0  0  0  0  0
  152.9503  139.0733  153.3992 H   0  0  0  0  0  0  0  0  0  0  0  0
  153.8776  138.5404  154.7763 H   0  0  0  0  0  0  0  0  0  0  0  0
  150.4929  145.3940  160.5994 H   0  0  0  0  0  0  0  0  0  0  0  0
  149.4278  144.7062  159.3702 H   0  0  0  0  0  0  0  0  0  0  0  0
  150.6921  145.8517  158.9035 H   0  0  0  0  0  0  0  0  0  0  0  0
  152.5397  144.1498  161.2175 H   0  0  0  0  0  0  0  0  0  0  0  0
  154.4408  142.7039  161.7882 H   0  0  0  0  0  0  0  0  0  0  0  0
  155.3325  142.0927  160.3913 H   0  0  0  0  0  0  0  0  0  0  0  0
  154.2096  141.0348  161.2563 H   0  0  0  0  0  0  0  0  0  0  0  0
  149.7433  142.8539  156.4318 H   0  0  0  0  0  0  0  0  0  0  0  0
  151.1398  141.1225  153.9365 H   0  0  0  0  0  0  0  0  0  0  0  0
  150.6599  139.5718  154.6328 H   0  0  0  0  0  0  0  0  0  0  0  0
  1  2  1  0  0  0  0
  1 23  1  0  0  0  0
  1 24  1  0  0  0  0
  1 25  1  0  0  0  0
  2  3  1  0  0  0  0
  3  4  1  0  0  0  0
  3 26  1  0  0  0  0
  3 27  1  0  0  0  0
  4  5  1  0  0  0  0
  4 28  1  0  0  0  0
  4 29  1  0  0  0  0
  5 22  1  0  0  0  0
  5  6  2  0  0  0  0
  6  7  1  0  0  0  0
  7  8  1  0  0  0  0
  7 16  1  0  0  0  0
  8 15  1  0  0  0  0
  8  9  2  0  0  0  0
  9 10  1  0  0  0  0
 10 11  1  0  0  0  0
 10 12  2  0  0  0  0
 11 30  1  0  0  0  0
 11 31  1  0  0  0  0
 11 32  1  0  0  0  0
 12 13  1  0  0  0  0
 12 33  1  0  0  0  0
 13 14  1  0  0  0  0
 13 15  2  0  0  0  0
 14 34  1  0  0  0  0
 14 35  1  0  0  0  0
 14 36  1  0  0  0  0
 16 17  1  0  0  0  0
 16 18  1  0  0  0  0
 16 22  1  0  0  0  0
 17 37  1  0  0  0  0
 18 19  1  0  0  0  0
 18 20  1  0  0  0  0
 18 21  1  0  0  0  0
 22 38  1  0  0  0  0
 22 39  1  0  0  0  0
M  END
> <s_m_source_file>
AV-unprocessed.smi

> <i_m_source_file_index>
2618

> <i_lp_mmshare_version>
43012

> <i_f3d_flags>
0

> <s_epik_input>
W0NIM11PW0NIMl1bQ0gyXUMoW0NIMl0xKT1OTihbQ0BAXTEoW09IXSlDKEYpKEYpRiljMm5jKFtDSDNdKVtjSF1jKG4yKVtDSDNd

> <s_epik_cmdline>
J2VwaWtfcHl0aG9uJywgJy1waCcsICc3LjAnLCAnLXRuJywgJzgnLCAnLW1hJywgJzIwMCcsICctbWV0YWxfYmluZGluZycsICctaW1hZScsICc8aW5maWxlLm1hZT4nLCAnLW9tYWUnLCAnPG91dGZpbGUubWFlPic=

> <r_lp_tautomer_probability>
1

> <r_epik_Ionization_Penalty>
0.0648608

> <r_epik_Ionization_Penalty_Charging>
0

> <r_epik_Ionization_Penalty_Neutral>
0.0648608

> <r_epik_State_Penalty>
0.0551477

> <r_epik_Charging_Adjusted_Penalty>
0.0551477

> <i_epik_Tot_Q>
0

> <i_epik_Tot_abs_Q>
0

> <r_epik_Metal_State_Penalty>
0.0550619

> <b_epik_Metal_Only>
0

> <s_epik_Chemistry_Notes>
This compound has an imine and may undergo hydrolysis.

> <s_lp_Force_Field>
OPLS_2005

> <r_lp_Energy>
16.3005

> <b_lp_Chiralities_Consistent>
1

> <s_lp_Variant>
AV-unprocessed.smi:2618-2

> <Gold.Version>
5.8.1

> <Gold.Id.Protein>
6NUR|6NUR_protein|mol2

> <Gold.PLP.Fitness>
46.7101

> <Gold.PLP.PLP>
-42.9319

> <Gold.PLP.part.hbond>
-2.9894

> <Gold.PLP.part.metal>
0.0000

> <Gold.PLP.part.buried>
-0.5677

> <Gold.PLP.part.nonpolar>
-38.0550

> <Gold.PLP.part.repulsive>
0.0970

> <Gold.PLP.ligand.clash>
0.0000

> <Gold.PLP.ligand.torsion>
0.4139

> <Gold.PLP.Chemscore.Hbond>
1.5043

> <Gold.PLP.Chemscore.CHOScore>
0.0000

> <Gold.PLP.Chemscore.Metal>
0.0000

> <Gold.Chemscore.Hbonds>
donor molecule, donor type, donor heavy atom, donor atom, acceptor molecule, acceptor atom, score
      L1  H    17    37       P1  8028  0.07
      P1  H  7997  8010       L1     6  0.53

> <Gold.PLP.Chemscore.Internal.Correction>
0.0931

> <Gold.Rescore>
     Score         DG    S(hbond)    S(metal)    S(lipo)     H(rot)  DE(clash)    DE(int)     intcor
     12.02     -15.86       1.31        0.00      95.89       2.03       1.61       2.23       ----

> <Gold.Chemscore.Fitness>
12.0164

> <Gold.Chemscore.DG>
-15.8591

> <Gold.Chemscore.ZeroCoef>
-5.4800

> <Gold.Chemscore.Hbond>
1.3075

> <Gold.Chemscore.Metal>
0.0000

> <Gold.Chemscore.Lipo>
95.8916

> <Gold.Chemscore.Internal_Hbond>
0.0000

> <Gold.Chemscore.DEClash>
1.6088

> <Gold.Chemscore.DEInternal>
2.2340

> <Gold.Chemscore.Rot>
2.0340

> <Gold.Chemscore.Internal.Correction>
   9.000000E+99

> <Gold.Chemscore.Hbonds>
donor molecule, donor type, donor heavy atom, donor atom, acceptor molecule, acceptor atom, score
      L1  H    17    37       P1  8028  0.07
      P1  H  7997  8010       L1     6  0.25

> <Gold.Chemscore.Hbond.Weighted>
-4.3669

> <Gold.Chemscore.Metal.Weighted>
-0.0000

> <Gold.Chemscore.Lipo.Weighted>
-11.2193

> <Gold.Chemscore.Internal_Hbond.Weighted>
0.0000

> <Gold.Chemscore.DEClash.Weighted>
1.6088

> <Gold.Chemscore.DEInternal.Weighted>
2.2340

> <Gold.Chemscore.Rot.Weighted>
5.2071

> <Gold.Chemscore.Internal.Correction.Weighted>
   9.000000E+99

> <Gold.Protein.RotatedTorsions>
[ 6907 6896 6895 6894 ] final  177.84 input  -60.11 | X-H torsion
[ 7974 7965 7964 7962 ] final -159.37 input  175.53 | X-H torsion
[ 8008 7997 7996 7995 ] final   61.91 input   59.86 | X-H torsion
[ 10167 10162 10161 10158 ] final  -82.70 input  -65.29 | X-H torsion
[ 10718 10713 10712 10709 ] final  157.28 input   66.30 | X-H torsion
[ 10763 10752 10751 10750 ] final  149.29 input  -60.55 | X-H torsion
[ 11005 11000 10999 10996 ] final  147.00 input  -57.11 | X-H torsion

> <Gold.Protein.ActiveResidues>
 VAL166  LYS551  ARG553  GLY616  TRP617  ASP618  TYR619  PRO620  LYS621  CYS622 
 ASP623  PHE694  ASN695  SER759  ASP760  ASP761  ALA762  ILE779  LEU786  VAL792 
 PHE793  MET794  SER795  GLU796  ALA797  LYS798  CYS799  TRP800  GLU811  SER814 

> <Gold.Protein.RotatedAtoms>
  151.6976  133.3311  159.3258 H   0  0  0  0  0  0  0  0  0  0  0  0  # atno 6907 bound_to 6896
  150.7751  134.6644  159.6367 H   0  0  0  0  0  0  0  0  0  0  0  0  # atno 6908 bound_to 6896
  152.3789  134.6623  160.0202 H   0  0  0  0  0  0  0  0  0  0  0  0  # atno 6909 bound_to 6896
  144.7468  140.3695  143.6079 H   0  0  0  0  0  0  0  0  0  0  0  0  # atno 7974 bound_to 7965
  155.6059  140.3494  155.4608 H   0  0  0  0  0  0  0  0  0  0  0  0  # atno 8008 bound_to 7997
  156.0192  140.1250  157.0399 H   0  0  0  0  0  0  0  0  0  0  0  0  # atno 8009 bound_to 7997
  154.4309  140.1066  156.5925 H   0  0  0  0  0  0  0  0  0  0  0  0  # atno 8010 bound_to 7997
  140.4295  143.2554  151.8779 H   0  0  0  0  0  0  0  0  0  0  0  0  # atno 10167 bound_to 10162
  157.1936  131.0660  151.2065 H   0  0  0  0  0  0  0  0  0  0  0  0  # atno 10718 bound_to 10713
  154.0687  135.2868  155.3312 H   0  0  0  0  0  0  0  0  0  0  0  0  # atno 10763 bound_to 10752
  154.6760  135.5281  153.8204 H   0  0  0  0  0  0  0  0  0  0  0  0  # atno 10764 bound_to 10752
  153.0493  135.6569  154.0870 H   0  0  0  0  0  0  0  0  0  0  0  0  # atno 10765 bound_to 10752
  140.0840  134.9080  157.1545 H   0  0  0  0  0  0  0  0  0  0  0  0  # atno 11005 bound_to 11000
  145.7092  139.1680  143.2548 LP  0  0  0  0  0  0  0  0  0  0  0  0  # atno 17320 bound_to 7965
  146.1359  140.7123  142.9390 LP  0  0  0  0  0  0  0  0  0  0  0  0  # atno 17321 bound_to 7965
  139.4784  144.5350  151.8611 LP  0  0  0  0  0  0  0  0  0  0  0  0  # atno 17342 bound_to 10162
  140.4443  144.1943  150.5893 LP  0  0  0  0  0  0  0  0  0  0  0  0  # atno 17343 bound_to 10162
  157.3836  130.7244  149.6647 LP  0  0  0  0  0  0  0  0  0  0  0  0  # atno 17370 bound_to 10713
  155.9708  130.4165  150.4236 LP  0  0  0  0  0  0  0  0  0  0  0  0  # atno 17371 bound_to 10713
  140.3447  134.2665  155.7207 LP  0  0  0  0  0  0  0  0  0  0  0  0  # atno 17394 bound_to 11000
  141.2056  133.7855  157.0223 LP  0  0  0  0  0  0  0  0  0  0  0  0  # atno 17395 bound_to 11000

$$$$
