AV-unprocessed.smi:2032|AV-procd|sdf|8243|dock6
  -GOLD-   2272010513D 1   1.00000     0.00000
 Structure written by MMmdl.
 43 44  0  0  0  0  0  0  0  0  2 V2000
  148.7952  140.6844  154.5966 C   0  0  0  0  0  0  0  0  0  0  0  0
  149.4517  139.3415  154.2576 C   0  0  2  0  0  0  0  0  0  0  0  0
  148.7922  138.1667  155.0037 C   0  0  0  0  0  0  0  0  0  0  0  0
  149.4853  136.8769  154.7258 N   0  3  2  0  0  0  0  0  0  0  0  0
  148.8590  135.7001  155.4200 C   0  0  1  0  0  0  0  0  0  0  0  0
  147.3453  135.9244  155.6605 C   0  0  0  0  0  0  0  0  0  0  0  0
  149.1040  134.3674  154.6570 C   0  0  0  0  0  0  0  0  0  0  0  0
  148.4565  134.3204  153.3475 N   0  0  0  0  0  0  0  0  0  0  0  0
  147.4209  133.5327  153.0208 C   0  0  0  0  0  0  0  0  0  0  0  0
  146.9079  132.7289  153.8000 O   0  0  0  0  0  0  0  0  0  0  0  0
  147.0380  133.7349  151.7481 N   0  0  0  0  0  0  0  0  0  0  0  0
  145.9933  133.0922  151.0335 C   0  0  0  0  0  0  0  0  0  0  0  0
  145.3241  133.6449  150.0149 N   0  0  0  0  0  0  0  0  0  0  0  0
  144.3521  132.7845  149.4977 C   0  0  0  0  0  0  0  0  0  0  0  0
  144.2934  131.5729  150.1407 C   0  0  0  0  0  0  0  0  0  0  0  0
  145.4639  131.4634  151.4282 S   0  0  0  0  0  0  0  0  0  0  0  0
  150.9452  137.0307  154.9842 C   0  0  0  0  0  0  0  0  0  0  0  0
  151.5323  138.2483  154.2453 C   0  0  2  0  0  0  0  0  0  0  0  0
  153.0133  138.4652  154.5757 C   0  0  0  0  0  0  0  0  0  0  0  0
  150.8203  139.4153  154.6270 O   0  0  0  0  0  0  0  0  0  0  0  0
  147.7413  140.6883  154.3175 H   0  0  0  0  0  0  0  0  0  0  0  0
  149.2820  141.5012  154.0632 H   0  0  0  0  0  0  0  0  0  0  0  0
  148.8600  140.8993  155.6636 H   0  0  0  0  0  0  0  0  0  0  0  0
  149.3746  139.1836  153.1800 H   0  0  0  0  0  0  0  0  0  0  0  0
  148.7937  138.3546  156.0787 H   0  0  0  0  0  0  0  0  0  0  0  0
  147.7529  138.1280  154.6838 H   0  0  0  0  0  0  0  0  0  0  0  0
  149.3369  135.6075  156.3966 H   0  0  0  0  0  0  0  0  0  0  0  0
  146.8739  135.0655  156.1361 H   0  0  0  0  0  0  0  0  0  0  0  0
  146.8189  136.1101  154.7240 H   0  0  0  0  0  0  0  0  0  0  0  0
  147.1449  136.7552  156.3346 H   0  0  0  0  0  0  0  0  0  0  0  0
  150.1744  134.1703  154.5754 H   0  0  0  0  0  0  0  0  0  0  0  0
  148.6752  133.5265  155.2002 H   0  0  0  0  0  0  0  0  0  0  0  0
  148.8159  134.9459  152.6410 H   0  0  0  0  0  0  0  0  0  0  0  0
  147.5535  134.4294  151.2279 H   0  0  0  0  0  0  0  0  0  0  0  0
  143.7447  133.1165  148.6687 H   0  0  0  0  0  0  0  0  0  0  0  0
  143.6353  130.7418  149.9353 H   0  0  0  0  0  0  0  0  0  0  0  0
  151.1156  137.1206  156.0585 H   0  0  0  0  0  0  0  0  0  0  0  0
  151.4945  136.1572  154.6373 H   0  0  0  0  0  0  0  0  0  0  0  0
  151.4387  138.1051  153.1673 H   0  0  0  0  0  0  0  0  0  0  0  0
  153.6114  137.6014  154.2843 H   0  0  0  0  0  0  0  0  0  0  0  0
  153.1606  138.6294  155.6437 H   0  0  0  0  0  0  0  0  0  0  0  0
  153.4074  139.3341  154.0480 H   0  0  0  0  0  0  0  0  0  0  0  0
  149.3908  136.7078  153.7343 H   0  0  0  0  0  0  0  0  0  0  0  0
  1  2  1  0  0  0  0
  1 21  1  0  0  0  0
  1 22  1  0  0  0  0
  1 23  1  0  0  0  0
  2 20  1  0  0  0  0
  2  3  1  0  0  0  0
  2 24  1  0  0  0  0
  3  4  1  0  0  0  0
  3 25  1  0  0  0  0
  3 26  1  0  0  0  0
  4  5  1  0  0  0  0
  4 17  1  0  0  0  0
  4 43  1  0  0  0  0
  5  6  1  0  0  0  0
  5  7  1  0  0  0  0
  5 27  1  0  0  0  0
  6 28  1  0  0  0  0
  6 29  1  0  0  0  0
  6 30  1  0  0  0  0
  7  8  1  0  0  0  0
  7 31  1  0  0  0  0
  7 32  1  0  0  0  0
  8  9  1  0  0  0  0
  8 33  1  0  0  0  0
  9 10  2  0  0  0  0
  9 11  1  0  0  0  0
 11 12  1  0  0  0  0
 11 34  1  0  0  0  0
 12 16  1  0  0  0  0
 12 13  2  0  0  0  0
 13 14  1  0  0  0  0
 14 15  2  0  0  0  0
 14 35  1  0  0  0  0
 15 16  1  0  0  0  0
 15 36  1  0  0  0  0
 17 18  1  0  0  0  0
 17 37  1  0  0  0  0
 17 38  1  0  0  0  0
 18 19  1  0  0  0  0
 18 20  1  0  0  0  0
 18 39  1  0  0  0  0
 19 40  1  0  0  0  0
 19 41  1  0  0  0  0
 19 42  1  0  0  0  0
M  CHG  1   4   1
M  END
> <s_m_source_file>
AV-unprocessed.smi

> <i_m_source_file_index>
2032

> <i_lp_mmshare_version>
43012

> <i_f3d_flags>
0

> <s_epik_input>
W0NIM11bQ0BASF0xW0NIMl1OKFtDSDJdW0NASF0oTzEpW0NIM10pW0NASF0oW0NIM10pW0NIMl1bTkhdQyg9TylbTkhdYzJuW2NIXVtjSF1zMg==

> <s_epik_cmdline>
J2VwaWtfcHl0aG9uJywgJy1waCcsICc3LjAnLCAnLXRuJywgJzgnLCAnLW1hJywgJzIwMCcsICctbWV0YWxfYmluZGluZycsICctaW1hZScsICc8aW5maWxlLm1hZT4nLCAnLW9tYWUnLCAnPG91dGZpbGUubWFlPic=

> <r_lp_tautomer_probability>
0.999

> <r_epik_Ionization_Penalty>
0.695838

> <r_epik_Ionization_Penalty_Charging>
0.695697

> <r_epik_Ionization_Penalty_Neutral>
0.000141198

> <r_epik_State_Penalty>
0.717972

> <r_epik_Charging_Adjusted_Penalty>
1.41367

> <i_epik_Tot_Q>
1

> <i_epik_Tot_abs_Q>
1

> <r_epik_Metal_State_Penalty>
0.756405

> <b_epik_Metal_Only>
0

> <s_lp_Force_Field>
OPLS_2005

> <r_lp_Energy>
18.3762

> <b_lp_Chiralities_Consistent>
1

> <s_lp_Variant>
AV-unprocessed.smi:2032-13

> <Gold.Version>
5.8.1

> <Gold.Id.Protein>
6NUR|6NUR_protein|mol2

> <Gold.PLP.Fitness>
47.2440

> <Gold.PLP.PLP>
-31.1645

> <Gold.PLP.part.hbond>
-3.3958

> <Gold.PLP.part.metal>
0.0000

> <Gold.PLP.part.buried>
-4.6201

> <Gold.PLP.part.nonpolar>
-24.3873

> <Gold.PLP.part.repulsive>
0.3739

> <Gold.PLP.ligand.clash>
0.0642

> <Gold.PLP.ligand.torsion>
0.8122

> <Gold.PLP.Chemscore.Hbond>
4.0707

> <Gold.PLP.Chemscore.CHOScore>
1.8368

> <Gold.PLP.Chemscore.Metal>
0.0000

> <Gold.Chemscore.Hbonds>
donor molecule, donor type, donor heavy atom, donor atom, acceptor molecule, acceptor atom, score
      L1  H     4    43       P1  7948  2.00
      L1  H     8    33       P1  7948  0.58
      L1  H    11    34       P1  7948  0.16
      P1  H  7989  7998       L1    20  1.00
      L1  C    15    36       P1 10952  0.16

> <Gold.PLP.Chemscore.Internal.Correction>
0.0455

> <Gold.Rescore>
     Score         DG    S(hbond)    S(metal)    S(lipo)     H(rot)  DE(clash)    DE(int)     intcor
     16.18     -17.83       2.16        0.00      79.17       1.61       0.68       0.97       ----

> <Gold.Chemscore.Fitness>
16.1841

> <Gold.Chemscore.DG>
-17.8340

> <Gold.Chemscore.ZeroCoef>
-5.4800

> <Gold.Chemscore.Hbond>
2.1603

> <Gold.Chemscore.Metal>
0.0000

> <Gold.Chemscore.Lipo>
79.1673

> <Gold.Chemscore.Internal_Hbond>
0.0000

> <Gold.Chemscore.DEClash>
0.6792

> <Gold.Chemscore.DEInternal>
0.9706

> <Gold.Chemscore.Rot>
1.6110

> <Gold.Chemscore.Internal.Correction>
   9.000000E+99

> <Gold.Chemscore.Hbonds>
donor molecule, donor type, donor heavy atom, donor atom, acceptor molecule, acceptor atom, score
      L1  H     4    43       P1  7948  0.89
      L1  H     8    33       P1  7948  0.06
      L1  H    11    34       P1  7948  0.02
      P1  H  7989  7998       L1    20  0.21

> <Gold.Chemscore.Hbond.Weighted>
-7.2155

> <Gold.Chemscore.Metal.Weighted>
-0.0000

> <Gold.Chemscore.Lipo.Weighted>
-9.2626

> <Gold.Chemscore.Internal_Hbond.Weighted>
0.0000

> <Gold.Chemscore.DEClash.Weighted>
0.6792

> <Gold.Chemscore.DEInternal.Weighted>
0.9706

> <Gold.Chemscore.Rot.Weighted>
4.1242

> <Gold.Chemscore.Internal.Correction.Weighted>
   9.000000E+99

> <Gold.Protein.RotatedTorsions>
[ 6907 6896 6895 6894 ] final   10.73 input  -60.11 | X-H torsion
[ 7974 7965 7964 7962 ] final -160.61 input  175.53 | X-H torsion
[ 8008 7997 7996 7995 ] final -177.95 input   59.86 | X-H torsion
[ 10167 10162 10161 10158 ] final -133.71 input  -65.29 | X-H torsion
[ 10718 10713 10712 10709 ] final    8.27 input   66.30 | X-H torsion
[ 10763 10752 10751 10750 ] final  -51.88 input  -60.55 | X-H torsion
[ 11005 11000 10999 10996 ] final   51.47 input  -57.11 | X-H torsion

> <Gold.Protein.ActiveResidues>
 VAL166  LYS551  ARG553  GLY616  TRP617  ASP618  TYR619  PRO620  LYS621  CYS622 
 ASP623  PHE694  ASN695  SER759  ASP760  ASP761  ALA762  ILE779  LEU786  VAL792 
 PHE793  MET794  SER795  GLU796  ALA797  LYS798  CYS799  TRP800  GLU811  SER814 

> <Gold.Protein.RotatedAtoms>
  151.7430  135.0850  160.0318 H   0  0  0  0  0  0  0  0  0  0  0  0  # atno 6907 bound_to 6896
  152.3467  133.6126  159.5924 H   0  0  0  0  0  0  0  0  0  0  0  0  # atno 6908 bound_to 6896
  150.7513  133.9554  159.3540 H   0  0  0  0  0  0  0  0  0  0  0  0  # atno 6909 bound_to 6896
  144.7421  140.3517  143.6114 H   0  0  0  0  0  0  0  0  0  0  0  0  # atno 7974 bound_to 7965
  156.0130  140.1244  157.0435 H   0  0  0  0  0  0  0  0  0  0  0  0  # atno 8008 bound_to 7997
  154.4283  140.1084  156.5926 H   0  0  0  0  0  0  0  0  0  0  0  0  # atno 8009 bound_to 7997
  155.6053  140.3471  155.4608 H   0  0  0  0  0  0  0  0  0  0  0  0  # atno 8010 bound_to 7997
  139.8955  143.6671  152.2604 H   0  0  0  0  0  0  0  0  0  0  0  0  # atno 10167 bound_to 10162
  156.9491  130.5890  149.5656 H   0  0  0  0  0  0  0  0  0  0  0  0  # atno 10718 bound_to 10713
  154.1337  135.6516  153.4927 H   0  0  0  0  0  0  0  0  0  0  0  0  # atno 10763 bound_to 10752
  153.0187  135.5299  154.6975 H   0  0  0  0  0  0  0  0  0  0  0  0  # atno 10764 bound_to 10752
  154.6217  135.2965  155.0289 H   0  0  0  0  0  0  0  0  0  0  0  0  # atno 10765 bound_to 10752
  140.0930  134.5183  155.8834 H   0  0  0  0  0  0  0  0  0  0  0  0  # atno 11005 bound_to 11000
  145.7269  139.1725  143.2452 LP  0  0  0  0  0  0  0  0  0  0  0  0  # atno 17320 bound_to 7965
  146.1235  140.7278  142.9446 LP  0  0  0  0  0  0  0  0  0  0  0  0  # atno 17321 bound_to 7965
  139.7072  144.7626  151.1174 LP  0  0  0  0  0  0  0  0  0  0  0  0  # atno 17342 bound_to 10162
  140.7718  143.5379  150.9346 LP  0  0  0  0  0  0  0  0  0  0  0  0  # atno 17343 bound_to 10162
  156.0370  130.5457  150.8679 LP  0  0  0  0  0  0  0  0  0  0  0  0  # atno 17370 bound_to 10713
  157.5734  131.0946  150.9383 LP  0  0  0  0  0  0  0  0  0  0  0  0  # atno 17371 bound_to 10713
  141.2083  133.6673  156.6366 LP  0  0  0  0  0  0  0  0  0  0  0  0  # atno 17394 bound_to 11000
  140.3325  134.7916  157.4337 LP  0  0  0  0  0  0  0  0  0  0  0  0  # atno 17395 bound_to 11000

$$$$
