AV-unprocessed.smi:249|AV-procd|sdf|1918|dock8
  -GOLD-   2262021 23D 1   1.00000     0.00000
 Structure written by MMmdl.
 64 67  0  0  0  0  0  0  0  0  2 V2000
  146.7486  133.2513  151.1903 C   0  0  0  0  0  0  0  0  0  0  0  0
  146.2718  133.7630  152.5568 C   0  0  0  0  0  0  0  0  0  0  0  0
  147.4023  134.1524  153.4388 N   0  3  2  0  0  0  0  0  0  0  0  0
  148.5339  133.1863  153.4204 C   0  0  0  0  0  0  0  0  0  0  0  0
  149.7475  133.7477  154.1769 C   0  0  0  0  0  0  0  0  0  0  0  0
  149.3787  134.1143  155.6288 C   0  0  1  0  0  0  0  0  0  0  0  0
  150.5141  134.5966  156.4263 N   0  0  0  0  0  0  0  0  0  0  0  0
  150.5748  134.1917  157.8256 C   0  0  0  0  0  0  0  0  0  0  0  0
  150.9596  135.8544  156.1946 C   0  0  0  0  0  0  0  0  0  0  0  0
  151.1495  136.2214  154.9024 N   0  0  0  0  0  0  0  0  0  0  0  0
  151.5917  137.4485  154.6113 C   0  0  0  0  0  0  0  0  0  0  0  0
  151.9000  138.4439  155.4450 N   0  0  0  0  0  0  0  0  0  0  0  0
  151.7161  138.0757  156.7451 C   0  0  0  0  0  0  0  0  0  0  0  0
  151.2560  136.8110  157.2076 C   0  0  0  0  0  0  0  0  0  0  0  0
  151.1917  136.8111  158.5966 N   0  0  0  0  0  0  0  0  0  0  0  0
  151.5951  138.0056  158.9352 C   0  0  0  0  0  0  0  0  0  0  0  0
  151.9214  138.8320  157.8842 N   0  0  0  0  0  0  0  0  0  0  0  0
  152.3873  140.2048  157.9642 C   0  0  0  0  0  0  0  0  0  0  0  0
  152.7388  140.6427  159.4078 C   0  0  1  0  0  0  0  0  0  0  0  0
  154.2609  140.6057  159.6874 C   0  0  0  0  0  0  0  0  0  0  0  0
  154.8465  139.4149  159.2016 O   0  0  0  0  0  0  0  0  0  0  0  0
  152.1063  142.0130  159.7584 C   0  0  2  0  0  0  0  0  0  0  0  0
  152.5154  143.1578  158.8480 C   0  0  0  0  0  0  0  0  0  0  0  0
  152.1561  144.3812  159.6839 C   0  0  0  0  0  0  0  0  0  0  0  0
  152.3417  143.9898  161.0394 O   0  0  0  0  0  0  0  0  0  0  0  0
  152.5266  142.5801  161.1183 C   0  0  0  0  0  0  0  0  0  0  0  0
  148.1843  135.0930  155.6121 C   0  0  0  0  0  0  0  0  0  0  0  0
  146.9840  134.5320  154.8212 C   0  0  2  0  0  0  0  0  0  0  0  0
  146.2591  133.3974  155.5779 C   0  0  0  0  0  0  0  0  0  0  0  0
  145.8977  133.0524  150.5383 H   0  0  0  0  0  0  0  0  0  0  0  0
  147.3146  132.3240  151.2738 H   0  0  0  0  0  0  0  0  0  0  0  0
  147.3798  133.9878  150.6921 H   0  0  0  0  0  0  0  0  0  0  0  0
  145.6351  134.6312  152.3811 H   0  0  0  0  0  0  0  0  0  0  0  0
  145.6488  133.0151  153.0494 H   0  0  0  0  0  0  0  0  0  0  0  0
  148.2248  132.2324  153.8485 H   0  0  0  0  0  0  0  0  0  0  0  0
  148.8327  132.9790  152.3934 H   0  0  0  0  0  0  0  0  0  0  0  0
  150.5560  133.0158  154.1692 H   0  0  0  0  0  0  0  0  0  0  0  0
  150.1131  134.6246  153.6410 H   0  0  0  0  0  0  0  0  0  0  0  0
  149.0529  133.1959  156.1181 H   0  0  0  0  0  0  0  0  0  0  0  0
  151.4940  134.5443  158.2956 H   0  0  0  0  0  0  0  0  0  0  0  0
  150.5605  133.1043  157.9013 H   0  0  0  0  0  0  0  0  0  0  0  0
  149.7297  134.5803  158.3932 H   0  0  0  0  0  0  0  0  0  0  0  0
  151.7166  137.6638  153.5602 H   0  0  0  0  0  0  0  0  0  0  0  0
  151.6571  138.3226  159.9664 H   0  0  0  0  0  0  0  0  0  0  0  0
  153.2544  140.3159  157.3122 H   0  0  0  0  0  0  0  0  0  0  0  0
  151.6058  140.8405  157.5477 H   0  0  0  0  0  0  0  0  0  0  0  0
  152.2900  139.9075  160.0775 H   0  0  0  0  0  0  0  0  0  0  0  0
  154.7617  141.4559  159.2250 H   0  0  0  0  0  0  0  0  0  0  0  0
  154.4654  140.6853  160.7551 H   0  0  0  0  0  0  0  0  0  0  0  0
  154.5673  138.6966  159.7485 H   0  0  0  0  0  0  0  0  0  0  0  0
  151.0183  141.9297  159.7419 H   0  0  0  0  0  0  0  0  0  0  0  0
  153.5906  143.1340  158.6642 H   0  0  0  0  0  0  0  0  0  0  0  0
  152.0036  143.1483  157.8852 H   0  0  0  0  0  0  0  0  0  0  0  0
  152.7640  145.2508  159.4329 H   0  0  0  0  0  0  0  0  0  0  0  0
  151.1080  144.6464  159.5399 H   0  0  0  0  0  0  0  0  0  0  0  0
  151.9514  142.1576  161.9426 H   0  0  0  0  0  0  0  0  0  0  0  0
  153.5828  142.3852  161.3103 H   0  0  0  0  0  0  0  0  0  0  0  0
  147.8700  135.3373  156.6271 H   0  0  0  0  0  0  0  0  0  0  0  0
  148.4907  136.0346  155.1551 H   0  0  0  0  0  0  0  0  0  0  0  0
  146.2695  135.3505  154.7224 H   0  0  0  0  0  0  0  0  0  0  0  0
  145.9632  133.7282  156.5737 H   0  0  0  0  0  0  0  0  0  0  0  0
  146.8839  132.5141  155.7047 H   0  0  0  0  0  0  0  0  0  0  0  0
  145.3488  133.0872  155.0650 H   0  0  0  0  0  0  0  0  0  0  0  0
  147.7666  135.0052  153.0386 H   0  0  0  0  0  0  0  0  0  0  0  0
  1  2  1  0  0  0  0
  1 30  1  0  0  0  0
  1 31  1  0  0  0  0
  1 32  1  0  0  0  0
  2  3  1  0  0  0  0
  2 33  1  0  0  0  0
  2 34  1  0  0  0  0
  3 28  1  0  0  0  0
  3  4  1  0  0  0  0
  3 64  1  0  0  0  0
  4  5  1  0  0  0  0
  4 35  1  0  0  0  0
  4 36  1  0  0  0  0
  5  6  1  0  0  0  0
  5 37  1  0  0  0  0
  5 38  1  0  0  0  0
  6  7  1  0  0  0  0
  6 27  1  0  0  0  0
  6 39  1  0  0  0  0
  7  8  1  0  0  0  0
  7  9  1  0  0  0  0
  8 40  1  0  0  0  0
  8 41  1  0  0  0  0
  8 42  1  0  0  0  0
  9 14  1  0  0  0  0
  9 10  2  0  0  0  0
 10 11  1  0  0  0  0
 11 12  2  0  0  0  0
 11 43  1  0  0  0  0
 12 13  1  0  0  0  0
 13 17  1  0  0  0  0
 13 14  2  0  0  0  0
 14 15  1  0  0  0  0
 15 16  2  0  0  0  0
 16 17  1  0  0  0  0
 16 44  1  0  0  0  0
 17 18  1  0  0  0  0
 18 19  1  0  0  0  0
 18 45  1  0  0  0  0
 18 46  1  0  0  0  0
 19 20  1  0  0  0  0
 19 22  1  0  0  0  0
 19 47  1  0  0  0  0
 20 21  1  0  0  0  0
 20 48  1  0  0  0  0
 20 49  1  0  0  0  0
 21 50  1  0  0  0  0
 22 26  1  0  0  0  0
 22 23  1  0  0  0  0
 22 51  1  0  0  0  0
 23 24  1  0  0  0  0
 23 52  1  0  0  0  0
 23 53  1  0  0  0  0
 24 25  1  0  0  0  0
 24 54  1  0  0  0  0
 24 55  1  0  0  0  0
 25 26  1  0  0  0  0
 26 56  1  0  0  0  0
 26 57  1  0  0  0  0
 27 28  1  0  0  0  0
 27 58  1  0  0  0  0
 27 59  1  0  0  0  0
 28 29  1  0  0  0  0
 28 60  1  0  0  0  0
 29 61  1  0  0  0  0
 29 62  1  0  0  0  0
 29 63  1  0  0  0  0
M  CHG  1   3   1
M  END
> <s_m_source_file>
AV-unprocessed.smi

> <i_m_source_file_index>
249

> <i_lp_mmshare_version>
43012

> <i_f3d_flags>
0

> <s_epik_input>
W0NIM11bQ0gyXU4xW0NIMl1bQ0gyXVtDQEhdKFtDSDJdW0NASF0xW0NIM10pTihbQ0gzXSljKG5bY0hdbjIpYyhjMjMpbltjSF1uM1tDSDJdW0NASF0oW0NIMl1bT0hdKVtDQEBIXTRbQ0gyXVtDSDJdT1tDSDJdNA==

> <s_epik_cmdline>
J2VwaWtfcHl0aG9uJywgJy1waCcsICc3LjAnLCAnLXRuJywgJzgnLCAnLW1hJywgJzIwMCcsICctbWV0YWxfYmluZGluZycsICctaW1hZScsICc8aW5maWxlLm1hZT4nLCAnLW9tYWUnLCAnPG91dGZpbGUubWFlPic=

> <r_lp_tautomer_probability>
1

> <r_epik_Ionization_Penalty>
0.00294688

> <r_epik_Ionization_Penalty_Charging>
0.00169971

> <r_epik_Ionization_Penalty_Neutral>
0.00124717

> <r_epik_State_Penalty>
-0

> <r_epik_Charging_Adjusted_Penalty>
0.00169971

> <i_epik_Tot_Q>
1

> <i_epik_Tot_abs_Q>
1

> <r_epik_Metal_State_Penalty>
-0

> <b_epik_Metal_Only>
0

> <s_lp_Force_Field>
OPLS_2005

> <r_lp_Energy>
53.4352

> <b_lp_Chiralities_Consistent>
1

> <s_lp_Variant>
AV-unprocessed.smi:249-21

> <Gold.Version>
5.8.1

> <Gold.Id.Protein>
6NUR|6NUR_protein|mol2

> <Gold.PLP.Fitness>
51.7514

> <Gold.PLP.PLP>
-40.7813

> <Gold.PLP.part.hbond>
-3.9934

> <Gold.PLP.part.metal>
0.0000

> <Gold.PLP.part.buried>
-0.8831

> <Gold.PLP.part.nonpolar>
-36.2511

> <Gold.PLP.part.repulsive>
0.2865

> <Gold.PLP.ligand.clash>
0.0000

> <Gold.PLP.ligand.torsion>
1.7503

> <Gold.PLP.Chemscore.Hbond>
4.0533

> <Gold.PLP.Chemscore.CHOScore>
0.4266

> <Gold.PLP.Chemscore.Metal>
0.0000

> <Gold.Chemscore.Hbonds>
donor molecule, donor type, donor heavy atom, donor atom, acceptor molecule, acceptor atom, score
      L1  H     3    64       P1  7948  1.92
      P1  H  6896  6909       L1    15  0.67
      P1  H  7997  8008       L1    21  0.89
      P1  H 10752 10763       L1    10  0.35
      L1  C    11    43       P1  7949  0.50

> <Gold.PLP.Chemscore.Internal.Correction>
1.0309

> <Gold.Rescore>
     Score         DG    S(hbond)    S(metal)    S(lipo)     H(rot)  DE(clash)    DE(int)     intcor
     12.96     -19.92       2.71        0.00     109.48       2.90       2.41       4.54       ----

> <Gold.Chemscore.Fitness>
12.9633

> <Gold.Chemscore.DG>
-19.9230

> <Gold.Chemscore.ZeroCoef>
-5.4800

> <Gold.Chemscore.Hbond>
2.7124

> <Gold.Chemscore.Metal>
0.0000

> <Gold.Chemscore.Lipo>
109.4793

> <Gold.Chemscore.Internal_Hbond>
0.0000

> <Gold.Chemscore.DEClash>
2.4149

> <Gold.Chemscore.DEInternal>
4.5448

> <Gold.Chemscore.Rot>
2.9006

> <Gold.Chemscore.Internal.Correction>
   9.000000E+99

> <Gold.Chemscore.Hbonds>
donor molecule, donor type, donor heavy atom, donor atom, acceptor molecule, acceptor atom, score
      L1  H     3    64       P1  7948  0.88
      P1  H  6896  6909       L1    15  0.65
      P1  H  7997  8008       L1    21  0.24

> <Gold.Chemscore.Hbond.Weighted>
-9.0595

> <Gold.Chemscore.Metal.Weighted>
-0.0000

> <Gold.Chemscore.Lipo.Weighted>
-12.8091

> <Gold.Chemscore.Internal_Hbond.Weighted>
0.0000

> <Gold.Chemscore.DEClash.Weighted>
2.4149

> <Gold.Chemscore.DEInternal.Weighted>
4.5448

> <Gold.Chemscore.Rot.Weighted>
7.4256

> <Gold.Chemscore.Internal.Correction.Weighted>
   9.000000E+99

> <Gold.Protein.RotatedTorsions>
[ 6907 6896 6895 6894 ] final  102.71 input  -60.11 | X-H torsion
[ 7974 7965 7964 7962 ] final  145.29 input  175.53 | X-H torsion
[ 8008 7997 7996 7995 ] final -144.83 input   59.86 | X-H torsion
[ 10167 10162 10161 10158 ] final   74.25 input  -65.29 | X-H torsion
[ 10718 10713 10712 10709 ] final  -12.60 input   66.30 | X-H torsion
[ 10763 10752 10751 10750 ] final   54.10 input  -60.55 | X-H torsion
[ 11005 11000 10999 10996 ] final -119.37 input  -57.11 | X-H torsion

> <Gold.Protein.ActiveResidues>
 VAL166  LYS551  ARG553  GLY616  TRP617  ASP618  TYR619  PRO620  LYS621  CYS622 
 ASP623  PHE694  ASN695  SER759  ASP760  ASP761  ALA762  ILE779  LEU786  VAL792 
 PHE793  MET794  SER795  GLU796  ALA797  LYS798  CYS799  TRP800  GLU811  SER814 

> <Gold.Protein.RotatedAtoms>
  152.5316  133.9934  159.7861 H   0  0  0  0  0  0  0  0  0  0  0  0  # atno 6907 bound_to 6896
  151.0166  133.5907  159.2683 H   0  0  0  0  0  0  0  0  0  0  0  0  # atno 6908 bound_to 6896
  151.2962  135.0763  159.9275 H   0  0  0  0  0  0  0  0  0  0  0  0  # atno 6909 bound_to 6896
  144.8765  139.5765  143.5863 H   0  0  0  0  0  0  0  0  0  0  0  0  # atno 7974 bound_to 7965
  155.5334  140.0601  157.2884 H   0  0  0  0  0  0  0  0  0  0  0  0  # atno 8008 bound_to 7997
  154.4477  140.1932  156.0562 H   0  0  0  0  0  0  0  0  0  0  0  0  # atno 8009 bound_to 7997
  156.0636  140.3269  155.7495 H   0  0  0  0  0  0  0  0  0  0  0  0  # atno 8010 bound_to 7997
  140.0158  144.5579  150.7622 H   0  0  0  0  0  0  0  0  0  0  0  0  # atno 10167 bound_to 10162
  156.6423  130.4931  149.6090 H   0  0  0  0  0  0  0  0  0  0  0  0  # atno 10718 bound_to 10713
  152.9801  135.5756  154.4849 H   0  0  0  0  0  0  0  0  0  0  0  0  # atno 10763 bound_to 10752
  154.4392  135.2775  155.1861 H   0  0  0  0  0  0  0  0  0  0  0  0  # atno 10764 bound_to 10752
  154.3536  135.6204  153.5709 H   0  0  0  0  0  0  0  0  0  0  0  0  # atno 10765 bound_to 10752
  141.0220  134.0110  157.3268 H   0  0  0  0  0  0  0  0  0  0  0  0  # atno 11005 bound_to 11000
  146.2966  139.7296  142.9122 LP  0  0  0  0  0  0  0  0  0  0  0  0  # atno 17320 bound_to 7965
  145.4033  141.0388  143.3058 LP  0  0  0  0  0  0  0  0  0  0  0  0  # atno 17321 bound_to 7965
  140.7363  143.2751  151.3766 LP  0  0  0  0  0  0  0  0  0  0  0  0  # atno 17342 bound_to 10162
  139.6174  144.0976  152.2358 LP  0  0  0  0  0  0  0  0  0  0  0  0  # atno 17343 bound_to 10162
  156.2149  130.6702  151.1308 LP  0  0  0  0  0  0  0  0  0  0  0  0  # atno 17370 bound_to 10713
  157.7167  131.0705  150.6299 LP  0  0  0  0  0  0  0  0  0  0  0  0  # atno 17371 bound_to 10713
  139.9152  135.0196  156.7853 LP  0  0  0  0  0  0  0  0  0  0  0  0  # atno 17394 bound_to 11000
  140.6556  133.9691  155.7778 LP  0  0  0  0  0  0  0  0  0  0  0  0  # atno 17395 bound_to 11000

$$$$
