AV-unprocessed.smi:3176|AV-procd|sdf|12127|dock9
  -GOLD-   2272017563D 1   1.00000     0.00000
 Structure written by MMmdl.
 33 34  0  0  0  0  0  0  0  0  2 V2000
  152.9960  138.6645  155.5513 O   0  0  0  0  0  0  0  0  0  0  0  0
  151.8062  138.8821  155.3219 C   0  0  0  0  0  0  0  0  0  0  0  0
  151.1575  139.9549  155.8011 N   0  0  0  0  0  0  0  0  0  0  0  0
  151.7263  140.9530  156.7016 C   0  0  0  0  0  0  0  0  0  0  0  0
  150.8157  142.1858  156.8781 C   0  0  0  0  0  0  0  0  0  0  0  0
  151.2703  143.1226  157.9845 C   0  0  0  0  0  0  0  0  0  0  0  0
  152.2618  142.7536  158.9200 C   0  0  0  0  0  0  0  0  0  0  0  0
  152.6234  143.6619  159.9361 C   0  0  0  0  0  0  0  0  0  0  0  0
  151.9889  144.9201  159.9941 C   0  0  0  0  0  0  0  0  0  0  0  0
  151.0080  145.2384  159.0326 C   0  0  0  0  0  0  0  0  0  0  0  0
  150.6881  144.3402  158.0749 N   0  3  0  0  0  0  0  0  0  0  0  0
  150.9729  137.9137  154.4649 C   0  0  1  0  0  0  0  0  0  0  0  0
  150.8478  136.4960  155.0464 C   0  0  0  0  0  0  0  0  0  0  0  0
  149.5874  136.5886  155.8779 C   0  0  0  0  0  0  0  0  0  0  0  0
  148.7247  137.4951  155.0098 C   0  0  0  0  0  0  0  0  0  0  0  0
  149.6311  138.4067  154.3954 O   0  0  0  0  0  0  0  0  0  0  0  0
  150.1843  140.0630  155.5528 H   0  0  0  0  0  0  0  0  0  0  0  0
  151.9560  140.5049  157.6694 H   0  0  0  0  0  0  0  0  0  0  0  0
  152.6789  141.2658  156.2735 H   0  0  0  0  0  0  0  0  0  0  0  0
  150.7728  142.7457  155.9430 H   0  0  0  0  0  0  0  0  0  0  0  0
  149.7936  141.8632  157.0800 H   0  0  0  0  0  0  0  0  0  0  0  0
  152.7333  141.7829  158.8659 H   0  0  0  0  0  0  0  0  0  0  0  0
  153.3760  143.3951  160.6634 H   0  0  0  0  0  0  0  0  0  0  0  0
  152.2505  145.6303  160.7650 H   0  0  0  0  0  0  0  0  0  0  0  0
  150.4719  146.1758  159.0021 H   0  0  0  0  0  0  0  0  0  0  0  0
  151.4076  137.8809  153.4653 H   0  0  0  0  0  0  0  0  0  0  0  0
  150.7044  135.7797  154.2364 H   0  0  0  0  0  0  0  0  0  0  0  0
  151.7100  136.1609  155.6239 H   0  0  0  0  0  0  0  0  0  0  0  0
  149.1276  135.6192  156.0711 H   0  0  0  0  0  0  0  0  0  0  0  0
  149.7993  137.0658  156.8354 H   0  0  0  0  0  0  0  0  0  0  0  0
  148.2312  136.9150  154.2290 H   0  0  0  0  0  0  0  0  0  0  0  0
  147.9576  138.0177  155.5813 H   0  0  0  0  0  0  0  0  0  0  0  0
  149.9730  144.5904  157.3916 H   0  0  0  0  0  0  0  0  0  0  0  0
  1  2  2  0  0  0  0
  2  3  1  0  0  0  0
  2 12  1  0  0  0  0
  3  4  1  0  0  0  0
  3 17  1  0  0  0  0
  4  5  1  0  0  0  0
  4 18  1  0  0  0  0
  4 19  1  0  0  0  0
  5  6  1  0  0  0  0
  5 20  1  0  0  0  0
  5 21  1  0  0  0  0
  6 11  1  0  0  0  0
  6  7  2  0  0  0  0
  7  8  1  0  0  0  0
  7 22  1  0  0  0  0
  8  9  2  0  0  0  0
  8 23  1  0  0  0  0
  9 10  1  0  0  0  0
  9 24  1  0  0  0  0
 10 11  2  0  0  0  0
 10 25  1  0  0  0  0
 11 33  1  0  0  0  0
 12 16  1  0  0  0  0
 12 13  1  0  0  0  0
 12 26  1  0  0  0  0
 13 14  1  0  0  0  0
 13 27  1  0  0  0  0
 13 28  1  0  0  0  0
 14 15  1  0  0  0  0
 14 29  1  0  0  0  0
 14 30  1  0  0  0  0
 15 16  1  0  0  0  0
 15 31  1  0  0  0  0
 15 32  1  0  0  0  0
M  CHG  1  11   1
M  END
> <s_m_source_file>
AV-unprocessed.smi

> <i_m_source_file_index>
3176

> <i_lp_mmshare_version>
43012

> <i_f3d_flags>
0

> <s_epik_input>
TzFbQ0gyXVtDSDJdW0NIMl1bQ0BIXTFDKD1PKVtOSF1bQ0gyXVtDSDJdYzJbY0hdW2NIXVtjSF1bY0hdbjI=

> <s_epik_cmdline>
J2VwaWtfcHl0aG9uJywgJy1waCcsICc3LjAnLCAnLXRuJywgJzgnLCAnLW1hJywgJzIwMCcsICctbWV0YWxfYmluZGluZycsICctaW1hZScsICc8aW5maWxlLm1hZT4nLCAnLW9tYWUnLCAnPG91dGZpbGUubWFlPic=

> <r_epik_Ionization_Penalty>
1.81664

> <r_epik_Ionization_Penalty_Charging>
1.81664

> <r_epik_Ionization_Penalty_Neutral>
5.71603e-08

> <r_epik_State_Penalty>
1.93152

> <r_epik_Charging_Adjusted_Penalty>
3.74817

> <i_epik_Tot_Q>
1

> <i_epik_Tot_abs_Q>
1

> <r_epik_Metal_State_Penalty>
1.95876

> <b_epik_Metal_Only>
0

> <s_lp_Force_Field>
OPLS_2005

> <r_lp_Energy>
22.6844

> <b_lp_Chiralities_Consistent>
1

> <s_lp_Variant>
AV-unprocessed.smi:3176-4

> <Gold.Version>
5.8.1

> <Gold.Id.Protein>
6NUR|6NUR_protein|mol2

> <Gold.PLP.Fitness>
42.5133

> <Gold.PLP.PLP>
-33.8923

> <Gold.PLP.part.hbond>
-2.2100

> <Gold.PLP.part.metal>
0.0000

> <Gold.PLP.part.buried>
-5.6199

> <Gold.PLP.part.nonpolar>
-26.6766

> <Gold.PLP.part.repulsive>
0.4171

> <Gold.PLP.ligand.clash>
0.0000

> <Gold.PLP.ligand.torsion>
0.1999

> <Gold.PLP.Chemscore.Hbond>
3.0000

> <Gold.PLP.Chemscore.CHOScore>
0.0000

> <Gold.PLP.Chemscore.Metal>
0.0000

> <Gold.Chemscore.Hbonds>
donor molecule, donor type, donor heavy atom, donor atom, acceptor molecule, acceptor atom, score
      L1  H    11    33       P1  8028  1.80
      P1  H  7997  8008       L1     1  0.80

> <Gold.PLP.Chemscore.Internal.Correction>
0.0210

> <Gold.Rescore>
     Score         DG    S(hbond)    S(metal)    S(lipo)     H(rot)  DE(clash)    DE(int)     intcor
     17.12     -17.97       1.69        0.00      93.49       1.61       0.41       0.44       ----

> <Gold.Chemscore.Fitness>
17.1206

> <Gold.Chemscore.DG>
-17.9686

> <Gold.Chemscore.ZeroCoef>
-5.4800

> <Gold.Chemscore.Hbond>
1.6945

> <Gold.Chemscore.Metal>
0.0000

> <Gold.Chemscore.Lipo>
93.4938

> <Gold.Chemscore.Internal_Hbond>
0.0000

> <Gold.Chemscore.DEClash>
0.4127

> <Gold.Chemscore.DEInternal>
0.4353

> <Gold.Chemscore.Rot>
1.6054

> <Gold.Chemscore.Internal.Correction>
   9.000000E+99

> <Gold.Chemscore.Hbonds>
donor molecule, donor type, donor heavy atom, donor atom, acceptor molecule, acceptor atom, score
      L1  H    11    33       P1  8028  0.17
      P1  H  7997  8008       L1     1  0.76

> <Gold.Chemscore.Hbond.Weighted>
-5.6596

> <Gold.Chemscore.Metal.Weighted>
-0.0000

> <Gold.Chemscore.Lipo.Weighted>
-10.9388

> <Gold.Chemscore.Internal_Hbond.Weighted>
0.0000

> <Gold.Chemscore.DEClash.Weighted>
0.4127

> <Gold.Chemscore.DEInternal.Weighted>
0.4353

> <Gold.Chemscore.Rot.Weighted>
4.1097

> <Gold.Chemscore.Internal.Correction.Weighted>
   9.000000E+99

> <Gold.Protein.RotatedTorsions>
[ 6907 6896 6895 6894 ] final   31.01 input  -60.11 | X-H torsion
[ 7974 7965 7964 7962 ] final  145.52 input  175.53 | X-H torsion
[ 8008 7997 7996 7995 ] final  -39.95 input   59.86 | X-H torsion
[ 10167 10162 10161 10158 ] final  -41.10 input  -65.29 | X-H torsion
[ 10718 10713 10712 10709 ] final  103.37 input   66.30 | X-H torsion
[ 10763 10752 10751 10750 ] final -168.63 input  -60.55 | X-H torsion
[ 11005 11000 10999 10996 ] final   57.09 input  -57.11 | X-H torsion

> <Gold.Protein.ActiveResidues>
 VAL166  LYS551  ARG553  GLY616  TRP617  ASP618  TYR619  PRO620  LYS621  CYS622 
 ASP623  PHE694  ASN695  SER759  ASP760  ASP761  ALA762  ILE779  LEU786  VAL792 
 PHE793  MET794  SER795  GLU796  ALA797  LYS798  CYS799  TRP800  GLU811  SER814 

> <Gold.Protein.RotatedAtoms>
  152.0541  134.9635  160.0574 H   0  0  0  0  0  0  0  0  0  0  0  0  # atno 6907 bound_to 6896
  152.1024  133.4252  159.4601 H   0  0  0  0  0  0  0  0  0  0  0  0  # atno 6908 bound_to 6896
  150.6840  134.2664  159.4613 H   0  0  0  0  0  0  0  0  0  0  0  0  # atno 6909 bound_to 6896
  144.8746  139.5793  143.5871 H   0  0  0  0  0  0  0  0  0  0  0  0  # atno 7974 bound_to 7965
  154.4017  140.1538  156.2948 H   0  0  0  0  0  0  0  0  0  0  0  0  # atno 8008 bound_to 7997
  155.8753  140.3446  155.5828 H   0  0  0  0  0  0  0  0  0  0  0  0  # atno 8009 bound_to 7997
  155.7728  140.0832  157.2090 H   0  0  0  0  0  0  0  0  0  0  0  0  # atno 8010 bound_to 7997
  140.7013  143.3114  151.3019 H   0  0  0  0  0  0  0  0  0  0  0  0  # atno 10167 bound_to 10162
  157.6774  131.0777  150.5544 H   0  0  0  0  0  0  0  0  0  0  0  0  # atno 10718 bound_to 10713
  154.6608  135.2925  154.9868 H   0  0  0  0  0  0  0  0  0  0  0  0  # atno 10763 bound_to 10752
  154.0928  135.6588  153.4859 H   0  0  0  0  0  0  0  0  0  0  0  0  # atno 10764 bound_to 10752
  153.0429  135.5224  154.7559 H   0  0  0  0  0  0  0  0  0  0  0  0  # atno 10765 bound_to 10752
  140.0479  134.5779  155.9300 H   0  0  0  0  0  0  0  0  0  0  0  0  # atno 11005 bound_to 11000
  146.2954  139.7261  142.9131 LP  0  0  0  0  0  0  0  0  0  0  0  0  # atno 17320 bound_to 7965
  145.4067  141.0392  143.3040 LP  0  0  0  0  0  0  0  0  0  0  0  0  # atno 17321 bound_to 7965
  139.6538  144.0314  152.2645 LP  0  0  0  0  0  0  0  0  0  0  0  0  # atno 17342 bound_to 10162
  139.9859  144.6396  150.7858 LP  0  0  0  0  0  0  0  0  0  0  0  0  # atno 17343 bound_to 10162
  156.5848  130.4314  149.5962 LP  0  0  0  0  0  0  0  0  0  0  0  0  # atno 17370 bound_to 10713
  156.2631  130.6974  151.1749 LP  0  0  0  0  0  0  0  0  0  0  0  0  # atno 17371 bound_to 10713
  141.1916  133.6572  156.5463 LP  0  0  0  0  0  0  0  0  0  0  0  0  # atno 17394 bound_to 11000
  140.3964  134.7395  157.4753 LP  0  0  0  0  0  0  0  0  0  0  0  0  # atno 17395 bound_to 11000

$$$$
