#       Name:                AV-unprocessed.smi:766
#       Creating user name   scv26
#       Creation time:       Fri Mar 27 01:05:45 2020


#       File generated by GOLD software.
#

@<TRIPOS>MOLECULE
AV-unprocessed.smi:766
    51    53     1
SMALL
NO_CHARGES


@<TRIPOS>ATOM
      1 ****        -5.6945   1.6022   3.2376 C.3            1 S1                 0.0000
      2 ****        -4.5222   1.7029   2.2775 C.ar           1 S1                 0.0000
      3 ****        -4.7755   1.9253   0.9051 C.ar           1 S1                 0.0000
      4 ****        -3.7136   2.0260  -0.0203 C.ar           1 S1                 0.0000
      5 ****        -3.7300   2.2400  -1.3879 N.2            1 S1                 0.0000
      6 ****        -2.4318   2.2328  -1.6761 C.2            1 S1                 0.0000
      7 ****        -1.5745   2.0370  -0.6553 N.pl3          1 S1                 0.0000
      8 ****        -0.1249   1.9895  -0.7207 C.3            1 S1                 0.0000
      9 ****         0.4167   0.5473  -0.7424 C.3            1 S1                 0.0000
     10 ****        -0.0628  -0.1179  -1.8958 O.3            1 S1                 0.0000
     11 ****         1.9535   0.5089  -0.7476 C.3            1 S1                 0.0000
     12 ****         2.4543  -0.8679  -0.5650 N.4            1 S1                 1.0000
     13 ****         3.9268  -0.9797  -0.5460 C.3            1 S1                 0.0000
     14 ****         4.3847  -2.4413  -0.4123 C.3            1 S1                 0.0000
     15 ****         4.1071  -3.2200  -1.6063 N.pl3          1 S1                 0.0000
     16 ****         4.9640  -3.5383  -2.6390 C.2            1 S1                 0.0000
     17 ****         4.2578  -4.2858  -3.5373 C.2            1 S1                 0.0000
     18 ****         2.9609  -4.3739  -2.9589 C.2            1 S1                 0.0000
     19 ****         2.8735  -3.7337  -1.8038 N.2            1 S1                 0.0000
     20 ****        -2.3809   1.8955   0.4687 C.ar           1 S1                 0.0000
     21 ****        -2.1158   1.6733   1.8315 C.ar           1 S1                 0.0000
     22 ****        -3.1884   1.5777   2.7429 C.ar           1 S1                 0.0000
     23 ****        -2.8924   1.3423   4.2135 C.3            1 S1                 0.0000
     24 ****        -6.6465   1.7048   2.7162 H              1 S1                 0.0000
     25 ****        -5.6400   2.3884   3.9909 H              1 S1                 0.0000
     26 ****        -5.6927   0.6364   3.7433 H              1 S1                 0.0000
     27 ****        -5.7911   2.0217   0.5501 H              1 S1                 0.0000
     28 ****        -2.0836   2.3755  -2.6886 H              1 S1                 0.0000
     29 ****         0.2048   2.5387  -1.6040 H              1 S1                 0.0000
     30 ****         0.2689   2.5262   0.1434 H              1 S1                 0.0000
     31 ****         0.0476   0.0164   0.1365 H              1 S1                 0.0000
     32 ****         0.1961   0.3732  -2.6609 H              1 S1                 0.0000
     33 ****         2.3451   0.9269  -1.6763 H              1 S1                 0.0000
     34 ****         2.3386   1.1237   0.0672 H              1 S1                 0.0000
     35 ****         2.0910  -1.2329   0.3039 H              1 S1                 0.0000
     36 ****         4.3433  -0.5385  -1.4526 H              1 S1                 0.0000
     37 ****         4.3087  -0.3999   0.2951 H              1 S1                 0.0000
     38 ****         5.4599  -2.4727  -0.2322 H              1 S1                 0.0000
     39 ****         3.9121  -2.9213   0.4463 H              1 S1                 0.0000
     40 ****         5.9932  -3.2110  -2.6494 H              1 S1                 0.0000
     41 ****         4.6142  -4.7070  -4.4658 H              1 S1                 0.0000
     42 ****         2.0869  -4.8797  -3.3421 H              1 S1                 0.0000
     43 ****        -1.0957   1.5790   2.1728 H              1 S1                 0.0000
     44 ****        -1.8191   1.3117   4.4034 H              1 S1                 0.0000
     45 ****        -3.3188   0.3941   4.5415 H              1 S1                 0.0000
     46 ****        -3.3153   2.1420   4.8219 H              1 S1                 0.0000
     47 ****         2.1010  -1.4378  -1.3214 H              1 S1                 0.0000
     48 ****        -4.5120   2.3666  -1.9983 LP             1 S1                 0.0000
     49 ****        -1.0602  -0.1797  -1.8578 LP             1 S1                 0.0000
     50 ****         0.3267  -1.0379  -1.9394 LP             1 S1                 0.0000
     51 ****         2.0733  -3.6492  -1.2101 LP             1 S1                 0.0000
@<TRIPOS>BOND
    1    1    2 1     
    2    1   24 1     
    3    1   25 1     
    4    1   26 1     
    5    2   22 ar    
    6    2    3 ar    
    7    3    4 ar    
    8    3   27 1     
    9    4   20 ar    
   10    4    5 1     
   11    5    6 2     
   12    6    7 1     
   13    6   28 1     
   14    7    8 1     
   15    7   20 1     
   16    8    9 1     
   17    8   29 1     
   18    8   30 1     
   19    9   10 1     
   20    9   11 1     
   21    9   31 1     
   22   10   32 1     
   23   11   12 1     
   24   11   33 1     
   25   11   34 1     
   26   12   13 1     
   27   12   35 1     
   28   12   47 1     
   29   13   14 1     
   30   13   36 1     
   31   13   37 1     
   32   14   15 1     
   33   14   38 1     
   34   14   39 1     
   35   15   19 1     
   36   15   16 1     
   37   16   17 2     
   38   16   40 1     
   39   17   18 1     
   40   17   41 1     
   41   18   19 2     
   42   18   42 1     
   43   20   21 ar    
   44   21   22 ar    
   45   21   43 1     
   46   22   23 1     
   47   23   44 1     
   48   23   45 1     
   49   23   46 1     
   50    5   48 1     
   51   10   49 1     
   52   10   50 1     
   53   19   51 1     
@<TRIPOS>SUBSTRUCTURE
      1 S1             1
@<TRIPOS>SET
LONE_PAIRS      STATIC     ATOMS    <user>   **** ""
4 48 49 50 51
DONOR_HYDROGENS      STATIC     ATOMS    <user>   **** ""
3 32 35 47
ATOM$BLUE        STATIC     ATOMS    COLORGROUP SYSTEM
4 48 49 50 51
ATOM$RED        STATIC     ATOMS    COLORGROUP SYSTEM
3 32 35 47
