AV-unprocessed.smi:1403|AV-procd|sdf|5703|dock10
  -GOLD-   22720 5333D 1   1.00000     0.00000
 Structure written by MMmdl.
 35 36  0  0  0  0  0  0  0  0  2 V2000
  149.3614  142.2324  157.6832 C   0  0  0  0  0  0  0  0  0  0  0  0
  150.8063  142.1120  157.1785 C   0  0  2  0  0  0  0  0  0  0  0  0
  151.1427  140.6959  157.0557 N   0  0  0  0  0  0  0  0  0  0  0  0
  151.0528  139.9469  155.9429 C   0  0  0  0  0  0  0  0  0  0  0  0
  150.6686  140.3952  154.8632 O   0  0  0  0  0  0  0  0  0  0  0  0
  151.4677  138.4678  156.0300 C   0  0  0  0  0  0  0  0  0  0  0  0
  150.6238  137.6376  156.9092 N   0  0  0  0  0  0  0  0  0  0  0  0
  149.4750  138.2343  157.4579 C   0  0  0  0  0  0  0  0  0  0  0  0
  148.6385  137.5555  158.2658 C   0  0  0  0  0  0  0  0  0  0  0  0
  148.9493  136.1641  158.5687 C   0  0  0  0  0  0  0  0  0  0  0  0
  148.1982  135.5294  159.3066 O   0  0  0  0  0  0  0  0  0  0  0  0
  150.0732  135.6287  158.0088 N   0  5  0  0  0  0  0  0  0  0  0  0
  150.9139  136.3304  157.1870 C   0  0  0  0  0  0  0  0  0  0  0  0
  151.9171  135.8247  156.6835 O   0  0  0  0  0  0  0  0  0  0  0  0
  151.8024  142.8186  158.1198 C   0  0  1  0  0  0  0  0  0  0  0  0
  151.5635  144.3162  158.3113 C   0  0  0  0  0  0  0  0  0  0  0  0
  152.2576  144.6092  159.6297 C   0  0  0  0  0  0  0  0  0  0  0  0
  152.3342  143.2430  160.3185 C   0  0  0  0  0  0  0  0  0  0  0  0
  151.6725  142.3339  159.4475 O   0  0  0  0  0  0  0  0  0  0  0  0
  149.0557  143.2762  157.7582 H   0  0  0  0  0  0  0  0  0  0  0  0
  149.2454  141.7799  158.6688 H   0  0  0  0  0  0  0  0  0  0  0  0
  148.6666  141.7353  157.0054 H   0  0  0  0  0  0  0  0  0  0  0  0
  150.8546  142.5910  156.1989 H   0  0  0  0  0  0  0  0  0  0  0  0
  151.4648  140.2360  157.8957 H   0  0  0  0  0  0  0  0  0  0  0  0
  151.4867  138.0539  155.0204 H   0  0  0  0  0  0  0  0  0  0  0  0
  152.5041  138.4288  156.3681 H   0  0  0  0  0  0  0  0  0  0  0  0
  149.3148  139.2655  157.1787 H   0  0  0  0  0  0  0  0  0  0  0  0
  147.7587  138.0281  158.6770 H   0  0  0  0  0  0  0  0  0  0  0  0
  152.8273  142.6514  157.7827 H   0  0  0  0  0  0  0  0  0  0  0  0
  151.9476  144.9172  157.4866 H   0  0  0  0  0  0  0  0  0  0  0  0
  150.4953  144.5164  158.4070 H   0  0  0  0  0  0  0  0  0  0  0  0
  153.2608  145.0018  159.4603 H   0  0  0  0  0  0  0  0  0  0  0  0
  151.7049  145.3406  160.2200 H   0  0  0  0  0  0  0  0  0  0  0  0
  153.3726  142.9342  160.4444 H   0  0  0  0  0  0  0  0  0  0  0  0
  151.8593  143.2454  161.2998 H   0  0  0  0  0  0  0  0  0  0  0  0
  1  2  1  0  0  0  0
  1 20  1  0  0  0  0
  1 21  1  0  0  0  0
  1 22  1  0  0  0  0
  2  3  1  0  0  0  0
  2 15  1  0  0  0  0
  2 23  1  0  0  0  0
  3  4  1  0  0  0  0
  3 24  1  0  0  0  0
  4  5  2  0  0  0  0
  4  6  1  0  0  0  0
  6  7  1  0  0  0  0
  6 25  1  0  0  0  0
  6 26  1  0  0  0  0
  7 13  1  0  0  0  0
  7  8  1  0  0  0  0
  8  9  2  0  0  0  0
  8 27  1  0  0  0  0
  9 10  1  0  0  0  0
  9 28  1  0  0  0  0
 10 11  2  0  0  0  0
 10 12  1  0  0  0  0
 12 13  1  0  0  0  0
 13 14  2  0  0  0  0
 15 19  1  0  0  0  0
 15 16  1  0  0  0  0
 15 29  1  0  0  0  0
 16 17  1  0  0  0  0
 16 30  1  0  0  0  0
 16 31  1  0  0  0  0
 17 18  1  0  0  0  0
 17 32  1  0  0  0  0
 17 33  1  0  0  0  0
 18 19  1  0  0  0  0
 18 34  1  0  0  0  0
 18 35  1  0  0  0  0
M  CHG  1  12  -1
M  END
> <s_m_source_file>
AV-unprocessed.smi

> <i_m_source_file_index>
1403

> <i_lp_mmshare_version>
43012

> <i_f3d_flags>
0

> <s_epik_input>
TzFbQ0gyXVtDSDJdW0NIMl1bQ0BIXTFbQ0BIXShbQ0gzXSlbTkhdQyg9TylbQ0gyXW4yW2NIXVtjSF1jKD1PKVtuSF1jMj1P

> <s_epik_cmdline>
J2VwaWtfcHl0aG9uJywgJy1waCcsICc3LjAnLCAnLXRuJywgJzgnLCAnLW1hJywgJzIwMCcsICctbWV0YWxfYmluZGluZycsICctaW1hZScsICc8aW5maWxlLm1hZT4nLCAnLW9tYWUnLCAnPG91dGZpbGUubWFlPic=

> <r_lp_tautomer_probability>
0.999537

> <r_epik_Ionization_Penalty>
3.07438

> <r_epik_Ionization_Penalty_Charging>
2.82466e-08

> <r_epik_Ionization_Penalty_Neutral>
3.07438

> <r_epik_State_Penalty>
3.07341

> <r_epik_Charging_Adjusted_Penalty>
3.07341

> <i_epik_Tot_Q>
-1

> <i_epik_Tot_abs_Q>
1

> <r_epik_Metal_State_Penalty>
0.45947

> <b_epik_Metal_Only>
1

> <s_lp_Force_Field>
OPLS_2005

> <r_lp_Energy>
26.9379

> <b_lp_Chiralities_Consistent>
1

> <s_lp_Variant>
AV-unprocessed.smi:1403-7

> <Gold.Version>
5.8.1

> <Gold.Id.Protein>
6NUR|6NUR_protein|mol2

> <Gold.PLP.Fitness>
39.4920

> <Gold.PLP.PLP>
-29.2164

> <Gold.PLP.part.hbond>
-2.8737

> <Gold.PLP.part.metal>
0.0000

> <Gold.PLP.part.buried>
-4.5837

> <Gold.PLP.part.nonpolar>
-21.9920

> <Gold.PLP.part.repulsive>
0.1639

> <Gold.PLP.ligand.clash>
0.0000

> <Gold.PLP.ligand.torsion>
0.4044

> <Gold.PLP.Chemscore.Hbond>
3.6862

> <Gold.PLP.Chemscore.CHOScore>
0.0000

> <Gold.PLP.Chemscore.Metal>
0.0000

> <Gold.Chemscore.Hbonds>
donor molecule, donor type, donor heavy atom, donor atom, acceptor molecule, acceptor atom, score
      P1  H  6896  6909       L1    12  1.53
      P1  H  7989  7998       L1     5  1.00
      P1  H 10752 10765       L1    14  0.94

> <Gold.PLP.Chemscore.Internal.Correction>
0.0257

> <Gold.Rescore>
     Score         DG    S(hbond)    S(metal)    S(lipo)     H(rot)  DE(clash)    DE(int)     intcor
     15.18     -15.77       2.24        0.00      67.50       1.99       0.00       0.58       ----

> <Gold.Chemscore.Fitness>
15.1844

> <Gold.Chemscore.DG>
-15.7688

> <Gold.Chemscore.ZeroCoef>
-5.4800

> <Gold.Chemscore.Hbond>
2.2444

> <Gold.Chemscore.Metal>
0.0000

> <Gold.Chemscore.Lipo>
67.4990

> <Gold.Chemscore.Internal_Hbond>
0.0000

> <Gold.Chemscore.DEClash>
0.0036

> <Gold.Chemscore.DEInternal>
0.5808

> <Gold.Chemscore.Rot>
1.9940

> <Gold.Chemscore.Internal.Correction>
   9.000000E+99

> <Gold.Chemscore.Hbonds>
donor molecule, donor type, donor heavy atom, donor atom, acceptor molecule, acceptor atom, score
      P1  H  6896  6909       L1    12  0.15
      P1  H  7989  7998       L1     5  0.98
      P1  H 10752 10765       L1    14  0.90

> <Gold.Chemscore.Hbond.Weighted>
-7.4962

> <Gold.Chemscore.Metal.Weighted>
-0.0000

> <Gold.Chemscore.Lipo.Weighted>
-7.8974

> <Gold.Chemscore.Internal_Hbond.Weighted>
0.0000

> <Gold.Chemscore.DEClash.Weighted>
0.0036

> <Gold.Chemscore.DEInternal.Weighted>
0.5808

> <Gold.Chemscore.Rot.Weighted>
5.1047

> <Gold.Chemscore.Internal.Correction.Weighted>
   9.000000E+99

> <Gold.Protein.RotatedTorsions>
[ 6907 6896 6895 6894 ] final   55.63 input  -60.11 | X-H torsion
[ 7974 7965 7964 7962 ] final    5.76 input  175.53 | X-H torsion
[ 8008 7997 7996 7995 ] final   26.59 input   59.86 | X-H torsion
[ 10167 10162 10161 10158 ] final   21.65 input  -65.29 | X-H torsion
[ 10718 10713 10712 10709 ] final  114.02 input   66.30 | X-H torsion
[ 10763 10752 10751 10750 ] final -140.65 input  -60.55 | X-H torsion
[ 11005 11000 10999 10996 ] final   82.83 input  -57.11 | X-H torsion

> <Gold.Protein.ActiveResidues>
 VAL166  LYS551  ARG553  GLY616  TRP617  ASP618  TYR619  PRO620  LYS621  CYS622 
 ASP623  PHE694  ASN695  SER759  ASP760  ASP761  ALA762  ILE779  LEU786  VAL792 
 PHE793  MET794  SER795  GLU796  ALA797  LYS798  CYS799  TRP800  GLU811  SER814 

> <Gold.Protein.RotatedAtoms>
  152.3557  134.6943  160.0222 H   0  0  0  0  0  0  0  0  0  0  0  0  # atno 6907 bound_to 6896
  151.7282  133.3311  159.3341 H   0  0  0  0  0  0  0  0  0  0  0  0  # atno 6908 bound_to 6896
  150.7570  134.6321  159.6236 H   0  0  0  0  0  0  0  0  0  0  0  0  # atno 6909 bound_to 6896
  146.2439  140.0335  142.8388 H   0  0  0  0  0  0  0  0  0  0  0  0  # atno 7974 bound_to 7965
  155.0296  140.3157  155.4763 H   0  0  0  0  0  0  0  0  0  0  0  0  # atno 8008 bound_to 7997
  156.2876  140.2182  156.5359 H   0  0  0  0  0  0  0  0  0  0  0  0  # atno 8009 bound_to 7997
  154.7382  140.0476  157.0775 H   0  0  0  0  0  0  0  0  0  0  0  0  # atno 8010 bound_to 7997
  140.5410  143.9677  150.6519 H   0  0  0  0  0  0  0  0  0  0  0  0  # atno 10167 bound_to 10162
  157.6305  131.0992  150.7125 H   0  0  0  0  0  0  0  0  0  0  0  0  # atno 10718 bound_to 10713
  154.8572  135.3547  154.5741 H   0  0  0  0  0  0  0  0  0  0  0  0  # atno 10763 bound_to 10752
  153.6353  135.7000  153.5265 H   0  0  0  0  0  0  0  0  0  0  0  0  # atno 10764 bound_to 10752
  153.3016  135.4205  155.1216 H   0  0  0  0  0  0  0  0  0  0  0  0  # atno 10765 bound_to 10752
  139.9050  134.8100  156.2228 H   0  0  0  0  0  0  0  0  0  0  0  0  # atno 11005 bound_to 11000
  145.1134  140.9419  143.4643 LP  0  0  0  0  0  0  0  0  0  0  0  0  # atno 17320 bound_to 7965
  145.0554  139.3148  143.5907 LP  0  0  0  0  0  0  0  0  0  0  0  0  # atno 17321 bound_to 7965
  140.3078  143.3218  152.0909 LP  0  0  0  0  0  0  0  0  0  0  0  0  # atno 17342 bound_to 10162
  139.4989  144.6656  151.6364 LP  0  0  0  0  0  0  0  0  0  0  0  0  # atno 17343 bound_to 10162
  156.7466  130.4755  149.5466 LP  0  0  0  0  0  0  0  0  0  0  0  0  # atno 17370 bound_to 10713
  156.1505  130.6307  151.0589 LP  0  0  0  0  0  0  0  0  0  0  0  0  # atno 17371 bound_to 10713
  141.0395  133.6945  156.1572 LP  0  0  0  0  0  0  0  0  0  0  0  0  # atno 17394 bound_to 11000
  140.6977  134.4598  157.5587 LP  0  0  0  0  0  0  0  0  0  0  0  0  # atno 17395 bound_to 11000

$$$$
