#       Name:                AV-unprocessed.smi:2954
#       Creating user name   scv26
#       Creation time:       Fri Mar 27 16:19:42 2020


#       File generated by GOLD software.
#

@<TRIPOS>MOLECULE
AV-unprocessed.smi:2954
    47    49     1
SMALL
NO_CHARGES


@<TRIPOS>ATOM
      1 ****        -2.6393   2.8685  -2.5089 C.3            1 S1                 0.0000
      2 ****        -2.2491   3.9715  -1.5143 C.3            1 S1                 0.0000
      3 ****        -1.2417   3.4522  -0.5949 N.am           1 S1                 0.0000
      4 ****        -1.1675   3.7649   0.7040 C.2            1 S1                 0.0000
      5 ****        -1.9509   4.5346   1.2536 O.2            1 S1                 0.0000
      6 ****        -1.7775   5.1956  -2.2460 C.2            1 S1                 0.0000
      7 ****        -0.4791   5.5426  -2.4840 N.pl3          1 S1                 1.0000
      8 ****        -0.4299   6.7216  -3.2273 C.ar           1 S1                 0.0000
      9 ****         0.6531   7.4532  -3.7050 C.ar           1 S1                 0.0000
     10 ****         0.3536   8.6168  -4.4436 C.ar           1 S1                 0.0000
     11 ****        -0.9787   9.0113  -4.6842 C.ar           1 S1                 0.0000
     12 ****        -2.0679   8.2607  -4.1948 C.ar           1 S1                 0.0000
     13 ****        -1.7630   7.1143  -3.4615 C.ar           1 S1                 0.0000
     14 ****        -2.5590   6.1506  -2.8324 N.pl3          1 S1                 0.0000
     15 ****        -4.0233   6.2835  -2.8911 C.3            1 S1                 0.0000
     16 ****        -4.5636   7.3865  -1.9670 C.3            1 S1                 0.0000
     17 ****        -3.9363   7.2994  -0.6942 O.3            1 S1                 0.0000
     18 ****        -4.2126   8.2803   0.2352 C.ar           1 S1                 0.0000
     19 ****        -5.2616   9.2250   0.0959 C.ar           1 S1                 0.0000
     20 ****        -5.4897  10.1931   1.0927 C.ar           1 S1                 0.0000
     21 ****        -4.6753  10.2321   2.2389 C.ar           1 S1                 0.0000
     22 ****        -3.6303   9.3021   2.3859 C.ar           1 S1                 0.0000
     23 ****        -3.4003   8.3325   1.3900 C.ar           1 S1                 0.0000
     24 ****        -2.0988   7.2153   1.5870 Cl             1 S1                 0.0000
     25 ****        -3.4322   3.2005  -3.1793 H              1 S1                 0.0000
     26 ****        -3.0019   1.9810  -1.9891 H              1 S1                 0.0000
     27 ****        -1.7898   2.5701  -3.1244 H              1 S1                 0.0000
     28 ****        -3.1391   4.2431  -0.9431 H              1 S1                 0.0000
     29 ****        -0.5524   2.8183  -0.9724 H              1 S1                 0.0000
     30 ****        -0.3287   3.2566   1.2033 H              1 S1                 0.0000
     31 ****         1.6745   7.1515  -3.5245 H              1 S1                 0.0000
     32 ****         1.1620   9.2175  -4.8348 H              1 S1                 0.0000
     33 ****        -1.1697   9.9076  -5.2566 H              1 S1                 0.0000
     34 ****        -3.0842   8.5703  -4.3871 H              1 S1                 0.0000
     35 ****        -4.3197   6.4572  -3.9262 H              1 S1                 0.0000
     36 ****        -4.4564   5.3261  -2.6029 H              1 S1                 0.0000
     37 ****        -4.3662   8.3656  -2.4051 H              1 S1                 0.0000
     38 ****        -5.6446   7.2765  -1.8723 H              1 S1                 0.0000
     39 ****        -5.9113   9.2251  -0.7659 H              1 S1                 0.0000
     40 ****        -6.2930  10.9061   0.9781 H              1 S1                 0.0000
     41 ****        -4.8508  10.9748   3.0031 H              1 S1                 0.0000
     42 ****        -3.0028   9.3344   3.2645 H              1 S1                 0.0000
     43 ****         0.3146   5.0060  -2.1583 H              1 S1                 0.0000
     44 ****        -2.6867   4.9598   0.7266 LP             1 S1                 0.0000
     45 ****        -1.8530   4.7361   2.2282 LP             1 S1                 0.0000
     46 ****        -2.9484   7.3069  -0.8490 LP             1 S1                 0.0000
     47 ****        -4.2039   6.4244  -0.2907 LP             1 S1                 0.0000
@<TRIPOS>BOND
    1    1    2 1     
    2    1   25 1     
    3    1   26 1     
    4    1   27 1     
    5    2    3 1     
    6    2    6 1     
    7    2   28 1     
    8    3    4 am    
    9    3   29 1     
   10    4    5 2     
   11    4   30 1     
   12    6   14 1     
   13    6    7 2     
   14    7    8 1     
   15    7   43 1     
   16    8   13 ar    
   17    8    9 ar    
   18    9   10 ar    
   19    9   31 1     
   20   10   11 ar    
   21   10   32 1     
   22   11   12 ar    
   23   11   33 1     
   24   12   13 ar    
   25   12   34 1     
   26   13   14 1     
   27   14   15 1     
   28   15   16 1     
   29   15   35 1     
   30   15   36 1     
   31   16   17 1     
   32   16   37 1     
   33   16   38 1     
   34   17   18 1     
   35   18   23 ar    
   36   18   19 ar    
   37   19   20 ar    
   38   19   39 1     
   39   20   21 ar    
   40   20   40 1     
   41   21   22 ar    
   42   21   41 1     
   43   22   23 ar    
   44   22   42 1     
   45   23   24 1     
   46    5   44 1     
   47    5   45 1     
   48   17   46 1     
   49   17   47 1     
@<TRIPOS>SUBSTRUCTURE
      1 S1             1
@<TRIPOS>SET
LONE_PAIRS      STATIC     ATOMS    <user>   **** ""
4 44 45 46 47
DONOR_HYDROGENS      STATIC     ATOMS    <user>   **** ""
2 29 43
ATOM$BLUE        STATIC     ATOMS    COLORGROUP SYSTEM
4 44 45 46 47
ATOM$RED        STATIC     ATOMS    COLORGROUP SYSTEM
2 29 43
