AV-unprocessed.smi:1085|AV-procd|sdf|4720|dock2
  -GOLD-   22720 3243D 1   1.00000     0.00000
 Structure written by MMmdl.
 33 34  0  0  0  0  0  0  0  0  1 V2000
  152.8124  139.8529  157.5287 O   0  0  0  0  0  0  0  0  0  0  0  0
  152.1963  139.7491  158.5888 C   0  0  0  0  0  0  0  0  0  0  0  0
  151.1698  138.6316  158.7736 C   0  0  0  0  0  0  0  0  0  0  0  0
  151.4625  137.5149  157.8935 N   0  0  0  0  0  0  0  0  0  0  0  0
  151.4289  137.4149  156.5630 C   0  0  0  0  0  0  0  0  0  0  0  0
  151.8031  136.2122  156.1538 N   0  0  0  0  0  0  0  0  0  0  0  0
  152.0798  135.5485  157.3376 N   0  0  0  0  0  0  0  0  0  0  0  0
  151.8797  136.3162  158.3731 N   0  0  0  0  0  0  0  0  0  0  0  0
  152.3809  140.5648  159.6383 N   0  0  0  0  0  0  0  0  0  0  0  0
  153.3797  141.6265  159.7321 C   0  0  2  0  0  0  0  0  0  0  0  0
  153.9325  141.7467  161.1680 C   0  0  0  0  0  0  0  0  0  0  0  0
  152.8716  142.2724  162.1492 C   0  0  0  0  0  0  0  0  0  0  0  0
  152.2904  143.6128  161.6726 C   0  0  0  0  0  0  0  0  0  0  0  0
  151.7048  143.5096  160.2480 C   0  0  1  0  0  0  0  0  0  0  0  0
  151.1136  144.8510  159.7677 C   0  0  0  0  0  0  0  0  0  0  0  0
  149.9574  145.1072  160.3806 F   0  0  0  0  0  0  0  0  0  0  0  0
  151.9665  145.8429  160.0247 F   0  0  0  0  0  0  0  0  0  0  0  0
  150.9048  144.8134  158.4517 F   0  0  0  0  0  0  0  0  0  0  0  0
  152.7721  142.9655  159.2690 C   0  0  0  0  0  0  0  0  0  0  0  0
  151.1706  138.2907  159.8101 H   0  0  0  0  0  0  0  0  0  0  0  0
  150.1671  138.9996  158.5519 H   0  0  0  0  0  0  0  0  0  0  0  0
  151.1417  138.2185  155.9007 H   0  0  0  0  0  0  0  0  0  0  0  0
  151.8198  140.4007  160.4621 H   0  0  0  0  0  0  0  0  0  0  0  0
  154.2019  141.3780  159.0585 H   0  0  0  0  0  0  0  0  0  0  0  0
  154.3175  140.7868  161.5141 H   0  0  0  0  0  0  0  0  0  0  0  0
  154.7843  142.4281  161.1664 H   0  0  0  0  0  0  0  0  0  0  0  0
  152.0698  141.5403  162.2565 H   0  0  0  0  0  0  0  0  0  0  0  0
  153.3115  142.3913  163.1397 H   0  0  0  0  0  0  0  0  0  0  0  0
  151.5207  143.9404  162.3718 H   0  0  0  0  0  0  0  0  0  0  0  0
  153.0712  144.3742  161.6966 H   0  0  0  0  0  0  0  0  0  0  0  0
  150.8831  142.7924  160.2816 H   0  0  0  0  0  0  0  0  0  0  0  0
  153.5732  143.6987  159.1670 H   0  0  0  0  0  0  0  0  0  0  0  0
  152.3446  142.8484  158.2724 H   0  0  0  0  0  0  0  0  0  0  0  0
  1  2  2  0  0  0  0
  2  3  1  0  0  0  0
  2  9  1  0  0  0  0
  3  4  1  0  0  0  0
  3 20  1  0  0  0  0
  3 21  1  0  0  0  0
  4  8  1  0  0  0  0
  4  5  1  0  0  0  0
  5  6  2  0  0  0  0
  5 22  1  0  0  0  0
  6  7  1  0  0  0  0
  7  8  2  0  0  0  0
  9 10  1  0  0  0  0
  9 23  1  0  0  0  0
 10 19  1  0  0  0  0
 10 11  1  0  0  0  0
 10 24  1  0  0  0  0
 11 12  1  0  0  0  0
 11 25  1  0  0  0  0
 11 26  1  0  0  0  0
 12 13  1  0  0  0  0
 12 27  1  0  0  0  0
 12 28  1  0  0  0  0
 13 14  1  0  0  0  0
 13 29  1  0  0  0  0
 13 30  1  0  0  0  0
 14 15  1  0  0  0  0
 14 19  1  0  0  0  0
 14 31  1  0  0  0  0
 15 16  1  0  0  0  0
 15 17  1  0  0  0  0
 15 18  1  0  0  0  0
 19 32  1  0  0  0  0
 19 33  1  0  0  0  0
M  END
> <s_m_source_file>
AV-unprocessed.smi

> <i_m_source_file_index>
1085

> <i_lp_mmshare_version>
43012

> <i_f3d_flags>
0

> <s_epik_input>
bjFubltjSF1uMVtDSDJdQyg9TylbTkhdW0NAQEhdMltDSDJdW0NIMl1bQ0gyXVtDQEBIXShDKEYpKEYpRilbQ0gyXTI=

> <s_epik_cmdline>
J2VwaWtfcHl0aG9uJywgJy1waCcsICc3LjAnLCAnLXRuJywgJzgnLCAnLW1hJywgJzIwMCcsICctbWV0YWxfYmluZGluZycsICctaW1hZScsICc8aW5maWxlLm1hZT4nLCAnLW9tYWUnLCAnPG91dGZpbGUubWFlPic=

> <r_lp_tautomer_probability>
1

> <r_epik_Ionization_Penalty>
8.41315e-07

> <r_epik_Ionization_Penalty_Charging>
0

> <r_epik_Ionization_Penalty_Neutral>
8.41315e-07

> <r_epik_State_Penalty>
-0

> <r_epik_Charging_Adjusted_Penalty>
0

> <i_epik_Tot_Q>
0

> <i_epik_Tot_abs_Q>
0

> <r_epik_Metal_State_Penalty>
-0

> <b_epik_Metal_Only>
0

> <s_lp_Force_Field>
OPLS_2005

> <r_lp_Energy>
11.1057

> <b_lp_Chiralities_Consistent>
1

> <s_lp_Variant>
AV-unprocessed.smi:1085-1

> <Gold.Version>
5.8.1

> <Gold.Id.Protein>
6NUR|6NUR_protein|mol2

> <Gold.PLP.Fitness>
48.8487

> <Gold.PLP.PLP>
-43.5431

> <Gold.PLP.part.hbond>
-4.0000

> <Gold.PLP.part.metal>
0.0000

> <Gold.PLP.part.buried>
-5.3396

> <Gold.PLP.part.nonpolar>
-35.0342

> <Gold.PLP.part.repulsive>
0.1508

> <Gold.PLP.ligand.clash>
0.0000

> <Gold.PLP.ligand.torsion>
1.1372

> <Gold.PLP.Chemscore.Hbond>
2.5120

> <Gold.PLP.Chemscore.CHOScore>
0.0000

> <Gold.PLP.Chemscore.Metal>
0.0000

> <Gold.Chemscore.Hbonds>
donor molecule, donor type, donor heavy atom, donor atom, acceptor molecule, acceptor atom, score
      P1  H  6896  6907       L1     8  0.50
      P1  H  7997  8010       L1     1  1.00
      P1  H 10752 10763       L1     6  1.00

> <Gold.PLP.Chemscore.Internal.Correction>
0.0441

> <Gold.Rescore>
     Score         DG    S(hbond)    S(metal)    S(lipo)     H(rot)  DE(clash)    DE(int)     intcor
     15.38     -17.35       2.27        0.00      81.30       2.05       0.03       1.94       ----

> <Gold.Chemscore.Fitness>
15.3844

> <Gold.Chemscore.DG>
-17.3516

> <Gold.Chemscore.ZeroCoef>
-5.4800

> <Gold.Chemscore.Hbond>
2.2742

> <Gold.Chemscore.Metal>
0.0000

> <Gold.Chemscore.Lipo>
81.3038

> <Gold.Chemscore.Internal_Hbond>
0.0000

> <Gold.Chemscore.DEClash>
0.0269

> <Gold.Chemscore.DEInternal>
1.9404

> <Gold.Chemscore.Rot>
2.0456

> <Gold.Chemscore.Internal.Correction>
   9.000000E+99

> <Gold.Chemscore.Hbonds>
donor molecule, donor type, donor heavy atom, donor atom, acceptor molecule, acceptor atom, score
      P1  H  6896  6907       L1     8  0.32
      P1  H  7997  8010       L1     1  0.99
      P1  H 10752 10763       L1     6  0.26

> <Gold.Chemscore.Hbond.Weighted>
-7.5958

> <Gold.Chemscore.Metal.Weighted>
-0.0000

> <Gold.Chemscore.Lipo.Weighted>
-9.5125

> <Gold.Chemscore.Internal_Hbond.Weighted>
0.0000

> <Gold.Chemscore.DEClash.Weighted>
0.0269

> <Gold.Chemscore.DEInternal.Weighted>
1.9404

> <Gold.Chemscore.Rot.Weighted>
5.2368

> <Gold.Chemscore.Internal.Correction.Weighted>
   9.000000E+99

> <Gold.Protein.RotatedTorsions>
[ 6907 6896 6895 6894 ] final    0.12 input  -60.11 | X-H torsion
[ 7974 7965 7964 7962 ] final  -32.00 input  175.53 | X-H torsion
[ 8008 7997 7996 7995 ] final   59.77 input   59.86 | X-H torsion
[ 10167 10162 10161 10158 ] final   61.14 input  -65.29 | X-H torsion
[ 10718 10713 10712 10709 ] final -135.36 input   66.30 | X-H torsion
[ 10763 10752 10751 10750 ] final   88.50 input  -60.55 | X-H torsion
[ 11005 11000 10999 10996 ] final  144.34 input  -57.11 | X-H torsion

> <Gold.Protein.ActiveResidues>
 VAL166  LYS551  ARG553  GLY616  TRP617  ASP618  TYR619  PRO620  LYS621  CYS622 
 ASP623  PHE694  ASN695  SER759  ASP760  ASP761  ALA762  ILE779  LEU786  VAL792 
 PHE793  MET794  SER795  GLU796  ALA797  LYS798  CYS799  TRP800  GLU811  SER814 

> <Gold.Protein.RotatedAtoms>
  151.5713  135.1062  159.9995 H   0  0  0  0  0  0  0  0  0  0  0  0  # atno 6907 bound_to 6896
  152.4399  133.7425  159.6659 H   0  0  0  0  0  0  0  0  0  0  0  0  # atno 6908 bound_to 6896
  150.8303  133.8033  159.3125 H   0  0  0  0  0  0  0  0  0  0  0  0  # atno 6909 bound_to 6896
  146.1024  140.5738  142.8815 H   0  0  0  0  0  0  0  0  0  0  0  0  # atno 7974 bound_to 7965
  155.5715  140.3490  155.4516 H   0  0  0  0  0  0  0  0  0  0  0  0  # atno 8008 bound_to 7997
  156.0440  140.1302  157.0149 H   0  0  0  0  0  0  0  0  0  0  0  0  # atno 8009 bound_to 7997
  154.4404  140.1018  156.6264 H   0  0  0  0  0  0  0  0  0  0  0  0  # atno 8010 bound_to 7997
  140.1580  144.4398  150.6724 H   0  0  0  0  0  0  0  0  0  0  0  0  # atno 10167 bound_to 10162
  156.2653  130.7234  151.1182 H   0  0  0  0  0  0  0  0  0  0  0  0  # atno 10718 bound_to 10713
  153.1775  135.4505  154.9984 H   0  0  0  0  0  0  0  0  0  0  0  0  # atno 10763 bound_to 10752
  154.8007  135.3255  154.7558 H   0  0  0  0  0  0  0  0  0  0  0  0  # atno 10764 bound_to 10752
  153.8026  135.6961  153.4908 H   0  0  0  0  0  0  0  0  0  0  0  0  # atno 10765 bound_to 10752
  140.0625  134.9197  157.1208 H   0  0  0  0  0  0  0  0  0  0  0  0  # atno 11005 bound_to 11000
  144.7443  140.5026  143.6847 LP  0  0  0  0  0  0  0  0  0  0  0  0  # atno 17320 bound_to 7965
  145.5829  139.1490  143.3225 LP  0  0  0  0  0  0  0  0  0  0  0  0  # atno 17321 bound_to 7965
  140.6661  143.2268  151.5740 LP  0  0  0  0  0  0  0  0  0  0  0  0  # atno 17342 bound_to 10162
  139.5394  144.2689  152.1320 LP  0  0  0  0  0  0  0  0  0  0  0  0  # atno 17343 bound_to 10162
  157.7265  131.0646  150.5906 LP  0  0  0  0  0  0  0  0  0  0  0  0  # atno 17370 bound_to 10713
  156.5997  130.4351  149.5902 LP  0  0  0  0  0  0  0  0  0  0  0  0  # atno 17371 bound_to 10713
  140.3749  134.2350  155.7175 LP  0  0  0  0  0  0  0  0  0  0  0  0  # atno 17394 bound_to 11000
  141.1979  133.8048  157.0607 LP  0  0  0  0  0  0  0  0  0  0  0  0  # atno 17395 bound_to 11000

$$$$
