#       Name:                AV-unprocessed.smi:244
#       Creating user name   scv26
#       Creation time:       Thu Mar 26 20:51:32 2020


#       File generated by GOLD software.
#

@<TRIPOS>MOLECULE
AV-unprocessed.smi:244
    67    71     1
SMALL
NO_CHARGES


@<TRIPOS>ATOM
      1 ****        -2.2144  -0.0729  -4.1491 C.3            1 S1                 0.0000
      2 ****        -3.1691   0.8768  -3.5885 N.3            1 S1                 0.0000
      3 ****        -4.5329   0.3474  -3.5223 C.3            1 S1                 0.0000
      4 ****        -4.6939  -0.7435  -2.4445 C.3            1 S1                 0.0000
      5 ****        -4.2357  -0.2521  -1.0642 C.3            1 S1                 0.0000
      6 ****        -5.1576   0.7185  -0.5731 O.3            1 S1                 0.0000
      7 ****        -4.8237   1.1559   0.7395 C.3            1 S1                 0.0000
      8 ****        -3.4412   1.8267   0.7262 C.3            1 S1                 0.0000
      9 ****        -2.4474   0.9247   0.1438 N.3            1 S1                 0.0000
     10 ****        -1.1336   1.2375   0.3003 C.ar           1 S1                 0.0000
     11 ****        -0.7771   2.5143   0.6057 N.ar           1 S1                 0.0000
     12 ****         0.5101   2.8445   0.7420 C.ar           1 S1                 0.0000
     13 ****         1.5875   2.0676   0.6222 N.ar           1 S1                 0.0000
     14 ****         1.2396   0.7821   0.3301 C.ar           1 S1                 0.0000
     15 ****        -0.0835   0.2859   0.1515 C.ar           1 S1                 0.0000
     16 ****        -0.0399  -1.0755  -0.1280 N.2            1 S1                 0.0000
     17 ****         1.2324  -1.3631  -0.1290 C.2            1 S1                 0.0000
     18 ****         2.0720  -0.3086   0.1482 N.pl3          1 S1                 0.0000
     19 ****         3.5246  -0.3485   0.2210 C.3            1 S1                 0.0000
     20 ****         4.0769  -0.6529   1.6361 C.3            1 S1                 0.0000
     21 ****         3.6822   0.4052   2.4919 O.3            1 S1                 0.0000
     22 ****         3.5324  -1.9763   2.2175 C.3            1 S1                 0.0000
     23 ****         4.2449  -2.3715   3.5232 C.3            1 S1                 0.0000
     24 ****         5.6510  -2.4303   3.3167 O.3            1 S1                 0.0000
     25 ****         6.2062  -1.1723   2.9526 C.3            1 S1                 0.0000
     26 ****         5.6176  -0.7079   1.6088 C.3            1 S1                 0.0000
     27 ****        -2.8227   0.3622  -1.1556 C.3            1 S1                 0.0000
     28 ****        -2.7435   1.4120  -2.2947 C.3            1 S1                 0.0000
     29 ****        -2.5326  -0.3853  -5.1440 H              1 S1                 0.0000
     30 ****        -2.1033  -0.9659  -3.5350 H              1 S1                 0.0000
     31 ****        -1.2331   0.3921  -4.2472 H              1 S1                 0.0000
     32 ****        -5.2101   1.1738  -3.3030 H              1 S1                 0.0000
     33 ****        -4.8251  -0.0380  -4.4997 H              1 S1                 0.0000
     34 ****        -5.7347  -1.0643  -2.3952 H              1 S1                 0.0000
     35 ****        -4.1222  -1.6284  -2.7242 H              1 S1                 0.0000
     36 ****        -4.2274  -1.1013  -0.3785 H              1 S1                 0.0000
     37 ****        -5.5805   1.8611   1.0830 H              1 S1                 0.0000
     38 ****        -4.8390   0.3119   1.4308 H              1 S1                 0.0000
     39 ****        -3.4811   2.7546   0.1543 H              1 S1                 0.0000
     40 ****        -3.1580   2.0898   1.7462 H              1 S1                 0.0000
     41 ****         0.7046   3.8799   0.9796 H              1 S1                 0.0000
     42 ****         1.5959  -2.3618  -0.3227 H              1 S1                 0.0000
     43 ****         3.8730  -1.1031  -0.4851 H              1 S1                 0.0000
     44 ****         3.9125   0.6049  -0.1403 H              1 S1                 0.0000
     45 ****         4.0295   0.2402   3.3550 H              1 S1                 0.0000
     46 ****         2.4584  -1.9115   2.3956 H              1 S1                 0.0000
     47 ****         3.6753  -2.7747   1.4881 H              1 S1                 0.0000
     48 ****         4.0127  -1.6689   4.3250 H              1 S1                 0.0000
     49 ****         3.8982  -3.3508   3.8538 H              1 S1                 0.0000
     50 ****         6.0228  -0.4381   3.7388 H              1 S1                 0.0000
     51 ****         7.2879  -1.2780   2.8675 H              1 S1                 0.0000
     52 ****         5.9399  -1.4051   0.8342 H              1 S1                 0.0000
     53 ****         6.0308   0.2637   1.3347 H              1 S1                 0.0000
     54 ****        -2.1418  -0.4518  -1.3937 H              1 S1                 0.0000
     55 ****        -1.7298   1.8043  -2.3854 H              1 S1                 0.0000
     56 ****        -3.3820   2.2645  -2.0619 H              1 S1                 0.0000
     57 ****        -3.1858   1.6415  -4.2327 LP             1 S1                 0.0000
     58 ****        -6.0724   0.3150  -0.5558 LP             1 S1                 0.0000
     59 ****        -5.1530   1.5077  -1.1872 LP             1 S1                 0.0000
     60 ****        -2.4992   0.1480   0.7716 LP             1 S1                 0.0000
     61 ****        -1.4839   3.2109   0.7291 LP             1 S1                 0.0000
     62 ****         2.5288   2.3867   0.7324 LP             1 S1                 0.0000
     63 ****        -0.8090  -1.6935  -0.2911 LP             1 S1                 0.0000
     64 ****         2.6841   0.4505   2.5334 LP             1 S1                 0.0000
     65 ****         4.0410   1.2714   2.1443 LP             1 S1                 0.0000
     66 ****         5.8397  -3.0866   2.5862 LP             1 S1                 0.0000
     67 ****         6.0858  -2.7389   4.1627 LP             1 S1                 0.0000
@<TRIPOS>BOND
    1    1    2 1     
    2    1   29 1     
    3    1   30 1     
    4    1   31 1     
    5    2   28 1     
    6    2    3 1     
    7    3    4 1     
    8    3   32 1     
    9    3   33 1     
   10    4    5 1     
   11    4   34 1     
   12    4   35 1     
   13    5   27 1     
   14    5    6 1     
   15    5   36 1     
   16    6    7 1     
   17    7    8 1     
   18    7   37 1     
   19    7   38 1     
   20    8    9 1     
   21    8   39 1     
   22    8   40 1     
   23    9   10 1     
   24    9   27 1     
   25   10   15 ar    
   26   10   11 ar    
   27   11   12 ar    
   28   12   13 ar    
   29   12   41 1     
   30   13   14 ar    
   31   14   18 1     
   32   14   15 ar    
   33   15   16 1     
   34   16   17 2     
   35   17   18 1     
   36   17   42 1     
   37   18   19 1     
   38   19   20 1     
   39   19   43 1     
   40   19   44 1     
   41   20   26 1     
   42   20   21 1     
   43   20   22 1     
   44   21   45 1     
   45   22   23 1     
   46   22   46 1     
   47   22   47 1     
   48   23   24 1     
   49   23   48 1     
   50   23   49 1     
   51   24   25 1     
   52   25   26 1     
   53   25   50 1     
   54   25   51 1     
   55   26   52 1     
   56   26   53 1     
   57   27   28 1     
   58   27   54 1     
   59   28   55 1     
   60   28   56 1     
   61    2   57 1     
   62    6   58 1     
   63    6   59 1     
   64    9   60 1     
   65   11   61 1     
   66   13   62 1     
   67   16   63 1     
   68   21   64 1     
   69   21   65 1     
   70   24   66 1     
   71   24   67 1     
@<TRIPOS>SUBSTRUCTURE
      1 S1             1
@<TRIPOS>SET
LONE_PAIRS      STATIC     ATOMS    <user>   **** ""
11 57 58 59 60 61 62 63 64 65 66 67
DONOR_HYDROGENS      STATIC     ATOMS    <user>   **** ""
1 45
ATOM$BLUE        STATIC     ATOMS    COLORGROUP SYSTEM
11 57 58 59 60 61 62 63 64 65 66 67
ATOM$RED        STATIC     ATOMS    COLORGROUP SYSTEM
1 45
