AV-unprocessed.smi:54|AV-procd|sdf|548|dock6
  -GOLD-   2262016443D 1   1.00000     0.00000
 Structure written by MMmdl.
 43 45  0  0  0  0  0  0  0  0  2 V2000
  152.6165  144.1346  159.8351 C   0  0  0  0  0  0  0  0  0  0  0  0
  152.1853  142.7427  160.3264 C   0  0  0  0  0  0  0  0  0  0  0  0
  153.3652  141.9820  160.9539 C   0  0  0  0  0  0  0  0  0  0  0  0
  151.5613  141.9321  159.1815 C   0  0  0  0  0  0  0  0  0  0  0  0
  150.3612  142.0701  158.9323 O   0  0  0  0  0  0  0  0  0  0  0  0
  152.4104  141.1093  158.5259 N   0  0  0  0  0  0  0  0  0  0  0  0
  152.1540  140.2460  157.4542 C   0  0  0  0  0  0  0  0  0  0  0  0
  151.1552  140.4824  156.6329 N   0  0  0  0  0  0  0  0  0  0  0  0
  151.0494  139.5251  155.6429 C   0  0  0  0  0  0  0  0  0  0  0  0
  151.8417  138.4271  155.4506 C   0  0  0  0  0  0  0  0  0  0  0  0
  151.4281  137.6889  154.3490 N   0  0  0  0  0  0  0  0  0  0  0  0
  150.3823  138.3935  153.9196 C   0  0  0  0  0  0  0  0  0  0  0  0
  150.0867  139.4955  154.6407 N   0  0  0  0  0  0  0  0  0  0  0  0
  148.9836  140.4873  154.4161 C   0  0  1  0  0  0  0  0  0  0  0  0
  148.3718  140.1737  153.1988 O   0  0  0  0  0  0  0  0  0  0  0  0
  147.0070  139.7952  153.3877 C   0  0  1  0  0  0  0  0  0  0  0  0
  146.5992  138.6819  152.4063 C   0  0  0  0  0  0  0  0  0  0  0  0
  147.4041  138.7373  151.2485 O   0  0  0  0  0  0  0  0  0  0  0  0
  146.8846  139.4451  154.8788 C   0  0  1  0  0  0  0  0  0  0  0  0
  147.1939  138.0839  155.1278 O   0  0  0  0  0  0  0  0  0  0  0  0
  147.8950  140.3977  155.5001 C   0  0  1  0  0  0  0  0  0  0  0  0
  148.3331  139.9934  156.7853 O   0  0  0  0  0  0  0  0  0  0  0  0
  152.9526  138.2283  156.4111 C   0  0  0  0  0  0  0  0  0  0  0  0
  153.6933  137.2562  156.2768 O   0  0  0  0  0  0  0  0  0  0  0  0
  153.0575  139.1737  157.3934 N   0  5  0  0  0  0  0  0  0  0  0  0
  149.4883  141.4532  154.3755 H   0  0  0  0  0  0  0  0  0  0  0  0
  146.3975  140.6836  153.2122 H   0  0  0  0  0  0  0  0  0  0  0  0
  145.8769  139.6325  155.2510 H   0  0  0  0  0  0  0  0  0  0  0  0
  147.4413  141.3862  155.5826 H   0  0  0  0  0  0  0  0  0  0  0  0
  151.7830  144.6688  159.3774 H   0  0  0  0  0  0  0  0  0  0  0  0
  153.4174  144.0704  159.0972 H   0  0  0  0  0  0  0  0  0  0  0  0
  152.9794  144.7444  160.6629 H   0  0  0  0  0  0  0  0  0  0  0  0
  151.4295  142.8826  161.1015 H   0  0  0  0  0  0  0  0  0  0  0  0
  153.0611  140.9926  161.2985 H   0  0  0  0  0  0  0  0  0  0  0  0
  153.7603  142.5203  161.8157 H   0  0  0  0  0  0  0  0  0  0  0  0
  154.1829  141.8514  160.2437 H   0  0  0  0  0  0  0  0  0  0  0  0
  153.3599  141.1152  158.8683 H   0  0  0  0  0  0  0  0  0  0  0  0
  149.8130  138.0932  153.0530 H   0  0  0  0  0  0  0  0  0  0  0  0
  146.6702  137.6968  152.8676 H   0  0  0  0  0  0  0  0  0  0  0  0
  145.5650  138.8200  152.0893 H   0  0  0  0  0  0  0  0  0  0  0  0
  148.0547  139.4121  151.3675 H   0  0  0  0  0  0  0  0  0  0  0  0
  147.2118  137.6277  154.3002 H   0  0  0  0  0  0  0  0  0  0  0  0
  148.6288  139.0972  156.7324 H   0  0  0  0  0  0  0  0  0  0  0  0
  1  2  1  0  0  0  0
  1 30  1  0  0  0  0
  1 31  1  0  0  0  0
  1 32  1  0  0  0  0
  2  3  1  0  0  0  0
  2  4  1  0  0  0  0
  2 33  1  0  0  0  0
  3 34  1  0  0  0  0
  3 35  1  0  0  0  0
  3 36  1  0  0  0  0
  4  5  2  0  0  0  0
  4  6  1  0  0  0  0
  6 37  1  0  0  0  0
  6  7  1  0  0  0  0
  7 25  1  0  0  0  0
  7  8  2  0  0  0  0
  8  9  1  0  0  0  0
  9 13  1  0  0  0  0
  9 10  2  0  0  0  0
 10 11  1  0  0  0  0
 10 23  1  0  0  0  0
 11 12  2  0  0  0  0
 12 13  1  0  0  0  0
 12 38  1  0  0  0  0
 13 14  1  0  0  0  0
 14 26  1  0  0  0  0
 14 21  1  0  0  0  0
 14 15  1  0  0  0  0
 15 16  1  0  0  0  0
 16 27  1  0  0  0  0
 16 17  1  0  0  0  0
 16 19  1  0  0  0  0
 17 18  1  0  0  0  0
 17 39  1  0  0  0  0
 17 40  1  0  0  0  0
 18 41  1  0  0  0  0
 19 28  1  0  0  0  0
 19 20  1  0  0  0  0
 19 21  1  0  0  0  0
 20 42  1  0  0  0  0
 21 29  1  0  0  0  0
 21 22  1  0  0  0  0
 22 43  1  0  0  0  0
 23 24  2  0  0  0  0
 23 25  1  0  0  0  0
M  CHG  1  25  -1
M  END
> <s_m_source_file>
AV-unprocessed.smi

> <i_m_source_file_index>
54

> <i_lp_mmshare_version>
43012

> <i_f3d_flags>
0

> <s_epik_input>
W0NIM11bQ0hdKFtDSDNdKUMoPU8pW05IXWMobjEpW25IXWMoPU8pYyhjMTIpbltjSF1uMltDQEBIXTNPW0NASF0oW0NIMl1bT0hdKVtDQEBIXShbT0hdKVtDQEhdM1tPSF0=

> <s_epik_cmdline>
J2VwaWtfcHl0aG9uJywgJy1waCcsICc3LjAnLCAnLXRuJywgJzgnLCAnLW1hJywgJzIwMCcsICctbWV0YWxfYmluZGluZycsICctaW1hZScsICc8aW5maWxlLm1hZT4nLCAnLW9tYWUnLCAnPG91dGZpbGUubWFlPic=

> <r_lp_tautomer_probability>
0.85571

> <r_epik_Ionization_Penalty>
1.75936

> <r_epik_Ionization_Penalty_Charging>
4.55893e-11

> <r_epik_Ionization_Penalty_Neutral>
1.75936

> <r_epik_State_Penalty>
1.72072

> <r_epik_Charging_Adjusted_Penalty>
1.72072

> <i_epik_Tot_Q>
-1

> <i_epik_Tot_abs_Q>
1

> <r_epik_Metal_State_Penalty>
0.400338

> <b_epik_Metal_Only>
1

> <s_epik_Chemistry_Notes>
This compound contains an acetal/aminal-like group ( X-CH(R)-Y where X, Y are N, S, or O) that may be acid/base labile, releasing an aldehyde.

> <s_lp_Force_Field>
OPLS_2005

> <r_lp_Energy>
61.5499

> <b_lp_Chiralities_Consistent>
1

> <s_lp_Variant>
AV-unprocessed.smi:54-20

> <Gold.Version>
5.8.1

> <Gold.Id.Protein>
6NUR|6NUR_protein|mol2

> <Gold.PLP.Fitness>
51.5791

> <Gold.PLP.PLP>
-37.4101

> <Gold.PLP.part.hbond>
-5.5751

> <Gold.PLP.part.metal>
0.0000

> <Gold.PLP.part.buried>
-3.2431

> <Gold.PLP.part.nonpolar>
-32.0530

> <Gold.PLP.part.repulsive>
5.2063

> <Gold.PLP.ligand.clash>
0.5398

> <Gold.PLP.ligand.torsion>
1.4770

> <Gold.PLP.Chemscore.Hbond>
4.2732

> <Gold.PLP.Chemscore.CHOScore>
1.4519

> <Gold.PLP.Chemscore.Metal>
0.0000

> <Gold.Chemscore.Hbonds>
donor molecule, donor type, donor heavy atom, donor atom, acceptor molecule, acceptor atom, score
      L1  H    18    41       P1  7957  1.00
      P1  H  7954  7966       L1    18  0.84
      P1  H  7997  8010       L1    25  2.00
      P1  H 10752 10763       L1    24  0.43
      L1  C    12    38       P1  7948  1.00
      L1  C    12    38       P1  7957  0.39

> <Gold.PLP.Chemscore.Internal.Correction>
0.4875

> <Gold.Rescore>
     Score         DG    S(hbond)    S(metal)    S(lipo)     H(rot)  DE(clash)    DE(int)     intcor
      2.55      -8.05       1.70        0.00      61.45       4.02       1.73       3.77       ----

> <Gold.Chemscore.Fitness>
2.5493

> <Gold.Chemscore.DG>
-8.0541

> <Gold.Chemscore.ZeroCoef>
-5.4800

> <Gold.Chemscore.Hbond>
1.6988

> <Gold.Chemscore.Metal>
0.0000

> <Gold.Chemscore.Lipo>
61.4478

> <Gold.Chemscore.Internal_Hbond>
0.0000

> <Gold.Chemscore.DEClash>
1.7318

> <Gold.Chemscore.DEInternal>
3.7731

> <Gold.Chemscore.Rot>
4.0192

> <Gold.Chemscore.Internal.Correction>
   9.000000E+99

> <Gold.Chemscore.Hbonds>
donor molecule, donor type, donor heavy atom, donor atom, acceptor molecule, acceptor atom, score
      L1  H    18    41       P1  7957  0.88
      P1  H  7954  7966       L1    18  0.16
      P1  H  7997  8010       L1    25  0.17
      P1  H 10752 10763       L1    24  0.42

> <Gold.Chemscore.Hbond.Weighted>
-5.6740

> <Gold.Chemscore.Metal.Weighted>
-0.0000

> <Gold.Chemscore.Lipo.Weighted>
-7.1894

> <Gold.Chemscore.Internal_Hbond.Weighted>
0.0000

> <Gold.Chemscore.DEClash.Weighted>
1.7318

> <Gold.Chemscore.DEInternal.Weighted>
3.7731

> <Gold.Chemscore.Rot.Weighted>
10.2893

> <Gold.Chemscore.Internal.Correction.Weighted>
   9.000000E+99

> <Gold.Protein.RotatedTorsions>
[ 6907 6896 6895 6894 ] final  -57.85 input  -60.11 | X-H torsion
[ 7974 7965 7964 7962 ] final  -84.42 input  175.53 | X-H torsion
[ 8008 7997 7996 7995 ] final   29.94 input   59.86 | X-H torsion
[ 10167 10162 10161 10158 ] final  -95.11 input  -65.29 | X-H torsion
[ 10718 10713 10712 10709 ] final -102.81 input   66.30 | X-H torsion
[ 10763 10752 10751 10750 ] final  118.60 input  -60.55 | X-H torsion
[ 11005 11000 10999 10996 ] final -126.39 input  -57.11 | X-H torsion

> <Gold.Protein.ActiveResidues>
 VAL166  LYS551  ARG553  GLY616  TRP617  ASP618  TYR619  PRO620  LYS621  CYS622 
 ASP623  PHE694  ASN695  SER759  ASP760  ASP761  ALA762  ILE779  LEU786  VAL792 
 PHE793  MET794  SER795  GLU796  ALA797  LYS798  CYS799  TRP800  GLU811  SER814 

> <Gold.Protein.RotatedAtoms>
  150.8053  134.7175  159.6638 H   0  0  0  0  0  0  0  0  0  0  0  0  # atno 6907 bound_to 6896
  152.4173  134.6016  160.0011 H   0  0  0  0  0  0  0  0  0  0  0  0  # atno 6908 bound_to 6896
  151.6242  133.3300  159.3130 H   0  0  0  0  0  0  0  0  0  0  0  0  # atno 6909 bound_to 6896
  145.5068  140.9543  143.1729 H   0  0  0  0  0  0  0  0  0  0  0  0  # atno 7974 bound_to 7965
  155.0825  140.3211  155.4597 H   0  0  0  0  0  0  0  0  0  0  0  0  # atno 8008 bound_to 7997
  156.2763  140.2092  156.5898 H   0  0  0  0  0  0  0  0  0  0  0  0  # atno 8009 bound_to 7997
  154.6967  140.0511  157.0405 H   0  0  0  0  0  0  0  0  0  0  0  0  # atno 8010 bound_to 7997
  140.3076  143.3124  152.0183 H   0  0  0  0  0  0  0  0  0  0  0  0  # atno 10167 bound_to 10162
  156.0242  130.5438  150.7162 H   0  0  0  0  0  0  0  0  0  0  0  0  # atno 10718 bound_to 10713
  153.5701  135.3504  155.2834 H   0  0  0  0  0  0  0  0  0  0  0  0  # atno 10763 bound_to 10752
  154.8683  135.4157  154.2735 H   0  0  0  0  0  0  0  0  0  0  0  0  # atno 10764 bound_to 10752
  153.3499  135.7054  153.6867 H   0  0  0  0  0  0  0  0  0  0  0  0  # atno 10765 bound_to 10752
  140.9685  134.0838  157.3894 H   0  0  0  0  0  0  0  0  0  0  0  0  # atno 11005 bound_to 11000
  144.7749  139.6652  143.7179 LP  0  0  0  0  0  0  0  0  0  0  0  0  # atno 17320 bound_to 7965
  146.2191  139.5603  142.9630 LP  0  0  0  0  0  0  0  0  0  0  0  0  # atno 17321 bound_to 7965
  139.4901  144.6409  151.6878 LP  0  0  0  0  0  0  0  0  0  0  0  0  # atno 17342 bound_to 10162
  140.5597  144.0289  150.6164 LP  0  0  0  0  0  0  0  0  0  0  0  0  # atno 17343 bound_to 10162
  157.4789  131.0900  151.0559 LP  0  0  0  0  0  0  0  0  0  0  0  0  # atno 17370 bound_to 10713
  157.0998  130.5977  149.5457 LP  0  0  0  0  0  0  0  0  0  0  0  0  # atno 17371 bound_to 10713
  139.8903  135.0111  156.6731 LP  0  0  0  0  0  0  0  0  0  0  0  0  # atno 17394 bound_to 11000
  140.7363  133.9016  155.8246 LP  0  0  0  0  0  0  0  0  0  0  0  0  # atno 17395 bound_to 11000

$$$$
