AV-unprocessed.smi:2554|AV-procd|sdf|10021|dock1
  -GOLD-   2272014 63D 1   1.00000     0.00000
 Structure written by MMmdl.
 22 22  0  0  0  0  0  0  0  0  3 V2000
  149.6384  141.1070  154.7245 C   0  0  0  0  0  0  0  0  0  0  0  0
  148.2329  141.3697  154.3003 C   0  0  0  0  0  0  0  0  0  0  0  0
  147.6374  142.5919  154.4777 N   0  0  0  0  0  0  0  0  0  0  0  0
  146.3851  142.5750  154.0168 C   0  0  0  0  0  0  0  0  0  0  0  0
  146.1720  141.3462  153.5410 N   0  3  0  0  0  0  0  0  0  0  0  0
  147.2905  140.5670  153.6983 C   0  0  0  0  0  0  0  0  0  0  0  0
  147.3429  139.1416  153.2517 C   0  0  0  0  0  0  0  0  0  0  0  0
  146.7683  138.9717  151.8376 C   0  0  0  0  0  0  0  0  0  0  0  0
  145.3775  138.4873  151.8745 N   0  3  0  0  0  0  0  0  0  0  0  0
  148.0828  143.3974  154.8998 H   0  0  0  0  0  0  0  0  0  0  0  0
  149.9258  140.0815  154.4918 H   0  0  0  0  0  0  0  0  0  0  0  0
  149.7427  141.2605  155.7989 H   0  0  0  0  0  0  0  0  0  0  0  0
  150.3204  141.7829  154.2081 H   0  0  0  0  0  0  0  0  0  0  0  0
  145.6851  143.3914  154.0277 H   0  0  0  0  0  0  0  0  0  0  0  0
  148.3782  138.7999  153.2840 H   0  0  0  0  0  0  0  0  0  0  0  0
  146.7884  138.5266  153.9618 H   0  0  0  0  0  0  0  0  0  0  0  0
  146.7928  139.9202  151.2996 H   0  0  0  0  0  0  0  0  0  0  0  0
  147.3687  138.2617  151.2674 H   0  0  0  0  0  0  0  0  0  0  0  0
  144.8033  139.1517  152.3741 H   0  0  0  0  0  0  0  0  0  0  0  0
  145.3393  137.5940  152.3446 H   0  0  0  0  0  0  0  0  0  0  0  0
  145.0270  138.3862  150.9325 H   0  0  0  0  0  0  0  0  0  0  0  0
  145.3008  141.0366  153.1284 H   0  0  0  0  0  0  0  0  0  0  0  0
  1  2  1  0  0  0  0
  1 11  1  0  0  0  0
  1 12  1  0  0  0  0
  1 13  1  0  0  0  0
  2  6  2  0  0  0  0
  2  3  1  0  0  0  0
  3 10  1  0  0  0  0
  3  4  1  0  0  0  0
  4  5  2  0  0  0  0
  4 14  1  0  0  0  0
  5  6  1  0  0  0  0
  5 22  1  0  0  0  0
  6  7  1  0  0  0  0
  7  8  1  0  0  0  0
  7 15  1  0  0  0  0
  7 16  1  0  0  0  0
  8  9  1  0  0  0  0
  8 17  1  0  0  0  0
  8 18  1  0  0  0  0
  9 19  1  0  0  0  0
  9 20  1  0  0  0  0
  9 21  1  0  0  0  0
M  CHG  1   5   1
M  CHG  1   9   1
M  END
> <s_m_source_file>
AV-unprocessed.smi

> <i_m_source_file_index>
2554

> <i_lp_mmshare_version>
43012

> <i_f3d_flags>
0

> <s_epik_input>
W0NIM11jMVtuSF1bY0hdbmMxW0NIMl1bQ0gyXVtOSDJd

> <s_epik_cmdline>
J2VwaWtfcHl0aG9uJywgJy1waCcsICc3LjAnLCAnLXRuJywgJzgnLCAnLW1hJywgJzIwMCcsICctbWV0YWxfYmluZGluZycsICctaW1hZScsICc8aW5maWxlLm1hZT4nLCAnLW9tYWUnLCAnPG91dGZpbGUubWFlPic=

> <r_lp_tautomer_probability>
1

> <r_epik_Ionization_Penalty>
1.44166

> <r_epik_Ionization_Penalty_Charging>
0.0086666

> <r_epik_Ionization_Penalty_Neutral>
1.43299

> <r_epik_State_Penalty>
0.799657

> <r_epik_Charging_Adjusted_Penalty>
0.808323

> <i_epik_Tot_Q>
2

> <i_epik_Tot_abs_Q>
2

> <r_epik_Metal_State_Penalty>
4.62592

> <b_epik_Metal_Only>
0

> <s_lp_Force_Field>
OPLS_2005

> <r_lp_Energy>
11.4182

> <b_lp_Chiralities_Consistent>
1

> <s_lp_Variant>
AV-unprocessed.smi:2554-3

> <Gold.Version>
5.8.1

> <Gold.Id.Protein>
6NUR|6NUR_protein|mol2

> <Gold.PLP.Fitness>
42.7822

> <Gold.PLP.PLP>
-22.6594

> <Gold.PLP.part.hbond>
-4.0000

> <Gold.PLP.part.metal>
0.0000

> <Gold.PLP.part.buried>
-0.0803

> <Gold.PLP.part.nonpolar>
-18.2563

> <Gold.PLP.part.repulsive>
0.2538

> <Gold.PLP.ligand.clash>
0.0000

> <Gold.PLP.ligand.torsion>
0.4389

> <Gold.PLP.Chemscore.Hbond>
7.0000

> <Gold.PLP.Chemscore.CHOScore>
0.0000

> <Gold.PLP.Chemscore.Metal>
0.0000

> <Gold.Chemscore.Hbonds>
donor molecule, donor type, donor heavy atom, donor atom, acceptor molecule, acceptor atom, score
      L1  H     3    10       P1  8028  2.00
      L1  H     5    22       P1 10175  2.00
      L1  H     9    19       P1 10175  2.00
      L1  H     9    21       P1 10171  1.00

> <Gold.PLP.Chemscore.Internal.Correction>
0.0006

> <Gold.Rescore>
     Score         DG    S(hbond)    S(metal)    S(lipo)     H(rot)  DE(clash)    DE(int)     intcor
     17.72     -18.15       3.61        0.00      37.31       1.47       0.08       0.36       ----

> <Gold.Chemscore.Fitness>
17.7153

> <Gold.Chemscore.DG>
-18.1502

> <Gold.Chemscore.ZeroCoef>
-5.4800

> <Gold.Chemscore.Hbond>
3.6117

> <Gold.Chemscore.Metal>
0.0000

> <Gold.Chemscore.Lipo>
37.3052

> <Gold.Chemscore.Internal_Hbond>
0.0000

> <Gold.Chemscore.DEClash>
0.0766

> <Gold.Chemscore.DEInternal>
0.3583

> <Gold.Chemscore.Rot>
1.4679

> <Gold.Chemscore.Internal.Correction>
   9.000000E+99

> <Gold.Chemscore.Hbonds>
donor molecule, donor type, donor heavy atom, donor atom, acceptor molecule, acceptor atom, score
      L1  H     3    10       P1  8028  0.88
      L1  H     5    22       P1 10175  0.35
      L1  H     9    19       P1 10175  0.97
      L1  H     9    21       P1 10171  0.95

> <Gold.Chemscore.Hbond.Weighted>
-12.0632

> <Gold.Chemscore.Metal.Weighted>
-0.0000

> <Gold.Chemscore.Lipo.Weighted>
-4.3647

> <Gold.Chemscore.Internal_Hbond.Weighted>
0.0000

> <Gold.Chemscore.DEClash.Weighted>
0.0766

> <Gold.Chemscore.DEInternal.Weighted>
0.3583

> <Gold.Chemscore.Rot.Weighted>
3.7577

> <Gold.Chemscore.Internal.Correction.Weighted>
   9.000000E+99

> <Gold.Protein.RotatedTorsions>
[ 6907 6896 6895 6894 ] final  -55.14 input  -60.11 | X-H torsion
[ 7974 7965 7964 7962 ] final   37.75 input  175.53 | X-H torsion
[ 8008 7997 7996 7995 ] final  142.46 input   59.86 | X-H torsion
[ 10167 10162 10161 10158 ] final   11.32 input  -65.29 | X-H torsion
[ 10718 10713 10712 10709 ] final  134.43 input   66.30 | X-H torsion
[ 10763 10752 10751 10750 ] final -172.87 input  -60.55 | X-H torsion
[ 11005 11000 10999 10996 ] final  165.59 input  -57.11 | X-H torsion

> <Gold.Protein.ActiveResidues>
 VAL166  LYS551  ARG553  GLY616  TRP617  ASP618  TYR619  PRO620  LYS621  CYS622 
 ASP623  PHE694  ASN695  SER759  ASP760  ASP761  ALA762  ILE779  LEU786  VAL792 
 PHE793  MET794  SER795  GLU796  ALA797  LYS798  CYS799  TRP800  GLU811  SER814 

> <Gold.Protein.RotatedAtoms>
  150.8277  134.7516  159.6826 H   0  0  0  0  0  0  0  0  0  0  0  0  # atno 6907 bound_to 6896
  152.4386  134.5634  159.9910 H   0  0  0  0  0  0  0  0  0  0  0  0  # atno 6908 bound_to 6896
  151.5802  133.3341  159.3043 H   0  0  0  0  0  0  0  0  0  0  0  0  # atno 6909 bound_to 6896
  146.1114  139.5856  142.9349 H   0  0  0  0  0  0  0  0  0  0  0  0  # atno 7974 bound_to 7965
  156.2949  140.2288  156.4731 H   0  0  0  0  0  0  0  0  0  0  0  0  # atno 8008 bound_to 7997
  154.7918  140.0454  157.1228 H   0  0  0  0  0  0  0  0  0  0  0  0  # atno 8009 bound_to 7997
  154.9636  140.3057  155.5023 H   0  0  0  0  0  0  0  0  0  0  0  0  # atno 8010 bound_to 7997
  140.6139  143.8349  150.7096 H   0  0  0  0  0  0  0  0  0  0  0  0  # atno 10167 bound_to 10162
  157.4674  131.1078  150.9846 H   0  0  0  0  0  0  0  0  0  0  0  0  # atno 10718 bound_to 10713
  154.6143  135.2868  155.0397 H   0  0  0  0  0  0  0  0  0  0  0  0  # atno 10763 bound_to 10752
  154.1615  135.6487  153.4991 H   0  0  0  0  0  0  0  0  0  0  0  0  # atno 10764 bound_to 10752
  153.0208  135.5379  154.6909 H   0  0  0  0  0  0  0  0  0  0  0  0  # atno 10765 bound_to 10752
  140.2577  134.7927  157.3560 H   0  0  0  0  0  0  0  0  0  0  0  0  # atno 11005 bound_to 11000
  145.5655  141.0400  143.2202 LP  0  0  0  0  0  0  0  0  0  0  0  0  # atno 17320 bound_to 7965
  144.7515  139.7182  143.7271 LP  0  0  0  0  0  0  0  0  0  0  0  0  # atno 17321 bound_to 7965
  140.1924  143.4025  152.1853 LP  0  0  0  0  0  0  0  0  0  0  0  0  # atno 17342 bound_to 10162
  139.5383  144.7231  151.4819 LP  0  0  0  0  0  0  0  0  0  0  0  0  # atno 17343 bound_to 10162
  157.0622  130.5830  149.5388 LP  0  0  0  0  0  0  0  0  0  0  0  0  # atno 17370 bound_to 10713
  156.0057  130.5143  150.7820 LP  0  0  0  0  0  0  0  0  0  0  0  0  # atno 17371 bound_to 10713
  140.1496  134.4867  155.7971 LP  0  0  0  0  0  0  0  0  0  0  0  0  # atno 17394 bound_to 11000
  141.2194  133.6857  156.7354 LP  0  0  0  0  0  0  0  0  0  0  0  0  # atno 17395 bound_to 11000

$$$$
