#       Name:                AV-unprocessed.smi:1
#       Creating user name   scv26
#       Creation time:       Thu Mar 26 15:09:30 2020


#       File generated by GOLD software.
#

@<TRIPOS>MOLECULE
AV-unprocessed.smi:1
    66    71     1
SMALL
NO_CHARGES


@<TRIPOS>ATOM
      1 ****        -4.6183   0.9018  -0.4416 O.2            1 S1                 0.0000
      2 ****        -4.6580  -0.3273  -0.5069 C.2            1 S1                 0.0000
      3 ****        -3.4585  -1.1442  -0.4496 N.am           1 S1                 0.0000
      4 ****        -2.1693  -0.7353  -0.3946 C.ar           1 S1                 0.0000
      5 ****        -1.8231   0.5767  -0.3361 N.ar           1 S1                 0.0000
      6 ****        -0.5367   0.9288  -0.2848 C.ar           1 S1                 0.0000
      7 ****         0.5418   0.1436  -0.2815 N.ar           1 S1                 0.0000
      8 ****         0.2086  -1.1799  -0.3345 C.ar           1 S1                 0.0000
      9 ****        -1.1197  -1.6905  -0.3958 C.ar           1 S1                 0.0000
     10 ****        -1.0922  -3.0765  -0.4503 N.2            1 S1                 0.0000
     11 ****         0.1794  -3.3664  -0.4243 C.2            1 S1                 0.0000
     12 ****         1.0368  -2.2908  -0.3408 N.pl3          1 S1                 0.0000
     13 ****         2.5392  -2.3566  -0.2951 C.3            1 S1                 0.0000
     14 ****         3.0818  -1.0793  -0.4318 O.3            1 S1                 0.0000
     15 ****         3.4862  -0.5868   0.8399 C.3            1 S1                 0.0000
     16 ****         4.5212   0.5286   0.6731 C.3            1 S1                 0.0000
     17 ****         3.8601   1.6896   0.1993 O.3            1 S1                 0.0000
     18 ****         4.5381   2.8424   0.0470 C.2            1 S1                 0.0000
     19 ****         5.7356   2.9701   0.3102 O.2            1 S1                 0.0000
     20 ****         3.6840   3.9511  -0.4686 C.ar           1 S1                 0.0000
     21 ****         4.2326   5.2480  -0.6013 C.ar           1 S1                 0.0000
     22 ****         3.4464   6.3131  -1.0832 C.ar           1 S1                 0.0000
     23 ****         2.1028   6.0938  -1.4394 C.ar           1 S1                 0.0000
     24 ****         1.5462   4.8074  -1.3146 C.ar           1 S1                 0.0000
     25 ****         2.3313   3.7418  -0.8331 C.ar           1 S1                 0.0000
     26 ****         4.0258  -1.8393   1.5264 C.3            1 S1                 0.0000
     27 ****         3.9545  -1.7427   2.9382 O.3            1 S1                 0.0000
     28 ****         2.5025  -2.3920   3.4501 S.o2           1 S1                 0.0000
     29 ****         2.7942  -3.4927   4.3810 O.2            1 S1                 0.0000
     30 ****         1.5946  -1.2859   3.7898 O.2            1 S1                 0.0000
     31 ****         1.9999  -3.0501   2.0011 O.3            1 S1                 0.0000
     32 ****         3.0458  -2.9206   1.0487 C.3            1 S1                 0.0000
     33 ****        -5.9602  -1.0716  -0.5679 C.ar           1 S1                 0.0000
     34 ****        -7.1296  -0.4939  -0.0244 C.ar           1 S1                 0.0000
     35 ****        -8.3597  -1.1763  -0.0912 C.ar           1 S1                 0.0000
     36 ****        -8.4326  -2.4393  -0.7083 C.ar           1 S1                 0.0000
     37 ****        -7.2751  -3.0174  -1.2627 C.ar           1 S1                 0.0000
     38 ****        -6.0442  -2.3358  -1.1967 C.ar           1 S1                 0.0000
     39 ****        -3.6030  -2.1431  -0.4740 H              1 S1                 0.0000
     40 ****        -0.3469   1.9907  -0.2385 H              1 S1                 0.0000
     41 ****         0.5335  -4.3867  -0.4556 H              1 S1                 0.0000
     42 ****         2.8060  -2.9720  -1.1550 H              1 S1                 0.0000
     43 ****         2.6154  -0.2185   1.3837 H              1 S1                 0.0000
     44 ****         4.9849   0.7466   1.6361 H              1 S1                 0.0000
     45 ****         5.3105   0.2264  -0.0164 H              1 S1                 0.0000
     46 ****         5.2615   5.4401  -0.3328 H              1 S1                 0.0000
     47 ****         3.8758   7.2994  -1.1792 H              1 S1                 0.0000
     48 ****         1.5003   6.9105  -1.8091 H              1 S1                 0.0000
     49 ****         0.5159   4.6360  -1.5896 H              1 S1                 0.0000
     50 ****         1.8768   2.7658  -0.7538 H              1 S1                 0.0000
     51 ****         5.0400  -2.0643   1.1940 H              1 S1                 0.0000
     52 ****         3.5334  -3.8844   0.9000 H              1 S1                 0.0000
     53 ****        -7.0904   0.4754   0.4518 H              1 S1                 0.0000
     54 ****        -9.2478  -0.7293   0.3308 H              1 S1                 0.0000
     55 ****        -9.3761  -2.9623  -0.7596 H              1 S1                 0.0000
     56 ****        -7.3316  -3.9837  -1.7418 H              1 S1                 0.0000
     57 ****        -5.1705  -2.7943  -1.6369 H              1 S1                 0.0000
     58 ****        -3.7395   1.3693  -0.3458 LP             1 S1                 0.0000
     59 ****        -5.4649   1.4324  -0.4844 LP             1 S1                 0.0000
     60 ****        -2.5335   1.2805  -0.3314 LP             1 S1                 0.0000
     61 ****         1.4816   0.4834  -0.2446 LP             1 S1                 0.0000
     62 ****        -1.8671  -3.7068  -0.4983 LP             1 S1                 0.0000
     63 ****         2.3940  -0.4667  -0.8213 LP             1 S1                 0.0000
     64 ****         3.8750  -1.1192  -1.0395 LP             1 S1                 0.0000
     65 ****         6.2570   2.1908   0.6577 LP             1 S1                 0.0000
     66 ****         6.1856   3.8531   0.1763 LP             1 S1                 0.0000
@<TRIPOS>BOND
    1    1    2 2     
    2    2    3 am    
    3    2   33 1     
    4    3    4 1     
    5    3   39 1     
    6    4    9 ar    
    7    4    5 ar    
    8    5    6 ar    
    9    6    7 ar    
   10    6   40 1     
   11    7    8 ar    
   12    8   12 1     
   13    8    9 ar    
   14    9   10 1     
   15   10   11 2     
   16   11   12 1     
   17   11   41 1     
   18   12   13 1     
   19   13   32 1     
   20   13   14 1     
   21   13   42 1     
   22   14   15 1     
   23   15   16 1     
   24   15   26 1     
   25   15   43 1     
   26   16   17 1     
   27   16   44 1     
   28   16   45 1     
   29   17   18 1     
   30   18   19 2     
   31   18   20 1     
   32   20   25 ar    
   33   20   21 ar    
   34   21   22 ar    
   35   21   46 1     
   36   22   23 ar    
   37   22   47 1     
   38   23   24 ar    
   39   23   48 1     
   40   24   25 ar    
   41   24   49 1     
   42   25   50 1     
   43   26   32 1     
   44   26   27 1     
   45   26   51 1     
   46   27   28 1     
   47   28   29 2     
   48   28   30 2     
   49   28   31 1     
   50   31   32 1     
   51   32   52 1     
   52   33   38 ar    
   53   33   34 ar    
   54   34   35 ar    
   55   34   53 1     
   56   35   36 ar    
   57   35   54 1     
   58   36   37 ar    
   59   36   55 1     
   60   37   38 ar    
   61   37   56 1     
   62   38   57 1     
   63    1   58 1     
   64    1   59 1     
   65    5   60 1     
   66    7   61 1     
   67   10   62 1     
   68   14   63 1     
   69   14   64 1     
   70   19   65 1     
   71   19   66 1     
@<TRIPOS>SUBSTRUCTURE
      1 S1             1
@<TRIPOS>SET
LONE_PAIRS      STATIC     ATOMS    <user>   **** ""
11 58 59 60 61 62 63 64 65 66 29 30
DONOR_HYDROGENS      STATIC     ATOMS    <user>   **** ""
1 39
ATOM$BLUE        STATIC     ATOMS    COLORGROUP SYSTEM
11 58 59 60 61 62 63 64 65 66 29 30
ATOM$RED        STATIC     ATOMS    COLORGROUP SYSTEM
1 39
