#       Name:                AV-unprocessed.smi:1151
#       Creating user name   scv26
#       Creation time:       Fri Mar 27 03:47:11 2020


#       File generated by GOLD software.
#

@<TRIPOS>MOLECULE
AV-unprocessed.smi:1151
    40    41     1
SMALL
NO_CHARGES


@<TRIPOS>ATOM
      1 ****        -3.3140   2.7361   3.2597 C.3            1 S1                 0.0000
      2 ****        -2.9478   1.5888   2.3818 C.2            1 S1                 0.0000
      3 ****        -2.3127   0.4983   2.8191 N.2            1 S1                 0.0000
      4 ****        -2.0836  -0.4345   1.8029 C.2            1 S1                 0.0000
      5 ****        -1.3679  -1.7187   2.1082 C.3            1 S1                 0.0000
      6 ****         0.1588  -1.5531   2.2544 C.3            1 S1                 0.0000
      7 ****         0.7585  -0.8129   1.1479 N.am           1 S1                 0.0000
      8 ****         0.9223  -1.2827  -0.0980 C.2            1 S1                 0.0000
      9 ****         0.6208  -2.4290  -0.4316 O.2            1 S1                 0.0000
     10 ****         1.4985  -0.3004  -1.1261 C.3            1 S1                 0.0000
     11 ****         2.7230  -0.8929  -1.8433 C.3            1 S1                 0.0000
     12 ****         3.3243   0.1172  -2.8338 C.3            1 S1                 0.0000
     13 ****         2.2731   0.8098  -3.7139 C.2            1 S1                 0.0000
     14 ****         2.6281   1.3834  -4.7410 O.2            1 S1                 0.0000
     15 ****         0.9871   0.8048  -3.3212 N.am           1 S1                 0.0000
     16 ****         0.4328   0.0896  -2.1716 C.3            1 S1                 0.0000
     17 ****        -2.5582  -0.0300   0.5798 C.2            1 S1                 0.0000
     18 ****        -3.3042   1.5416   0.6594 S.3            1 S1                 0.0000
     19 ****        -3.3548   2.4215   4.3030 H              1 S1                 0.0000
     20 ****        -4.2909   3.1279   2.9762 H              1 S1                 0.0000
     21 ****        -2.5747   3.5310   3.1610 H              1 S1                 0.0000
     22 ****        -1.7674  -2.1606   3.0215 H              1 S1                 0.0000
     23 ****        -1.5740  -2.4459   1.3220 H              1 S1                 0.0000
     24 ****         0.3753  -0.9978   3.1675 H              1 S1                 0.0000
     25 ****         0.6403  -2.5261   2.3634 H              1 S1                 0.0000
     26 ****         1.0344   0.1401   1.3356 H              1 S1                 0.0000
     27 ****         1.8170   0.6039  -0.6037 H              1 S1                 0.0000
     28 ****         3.4828  -1.1856  -1.1172 H              1 S1                 0.0000
     29 ****         2.4443  -1.8013  -2.3806 H              1 S1                 0.0000
     30 ****         3.8562   0.8939  -2.2834 H              1 S1                 0.0000
     31 ****         4.0621  -0.3760  -3.4677 H              1 S1                 0.0000
     32 ****         0.3253   1.2978  -3.9031 H              1 S1                 0.0000
     33 ****        -0.0765  -0.7966  -2.5536 H              1 S1                 0.0000
     34 ****        -0.3334   0.7140  -1.7107 H              1 S1                 0.0000
     35 ****        -2.5057  -0.5573  -0.3613 H              1 S1                 0.0000
     36 ****        -2.0317   0.3637   3.7693 LP             1 S1                 0.0000
     37 ****         0.2332  -3.0597   0.2406 LP             1 S1                 0.0000
     38 ****         0.7636  -2.7291  -1.3748 LP             1 S1                 0.0000
     39 ****         3.5945   1.3967  -4.9979 LP             1 S1                 0.0000
     40 ****         1.9506   1.8370  -5.3201 LP             1 S1                 0.0000
@<TRIPOS>BOND
    1    1    2 1     
    2    1   19 1     
    3    1   20 1     
    4    1   21 1     
    5    2   18 1     
    6    2    3 2     
    7    3    4 1     
    8    4    5 1     
    9    4   17 2     
   10    5    6 1     
   11    5   22 1     
   12    5   23 1     
   13    6    7 1     
   14    6   24 1     
   15    6   25 1     
   16    7    8 am    
   17    7   26 1     
   18    8    9 2     
   19    8   10 1     
   20   10   16 1     
   21   10   11 1     
   22   10   27 1     
   23   11   12 1     
   24   11   28 1     
   25   11   29 1     
   26   12   13 1     
   27   12   30 1     
   28   12   31 1     
   29   13   14 2     
   30   13   15 am    
   31   15   16 1     
   32   15   32 1     
   33   16   33 1     
   34   16   34 1     
   35   17   18 1     
   36   17   35 1     
   37    3   36 1     
   38    9   37 1     
   39    9   38 1     
   40   14   39 1     
   41   14   40 1     
@<TRIPOS>SUBSTRUCTURE
      1 S1             1
@<TRIPOS>SET
LONE_PAIRS      STATIC     ATOMS    <user>   **** ""
5 36 37 38 39 40
DONOR_HYDROGENS      STATIC     ATOMS    <user>   **** ""
2 26 32
ATOM$BLUE        STATIC     ATOMS    COLORGROUP SYSTEM
5 36 37 38 39 40
ATOM$RED        STATIC     ATOMS    COLORGROUP SYSTEM
2 26 32
