#       Name:                AV-unprocessed.smi:560
#       Creating user name   scv26
#       Creation time:       Thu Mar 26 23:42:43 2020


#       File generated by GOLD software.
#

@<TRIPOS>MOLECULE
AV-unprocessed.smi:560
    47    48     1
SMALL
NO_CHARGES


@<TRIPOS>ATOM
      1 ****        -3.5440  -2.0662  -2.2212 C.3            1 S1                 0.0000
      2 ****        -2.9801  -1.3963  -0.9546 C.3            1 S1                 0.0000
      3 ****        -1.4465  -1.3049  -0.9633 C.2            1 S1                 0.0000
      4 ****        -0.7709  -2.1259  -1.5852 O.2            1 S1                 0.0000
      5 ****        -0.9087  -0.2990  -0.2553 N.am           1 S1                 0.0000
      6 ****         0.5206  -0.0499  -0.0959 C.3            1 S1                 0.0000
      7 ****         0.7602   0.8350   1.1378 C.3            1 S1                 0.0000
      8 ****         2.2497   1.1841   1.2914 C.3            1 S1                 0.0000
      9 ****         2.7755   1.8428   0.0655 N.4            1 S1                 1.0000
     10 ****         4.1746   2.3205   0.2093 C.3            1 S1                 0.0000
     11 ****         4.2216   3.6184   1.0223 C.2            1 S1                 0.0000
     12 ****         3.6436   4.6510   0.3760 N.pl3          1 S1                -1.0000
     13 ****         4.7452   3.6205   2.1339 O.2            1 S1                 0.0000
     14 ****         2.5888   0.9921  -1.1366 C.3            1 S1                 0.0000
     15 ****         1.1067   0.6385  -1.3424 C.3            1 S1                 0.0000
     16 ****        -3.4344  -2.0824   0.2477 N.pl3          1 S1                 0.0000
     17 ****        -3.2059  -3.3875   0.6394 C.2            1 S1                 0.0000
     18 ****        -3.8258  -3.5683   1.8422 C.2            1 S1                 0.0000
     19 ****        -4.4168  -2.3026   2.1109 C.2            1 S1                 0.0000
     20 ****        -4.1796  -1.4161   1.1575 N.2            1 S1                 0.0000
     21 ****        -3.2133  -1.5489  -3.1225 H              1 S1                 0.0000
     22 ****        -4.6342  -2.0480  -2.2159 H              1 S1                 0.0000
     23 ****        -3.2335  -3.1086  -2.3030 H              1 S1                 0.0000
     24 ****        -3.3663  -0.3752  -0.9299 H              1 S1                 0.0000
     25 ****        -1.5382   0.3268   0.2272 H              1 S1                 0.0000
     26 ****         1.0306  -1.0028   0.0603 H              1 S1                 0.0000
     27 ****         0.1811   1.7561   1.0542 H              1 S1                 0.0000
     28 ****         0.4067   0.3288   2.0369 H              1 S1                 0.0000
     29 ****         2.3733   1.8393   2.1541 H              1 S1                 0.0000
     30 ****         2.8268   0.2812   1.4967 H              1 S1                 0.0000
     31 ****         4.7936   1.5518   0.6750 H              1 S1                 0.0000
     32 ****         4.6130   2.5196  -0.7705 H              1 S1                 0.0000
     33 ****         3.2616   4.5002  -0.5650 H              1 S1                 0.0000
     34 ****         2.9551   1.5172  -2.0196 H              1 S1                 0.0000
     35 ****         3.1846   0.0833  -1.0366 H              1 S1                 0.0000
     36 ****         1.0050  -0.0067  -2.2157 H              1 S1                 0.0000
     37 ****         0.5449   1.5474  -1.5628 H              1 S1                 0.0000
     38 ****        -2.6260  -4.0705   0.0358 H              1 S1                 0.0000
     39 ****        -3.8534  -4.4680   2.4386 H              1 S1                 0.0000
     40 ****        -5.0063  -2.0035   2.9650 H              1 S1                 0.0000
     41 ****         2.2220   2.6751  -0.0836 H              1 S1                 0.0000
     42 ****        -1.2200  -2.8619  -2.0916 LP             1 S1                 0.0000
     43 ****         0.2267  -2.0563  -1.5836 LP             1 S1                 0.0000
     44 ****         3.5877   5.5515   0.8074 LP             1 S1                 0.0000
     45 ****         5.1377   2.7782   2.5034 LP             1 S1                 0.0000
     46 ****         4.7788   4.4646   2.6692 LP             1 S1                 0.0000
     47 ****        -4.4841  -0.4643   1.1188 LP             1 S1                 0.0000
@<TRIPOS>BOND
    1    1    2 1     
    2    1   21 1     
    3    1   22 1     
    4    1   23 1     
    5    2    3 1     
    6    2   16 1     
    7    2   24 1     
    8    3    4 2     
    9    3    5 am    
   10    5    6 1     
   11    5   25 1     
   12    6   15 1     
   13    6    7 1     
   14    6   26 1     
   15    7    8 1     
   16    7   27 1     
   17    7   28 1     
   18    8    9 1     
   19    8   29 1     
   20    8   30 1     
   21    9   10 1     
   22    9   14 1     
   23    9   41 1     
   24   10   11 1     
   25   10   31 1     
   26   10   32 1     
   27   11   12 1     
   28   11   13 2     
   29   12   33 1     
   30   14   15 1     
   31   14   34 1     
   32   14   35 1     
   33   15   36 1     
   34   15   37 1     
   35   16   20 1     
   36   16   17 1     
   37   17   18 2     
   38   17   38 1     
   39   18   19 1     
   40   18   39 1     
   41   19   20 2     
   42   19   40 1     
   43    4   42 1     
   44    4   43 1     
   45   12   44 1     
   46   13   45 1     
   47   13   46 1     
   48   20   47 1     
@<TRIPOS>SUBSTRUCTURE
      1 S1             1
@<TRIPOS>SET
LONE_PAIRS      STATIC     ATOMS    <user>   **** ""
6 42 43 44 45 46 47
DONOR_HYDROGENS      STATIC     ATOMS    <user>   **** ""
3 25 41 33
ATOM$BLUE        STATIC     ATOMS    COLORGROUP SYSTEM
6 42 43 44 45 46 47
ATOM$RED        STATIC     ATOMS    COLORGROUP SYSTEM
3 25 41 33
