#       Name:                AV-unprocessed.smi:1955
#       Creating user name   scv26
#       Creation time:       Fri Mar 27 10:05:39 2020


#       File generated by GOLD software.
#

@<TRIPOS>MOLECULE
AV-unprocessed.smi:1955
    39    40     1
SMALL
NO_CHARGES


@<TRIPOS>ATOM
      1 ****         1.3088   0.9412  -0.3782 O.2            1 S1                 0.0000
      2 ****         0.9907  -0.1522   0.0909 C.2            1 S1                 0.0000
      3 ****         1.8351  -1.1695   0.3365 N.am           1 S1                 0.0000
      4 ****         3.2384  -1.2178   0.1229 C.ar           1 S1                 0.0000
      5 ****         3.8506  -2.4500   0.4462 C.ar           1 S1                 0.0000
      6 ****         5.2396  -2.6009   0.2696 C.ar           1 S1                 0.0000
      7 ****         5.9822  -1.5135  -0.2239 C.ar           1 S1                 0.0000
      8 ****         5.2957  -0.3215  -0.5198 C.ar           1 S1                 0.0000
      9 ****         3.9644  -0.1753  -0.3532 N.ar           1 S1                 0.0000
     10 ****        -0.2681  -0.4787   0.4189 N.am           1 S1                 0.0000
     11 ****        -1.4393   0.3904   0.2904 C.3            1 S1                 0.0000
     12 ****        -2.0011   0.3133  -1.1472 C.3            1 S1                 0.0000
     13 ****        -2.8466   1.5305  -1.5552 C.3            1 S1                 0.0000
     14 ****        -4.1259   1.7337  -0.7298 C.3            1 S1                 0.0000
     15 ****        -3.8594   2.0684   0.7476 C.3            1 S1                 0.0000
     16 ****        -3.5322   0.8890   1.5391 N.am           1 S1                 0.0000
     17 ****        -2.4718   0.0802   1.3907 C.2            1 S1                 0.0000
     18 ****        -2.3294  -0.9014   2.1198 O.2            1 S1                 0.0000
     19 ****         1.4253  -2.0101   0.7161 H              1 S1                 0.0000
     20 ****         3.2652  -3.2750   0.8256 H              1 S1                 0.0000
     21 ****         5.7258  -3.5350   0.5095 H              1 S1                 0.0000
     22 ****         7.0493  -1.5903  -0.3711 H              1 S1                 0.0000
     23 ****         5.8287   0.5372  -0.9002 H              1 S1                 0.0000
     24 ****        -0.4350  -1.3964   0.8054 H              1 S1                 0.0000
     25 ****        -1.0984   1.4113   0.4733 H              1 S1                 0.0000
     26 ****        -1.1764   0.2416  -1.8577 H              1 S1                 0.0000
     27 ****        -2.5786  -0.6033  -1.2751 H              1 S1                 0.0000
     28 ****        -2.2340   2.4315  -1.5045 H              1 S1                 0.0000
     29 ****        -3.1249   1.4207  -2.6038 H              1 S1                 0.0000
     30 ****        -4.6820   2.5610  -1.1721 H              1 S1                 0.0000
     31 ****        -4.7753   0.8609  -0.8115 H              1 S1                 0.0000
     32 ****        -3.0778   2.8230   0.8466 H              1 S1                 0.0000
     33 ****        -4.7599   2.5025   1.1825 H              1 S1                 0.0000
     34 ****        -4.1846   0.6540   2.2730 H              1 S1                 0.0000
     35 ****         2.2638   1.1276  -0.6090 LP             1 S1                 0.0000
     36 ****         0.6121   1.6427  -0.5284 LP             1 S1                 0.0000
     37 ****         3.5185   0.6911  -0.5780 LP             1 S1                 0.0000
     38 ****        -1.5397  -1.5031   1.9997 LP             1 S1                 0.0000
     39 ****        -3.0033  -1.0971   2.8321 LP             1 S1                 0.0000
@<TRIPOS>BOND
    1    1    2 2     
    2    2    3 am    
    3    2   10 am    
    4    3    4 1     
    5    3   19 1     
    6    4    9 ar    
    7    4    5 ar    
    8    5    6 ar    
    9    5   20 1     
   10    6    7 ar    
   11    6   21 1     
   12    7    8 ar    
   13    7   22 1     
   14    8    9 ar    
   15    8   23 1     
   16   10   11 1     
   17   10   24 1     
   18   11   17 1     
   19   11   12 1     
   20   11   25 1     
   21   12   13 1     
   22   12   26 1     
   23   12   27 1     
   24   13   14 1     
   25   13   28 1     
   26   13   29 1     
   27   14   15 1     
   28   14   30 1     
   29   14   31 1     
   30   15   16 1     
   31   15   32 1     
   32   15   33 1     
   33   16   17 am    
   34   16   34 1     
   35   17   18 2     
   36    1   35 1     
   37    1   36 1     
   38    9   37 1     
   39   18   38 1     
   40   18   39 1     
@<TRIPOS>SUBSTRUCTURE
      1 S1             1
@<TRIPOS>SET
LONE_PAIRS      STATIC     ATOMS    <user>   **** ""
5 35 36 37 38 39
DONOR_HYDROGENS      STATIC     ATOMS    <user>   **** ""
3 19 24 34
ATOM$BLUE        STATIC     ATOMS    COLORGROUP SYSTEM
5 35 36 37 38 39
ATOM$RED        STATIC     ATOMS    COLORGROUP SYSTEM
3 19 24 34
