#       Name:                AV-unprocessed.smi:2021
#       Creating user name   scv26
#       Creation time:       Fri Mar 27 10:42:46 2020


#       File generated by GOLD software.
#

@<TRIPOS>MOLECULE
AV-unprocessed.smi:2021
    48    49     1
SMALL
NO_CHARGES


@<TRIPOS>ATOM
      1 ****        -1.5294   2.6012   4.0451 C.3            1 S1                 0.0000
      2 ****        -2.0015   2.0727   2.6802 C.3            1 S1                 0.0000
      3 ****        -3.5360   2.0604   2.6126 C.3            1 S1                 0.0000
      4 ****        -1.4351   0.6682   2.3760 C.3            1 S1                 0.0000
      5 ****         0.0510   0.6387   2.2905 N.4            1 S1                 1.0000
      6 ****         0.6299  -0.7073   2.5199 C.3            1 S1                 0.0000
      7 ****         0.4890  -1.5920   1.2685 C.3            1 S1                 0.0000
      8 ****         1.1045  -0.9441   0.1630 O.3            1 S1                 0.0000
      9 ****         0.4912   0.3007  -0.1591 C.3            1 S1                 0.0000
     10 ****         1.1816   0.8872  -1.4037 C.3            1 S1                 0.0000
     11 ****         0.8858   0.1139  -2.6052 N.am           1 S1                 0.0000
     12 ****         1.5970  -0.9342  -3.0448 C.2            1 S1                 0.0000
     13 ****         2.5914  -1.3705  -2.4646 O.2            1 S1                 0.0000
     14 ****         1.0798  -1.4285  -4.1832 N.am           1 S1                 0.0000
     15 ****         1.5470  -2.5200  -4.9620 C.2            1 S1                 0.0000
     16 ****         2.6171  -3.2625  -4.6377 N.2            1 S1                 0.0000
     17 ****         2.8565  -4.2634  -5.5705 N.2            1 S1                 0.0000
     18 ****         1.9585  -4.2365  -6.5595 C.2            1 S1                 0.0000
     19 ****         0.7312  -2.9870  -6.4473 S.3            1 S1                 0.0000
     20 ****         0.6231   1.2424   1.0588 C.3            1 S1                 0.0000
     21 ****        -1.8485   1.9465   4.8566 H              1 S1                 0.0000
     22 ****        -1.9356   3.5939   4.2418 H              1 S1                 0.0000
     23 ****        -0.4432   2.6826   4.0892 H              1 S1                 0.0000
     24 ****        -1.6631   2.7713   1.9159 H              1 S1                 0.0000
     25 ****        -3.9617   1.3891   3.3592 H              1 S1                 0.0000
     26 ****        -3.8842   1.7327   1.6327 H              1 S1                 0.0000
     27 ****        -3.9459   3.0555   2.7887 H              1 S1                 0.0000
     28 ****        -1.7618  -0.0054   3.1697 H              1 S1                 0.0000
     29 ****        -1.8698   0.2754   1.4569 H              1 S1                 0.0000
     30 ****         1.6877  -0.5895   2.7592 H              1 S1                 0.0000
     31 ****         0.1723  -1.1837   3.3877 H              1 S1                 0.0000
     32 ****         0.9812  -2.5509   1.4310 H              1 S1                 0.0000
     33 ****        -0.5576  -1.8064   1.0480 H              1 S1                 0.0000
     34 ****        -0.5618   0.1371  -0.3929 H              1 S1                 0.0000
     35 ****         0.8208   1.9011  -1.5782 H              1 S1                 0.0000
     36 ****         2.2588   0.9684  -1.2475 H              1 S1                 0.0000
     37 ****         0.0849   0.4046  -3.1466 H              1 S1                 0.0000
     38 ****         0.2593  -0.9631  -4.5420 H              1 S1                 0.0000
     39 ****         2.0191  -4.9576  -7.3610 H              1 S1                 0.0000
     40 ****         0.1700   2.2098   0.8475 H              1 S1                 0.0000
     41 ****         1.6795   1.4411   1.2448 H              1 S1                 0.0000
     42 ****         0.3666   1.2077   3.0633 H              1 S1                 0.0000
     43 ****         1.0444  -1.5455  -0.6337 LP             1 S1                 0.0000
     44 ****         2.0657  -0.7789   0.3841 LP             1 S1                 0.0000
     45 ****         2.9066  -0.9391  -1.6193 LP             1 S1                 0.0000
     46 ****         3.0839  -2.1563  -2.8387 LP             1 S1                 0.0000
     47 ****         3.1755  -3.1129  -3.8217 LP             1 S1                 0.0000
     48 ****         3.6069  -4.9216  -5.5096 LP             1 S1                 0.0000
@<TRIPOS>BOND
    1    1    2 1     
    2    1   21 1     
    3    1   22 1     
    4    1   23 1     
    5    2    3 1     
    6    2    4 1     
    7    2   24 1     
    8    3   25 1     
    9    3   26 1     
   10    3   27 1     
   11    4    5 1     
   12    4   28 1     
   13    4   29 1     
   14    5   20 1     
   15    5    6 1     
   16    5   42 1     
   17    6    7 1     
   18    6   30 1     
   19    6   31 1     
   20    7    8 1     
   21    7   32 1     
   22    7   33 1     
   23    8    9 1     
   24    9   10 1     
   25    9   20 1     
   26    9   34 1     
   27   10   11 1     
   28   10   35 1     
   29   10   36 1     
   30   11   12 am    
   31   11   37 1     
   32   12   13 2     
   33   12   14 am    
   34   14   15 1     
   35   14   38 1     
   36   15   19 1     
   37   15   16 2     
   38   16   17 1     
   39   17   18 2     
   40   18   19 1     
   41   18   39 1     
   42   20   40 1     
   43   20   41 1     
   44    8   43 1     
   45    8   44 1     
   46   13   45 1     
   47   13   46 1     
   48   16   47 1     
   49   17   48 1     
@<TRIPOS>SUBSTRUCTURE
      1 S1             1
@<TRIPOS>SET
LONE_PAIRS      STATIC     ATOMS    <user>   **** ""
6 43 44 45 46 47 48
DONOR_HYDROGENS      STATIC     ATOMS    <user>   **** ""
3 42 37 38
ATOM$BLUE        STATIC     ATOMS    COLORGROUP SYSTEM
6 43 44 45 46 47 48
ATOM$RED        STATIC     ATOMS    COLORGROUP SYSTEM
3 42 37 38
