AV-unprocessed.smi:664|AV-procd|sdf|3251|dock1
  -GOLD-   22720 0203D 1   1.00000     0.00000
 Structure written by MMmdl.
 31 32  0  0  0  0  0  0  0  0  1 V2000
  147.8015  137.8663  155.0486 C   0  0  0  0  0  0  0  0  0  0  0  0
  149.2452  138.2735  155.0188 C   0  0  0  0  0  0  0  0  0  0  0  0
  150.3034  137.3895  154.5692 C   0  0  0  0  0  0  0  0  0  0  0  0
  151.5794  137.8308  154.5704 C   0  0  0  0  0  0  0  0  0  0  0  0
  151.9258  139.1799  155.0127 C   0  0  0  0  0  0  0  0  0  0  0  0
  153.0792  139.6092  155.0233 O   0  0  0  0  0  0  0  0  0  0  0  0
  150.8497  139.9198  155.4120 N   0  0  0  0  0  0  0  0  0  0  0  0
  151.0070  141.3042  155.8747 C   0  0  0  0  0  0  0  0  0  0  0  0
  150.2791  141.5563  157.2129 C   0  0  2  0  0  0  0  0  0  0  0  0
  148.9791  142.0481  156.9497 O   0  0  0  0  0  0  0  0  0  0  0  0
  151.0681  142.5212  158.0854 C   0  0  0  0  0  0  0  0  0  0  0  0
  151.2777  143.8488  157.6543 C   0  0  0  0  0  0  0  0  0  0  0  0
  151.9985  144.7519  158.4598 C   0  0  0  0  0  0  0  0  0  0  0  0
  152.5128  144.3332  159.7019 C   0  0  0  0  0  0  0  0  0  0  0  0
  152.3037  143.0112  160.1401 C   0  0  0  0  0  0  0  0  0  0  0  0
  152.9300  142.4976  161.6635 Cl  0  0  0  0  0  0  0  0  0  0  0  0
  151.5817  142.1082  159.3351 C   0  0  0  0  0  0  0  0  0  0  0  0
  149.5392  139.4692  155.4127 N   0  0  0  0  0  0  0  0  0  0  0  0
  147.6891  136.8000  154.8514 H   0  0  0  0  0  0  0  0  0  0  0  0
  147.2310  138.4082  154.2941 H   0  0  0  0  0  0  0  0  0  0  0  0
  147.3564  138.0726  156.0227 H   0  0  0  0  0  0  0  0  0  0  0  0
  150.0645  136.3895  154.2383 H   0  0  0  0  0  0  0  0  0  0  0  0
  152.3663  137.1714  154.2351 H   0  0  0  0  0  0  0  0  0  0  0  0
  152.0758  141.4757  156.0177 H   0  0  0  0  0  0  0  0  0  0  0  0
  150.7069  142.0342  155.1205 H   0  0  0  0  0  0  0  0  0  0  0  0
  150.1698  140.6167  157.7566 H   0  0  0  0  0  0  0  0  0  0  0  0
  149.0482  142.9527  156.6855 H   0  0  0  0  0  0  0  0  0  0  0  0
  150.8845  144.1812  156.7046 H   0  0  0  0  0  0  0  0  0  0  0  0
  152.1559  145.7668  158.1251 H   0  0  0  0  0  0  0  0  0  0  0  0
  153.0651  145.0275  160.3181 H   0  0  0  0  0  0  0  0  0  0  0  0
  151.4210  141.0970  159.6803 H   0  0  0  0  0  0  0  0  0  0  0  0
  1  2  1  0  0  0  0
  1 19  1  0  0  0  0
  1 20  1  0  0  0  0
  1 21  1  0  0  0  0
  2 18  2  0  0  0  0
  2  3  1  0  0  0  0
  3  4  2  0  0  0  0
  3 22  1  0  0  0  0
  4  5  1  0  0  0  0
  4 23  1  0  0  0  0
  5  6  2  0  0  0  0
  5  7  1  0  0  0  0
  7  8  1  0  0  0  0
  7 18  1  0  0  0  0
  8  9  1  0  0  0  0
  8 24  1  0  0  0  0
  8 25  1  0  0  0  0
  9 10  1  0  0  0  0
  9 11  1  0  0  0  0
  9 26  1  0  0  0  0
 10 27  1  0  0  0  0
 11 17  1  0  0  0  0
 11 12  2  0  0  0  0
 12 13  1  0  0  0  0
 12 28  1  0  0  0  0
 13 14  2  0  0  0  0
 13 29  1  0  0  0  0
 14 15  1  0  0  0  0
 14 30  1  0  0  0  0
 15 16  1  0  0  0  0
 15 17  2  0  0  0  0
 17 31  1  0  0  0  0
M  END
> <s_m_source_file>
AV-unprocessed.smi

> <i_m_source_file_index>
664

> <i_lp_mmshare_version>
43012

> <i_f3d_flags>
0

> <s_epik_input>
W0NIM11jMVtjSF1bY0hdYyg9TyluKG4xKVtDSDJdW0NASF0oW09IXSljMltjSF1bY0hdW2NIXWMoQ2wpW2NIXTI=

> <s_epik_cmdline>
J2VwaWtfcHl0aG9uJywgJy1waCcsICc3LjAnLCAnLXRuJywgJzgnLCAnLW1hJywgJzIwMCcsICctbWV0YWxfYmluZGluZycsICctaW1hZScsICc8aW5maWxlLm1hZT4nLCAnLW9tYWUnLCAnPG91dGZpbGUubWFlPic=

> <r_lp_tautomer_probability>
1

> <r_epik_Ionization_Penalty>
5.38844e-06

> <r_epik_Ionization_Penalty_Charging>
5.19536e-06

> <r_epik_Ionization_Penalty_Neutral>
1.93084e-07

> <r_epik_State_Penalty>
-0

> <r_epik_Charging_Adjusted_Penalty>
5.19536e-06

> <i_epik_Tot_Q>
0

> <i_epik_Tot_abs_Q>
0

> <r_epik_Metal_State_Penalty>
-0

> <b_epik_Metal_Only>
0

> <s_lp_Force_Field>
OPLS_2005

> <r_lp_Energy>
26.5125

> <b_lp_Chiralities_Consistent>
1

> <s_lp_Variant>
AV-unprocessed.smi:664-1

> <Gold.Version>
5.8.1

> <Gold.Id.Protein>
6NUR|6NUR_protein|mol2

> <Gold.PLP.Fitness>
47.3798

> <Gold.PLP.PLP>
-42.5301

> <Gold.PLP.part.hbond>
-2.8671

> <Gold.PLP.part.metal>
0.0000

> <Gold.PLP.part.buried>
-1.9989

> <Gold.PLP.part.nonpolar>
-37.7847

> <Gold.PLP.part.repulsive>
0.0560

> <Gold.PLP.ligand.clash>
0.0000

> <Gold.PLP.ligand.torsion>
0.5799

> <Gold.PLP.Chemscore.Hbond>
2.0000

> <Gold.PLP.Chemscore.CHOScore>
0.0000

> <Gold.PLP.Chemscore.Metal>
0.0000

> <Gold.Chemscore.Hbonds>
donor molecule, donor type, donor heavy atom, donor atom, acceptor molecule, acceptor atom, score
      L1  H    10    27       P1  8028  0.96
      P1  H  7997  8009       L1     6  1.00

> <Gold.PLP.Chemscore.Internal.Correction>
0.0095

> <Gold.Rescore>
     Score         DG    S(hbond)    S(metal)    S(lipo)     H(rot)  DE(clash)    DE(int)     intcor
     20.31     -20.90       2.00        0.00     115.02       1.84       0.10       0.48       ----

> <Gold.Chemscore.Fitness>
20.3141

> <Gold.Chemscore.DG>
-20.8985

> <Gold.Chemscore.ZeroCoef>
-5.4800

> <Gold.Chemscore.Hbond>
1.9975

> <Gold.Chemscore.Metal>
0.0000

> <Gold.Chemscore.Lipo>
115.0212

> <Gold.Chemscore.Internal_Hbond>
0.0000

> <Gold.Chemscore.DEClash>
0.1047

> <Gold.Chemscore.DEInternal>
0.4797

> <Gold.Chemscore.Rot>
1.8400

> <Gold.Chemscore.Internal.Correction>
   9.000000E+99

> <Gold.Chemscore.Hbonds>
donor molecule, donor type, donor heavy atom, donor atom, acceptor molecule, acceptor atom, score
      L1  H    10    27       P1  8028  0.90
      P1  H  7997  8009       L1     6  1.00

> <Gold.Chemscore.Hbond.Weighted>
-6.6715

> <Gold.Chemscore.Metal.Weighted>
-0.0000

> <Gold.Chemscore.Lipo.Weighted>
-13.4575

> <Gold.Chemscore.Internal_Hbond.Weighted>
0.0000

> <Gold.Chemscore.DEClash.Weighted>
0.1047

> <Gold.Chemscore.DEInternal.Weighted>
0.4797

> <Gold.Chemscore.Rot.Weighted>
4.7105

> <Gold.Chemscore.Internal.Correction.Weighted>
   9.000000E+99

> <Gold.Protein.RotatedTorsions>
[ 6907 6896 6895 6894 ] final   81.30 input  -60.11 | X-H torsion
[ 7974 7965 7964 7962 ] final   49.05 input  175.53 | X-H torsion
[ 8008 7997 7996 7995 ] final -136.38 input   59.86 | X-H torsion
[ 10167 10162 10161 10158 ] final   86.95 input  -65.29 | X-H torsion
[ 10718 10713 10712 10709 ] final  -27.93 input   66.30 | X-H torsion
[ 10763 10752 10751 10750 ] final  129.91 input  -60.55 | X-H torsion
[ 11005 11000 10999 10996 ] final  -38.35 input  -57.11 | X-H torsion

> <Gold.Protein.ActiveResidues>
 VAL166  LYS551  ARG553  GLY616  TRP617  ASP618  TYR619  PRO620  LYS621  CYS622 
 ASP623  PHE694  ASN695  SER759  ASP760  ASP761  ALA762  ILE779  LEU786  VAL792 
 PHE793  MET794  SER795  GLU796  ALA797  LYS798  CYS799  TRP800  GLU811  SER814 

> <Gold.Protein.RotatedAtoms>
  152.5264  134.3225  159.9153 H   0  0  0  0  0  0  0  0  0  0  0  0  # atno 6907 bound_to 6896
  151.3174  133.4048  159.2659 H   0  0  0  0  0  0  0  0  0  0  0  0  # atno 6908 bound_to 6896
  150.9987  134.9322  159.7999 H   0  0  0  0  0  0  0  0  0  0  0  0  # atno 6909 bound_to 6896
  146.0146  139.4582  142.9935 H   0  0  0  0  0  0  0  0  0  0  0  0  # atno 7974 bound_to 7965
  155.3943  140.0502  157.3039 H   0  0  0  0  0  0  0  0  0  0  0  0  # atno 8008 bound_to 7997
  154.5021  140.2160  155.9286 H   0  0  0  0  0  0  0  0  0  0  0  0  # atno 8009 bound_to 7997
  156.1480  140.3141  155.8607 H   0  0  0  0  0  0  0  0  0  0  0  0  # atno 8010 bound_to 7997
  139.8823  144.6433  150.8830 H   0  0  0  0  0  0  0  0  0  0  0  0  # atno 10167 bound_to 10162
  156.4318  130.4446  149.7112 H   0  0  0  0  0  0  0  0  0  0  0  0  # atno 10718 bound_to 10713
  153.7495  135.3212  155.3318 H   0  0  0  0  0  0  0  0  0  0  0  0  # atno 10763 bound_to 10752
  154.8268  135.4564  154.0946 H   0  0  0  0  0  0  0  0  0  0  0  0  # atno 10764 bound_to 10752
  153.2145  135.6940  153.8156 H   0  0  0  0  0  0  0  0  0  0  0  0  # atno 10765 bound_to 10752
  141.0021  133.6950  156.2041 H   0  0  0  0  0  0  0  0  0  0  0  0  # atno 11005 bound_to 11000
  145.7289  141.0049  143.1362 LP  0  0  0  0  0  0  0  0  0  0  0  0  # atno 17320 bound_to 7965
  144.6966  139.8960  143.7456 LP  0  0  0  0  0  0  0  0  0  0  0  0  # atno 17321 bound_to 7965
  140.7742  143.3576  151.1891 LP  0  0  0  0  0  0  0  0  0  0  0  0  # atno 17342 bound_to 10162
  139.7185  143.9262  152.2976 LP  0  0  0  0  0  0  0  0  0  0  0  0  # atno 17343 bound_to 10162
  156.4012  130.7676  151.2683 LP  0  0  0  0  0  0  0  0  0  0  0  0  # atno 17370 bound_to 10713
  157.7508  131.0239  150.3854 LP  0  0  0  0  0  0  0  0  0  0  0  0  # atno 17371 bound_to 10713
  140.6873  134.4704  157.5589 LP  0  0  0  0  0  0  0  0  0  0  0  0  # atno 17394 bound_to 11000
  139.9044  134.8482  156.1765 LP  0  0  0  0  0  0  0  0  0  0  0  0  # atno 17395 bound_to 11000

$$$$
