AV-unprocessed.smi:3032|AV-procd|sdf|11561|dock1
  -GOLD-   2272016523D 1   1.00000     0.00000
 Structure written by MMmdl.
 37 38  0  0  0  0  0  0  0  0  1 V2000
  151.9788  145.5487  159.2056 C   0  0  0  0  0  0  0  0  0  0  0  0
  152.0863  144.1367  159.7988 C   0  0  2  0  0  0  0  0  0  0  0  0
  152.4105  144.1794  161.3036 C   0  0  0  0  0  0  0  0  0  0  0  0
  152.4948  142.7674  161.9032 C   0  0  0  0  0  0  0  0  0  0  0  0
  153.4996  141.8808  161.1402 C   0  0  0  0  0  0  0  0  0  0  0  0
  153.2698  141.8568  159.6087 C   0  0  1  0  0  0  0  0  0  0  0  0
  152.0897  140.9713  159.1655 C   0  0  0  0  0  0  0  0  0  0  0  0
  150.9287  141.3767  159.2186 O   0  0  0  0  0  0  0  0  0  0  0  0
  152.4117  139.7453  158.7256 N   0  0  0  0  0  0  0  0  0  0  0  0
  151.4686  138.7660  158.1938 C   0  0  0  0  0  0  0  0  0  0  0  0
  152.0432  137.9362  157.0260 C   0  0  0  0  0  0  0  0  0  0  0  0
  151.2734  138.0725  155.7497 C   0  0  0  0  0  0  0  0  0  0  0  0
  150.8567  136.9978  155.0779 N   0  0  0  0  0  0  0  0  0  0  0  0
  150.2620  137.5518  153.9993 N   0  0  0  0  0  0  0  0  0  0  0  0
  150.3627  138.8771  154.0868 C   0  0  0  0  0  0  0  0  0  0  0  0
  150.9995  139.2850  155.1758 N   0  0  0  0  0  0  0  0  0  0  0  0
  153.1444  143.2951  159.0566 C   0  0  0  0  0  0  0  0  0  0  0  0
  152.9214  146.0896  159.2947 H   0  0  0  0  0  0  0  0  0  0  0  0
  151.2105  146.1306  159.7153 H   0  0  0  0  0  0  0  0  0  0  0  0
  151.7144  145.5107  158.1485 H   0  0  0  0  0  0  0  0  0  0  0  0
  151.1131  143.6601  159.6735 H   0  0  0  0  0  0  0  0  0  0  0  0
  153.3571  144.6979  161.4625 H   0  0  0  0  0  0  0  0  0  0  0  0
  151.6511  144.7547  161.8343 H   0  0  0  0  0  0  0  0  0  0  0  0
  152.7870  142.8313  162.9517 H   0  0  0  0  0  0  0  0  0  0  0  0
  151.5044  142.3131  161.8985 H   0  0  0  0  0  0  0  0  0  0  0  0
  154.5070  142.2514  161.3337 H   0  0  0  0  0  0  0  0  0  0  0  0
  153.4760  140.8675  161.5434 H   0  0  0  0  0  0  0  0  0  0  0  0
  154.1600  141.4099  159.1628 H   0  0  0  0  0  0  0  0  0  0  0  0
  153.3876  139.4860  158.7205 H   0  0  0  0  0  0  0  0  0  0  0  0
  151.2066  138.0963  159.0130 H   0  0  0  0  0  0  0  0  0  0  0  0
  150.5436  139.2593  157.8917 H   0  0  0  0  0  0  0  0  0  0  0  0
  153.0806  138.2218  156.8491 H   0  0  0  0  0  0  0  0  0  0  0  0
  152.0675  136.8816  157.3037 H   0  0  0  0  0  0  0  0  0  0  0  0
  149.9676  139.5534  153.3433 H   0  0  0  0  0  0  0  0  0  0  0  0
  152.9139  143.2687  157.9906 H   0  0  0  0  0  0  0  0  0  0  0  0
  154.1147  143.7879  159.1336 H   0  0  0  0  0  0  0  0  0  0  0  0
  149.8264  137.0103  153.2664 H   0  0  0  0  0  0  0  0  0  0  0  0
  1  2  1  0  0  0  0
  1 18  1  0  0  0  0
  1 19  1  0  0  0  0
  1 20  1  0  0  0  0
  2 17  1  0  0  0  0
  2  3  1  0  0  0  0
  2 21  1  0  0  0  0
  3  4  1  0  0  0  0
  3 22  1  0  0  0  0
  3 23  1  0  0  0  0
  4  5  1  0  0  0  0
  4 24  1  0  0  0  0
  4 25  1  0  0  0  0
  5  6  1  0  0  0  0
  5 26  1  0  0  0  0
  5 27  1  0  0  0  0
  6  7  1  0  0  0  0
  6 17  1  0  0  0  0
  6 28  1  0  0  0  0
  7  8  2  0  0  0  0
  7  9  1  0  0  0  0
  9 10  1  0  0  0  0
  9 29  1  0  0  0  0
 10 11  1  0  0  0  0
 10 30  1  0  0  0  0
 10 31  1  0  0  0  0
 11 32  1  0  0  0  0
 11 33  1  0  0  0  0
 11 12  1  0  0  0  0
 12 16  1  0  0  0  0
 12 13  2  0  0  0  0
 13 14  1  0  0  0  0
 14 15  1  0  0  0  0
 14 37  1  0  0  0  0
 15 16  2  0  0  0  0
 15 34  1  0  0  0  0
 17 35  1  0  0  0  0
 17 36  1  0  0  0  0
M  END
> <s_m_source_file>
AV-unprocessed.smi

> <i_m_source_file_index>
3032

> <i_lp_mmshare_version>
43012

> <i_f3d_flags>
0

> <s_epik_input>
W0NIM11bQ0BASF0xW0NIMl1bQ0gyXVtDSDJdW0NASF0oW0NIMl0xKUMoPU8pW05IXVtDSDJdW0NIMl1jMm5uW2NIXVtuSF0y

> <s_epik_cmdline>
J2VwaWtfcHl0aG9uJywgJy1waCcsICc3LjAnLCAnLXRuJywgJzgnLCAnLW1hJywgJzIwMCcsICctbWV0YWxfYmluZGluZycsICctaW1hZScsICc8aW5maWxlLm1hZT4nLCAnLW9tYWUnLCAnPG91dGZpbGUubWFlPic=

> <r_epik_Ionization_Penalty>
0.000752022

> <r_epik_Ionization_Penalty_Charging>
0

> <r_epik_Ionization_Penalty_Neutral>
0.000752022

> <r_epik_State_Penalty>
0.639926

> <r_epik_Charging_Adjusted_Penalty>
0.639926

> <i_epik_Tot_Q>
0

> <i_epik_Tot_abs_Q>
0

> <r_epik_Metal_State_Penalty>
0.76532

> <b_epik_Metal_Only>
0

> <s_lp_Force_Field>
OPLS_2005

> <r_lp_Energy>
7.11884

> <b_lp_Chiralities_Consistent>
1

> <s_lp_Variant>
AV-unprocessed.smi:3032-5

> <Gold.Version>
5.8.1

> <Gold.Id.Protein>
6NUR|6NUR_protein|mol2

> <Gold.PLP.Fitness>
45.1522

> <Gold.PLP.PLP>
-39.8863

> <Gold.PLP.part.hbond>
-3.6966

> <Gold.PLP.part.metal>
0.0000

> <Gold.PLP.part.buried>
-6.8451

> <Gold.PLP.part.nonpolar>
-31.5579

> <Gold.PLP.part.repulsive>
0.3171

> <Gold.PLP.ligand.clash>
0.0000

> <Gold.PLP.ligand.torsion>
1.0816

> <Gold.PLP.Chemscore.Hbond>
1.4500

> <Gold.PLP.Chemscore.CHOScore>
1.0000

> <Gold.PLP.Chemscore.Metal>
0.0000

> <Gold.Chemscore.Hbonds>
donor molecule, donor type, donor heavy atom, donor atom, acceptor molecule, acceptor atom, score
      L1  H    14    37       P1  7948  1.00
      L1  C    15    34       P1  7957  1.00

> <Gold.PLP.Chemscore.Internal.Correction>
0.0791

> <Gold.Rescore>
     Score         DG    S(hbond)    S(metal)    S(lipo)     H(rot)  DE(clash)    DE(int)     intcor
     12.81     -14.02       0.96        0.00      94.83       2.25       0.09       1.12       ----

> <Gold.Chemscore.Fitness>
12.8133

> <Gold.Chemscore.DG>
-14.0179

> <Gold.Chemscore.ZeroCoef>
-5.4800

> <Gold.Chemscore.Hbond>
0.9591

> <Gold.Chemscore.Metal>
0.0000

> <Gold.Chemscore.Lipo>
94.8287

> <Gold.Chemscore.Internal_Hbond>
0.0000

> <Gold.Chemscore.DEClash>
0.0892

> <Gold.Chemscore.DEInternal>
1.1154

> <Gold.Chemscore.Rot>
2.2501

> <Gold.Chemscore.Internal.Correction>
   9.000000E+99

> <Gold.Chemscore.Hbonds>
donor molecule, donor type, donor heavy atom, donor atom, acceptor molecule, acceptor atom, score
      L1  H    14    37       P1  7948  0.40

> <Gold.Chemscore.Hbond.Weighted>
-3.2033

> <Gold.Chemscore.Metal.Weighted>
-0.0000

> <Gold.Chemscore.Lipo.Weighted>
-11.0950

> <Gold.Chemscore.Internal_Hbond.Weighted>
0.0000

> <Gold.Chemscore.DEClash.Weighted>
0.0892

> <Gold.Chemscore.DEInternal.Weighted>
1.1154

> <Gold.Chemscore.Rot.Weighted>
5.7603

> <Gold.Chemscore.Internal.Correction.Weighted>
   9.000000E+99

> <Gold.Protein.RotatedTorsions>
[ 6907 6896 6895 6894 ] final  153.30 input  -60.11 | X-H torsion
[ 7974 7965 7964 7962 ] final   76.57 input  175.53 | X-H torsion
[ 8008 7997 7996 7995 ] final -170.43 input   59.86 | X-H torsion
[ 10167 10162 10161 10158 ] final  159.30 input  -65.29 | X-H torsion
[ 10718 10713 10712 10709 ] final   13.12 input   66.30 | X-H torsion
[ 10763 10752 10751 10750 ] final  175.56 input  -60.55 | X-H torsion
[ 11005 11000 10999 10996 ] final -104.10 input  -57.11 | X-H torsion

> <Gold.Protein.ActiveResidues>
 VAL166  LYS551  ARG553  GLY616  TRP617  ASP618  TYR619  PRO620  LYS621  CYS622 
 ASP623  PHE694  ASN695  SER759  ASP760  ASP761  ALA762  ILE779  LEU786  VAL792 
 PHE793  MET794  SER795  GLU796  ALA797  LYS798  CYS799  TRP800  GLU811  SER814 

> <Gold.Protein.RotatedAtoms>
  152.0746  133.4123  159.4474 H   0  0  0  0  0  0  0  0  0  0  0  0  # atno 6907 bound_to 6896
  150.6863  134.3052  159.4732 H   0  0  0  0  0  0  0  0  0  0  0  0  # atno 6908 bound_to 6896
  152.0887  134.9421  160.0623 H   0  0  0  0  0  0  0  0  0  0  0  0  # atno 6909 bound_to 6896
  145.7011  139.2583  143.1705 H   0  0  0  0  0  0  0  0  0  0  0  0  # atno 7974 bound_to 7965
  155.9182  140.1069  157.1227 H   0  0  0  0  0  0  0  0  0  0  0  0  # atno 8008 bound_to 7997
  154.4050  140.1261  156.4710 H   0  0  0  0  0  0  0  0  0  0  0  0  # atno 8009 bound_to 7997
  155.7228  140.3469  155.5026 H   0  0  0  0  0  0  0  0  0  0  0  0  # atno 8010 bound_to 7997
  139.4831  144.4743  151.8533 H   0  0  0  0  0  0  0  0  0  0  0  0  # atno 10167 bound_to 10162
  157.0201  130.6151  149.5720 H   0  0  0  0  0  0  0  0  0  0  0  0  # atno 10718 bound_to 10713
  154.4693  135.2770  155.1654 H   0  0  0  0  0  0  0  0  0  0  0  0  # atno 10763 bound_to 10752
  154.3410  135.6170  153.5600 H   0  0  0  0  0  0  0  0  0  0  0  0  # atno 10764 bound_to 10752
  152.9862  135.5788  154.5071 H   0  0  0  0  0  0  0  0  0  0  0  0  # atno 10765 bound_to 10752
  141.1116  133.8695  157.1568 H   0  0  0  0  0  0  0  0  0  0  0  0  # atno 11005 bound_to 11000
  146.0797  140.7778  142.9648 LP  0  0  0  0  0  0  0  0  0  0  0  0  # atno 17320 bound_to 7965
  144.6968  140.3469  143.7189 LP  0  0  0  0  0  0  0  0  0  0  0  0  # atno 17321 bound_to 7965
  140.4214  144.2238  150.5887 LP  0  0  0  0  0  0  0  0  0  0  0  0  # atno 17342 bound_to 10162
  140.4870  143.2360  151.8874 LP  0  0  0  0  0  0  0  0  0  0  0  0  # atno 17343 bound_to 10162
  156.0105  130.5196  150.7973 LP  0  0  0  0  0  0  0  0  0  0  0  0  # atno 17370 bound_to 10713
  157.5256  131.0934  151.0022 LP  0  0  0  0  0  0  0  0  0  0  0  0  # atno 17371 bound_to 10713
  140.0013  135.0026  157.0196 LP  0  0  0  0  0  0  0  0  0  0  0  0  # atno 17394 bound_to 11000
  140.4760  134.1338  155.7210 LP  0  0  0  0  0  0  0  0  0  0  0  0  # atno 17395 bound_to 11000

$$$$
